REMARK SMILES CC1=C(C)C[C@@H](C(=O)OCCOCCOCCOCCOC(=O)c2ccc(-c3c4nc(c(-c5ccccc5)c5ccc([nH]5)c(-c5ccccc5)c5nc(c(-c6ccccc6)c6ccc3[nH]6)C=C5)C=C4)cc2)[C@@H](C(=O)N2CCN(c3cccc(C(F)(F)F)c3)CC2)C1
REMARK SMILES IDX 14 1 13 2 12 3 11 4 10 5 9 6 7 7 8 8 6 9 1 10 2 11 3 12
REMARK SMILES IDX 91 13 4 14 5 15 72 16 73 17 74 18 75 19 76 20 90 21 77 22
REMARK SMILES IDX 89 23 78 24 79 25 80 26 88 27 81 28 83 29 82 30 84 31 85 32
REMARK SMILES IDX 86 33 87 34 15 35 16 36 17 37 18 38 19 39 20 40 21 41 22 42
REMARK SMILES IDX 23 43 24 44 25 45 71 46 26 47 70 48 27 49 28 50 29 51 64 52
REMARK SMILES IDX 30 53 69 54 63 55 65 56 31 57 68 58 62 59 61 60 32 62 54 63
REMARK SMILES IDX 39 64 53 65 40 66 43 67 52 68 66 69 41 70 42 71 51 73 67 74
REMARK SMILES IDX 44 75 33 76 34 77 38 78 35 79 37 80 36 81 55 82 56 83 60 84
REMARK SMILES IDX 57 85 59 86 58 87 45 88 46 89 50 90 47 91 49 92 48 93
REMARK H PARENT 65 61 43 72
REMARK Flexibility Score: inf
ROOT
ATOM      1  C   UNL     1       1.368  -0.663   7.086  1.00  0.00     0.188 C 
ENDROOT
BRANCH   1   2
ATOM      2  C   UNL     1       1.212  -2.163   6.830  1.00  0.00     0.188 C 
BRANCH   2   3
ATOM      3  O   UNL     1       2.397  -2.946   6.903  1.00  0.00    -0.376 OA
BRANCH   3   4
ATOM      4  C   UNL     1       3.386  -2.675   5.919  1.00  0.00     0.202 C 
BRANCH   4   5
ATOM      5  C   UNL     1       3.176  -3.434   4.601  1.00  0.00     0.261 C 
BRANCH   5   6
ATOM      6  O   UNL     1       2.213  -2.811   3.714  1.00  0.00    -0.463 OA
BRANCH   6   7
ATOM      7  C   UNL     1       0.987  -3.381   3.642  1.00  0.00     0.310 C 
ATOM      8  O   UNL     1       0.631  -4.337   4.324  1.00  0.00    -0.252 OA
BRANCH   7   9
ATOM      9  C   UNL     1       0.124  -2.840   2.511  1.00  0.00     0.116 C 
ATOM     10  C   UNL     1       1.280  -0.134  -0.822  1.00  0.00     0.039 C 
ATOM     11  C   UNL     1       0.801  -1.151   0.177  1.00  0.00    -0.074 C 
ATOM     12  C   UNL     1       1.229  -2.428   0.205  1.00  0.00    -0.073 C 
ATOM     13  C   UNL     1      -0.316  -0.717   1.085  1.00  0.00     0.045 C 
ATOM     14  C   UNL     1       2.195  -3.022  -0.785  1.00  0.00     0.039 C 
ATOM     15  C   UNL     1       0.650  -3.417   1.184  1.00  0.00     0.046 C 
ATOM     16  C   UNL     1      -0.315  -1.359   2.480  1.00  0.00     0.097 C 
BRANCH  16  17
ATOM     17  C   UNL     1       0.181  -0.412   3.576  1.00  0.00     0.227 C 
ATOM     18  O   UNL     1      -0.397  -0.370   4.661  1.00  0.00    -0.275 OA
ATOM     19  N   UNL     1       1.187   0.476   3.243  1.00  0.00    -0.339 N 
ATOM     20  C   UNL     1       2.513   0.331   3.835  1.00  0.00     0.141 C 
ATOM     21  C   UNL     1       0.838   1.891   3.106  1.00  0.00     0.141 C 
ATOM     22  C   UNL     1       3.595   0.971   2.971  1.00  0.00     0.138 C 
ATOM     23  C   UNL     1       1.876   2.632   2.242  1.00  0.00     0.138 C 
ATOM     24  N   UNL     1       3.251   2.378   2.722  1.00  0.00    -0.368 N 
BRANCH  24  25
ATOM     25  C   UNL     1       4.240   3.249   2.298  1.00  0.00     0.037 A 
ATOM     26  C   UNL     1       5.354   2.827   1.570  1.00  0.00     0.026 A 
ATOM     27  C   UNL     1       4.149   4.609   2.619  1.00  0.00     0.039 A 
ATOM     28  C   UNL     1       6.329   3.733   1.158  1.00  0.00     0.003 A 
ATOM     29  C   UNL     1       5.138   5.532   2.244  1.00  0.00     0.058 A 
ATOM     30  C   UNL     1       6.233   5.079   1.504  1.00  0.00     0.013 A 
BRANCH  29  31
ATOM     31  C   UNL     1       5.036   6.976   2.655  1.00  0.00     0.416 C 
ATOM     32  F   UNL     1       5.985   7.340   3.556  1.00  0.00    -0.166 F 
ATOM     33  F   UNL     1       5.162   7.830   1.602  1.00  0.00    -0.166 F 
ATOM     34  F   UNL     1       3.840   7.285   3.238  1.00  0.00    -0.166 F 
ENDBRANCH  29  31
ENDBRANCH  24  25
ENDBRANCH  16  17
ENDBRANCH   7   9
ENDBRANCH   6   7
ENDBRANCH   5   6
ENDBRANCH   4   5
ENDBRANCH   3   4
ENDBRANCH   2   3
ENDBRANCH   1   2
BRANCH   1  35
ATOM     35  O   UNL     1       2.561  -0.239   7.742  1.00  0.00    -0.377 OA
BRANCH  35  36
ATOM     36  C   UNL     1       2.628  -0.575   9.125  1.00  0.00     0.188 C 
BRANCH  36  37
ATOM     37  C   UNL     1       1.765   0.335  10.003  1.00  0.00     0.188 C 
BRANCH  37  38
ATOM     38  O   UNL     1       0.381   0.133   9.719  1.00  0.00    -0.376 OA
BRANCH  38  39
ATOM     39  C   UNL     1      -0.398   1.329   9.710  1.00  0.00     0.202 C 
BRANCH  39  40
ATOM     40  C   UNL     1      -0.292   2.197   8.439  1.00  0.00     0.261 C 
BRANCH  40  41
ATOM     41  O   UNL     1       1.041   2.420   7.939  1.00  0.00    -0.460 OA
BRANCH  41  42
ATOM     42  C   UNL     1       1.669   3.528   8.383  1.00  0.00     0.338 C 
ATOM     43  O   UNL     1       1.270   4.303   9.234  1.00  0.00    -0.246 OA
BRANCH  42  44
ATOM     44  C   UNL     1       2.917   3.747   7.622  1.00  0.00     0.060 A 
ATOM     45  C   UNL     1       4.111   3.107   7.975  1.00  0.00     0.016 A 
ATOM     46  C   UNL     1       2.926   4.760   6.663  1.00  0.00     0.016 A 
ATOM     47  C   UNL     1       5.331   3.536   7.422  1.00  0.00     0.010 A 
ATOM     48  C   UNL     1       4.138   5.170   6.103  1.00  0.00     0.010 A 
ATOM     49  C   UNL     1       5.360   4.601   6.510  1.00  0.00    -0.014 A 
BRANCH  49  50
ATOM     50  C   UNL     1       6.627   5.280   6.103  1.00  0.00     0.031 A 
ATOM     51  C   UNL     1       6.885   6.684   6.602  1.00  0.00     0.074 A 
ATOM     52  C   UNL     1       7.510   4.723   5.250  1.00  0.00     0.049 A 
ATOM     53  N   UNL     1       7.805   7.545   6.244  1.00  0.00    -0.248 NA
ATOM     54  C   UNL     1       5.967   7.184   7.639  1.00  0.00     0.031 C 
ATOM     55  C   UNL     1       7.436   3.373   4.699  1.00  0.00     0.029 A 
ATOM     56  N   UNL     1       8.624   5.270   4.651  1.00  0.00    -0.354 N 
ATOM     57  C   UNL     1       7.562   8.691   6.993  1.00  0.00     0.074 A 
ATOM     58  C   UNL     1       6.386   8.431   7.794  1.00  0.00     0.031 C 
ATOM     59  C   UNL     1       8.426   3.214   3.801  1.00  0.00     0.029 A 
ATOM     60  C   UNL     1       9.176   4.463   3.684  1.00  0.00     0.049 A 
ATOM     61  H   UNL     1       8.990   6.152   4.892  1.00  0.00     0.167 HD
ATOM     62  C   UNL     1       8.261   9.852   7.034  1.00  0.00     0.031 A 
ATOM     63  C   UNL     1      10.128   4.721   2.765  1.00  0.00     0.031 A 
ATOM     64  C   UNL     1       9.426  10.129   6.239  1.00  0.00     0.049 A 
ATOM     65  C   UNL     1      10.795   6.065   2.717  1.00  0.00     0.074 A 
ATOM     66  C   UNL     1      10.268  11.227   6.291  1.00  0.00     0.029 A 
ATOM     67  N   UNL     1       9.899   9.308   5.230  1.00  0.00    -0.354 N 
ATOM     68  N   UNL     1      10.570   7.129   3.445  1.00  0.00    -0.248 NA
ATOM     69  C   UNL     1      11.864   6.232   1.718  1.00  0.00     0.031 C 
ATOM     70  C   UNL     1      11.221  11.095   5.275  1.00  0.00     0.029 A 
ATOM     71  C   UNL     1      11.003   9.889   4.629  1.00  0.00     0.049 A 
ATOM     72  H   UNL     1       9.508   8.441   4.976  1.00  0.00     0.167 HD
ATOM     73  C   UNL     1      11.504   8.071   3.033  1.00  0.00     0.074 A 
ATOM     74  C   UNL     1      12.265   7.472   1.958  1.00  0.00     0.031 C 
ATOM     75  C   UNL     1      11.739   9.305   3.540  1.00  0.00     0.031 A 
BRANCH  62  76
ATOM     76  C   UNL     1       7.770  10.916   7.976  1.00  0.00    -0.014 A 
ATOM     77  C   UNL     1       7.867  10.754   9.368  1.00  0.00     0.009 A 
ATOM     78  C   UNL     1       7.219  12.101   7.467  1.00  0.00     0.009 A 
ATOM     79  C   UNL     1       7.375  11.735  10.231  1.00  0.00     0.001 A 
ATOM     80  C   UNL     1       6.754  13.094   8.332  1.00  0.00     0.001 A 
ATOM     81  C   UNL     1       6.820  12.905   9.712  1.00  0.00     0.000 A 
ENDBRANCH  62  76
BRANCH  63  82
ATOM     82  C   UNL     1      10.488   3.703   1.746  1.00  0.00    -0.014 A 
ATOM     83  C   UNL     1      11.461   2.732   2.008  1.00  0.00     0.009 A 
ATOM     84  C   UNL     1       9.893   3.747   0.476  1.00  0.00     0.009 A 
ATOM     85  C   UNL     1      11.818   1.811   1.018  1.00  0.00     0.001 A 
ATOM     86  C   UNL     1      10.234   2.813  -0.503  1.00  0.00     0.001 A 
ATOM     87  C   UNL     1      11.198   1.846  -0.231  1.00  0.00     0.000 A 
ENDBRANCH  63  82
BRANCH  75  88
ATOM     88  C   UNL     1      12.915  10.059   2.990  1.00  0.00    -0.014 A 
ATOM     89  C   UNL     1      12.870  10.691   1.740  1.00  0.00     0.009 A 
ATOM     90  C   UNL     1      14.087  10.146   3.758  1.00  0.00     0.009 A 
ATOM     91  C   UNL     1      13.989  11.376   1.258  1.00  0.00     0.001 A 
ATOM     92  C   UNL     1      15.194  10.850   3.286  1.00  0.00     0.001 A 
ATOM     93  C   UNL     1      15.148  11.458   2.033  1.00  0.00     0.000 A 
ENDBRANCH  75  88
ENDBRANCH  49  50
ENDBRANCH  42  44
ENDBRANCH  41  42
ENDBRANCH  40  41
ENDBRANCH  39  40
ENDBRANCH  38  39
ENDBRANCH  37  38
ENDBRANCH  36  37
ENDBRANCH  35  36
ENDBRANCH   1  35
TORSDOF 23
