REMARK SMILES COc1ccc(CCN2/C(=[NH+]/C(=O)CCC(=O)OCCOCCOCCOCCOC(=O)c3ccc(-c4c5nc(c(-c6ccccc6)c6ccc([nH]6)c(-c6ccccc6)c6nc(c(-c7ccccc7)c7ccc4[nH]7)C=C6)C=C5)cc3)S[C@@H]3CS(=O)(=O)C[C@@H]32)cc1
REMARK SMILES IDX 22 1 21 2 20 3 19 4 18 5 16 6 17 7 15 8 14 9 12 10 9 11
REMARK SMILES IDX 10 12 88 13 11 14 81 15 82 16 87 17 83 19 84 20 13 21 85 22
REMARK SMILES IDX 86 23 8 24 7 25 6 26 3 27 4 28 90 29 5 30 89 31 2 32 1 33
REMARK SMILES IDX 23 34 24 35 25 36 26 37 27 38 28 39 29 40 30 41 31 42 32 43
REMARK SMILES IDX 33 44 34 45 80 46 35 47 79 48 36 49 37 50 38 51 73 52 39 53
REMARK SMILES IDX 78 54 72 55 74 56 40 57 77 58 71 59 70 60 41 62 63 63 48 64
REMARK SMILES IDX 62 65 49 66 52 67 61 68 75 69 50 70 51 71 60 73 76 74 53 75
REMARK SMILES IDX 42 76 43 77 47 78 44 79 46 80 45 81 64 82 65 83 69 84 66 85
REMARK SMILES IDX 68 86 67 87 54 88 55 89 59 90 56 91 58 92 57 93
REMARK H PARENT 11 18 74 61 52 72
REMARK Flexibility Score: inf
ROOT
ATOM      1  C   UNL     1       3.772   7.054   9.736  1.00  0.00     0.188 C 
ENDROOT
BRANCH   1   2
ATOM      2  O   UNL     1       4.236   5.844   9.185  1.00  0.00    -0.376 OA
BRANCH   2   3
ATOM      3  C   UNL     1       3.728   4.577   9.563  1.00  0.00     0.202 C 
BRANCH   3   4
ATOM      4  C   UNL     1       2.436   4.397  10.360  1.00  0.00     0.261 C 
BRANCH   4   5
ATOM      5  O   UNL     1       1.452   5.406  10.119  1.00  0.00    -0.463 OA
BRANCH   5   6
ATOM      6  C   UNL     1       0.740   5.760  11.211  1.00  0.00     0.306 C 
ATOM      7  O   UNL     1       0.949   5.329  12.342  1.00  0.00    -0.252 OA
BRANCH   6   8
ATOM      8  C   UNL     1      -0.295   6.828  10.988  1.00  0.00     0.135 C 
BRANCH   8   9
ATOM      9  C   UNL     1      -0.743   7.310   9.623  1.00  0.00     0.139 C 
BRANCH   9  10
ATOM     10  C   UNL     1      -1.206   6.374   8.525  1.00  0.00     0.308 C 
ATOM     11  N   UNL     1      -0.196   3.182   6.963  1.00  0.00    -0.251 N 
ATOM     12  C   UNL     1      -0.779   4.440   7.273  1.00  0.00     0.314 C 
ATOM     13  C   UNL     1      -1.186   2.241   6.386  1.00  0.00     0.206 C 
ATOM     14  N   UNL     1      -0.401   5.297   8.170  1.00  0.00    -0.205 N 
ATOM     15  S   UNL     1      -2.293   4.558   6.342  1.00  0.00    -0.030 SA
ATOM     16  C   UNL     1      -2.584   2.825   6.625  1.00  0.00     0.120 C 
ATOM     17  C   UNL     1      -1.224   0.844   6.980  1.00  0.00     0.187 C 
ATOM     18  H   UNL     1       0.473   5.184   8.608  1.00  0.00     0.316 HD
ATOM     19  C   UNL     1      -2.972   2.531   8.064  1.00  0.00     0.156 C 
ATOM     20  S   UNL     1      -2.439   0.856   8.271  1.00  0.00     0.155 S 
ATOM     21  O   UNL     1      -2.271   6.700   7.997  1.00  0.00    -0.247 OA
ATOM     22  O   UNL     1      -1.767   0.720   9.544  1.00  0.00    -0.229 OA
ATOM     23  O   UNL     1      -3.527  -0.012   7.869  1.00  0.00    -0.229 OA
BRANCH  11  24
ATOM     24  C   UNL     1       1.217   3.124   6.486  1.00  0.00     0.242 C 
BRANCH  24  25
ATOM     25  C   UNL     1       1.898   1.743   6.219  1.00  0.00     0.081 C 
BRANCH  25  26
ATOM     26  C   UNL     1       1.965   1.202   4.792  1.00  0.00    -0.044 A 
ATOM     27  C   UNL     1       2.125   0.373   2.066  1.00  0.00     0.118 A 
ATOM     28  C   UNL     1       0.931   0.277   2.761  1.00  0.00     0.046 A 
ATOM     29  C   UNL     1       3.262   0.786   2.757  1.00  0.00     0.046 A 
ATOM     30  C   UNL     1       0.866   0.658   4.115  1.00  0.00     0.007 A 
ATOM     31  C   UNL     1       3.188   1.191   4.101  1.00  0.00     0.007 A 
BRANCH  27  32
ATOM     32  O   UNL     1       2.305   0.170   0.731  1.00  0.00    -0.497 OA
ATOM     33  C   UNL     1       1.405  -0.694   0.046  1.00  0.00     0.278 C 
ENDBRANCH  27  32
ENDBRANCH  25  26
ENDBRANCH  24  25
ENDBRANCH  11  24
ENDBRANCH   9  10
ENDBRANCH   8   9
ENDBRANCH   6   8
ENDBRANCH   5   6
ENDBRANCH   4   5
ENDBRANCH   3   4
ENDBRANCH   2   3
ENDBRANCH   1   2
BRANCH   1  34
ATOM     34  C   UNL     1       2.719   7.842   8.933  1.00  0.00     0.188 C 
BRANCH  34  35
ATOM     35  O   UNL     1       2.467   7.695   7.546  1.00  0.00    -0.377 OA
BRANCH  35  36
ATOM     36  C   UNL     1       2.731   6.454   6.934  1.00  0.00     0.188 C 
BRANCH  36  37
ATOM     37  C   UNL     1       4.159   6.318   6.384  1.00  0.00     0.188 C 
BRANCH  37  38
ATOM     38  O   UNL     1       5.061   7.403   6.479  1.00  0.00    -0.376 OA
BRANCH  38  39
ATOM     39  C   UNL     1       4.661   8.736   6.217  1.00  0.00     0.202 C 
BRANCH  39  40
ATOM     40  C   UNL     1       3.598   9.142   5.176  1.00  0.00     0.261 C 
BRANCH  40  41
ATOM     41  O   UNL     1       2.816   8.127   4.545  1.00  0.00    -0.460 OA
BRANCH  41  42
ATOM     42  C   UNL     1       3.374   7.509   3.489  1.00  0.00     0.338 C 
ATOM     43  O   UNL     1       4.510   7.650   3.054  1.00  0.00    -0.246 OA
BRANCH  42  44
ATOM     44  C   UNL     1       2.410   6.510   2.992  1.00  0.00     0.060 A 
ATOM     45  C   UNL     1       2.758   5.160   3.021  1.00  0.00     0.016 A 
ATOM     46  C   UNL     1       1.184   6.911   2.449  1.00  0.00     0.016 A 
ATOM     47  C   UNL     1       1.888   4.218   2.475  1.00  0.00     0.010 A 
ATOM     48  C   UNL     1       0.327   5.960   1.880  1.00  0.00     0.010 A 
ATOM     49  C   UNL     1       0.687   4.606   1.866  1.00  0.00    -0.014 A 
BRANCH  49  50
ATOM     50  C   UNL     1      -0.052   3.613   1.041  1.00  0.00     0.031 A 
ATOM     51  C   UNL     1       0.409   3.375  -0.363  1.00  0.00     0.074 A 
ATOM     52  C   UNL     1      -1.076   2.889   1.527  1.00  0.00     0.049 A 
ATOM     53  N   UNL     1      -0.101   2.580  -1.268  1.00  0.00    -0.248 NA
ATOM     54  C   UNL     1       1.562   4.164  -0.822  1.00  0.00     0.031 C 
ATOM     55  C   UNL     1      -1.601   3.015   2.874  1.00  0.00     0.029 A 
ATOM     56  N   UNL     1      -1.815   1.865   0.976  1.00  0.00    -0.354 N 
ATOM     57  C   UNL     1       0.613   2.842  -2.428  1.00  0.00     0.074 A 
ATOM     58  C   UNL     1       1.625   3.821  -2.099  1.00  0.00     0.031 C 
ATOM     59  C   UNL     1      -2.486   2.027   3.085  1.00  0.00     0.029 A 
ATOM     60  C   UNL     1      -2.641   1.233   1.878  1.00  0.00     0.049 A 
ATOM     61  H   UNL     1      -1.759   1.610   0.027  1.00  0.00     0.167 HD
ATOM     62  C   UNL     1       0.393   2.352  -3.668  1.00  0.00     0.031 A 
ATOM     63  C   UNL     1      -3.416   0.133   1.761  1.00  0.00     0.031 A 
ATOM     64  C   UNL     1      -0.616   1.378  -3.982  1.00  0.00     0.049 A 
ATOM     65  C   UNL     1      -3.573  -0.467   0.391  1.00  0.00     0.074 A 
ATOM     66  C   UNL     1      -0.952   0.859  -5.220  1.00  0.00     0.029 A 
ATOM     67  N   UNL     1      -1.444   0.770  -3.052  1.00  0.00    -0.354 N 
ATOM     68  N   UNL     1      -2.922  -0.181  -0.709  1.00  0.00    -0.248 NA
ATOM     69  C   UNL     1      -4.610  -1.498   0.229  1.00  0.00     0.031 C 
ATOM     70  C   UNL     1      -2.017  -0.028  -5.044  1.00  0.00     0.029 A 
ATOM     71  C   UNL     1      -2.292  -0.118  -3.689  1.00  0.00     0.049 A 
ATOM     72  H   UNL     1      -1.430   0.944  -2.083  1.00  0.00     0.167 HD
ATOM     73  C   UNL     1      -3.497  -0.965  -1.699  1.00  0.00     0.074 A 
ATOM     74  C   UNL     1      -4.487  -1.802  -1.055  1.00  0.00     0.031 C 
ATOM     75  C   UNL     1      -3.259  -0.955  -3.031  1.00  0.00     0.031 A 
BRANCH  62  76
ATOM     76  C   UNL     1       1.179   2.956  -4.792  1.00  0.00    -0.014 A 
ATOM     77  C   UNL     1       2.541   2.687  -4.979  1.00  0.00     0.009 A 
ATOM     78  C   UNL     1       0.519   3.806  -5.695  1.00  0.00     0.009 A 
ATOM     79  C   UNL     1       3.233   3.278  -6.039  1.00  0.00     0.001 A 
ATOM     80  C   UNL     1       1.204   4.368  -6.771  1.00  0.00     0.001 A 
ATOM     81  C   UNL     1       2.562   4.110  -6.937  1.00  0.00     0.000 A 
ENDBRANCH  62  76
BRANCH  63  82
ATOM     82  C   UNL     1      -4.117  -0.484   2.932  1.00  0.00    -0.014 A 
ATOM     83  C   UNL     1      -3.876  -1.831   3.267  1.00  0.00     0.009 A 
ATOM     84  C   UNL     1      -5.061   0.224   3.692  1.00  0.00     0.009 A 
ATOM     85  C   UNL     1      -4.579  -2.453   4.304  1.00  0.00     0.001 A 
ATOM     86  C   UNL     1      -5.723  -0.384   4.764  1.00  0.00     0.001 A 
ATOM     87  C   UNL     1      -5.494  -1.726   5.059  1.00  0.00     0.000 A 
ENDBRANCH  63  82
BRANCH  75  88
ATOM     88  C   UNL     1      -4.070  -1.884  -3.888  1.00  0.00    -0.014 A 
ATOM     89  C   UNL     1      -5.430  -1.641  -4.135  1.00  0.00     0.009 A 
ATOM     90  C   UNL     1      -3.442  -2.965  -4.525  1.00  0.00     0.009 A 
ATOM     91  C   UNL     1      -6.150  -2.477  -4.990  1.00  0.00     0.001 A 
ATOM     92  C   UNL     1      -4.157  -3.780  -5.403  1.00  0.00     0.001 A 
ATOM     93  C   UNL     1      -5.511  -3.539  -5.630  1.00  0.00     0.000 A 
ENDBRANCH  75  88
ENDBRANCH  49  50
ENDBRANCH  42  44
ENDBRANCH  41  42
ENDBRANCH  40  41
ENDBRANCH  39  40
ENDBRANCH  38  39
ENDBRANCH  37  38
ENDBRANCH  36  37
ENDBRANCH  35  36
ENDBRANCH  34  35
ENDBRANCH   1  34
TORSDOF 26
