REMARK SMILES CS(=O)(=O)c1ccc(C2=NN(c3ccc(C(=O)OCCOCCOCCOCCOC(=O)c4ccc(-c5c6nc(c(-c7ccccc7)c7ccc([nH]7)c(-c7ccccc7)c7nc(c(-c8ccccc8)c8ccc5[nH]8)C=C7)C=C6)cc4)cc3)[C@H](c3ccc(Cl)cc3)C2)cc1
REMARK SMILES IDX 23 1 22 2 21 3 20 4 19 5 18 6 16 7 17 8 15 9 12 10 13 11
REMARK SMILES IDX 82 12 14 13 81 14 11 15 9 16 10 17 91 18 83 19 8 20 5 21
REMARK SMILES IDX 6 22 93 23 7 24 92 25 2 26 1 27 3 28 4 29 84 30 85 31 90 32
REMARK SMILES IDX 86 33 89 34 87 35 88 36 24 37 25 38 26 39 27 40 28 41 29 42
REMARK SMILES IDX 30 43 31 44 32 45 33 46 34 47 80 48 35 49 79 50 36 51 37 52
REMARK SMILES IDX 38 53 73 54 39 55 78 56 72 57 74 58 40 59 77 60 71 61 70 62
REMARK SMILES IDX 41 64 63 65 48 66 62 67 49 68 52 69 61 70 75 71 50 72 51 73
REMARK SMILES IDX 60 75 76 76 53 77 42 78 43 79 47 80 44 81 46 82 45 83 64 84
REMARK SMILES IDX 65 85 69 86 66 87 68 88 67 89 54 90 55 91 59 92 56 93 58 94
REMARK SMILES IDX 57 95
REMARK H PARENT 74 63 52 74
REMARK Flexibility Score: inf
ROOT
ATOM      1  C   UNL     1       9.574   9.587  -0.944  1.00  0.00     0.188 C 
ENDROOT
BRANCH   1   2
ATOM      2  C   UNL     1       9.706  10.414  -2.238  1.00  0.00     0.188 C 
BRANCH   2   3
ATOM      3  O   UNL     1      10.736  11.386  -2.176  1.00  0.00    -0.376 OA
BRANCH   3   4
ATOM      4  C   UNL     1      10.430  12.745  -1.931  1.00  0.00     0.202 C 
BRANCH   4   5
ATOM      5  C   UNL     1       9.478  13.186  -0.807  1.00  0.00     0.261 C 
BRANCH   5   6
ATOM      6  O   UNL     1       8.394  12.312  -0.496  1.00  0.00    -0.460 OA
BRANCH   6   7
ATOM      7  C   UNL     1       7.322  12.321  -1.315  1.00  0.00     0.338 C 
ATOM      8  O   UNL     1       7.157  13.033  -2.290  1.00  0.00    -0.246 OA
BRANCH   7   9
ATOM      9  C   UNL     1       6.441  11.187  -0.932  1.00  0.00     0.060 A 
ATOM     10  C   UNL     1       4.684   9.104  -0.256  1.00  0.00     0.060 A 
ATOM     11  C   UNL     1       4.857   9.476  -1.595  1.00  0.00     0.029 A 
ATOM     12  C   UNL     1       5.504   9.691   0.717  1.00  0.00     0.029 A 
ATOM     13  C   UNL     1       5.726  10.519  -1.933  1.00  0.00     0.018 A 
ATOM     14  C   UNL     1       6.361  10.742   0.392  1.00  0.00     0.018 A 
BRANCH  10  15
ATOM     15  N   UNL     1       3.614   8.299   0.153  1.00  0.00    -0.257 N 
ATOM     16  C   UNL     1       2.263   6.716  -0.319  1.00  0.00     0.071 C 
ATOM     17  N   UNL     1       3.523   7.020  -0.300  1.00  0.00    -0.176 NA
ATOM     18  C   UNL     1       1.311   7.833   0.003  1.00  0.00     0.091 C 
ATOM     19  C   UNL     1       2.302   8.952   0.352  1.00  0.00     0.144 C 
BRANCH  16  20
ATOM     20  C   UNL     1       1.776   5.354  -0.605  1.00  0.00    -0.002 A 
ATOM     21  C   UNL     1       0.919   2.739  -1.061  1.00  0.00     0.067 A 
ATOM     22  C   UNL     1       2.049   2.964  -0.273  1.00  0.00     0.021 A 
ATOM     23  C   UNL     1       0.213   3.815  -1.617  1.00  0.00     0.021 A 
ATOM     24  C   UNL     1       2.480   4.275  -0.055  1.00  0.00     0.011 A 
ATOM     25  C   UNL     1       0.639   5.128  -1.385  1.00  0.00     0.011 A 
BRANCH  21  26
ATOM     26  S   UNL     1       0.329   1.093  -1.389  1.00  0.00     0.175 S 
ATOM     27  C   UNL     1       0.887   0.065  -0.058  1.00  0.00     0.163 C 
ATOM     28  O   UNL     1       0.989   0.657  -2.602  1.00  0.00    -0.224 OA
ATOM     29  O   UNL     1      -1.119   1.150  -1.299  1.00  0.00    -0.224 OA
ENDBRANCH  21  26
ENDBRANCH  16  20
BRANCH  19  30
ATOM     30  C   UNL     1       2.217   9.593   1.736  1.00  0.00    -0.023 A 
ATOM     31  C   UNL     1       1.609   8.992   2.847  1.00  0.00     0.007 A 
ATOM     32  C   UNL     1       2.847  10.841   1.936  1.00  0.00     0.007 A 
ATOM     33  C   UNL     1       1.656   9.600   4.109  1.00  0.00     0.021 A 
ATOM     34  C   UNL     1       2.945  11.421   3.203  1.00  0.00     0.021 A 
ATOM     35  C   UNL     1       2.345  10.796   4.287  1.00  0.00     0.041 A 
ATOM     36  Cl  UNL     1       2.467  11.496   5.853  1.00  0.00    -0.084 Cl
ENDBRANCH  19  30
ENDBRANCH  10  15
ENDBRANCH   7   9
ENDBRANCH   6   7
ENDBRANCH   5   6
ENDBRANCH   4   5
ENDBRANCH   3   4
ENDBRANCH   2   3
ENDBRANCH   1   2
BRANCH   1  37
ATOM     37  O   UNL     1      10.180  10.142   0.214  1.00  0.00    -0.377 OA
BRANCH  37  38
ATOM     38  C   UNL     1      11.600  10.271   0.268  1.00  0.00     0.188 C 
BRANCH  38  39
ATOM     39  C   UNL     1      12.543   9.785  -0.864  1.00  0.00     0.188 C 
BRANCH  39  40
ATOM     40  O   UNL     1      11.995   8.811  -1.734  1.00  0.00    -0.376 OA
BRANCH  40  41
ATOM     41  C   UNL     1      12.440   7.472  -1.620  1.00  0.00     0.202 C 
BRANCH  41  42
ATOM     42  C   UNL     1      12.101   6.743  -0.313  1.00  0.00     0.261 C 
BRANCH  42  43
ATOM     43  O   UNL     1      12.520   7.399   0.892  1.00  0.00    -0.460 OA
BRANCH  43  44
ATOM     44  C   UNL     1      13.848   7.521   1.084  1.00  0.00     0.338 C 
ATOM     45  O   UNL     1      14.742   7.116   0.354  1.00  0.00    -0.246 OA
BRANCH  44  46
ATOM     46  C   UNL     1      14.066   8.395   2.251  1.00  0.00     0.060 A 
ATOM     47  C   UNL     1      14.809   9.570   2.086  1.00  0.00     0.016 A 
ATOM     48  C   UNL     1      13.558   8.045   3.505  1.00  0.00     0.016 A 
ATOM     49  C   UNL     1      15.105  10.366   3.190  1.00  0.00     0.010 A 
ATOM     50  C   UNL     1      13.869   8.835   4.614  1.00  0.00     0.010 A 
ATOM     51  C   UNL     1      14.688   9.969   4.467  1.00  0.00    -0.014 A 
BRANCH  51  52
ATOM     52  C   UNL     1      15.308  10.603   5.654  1.00  0.00     0.031 A 
ATOM     53  C   UNL     1      16.459   9.894   6.318  1.00  0.00     0.074 A 
ATOM     54  C   UNL     1      14.906  11.806   6.101  1.00  0.00     0.049 A 
ATOM     55  N   UNL     1      17.171  10.252   7.355  1.00  0.00    -0.248 NA
ATOM     56  C   UNL     1      16.860   8.604   5.731  1.00  0.00     0.031 C 
ATOM     57  C   UNL     1      13.840  12.616   5.516  1.00  0.00     0.029 A 
ATOM     58  N   UNL     1      15.362  12.555   7.156  1.00  0.00    -0.354 N 
ATOM     59  C   UNL     1      18.095   9.232   7.547  1.00  0.00     0.074 A 
ATOM     60  C   UNL     1      17.830   8.223   6.546  1.00  0.00     0.031 C 
ATOM     61  C   UNL     1      13.724  13.754   6.222  1.00  0.00     0.029 A 
ATOM     62  C   UNL     1      14.684  13.737   7.325  1.00  0.00     0.049 A 
ATOM     63  H   UNL     1      16.105  12.273   7.737  1.00  0.00     0.167 HD
ATOM     64  C   UNL     1      19.082   9.143   8.469  1.00  0.00     0.031 A 
ATOM     65  C   UNL     1      14.815  14.687   8.271  1.00  0.00     0.031 A 
ATOM     66  C   UNL     1      19.337  10.138   9.475  1.00  0.00     0.049 A 
ATOM     67  C   UNL     1      15.871  14.528   9.335  1.00  0.00     0.074 A 
ATOM     68  C   UNL     1      20.320  10.147  10.450  1.00  0.00     0.029 A 
ATOM     69  N   UNL     1      18.597  11.298   9.641  1.00  0.00    -0.354 N 
ATOM     70  N   UNL     1      16.754  13.571   9.492  1.00  0.00    -0.248 NA
ATOM     71  C   UNL     1      15.956  15.594  10.344  1.00  0.00     0.031 C 
ATOM     72  C   UNL     1      20.132  11.280  11.246  1.00  0.00     0.029 A 
ATOM     73  C   UNL     1      19.083  12.017  10.720  1.00  0.00     0.049 A 
ATOM     74  H   UNL     1      17.838  11.571   9.075  1.00  0.00     0.167 HD
ATOM     75  C   UNL     1      17.523  13.939  10.591  1.00  0.00     0.074 A 
ATOM     76  C   UNL     1      17.010  15.213  11.051  1.00  0.00     0.031 C 
ATOM     77  C   UNL     1      18.563  13.284  11.166  1.00  0.00     0.031 A 
BRANCH  64  78
ATOM     78  C   UNL     1      19.933   7.902   8.454  1.00  0.00    -0.014 A 
ATOM     79  C   UNL     1      20.838   7.642   7.412  1.00  0.00     0.009 A 
ATOM     80  C   UNL     1      19.840   6.986   9.514  1.00  0.00     0.009 A 
ATOM     81  C   UNL     1      21.604   6.474   7.414  1.00  0.00     0.001 A 
ATOM     82  C   UNL     1      20.632   5.837   9.531  1.00  0.00     0.001 A 
ATOM     83  C   UNL     1      21.505   5.576   8.476  1.00  0.00     0.000 A 
ENDBRANCH  64  78
BRANCH  65  84
ATOM     84  C   UNL     1      13.916  15.872   8.271  1.00  0.00    -0.014 A 
ATOM     85  C   UNL     1      14.418  17.158   8.017  1.00  0.00     0.009 A 
ATOM     86  C   UNL     1      12.550  15.725   8.559  1.00  0.00     0.009 A 
ATOM     87  C   UNL     1      13.578  18.273   8.082  1.00  0.00     0.001 A 
ATOM     88  C   UNL     1      11.706  16.837   8.590  1.00  0.00     0.001 A 
ATOM     89  C   UNL     1      12.223  18.111   8.364  1.00  0.00     0.000 A 
ENDBRANCH  65  84
BRANCH  77  90
ATOM     90  C   UNL     1      19.253  13.962  12.320  1.00  0.00    -0.014 A 
ATOM     91  C   UNL     1      18.626  14.123  13.565  1.00  0.00     0.009 A 
ATOM     92  C   UNL     1      20.570  14.422  12.161  1.00  0.00     0.009 A 
ATOM     93  C   UNL     1      19.286  14.775  14.610  1.00  0.00     0.001 A 
ATOM     94  C   UNL     1      21.241  15.039  13.217  1.00  0.00     0.001 A 
ATOM     95  C   UNL     1      20.594  15.228  14.436  1.00  0.00     0.000 A 
ENDBRANCH  77  90
ENDBRANCH  51  52
ENDBRANCH  44  46
ENDBRANCH  43  44
ENDBRANCH  42  43
ENDBRANCH  41  42
ENDBRANCH  40  41
ENDBRANCH  39  40
ENDBRANCH  38  39
ENDBRANCH  37  38
ENDBRANCH   1  37
TORSDOF 24
