REMARK SMILES C[C@H]1C[N@H+]2CCCC[C@@H]2CN1C(=O)[C@H]([NH3+])CC(=O)OCCOCCOCCOCCOC(=O)c1ccc(-c2c3nc(c(-c4ccccc4)c4ccc([nH]4)c(-c4ccccc4)c4nc(c(-c5ccccc5)c5ccc2[nH]5)C=C4)C=C3)cc1
REMARK SMILES IDX 24 1 23 2 22 3 21 4 20 5 19 6 17 7 18 8 16 9 14 10 12 11
REMARK SMILES IDX 13 12 11 13 1 14 2 15 3 16 4 17 10 18 5 19 9 20 6 22 8 23
REMARK SMILES IDX 7 24 15 25 25 29 26 30 27 31 28 32 29 33 30 34 31 35 32 36
REMARK SMILES IDX 33 37 34 38 35 39 81 40 36 41 80 42 37 43 38 44 39 45 74 46
REMARK SMILES IDX 40 47 79 48 73 49 75 50 41 51 78 52 72 53 71 54 42 56 64 57
REMARK SMILES IDX 49 58 63 59 50 60 53 61 62 62 76 63 51 64 52 65 61 67 77 68
REMARK SMILES IDX 54 69 43 70 44 71 48 72 45 73 47 74 46 75 65 76 66 77 70 78
REMARK SMILES IDX 67 79 69 80 68 81 55 82 56 83 60 84 57 85 59 86 58 87
REMARK H PARENT 4 21 15 26 15 27 15 28 75 55 53 66
REMARK Flexibility Score: inf
ROOT
ATOM      1  C   UNL     1       4.524   4.065   0.371  1.00  0.00     0.188 C 
ENDROOT
BRANCH   1   2
ATOM      2  C   UNL     1       5.924   3.654   0.844  1.00  0.00     0.188 C 
BRANCH   2   3
ATOM      3  O   UNL     1       6.713   2.791   0.047  1.00  0.00    -0.376 OA
BRANCH   3   4
ATOM      4  C   UNL     1       6.345   1.429  -0.151  1.00  0.00     0.202 C 
BRANCH   4   5
ATOM      5  C   UNL     1       5.566   0.611   0.895  1.00  0.00     0.261 C 
BRANCH   5   6
ATOM      6  O   UNL     1       4.402   1.270   1.415  1.00  0.00    -0.463 OA
BRANCH   6   7
ATOM      7  C   UNL     1       4.214   1.171   2.749  1.00  0.00     0.312 C 
ATOM      8  O   UNL     1       4.844   0.414   3.482  1.00  0.00    -0.252 OA
BRANCH   7   9
ATOM      9  C   UNL     1       3.368   2.281   3.321  1.00  0.00     0.198 C 
BRANCH   9  10
ATOM     10  C   UNL     1       2.103   2.831   2.675  1.00  0.00     0.282 C 
BRANCH  10  11
ATOM     11  C   UNL     1       1.131   3.712   3.581  1.00  0.00     0.282 C 
ATOM     12  O   UNL     1      -0.027   3.870   3.168  1.00  0.00    -0.268 OA
BRANCH  11  13
ATOM     13  N   UNL     1       1.526   4.344   4.761  1.00  0.00    -0.323 N 
ATOM     14  C   UNL     1      -0.927   4.670   5.534  1.00  0.00     0.037 C 
ATOM     15  C   UNL     1       0.563   4.994   5.698  1.00  0.00     0.137 C 
ATOM     16  C   UNL     1       0.918   4.699   7.212  1.00  0.00     0.287 C 
ATOM     17  N   UNL     1       2.327   4.446   7.602  1.00  0.00    -0.329 N 
ATOM     18  C   UNL     1       2.893   4.562   5.237  1.00  0.00     0.185 C 
ATOM     19  C   UNL     1       2.377   3.665   8.850  1.00  0.00     0.262 C 
ATOM     20  C   UNL     1       3.072   3.756   6.531  1.00  0.00     0.203 C 
ATOM     21  H   UNL     1       2.776   5.348   7.755  1.00  0.00     0.348 HD
ATOM     22  C   UNL     1       3.815   3.431   9.314  1.00  0.00     0.062 C 
ATOM     23  C   UNL     1       4.546   3.586   6.915  1.00  0.00     0.067 C 
ATOM     24  C   UNL     1       4.668   2.799   8.219  1.00  0.00     0.012 C 
ENDBRANCH  11  13
ENDBRANCH  10  11
BRANCH  10  25
ATOM     25  N   UNL     1       1.316   1.752   2.037  1.00  0.00    -0.347 N 
ATOM     26  H   UNL     1       0.957   1.123   2.755  1.00  0.00     0.345 HD
ATOM     27  H   UNL     1       1.913   1.230   1.395  1.00  0.00     0.345 HD
ATOM     28  H   UNL     1       0.536   2.159   1.522  1.00  0.00     0.345 HD
ENDBRANCH  10  25
ENDBRANCH   9  10
ENDBRANCH   7   9
ENDBRANCH   6   7
ENDBRANCH   5   6
ENDBRANCH   4   5
ENDBRANCH   3   4
ENDBRANCH   2   3
ENDBRANCH   1   2
BRANCH   1  29
ATOM     29  O   UNL     1       3.790   3.059  -0.294  1.00  0.00    -0.377 OA
BRANCH  29  30
ATOM     30  C   UNL     1       3.881   2.957  -1.711  1.00  0.00     0.188 C 
BRANCH  30  31
ATOM     31  C   UNL     1       4.999   3.691  -2.483  1.00  0.00     0.188 C 
BRANCH  31  32
ATOM     32  O   UNL     1       5.259   5.013  -2.046  1.00  0.00    -0.376 OA
BRANCH  32  33
ATOM     33  C   UNL     1       4.601   6.096  -2.684  1.00  0.00     0.202 C 
BRANCH  33  34
ATOM     34  C   UNL     1       3.065   6.132  -2.673  1.00  0.00     0.261 C 
BRANCH  34  35
ATOM     35  O   UNL     1       2.385   5.026  -3.287  1.00  0.00    -0.460 OA
BRANCH  35  36
ATOM     36  C   UNL     1       2.685   4.701  -4.558  1.00  0.00     0.338 C 
ATOM     37  O   UNL     1       3.451   5.279  -5.313  1.00  0.00    -0.246 OA
BRANCH  36  38
ATOM     38  C   UNL     1       2.065   3.390  -4.836  1.00  0.00     0.060 A 
ATOM     39  C   UNL     1       2.877   2.303  -5.191  1.00  0.00     0.016 A 
ATOM     40  C   UNL     1       0.680   3.241  -4.750  1.00  0.00     0.016 A 
ATOM     41  C   UNL     1       2.299   1.073  -5.509  1.00  0.00     0.010 A 
ATOM     42  C   UNL     1       0.102   2.018  -5.089  1.00  0.00     0.010 A 
ATOM     43  C   UNL     1       0.905   0.942  -5.510  1.00  0.00    -0.014 A 
BRANCH  43  44
ATOM     44  C   UNL     1       0.259  -0.212  -6.179  1.00  0.00     0.031 A 
ATOM     45  C   UNL     1      -0.234  -0.015  -7.587  1.00  0.00     0.074 A 
ATOM     46  C   UNL     1       0.087  -1.392  -5.560  1.00  0.00     0.049 A 
ATOM     47  N   UNL     1      -0.966  -0.802  -8.331  1.00  0.00    -0.248 NA
ATOM     48  C   UNL     1       0.145   1.252  -8.239  1.00  0.00     0.031 C 
ATOM     49  C   UNL     1       0.570  -1.730  -4.223  1.00  0.00     0.029 A 
ATOM     50  N   UNL     1      -0.571  -2.522  -5.979  1.00  0.00    -0.354 N 
ATOM     51  C   UNL     1      -1.150  -0.119  -9.527  1.00  0.00     0.074 A 
ATOM     52  C   UNL     1      -0.479   1.155  -9.402  1.00  0.00     0.031 C 
ATOM     53  C   UNL     1       0.165  -2.976  -3.918  1.00  0.00     0.029 A 
ATOM     54  C   UNL     1      -0.643  -3.502  -5.018  1.00  0.00     0.049 A 
ATOM     55  H   UNL     1      -0.955  -2.621  -6.880  1.00  0.00     0.167 HD
ATOM     56  C   UNL     1      -1.818  -0.518 -10.635  1.00  0.00     0.031 A 
ATOM     57  C   UNL     1      -1.320  -4.668  -5.015  1.00  0.00     0.031 A 
ATOM     58  C   UNL     1      -2.504  -1.775 -10.749  1.00  0.00     0.049 A 
ATOM     59  C   UNL     1      -2.140  -5.050  -6.223  1.00  0.00     0.074 A 
ATOM     60  C   UNL     1      -3.219  -2.272 -11.824  1.00  0.00     0.029 A 
ATOM     61  N   UNL     1      -2.564  -2.731  -9.748  1.00  0.00    -0.354 N 
ATOM     62  N   UNL     1      -2.306  -4.402  -7.351  1.00  0.00    -0.248 NA
ATOM     63  C   UNL     1      -2.863  -6.330  -6.158  1.00  0.00     0.031 C 
ATOM     64  C   UNL     1      -3.760  -3.505 -11.452  1.00  0.00     0.029 A 
ATOM     65  C   UNL     1      -3.318  -3.809 -10.174  1.00  0.00     0.049 A 
ATOM     66  H   UNL     1      -2.134  -2.655  -8.865  1.00  0.00     0.167 HD
ATOM     67  C   UNL     1      -3.113  -5.214  -8.142  1.00  0.00     0.074 A 
ATOM     68  C   UNL     1      -3.398  -6.403  -7.369  1.00  0.00     0.031 C 
ATOM     69  C   UNL     1      -3.572  -4.996  -9.399  1.00  0.00     0.031 A 
BRANCH  56  70
ATOM     70  C   UNL     1      -1.865   0.435 -11.796  1.00  0.00    -0.014 A 
ATOM     71  C   UNL     1      -0.719   0.719 -12.555  1.00  0.00     0.009 A 
ATOM     72  C   UNL     1      -3.083   1.035 -12.155  1.00  0.00     0.009 A 
ATOM     73  C   UNL     1      -0.784   1.609 -13.629  1.00  0.00     0.001 A 
ATOM     74  C   UNL     1      -3.152   1.899 -13.249  1.00  0.00     0.001 A 
ATOM     75  C   UNL     1      -2.001   2.192 -13.979  1.00  0.00     0.000 A 
ENDBRANCH  56  70
BRANCH  57  76
ATOM     76  C   UNL     1      -1.297  -5.547  -3.813  1.00  0.00    -0.014 A 
ATOM     77  C   UNL     1      -0.699  -6.816  -3.861  1.00  0.00     0.009 A 
ATOM     78  C   UNL     1      -1.913  -5.136  -2.620  1.00  0.00     0.009 A 
ATOM     79  C   UNL     1      -0.751  -7.666  -2.753  1.00  0.00     0.001 A 
ATOM     80  C   UNL     1      -1.933  -5.974  -1.503  1.00  0.00     0.001 A 
ATOM     81  C   UNL     1      -1.364  -7.243  -1.575  1.00  0.00     0.000 A 
ENDBRANCH  57  76
BRANCH  69  82
ATOM     82  C   UNL     1      -4.366  -6.092 -10.057  1.00  0.00    -0.014 A 
ATOM     83  C   UNL     1      -5.679  -6.390  -9.667  1.00  0.00     0.009 A 
ATOM     84  C   UNL     1      -3.807  -6.782 -11.146  1.00  0.00     0.009 A 
ATOM     85  C   UNL     1      -6.407  -7.376 -10.338  1.00  0.00     0.001 A 
ATOM     86  C   UNL     1      -4.547  -7.742 -11.835  1.00  0.00     0.001 A 
ATOM     87  C   UNL     1      -5.845  -8.044 -11.426  1.00  0.00     0.000 A 
ENDBRANCH  69  82
ENDBRANCH  43  44
ENDBRANCH  36  38
ENDBRANCH  35  36
ENDBRANCH  34  35
ENDBRANCH  33  34
ENDBRANCH  32  33
ENDBRANCH  31  32
ENDBRANCH  30  31
ENDBRANCH  29  30
ENDBRANCH   1  29
TORSDOF 24
