REMARK SMILES O=C(OCCOCCOCCOCCOC(=O)[C@H]1CCCN(c2cc(-c3ccccn3)nc(-c3ccccc3F)n2)C1)c1ccc(-c2c3nc(c(-c4ccccc4)c4ccc([nH]4)c(-c4ccccc4)c4nc(c(-c5ccccc5)c5ccc2[nH]5)C=C4)C=C3)cc1
REMARK SMILES IDX 9 1 8 2 7 3 6 4 5 5 4 6 3 7 2 8 1 9 43 10 44 11 90 12 45 13
REMARK SMILES IDX 89 14 46 15 47 16 48 17 83 18 49 19 88 20 82 21 84 22 50 23
REMARK SMILES IDX 87 24 81 25 80 26 51 28 73 29 58 30 72 31 59 32 62 33 71 34
REMARK SMILES IDX 85 35 60 36 61 37 70 39 86 40 63 41 52 42 53 43 57 44 54 45
REMARK SMILES IDX 56 46 55 47 74 48 75 49 79 50 76 51 78 52 77 53 64 54 65 55
REMARK SMILES IDX 69 56 66 57 68 58 67 59 10 60 11 61 12 62 13 63 14 64 15 65
REMARK SMILES IDX 16 66 17 67 18 68 19 69 42 70 20 71 22 72 21 73 23 74 24 75
REMARK SMILES IDX 41 76 25 77 33 78 32 79 26 80 27 81 31 82 28 83 30 84 29 85
REMARK SMILES IDX 34 86 35 87 39 88 36 89 38 90 40 91 37 92
REMARK H PARENT 84 27 62 38
REMARK Flexibility Score: inf
ROOT
ATOM      1  O   UNL     1       2.947   4.282   5.894  1.00  0.00    -0.377 OA
ENDROOT
BRANCH   1   2
ATOM      2  C   UNL     1       2.020   5.004   6.707  1.00  0.00     0.188 C 
BRANCH   2   3
ATOM      3  C   UNL     1       0.579   4.474   6.691  1.00  0.00     0.188 C 
BRANCH   3   4
ATOM      4  O   UNL     1       0.464   3.175   7.284  1.00  0.00    -0.376 OA
BRANCH   4   5
ATOM      5  C   UNL     1      -0.290   2.189   6.568  1.00  0.00     0.202 C 
BRANCH   5   6
ATOM      6  C   UNL     1      -1.801   2.396   6.548  1.00  0.00     0.261 C 
BRANCH   6   7
ATOM      7  O   UNL     1      -2.200   3.761   6.724  1.00  0.00    -0.460 OA
BRANCH   7   8
ATOM      8  C   UNL     1      -2.356   4.457   7.875  1.00  0.00     0.338 C 
ATOM      9  O   UNL     1      -2.749   5.620   7.796  1.00  0.00    -0.246 OA
BRANCH   8  10
ATOM     10  C   UNL     1      -2.055   3.924   9.242  1.00  0.00     0.060 A 
ATOM     11  C   UNL     1      -1.232   2.837   9.529  1.00  0.00     0.016 A 
ATOM     12  C   UNL     1      -2.589   4.633  10.332  1.00  0.00     0.016 A 
ATOM     13  C   UNL     1      -0.931   2.454  10.819  1.00  0.00     0.010 A 
ATOM     14  C   UNL     1      -2.320   4.243  11.647  1.00  0.00     0.010 A 
ATOM     15  C   UNL     1      -1.498   3.138  11.881  1.00  0.00    -0.014 A 
BRANCH  15  16
ATOM     16  C   UNL     1      -1.391   2.478  13.184  1.00  0.00     0.031 A 
ATOM     17  C   UNL     1      -2.556   1.643  13.614  1.00  0.00     0.074 A 
ATOM     18  C   UNL     1      -0.206   2.448  13.817  1.00  0.00     0.049 A 
ATOM     19  N   UNL     1      -2.735   0.982  14.722  1.00  0.00    -0.248 NA
ATOM     20  C   UNL     1      -3.665   1.514  12.647  1.00  0.00     0.031 C 
ATOM     21  C   UNL     1       1.034   3.059  13.327  1.00  0.00     0.029 A 
ATOM     22  N   UNL     1       0.159   1.840  14.984  1.00  0.00    -0.354 N 
ATOM     23  C   UNL     1      -3.990   0.401  14.604  1.00  0.00     0.074 A 
ATOM     24  C   UNL     1      -4.528   0.770  13.318  1.00  0.00     0.031 C 
ATOM     25  C   UNL     1       2.026   2.790  14.192  1.00  0.00     0.029 A 
ATOM     26  C   UNL     1       1.471   2.062  15.325  1.00  0.00     0.049 A 
ATOM     27  H   UNL     1      -0.456   1.297  15.527  1.00  0.00     0.167 HD
ATOM     28  C   UNL     1      -4.635  -0.357  15.516  1.00  0.00     0.031 A 
ATOM     29  C   UNL     1       2.116   1.749  16.463  1.00  0.00     0.031 A 
ATOM     30  C   UNL     1      -4.058  -0.688  16.787  1.00  0.00     0.049 A 
ATOM     31  C   UNL     1       1.324   1.033  17.524  1.00  0.00     0.074 A 
ATOM     32  C   UNL     1      -4.622  -1.370  17.845  1.00  0.00     0.029 A 
ATOM     33  N   UNL     1      -2.763  -0.349  17.160  1.00  0.00    -0.354 N 
ATOM     34  N   UNL     1       0.095   0.572  17.467  1.00  0.00    -0.248 NA
ATOM     35  C   UNL     1       1.994   0.808  18.809  1.00  0.00     0.031 C 
ATOM     36  C   UNL     1      -3.686  -1.389  18.885  1.00  0.00     0.029 A 
ATOM     37  C   UNL     1      -2.515  -0.784  18.446  1.00  0.00     0.049 A 
ATOM     38  H   UNL     1      -2.118   0.131  16.592  1.00  0.00     0.167 HD
ATOM     39  C   UNL     1      -0.149  -0.019  18.697  1.00  0.00     0.074 A 
ATOM     40  C   UNL     1       1.071   0.124  19.470  1.00  0.00     0.031 C 
ATOM     41  C   UNL     1      -1.273  -0.620  19.159  1.00  0.00     0.031 A 
BRANCH  28  42
ATOM     42  C   UNL     1      -6.047  -0.756  15.202  1.00  0.00    -0.014 A 
ATOM     43  C   UNL     1      -6.352  -1.717  14.226  1.00  0.00     0.009 A 
ATOM     44  C   UNL     1      -7.099  -0.118  15.878  1.00  0.00     0.009 A 
ATOM     45  C   UNL     1      -7.684  -2.008  13.914  1.00  0.00     0.001 A 
ATOM     46  C   UNL     1      -8.427  -0.429  15.584  1.00  0.00     0.001 A 
ATOM     47  C   UNL     1      -8.719  -1.367  14.596  1.00  0.00     0.000 A 
ENDBRANCH  28  42
BRANCH  29  48
ATOM     48  C   UNL     1       3.518   2.192  16.696  1.00  0.00    -0.014 A 
ATOM     49  C   UNL     1       4.548   1.266  16.919  1.00  0.00     0.009 A 
ATOM     50  C   UNL     1       3.827   3.563  16.746  1.00  0.00     0.009 A 
ATOM     51  C   UNL     1       5.842   1.702  17.222  1.00  0.00     0.001 A 
ATOM     52  C   UNL     1       5.127   3.996  17.013  1.00  0.00     0.001 A 
ATOM     53  C   UNL     1       6.131   3.066  17.267  1.00  0.00     0.000 A 
ENDBRANCH  29  48
BRANCH  41  54
ATOM     54  C   UNL     1      -1.204  -1.207  20.537  1.00  0.00    -0.014 A 
ATOM     55  C   UNL     1      -1.182  -0.392  21.677  1.00  0.00     0.009 A 
ATOM     56  C   UNL     1      -1.220  -2.602  20.687  1.00  0.00     0.009 A 
ATOM     57  C   UNL     1      -1.144  -0.967  22.947  1.00  0.00     0.001 A 
ATOM     58  C   UNL     1      -1.220  -3.173  21.957  1.00  0.00     0.001 A 
ATOM     59  C   UNL     1      -1.171  -2.355  23.085  1.00  0.00     0.000 A 
ENDBRANCH  41  54
ENDBRANCH  15  16
ENDBRANCH   8  10
ENDBRANCH   7   8
ENDBRANCH   6   7
ENDBRANCH   5   6
ENDBRANCH   4   5
ENDBRANCH   3   4
ENDBRANCH   2   3
ENDBRANCH   1   2
BRANCH   1  60
ATOM     60  C   UNL     1       2.842   2.869   5.983  1.00  0.00     0.188 C 
BRANCH  60  61
ATOM     61  C   UNL     1       3.263   2.187   7.307  1.00  0.00     0.188 C 
BRANCH  61  62
ATOM     62  O   UNL     1       3.135   3.048   8.429  1.00  0.00    -0.376 OA
BRANCH  62  63
ATOM     63  C   UNL     1       4.314   3.465   9.107  1.00  0.00     0.202 C 
BRANCH  63  64
ATOM     64  C   UNL     1       5.528   4.040   8.343  1.00  0.00     0.261 C 
BRANCH  64  65
ATOM     65  O   UNL     1       5.591   3.702   6.958  1.00  0.00    -0.463 OA
BRANCH  65  66
ATOM     66  C   UNL     1       6.428   2.757   6.445  1.00  0.00     0.310 C 
ATOM     67  O   UNL     1       7.274   2.130   7.077  1.00  0.00    -0.252 OA
BRANCH  66  68
ATOM     68  C   UNL     1       5.980   2.501   5.019  1.00  0.00     0.118 C 
ATOM     69  C   UNL     1       5.813   3.829   4.251  1.00  0.00     0.019 C 
ATOM     70  C   UNL     1       6.611   1.394   4.179  1.00  0.00     0.133 C 
ATOM     71  C   UNL     1       5.080   3.630   2.932  1.00  0.00     0.022 C 
ATOM     72  N   UNL     1       5.877   1.355   2.902  1.00  0.00    -0.356 N 
ATOM     73  C   UNL     1       5.802   2.581   2.112  1.00  0.00     0.118 C 
BRANCH  72  74
ATOM     74  C   UNL     1       5.546   0.188   2.239  1.00  0.00     0.133 A 
ATOM     75  C   UNL     1       6.269  -0.137   1.113  1.00  0.00     0.077 A 
ATOM     76  N   UNL     1       4.424  -0.481   2.569  1.00  0.00    -0.211 NA
ATOM     77  C   UNL     1       5.787  -1.138   0.299  1.00  0.00     0.095 A 
ATOM     78  C   UNL     1       4.038  -1.475   1.732  1.00  0.00     0.165 A 
ATOM     79  N   UNL     1       4.670  -1.822   0.597  1.00  0.00    -0.226 NA
BRANCH  77  80
ATOM     80  C   UNL     1       6.481  -1.445  -0.955  1.00  0.00     0.089 A 
ATOM     81  C   UNL     1       7.822  -1.831  -0.947  1.00  0.00     0.030 A 
ATOM     82  N   UNL     1       5.808  -1.192  -2.108  1.00  0.00    -0.255 NA
ATOM     83  C   UNL     1       8.499  -1.956  -2.154  1.00  0.00     0.004 A 
ATOM     84  C   UNL     1       6.487  -1.337  -3.267  1.00  0.00     0.112 A 
ATOM     85  C   UNL     1       7.820  -1.704  -3.339  1.00  0.00     0.020 A 
ENDBRANCH  77  80
BRANCH  78  86
ATOM     86  C   UNL     1       2.795  -2.203   2.006  1.00  0.00     0.055 A 
ATOM     87  C   UNL     1       1.548  -1.554   2.084  1.00  0.00     0.015 A 
ATOM     88  C   UNL     1       2.798  -3.601   2.104  1.00  0.00     0.134 A 
ATOM     89  C   UNL     1       0.359  -2.285   2.233  1.00  0.00     0.001 A 
ATOM     90  C   UNL     1       1.620  -4.335   2.261  1.00  0.00     0.040 A 
ATOM     91  F   UNL     1       3.954  -4.282   2.052  1.00  0.00    -0.206 F 
ATOM     92  C   UNL     1       0.395  -3.676   2.319  1.00  0.00     0.003 A 
ENDBRANCH  78  86
ENDBRANCH  72  74
ENDBRANCH  66  68
ENDBRANCH  65  66
ENDBRANCH  64  65
ENDBRANCH  63  64
ENDBRANCH  62  63
ENDBRANCH  61  62
ENDBRANCH  60  61
ENDBRANCH   1  60
TORSDOF 23
