REMARK SMILES O=C(OCCOCCOCCOCCOC(=O)c1ccc2c(=O)n(Cc3cccnc3)c(=O)[nH]c2c1)c1ccc(-c2c3nc(c(-c4ccccc4)c4ccc([nH]4)c(-c4ccccc4)c4nc(c(-c5ccccc5)c5ccc2[nH]5)C=C4)C=C3)cc1
REMARK SMILES IDX 9 1 8 2 7 3 6 4 5 5 4 6 3 7 2 8 1 9 37 10 38 11 84 12 39 13
REMARK SMILES IDX 83 14 40 15 41 16 42 17 77 18 43 19 82 20 76 21 78 22 44 23
REMARK SMILES IDX 81 24 75 25 74 26 45 28 67 29 52 30 66 31 53 32 56 33 65 34
REMARK SMILES IDX 79 35 54 36 55 37 64 39 80 40 57 41 46 42 47 43 51 44 48 45
REMARK SMILES IDX 50 46 49 47 68 48 69 49 73 50 70 51 72 52 71 53 58 54 59 55
REMARK SMILES IDX 63 56 60 57 62 58 61 59 10 60 11 61 12 62 13 63 14 64 15 65
REMARK SMILES IDX 16 66 17 67 18 68 19 69 36 70 20 71 35 72 21 73 34 74 22 75
REMARK SMILES IDX 32 76 23 78 24 79 33 80 25 81 26 82 27 83 31 84 28 85 30 86
REMARK SMILES IDX 29 87
REMARK H PARENT 78 27 56 38 34 77
REMARK Flexibility Score: inf
ROOT
ATOM      1  O   UNL     1       2.515  -1.351   3.527  1.00  0.00    -0.377 OA
ENDROOT
BRANCH   1   2
ATOM      2  C   UNL     1       1.845  -1.196   2.279  1.00  0.00     0.188 C 
BRANCH   2   3
ATOM      3  C   UNL     1       2.371  -0.095   1.354  1.00  0.00     0.188 C 
BRANCH   3   4
ATOM      4  O   UNL     1       3.679  -0.383   0.859  1.00  0.00    -0.376 OA
BRANCH   4   5
ATOM      5  C   UNL     1       4.633   0.667   0.936  1.00  0.00     0.202 C 
BRANCH   5   6
ATOM      6  C   UNL     1       4.461   1.804  -0.060  1.00  0.00     0.261 C 
BRANCH   6   7
ATOM      7  O   UNL     1       3.189   1.891  -0.719  1.00  0.00    -0.460 OA
BRANCH   7   8
ATOM      8  C   UNL     1       2.540   1.102  -1.599  1.00  0.00     0.338 C 
ATOM      9  O   UNL     1       1.388   1.431  -1.891  1.00  0.00    -0.246 OA
BRANCH   8  10
ATOM     10  C   UNL     1       3.057  -0.163  -2.216  1.00  0.00     0.060 A 
ATOM     11  C   UNL     1       2.225  -0.761  -3.186  1.00  0.00     0.016 A 
ATOM     12  C   UNL     1       4.239  -0.825  -1.889  1.00  0.00     0.016 A 
ATOM     13  C   UNL     1       2.554  -1.978  -3.789  1.00  0.00     0.010 A 
ATOM     14  C   UNL     1       4.546  -2.072  -2.430  1.00  0.00     0.010 A 
ATOM     15  C   UNL     1       3.724  -2.636  -3.407  1.00  0.00    -0.014 A 
BRANCH  15  16
ATOM     16  C   UNL     1       4.288  -3.740  -4.201  1.00  0.00     0.031 A 
ATOM     17  C   UNL     1       4.258  -5.153  -3.723  1.00  0.00     0.074 A 
ATOM     18  C   UNL     1       5.019  -3.367  -5.267  1.00  0.00     0.049 A 
ATOM     19  N   UNL     1       4.754  -6.214  -4.300  1.00  0.00    -0.248 NA
ATOM     20  C   UNL     1       3.624  -5.410  -2.421  1.00  0.00     0.031 C 
ATOM     21  C   UNL     1       5.188  -1.977  -5.706  1.00  0.00     0.029 A 
ATOM     22  N   UNL     1       5.792  -4.087  -6.133  1.00  0.00    -0.354 N 
ATOM     23  C   UNL     1       4.488  -7.271  -3.441  1.00  0.00     0.074 A 
ATOM     24  C   UNL     1       3.824  -6.716  -2.280  1.00  0.00     0.031 C 
ATOM     25  C   UNL     1       6.027  -1.944  -6.746  1.00  0.00     0.029 A 
ATOM     26  C   UNL     1       6.454  -3.304  -7.046  1.00  0.00     0.049 A 
ATOM     27  H   UNL     1       5.867  -5.068  -6.105  1.00  0.00     0.167 HD
ATOM     28  C   UNL     1       4.777  -8.580  -3.631  1.00  0.00     0.031 A 
ATOM     29  C   UNL     1       7.308  -3.642  -8.028  1.00  0.00     0.031 A 
ATOM     30  C   UNL     1       5.478  -9.065  -4.795  1.00  0.00     0.049 A 
ATOM     31  C   UNL     1       7.581  -5.096  -8.245  1.00  0.00     0.074 A 
ATOM     32  C   UNL     1       5.712 -10.374  -5.173  1.00  0.00     0.029 A 
ATOM     33  N   UNL     1       6.085  -8.256  -5.747  1.00  0.00    -0.354 N 
ATOM     34  N   UNL     1       7.157  -6.116  -7.536  1.00  0.00    -0.248 NA
ATOM     35  C   UNL     1       8.409  -5.459  -9.398  1.00  0.00     0.031 C 
ATOM     36  C   UNL     1       6.539 -10.355  -6.298  1.00  0.00     0.029 A 
ATOM     37  C   UNL     1       6.747  -9.037  -6.678  1.00  0.00     0.049 A 
ATOM     38  H   UNL     1       6.050  -7.272  -5.758  1.00  0.00     0.167 HD
ATOM     39  C   UNL     1       7.654  -7.247  -8.161  1.00  0.00     0.074 A 
ATOM     40  C   UNL     1       8.398  -6.785  -9.319  1.00  0.00     0.031 C 
ATOM     41  C   UNL     1       7.505  -8.547  -7.807  1.00  0.00     0.031 A 
BRANCH  28  42
ATOM     42  C   UNL     1       4.343  -9.583  -2.592  1.00  0.00    -0.014 A 
ATOM     43  C   UNL     1       5.300 -10.383  -1.944  1.00  0.00     0.009 A 
ATOM     44  C   UNL     1       2.984  -9.834  -2.342  1.00  0.00     0.009 A 
ATOM     45  C   UNL     1       4.909 -11.418  -1.090  1.00  0.00     0.001 A 
ATOM     46  C   UNL     1       2.595 -10.848  -1.462  1.00  0.00     0.001 A 
ATOM     47  C   UNL     1       3.557 -11.648  -0.847  1.00  0.00     0.000 A 
ENDBRANCH  28  42
BRANCH  29  48
ATOM     48  C   UNL     1       7.823  -2.559  -8.903  1.00  0.00    -0.014 A 
ATOM     49  C   UNL     1       8.730  -1.606  -8.407  1.00  0.00     0.009 A 
ATOM     50  C   UNL     1       7.238  -2.347 -10.160  1.00  0.00     0.009 A 
ATOM     51  C   UNL     1       8.996  -0.437  -9.126  1.00  0.00     0.001 A 
ATOM     52  C   UNL     1       7.526  -1.190 -10.888  1.00  0.00     0.001 A 
ATOM     53  C   UNL     1       8.389  -0.228 -10.363  1.00  0.00     0.000 A 
ENDBRANCH  29  48
BRANCH  41  54
ATOM     54  C   UNL     1       8.191  -9.581  -8.655  1.00  0.00    -0.014 A 
ATOM     55  C   UNL     1       7.426 -10.494  -9.398  1.00  0.00     0.009 A 
ATOM     56  C   UNL     1       9.582  -9.744  -8.593  1.00  0.00     0.009 A 
ATOM     57  C   UNL     1       8.038 -11.577 -10.029  1.00  0.00     0.001 A 
ATOM     58  C   UNL     1      10.195 -10.808  -9.255  1.00  0.00     0.001 A 
ATOM     59  C   UNL     1       9.421 -11.732  -9.957  1.00  0.00     0.000 A 
ENDBRANCH  41  54
ENDBRANCH  15  16
ENDBRANCH   8  10
ENDBRANCH   7   8
ENDBRANCH   6   7
ENDBRANCH   5   6
ENDBRANCH   4   5
ENDBRANCH   3   4
ENDBRANCH   2   3
ENDBRANCH   1   2
BRANCH   1  60
ATOM     60  C   UNL     1       3.935  -1.332   3.504  1.00  0.00     0.188 C 
BRANCH  60  61
ATOM     61  C   UNL     1       4.685  -2.361   2.624  1.00  0.00     0.188 C 
BRANCH  61  62
ATOM     62  O   UNL     1       3.840  -3.119   1.781  1.00  0.00    -0.376 OA
BRANCH  62  63
ATOM     63  C   UNL     1       3.539  -4.444   2.195  1.00  0.00     0.202 C 
BRANCH  63  64
ATOM     64  C   UNL     1       2.957  -4.697   3.601  1.00  0.00     0.261 C 
BRANCH  64  65
ATOM     65  O   UNL     1       3.514  -3.954   4.699  1.00  0.00    -0.460 OA
BRANCH  65  66
ATOM     66  C   UNL     1       4.736  -4.296   5.150  1.00  0.00     0.338 C 
ATOM     67  O   UNL     1       5.458  -5.188   4.725  1.00  0.00    -0.246 OA
BRANCH  66  68
ATOM     68  C   UNL     1       5.167  -3.283   6.137  1.00  0.00     0.062 A 
ATOM     69  C   UNL     1       4.482  -3.171   7.352  1.00  0.00     0.016 A 
ATOM     70  C   UNL     1       6.241  -2.418   5.833  1.00  0.00     0.042 A 
ATOM     71  C   UNL     1       4.976  -2.308   8.326  1.00  0.00     0.017 A 
ATOM     72  C   UNL     1       6.642  -1.472   6.769  1.00  0.00     0.056 A 
ATOM     73  C   UNL     1       6.088  -1.513   8.035  1.00  0.00     0.064 A 
ATOM     74  N   UNL     1       7.563  -0.464   6.473  1.00  0.00    -0.307 N 
ATOM     75  C   UNL     1       6.807  -0.797   9.085  1.00  0.00     0.264 A 
ATOM     76  C   UNL     1       7.963   0.491   7.383  1.00  0.00     0.329 A 
ATOM     77  H   UNL     1       7.946  -0.434   5.567  1.00  0.00     0.171 HD
ATOM     78  O   UNL     1       6.781  -1.276  10.215  1.00  0.00    -0.268 OA
ATOM     79  N   UNL     1       7.550   0.306   8.695  1.00  0.00    -0.255 N 
ATOM     80  O   UNL     1       8.688   1.409   7.006  1.00  0.00    -0.248 OA
BRANCH  79  81
ATOM     81  C   UNL     1       8.113   1.149   9.750  1.00  0.00     0.168 C 
BRANCH  81  82
ATOM     82  C   UNL     1       7.085   2.011  10.450  1.00  0.00    -0.010 A 
ATOM     83  C   UNL     1       6.061   1.471  11.240  1.00  0.00     0.009 A 
ATOM     84  C   UNL     1       7.132   3.397  10.365  1.00  0.00     0.116 A 
ATOM     85  C   UNL     1       5.120   2.293  11.845  1.00  0.00     0.020 A 
ATOM     86  N   UNL     1       6.245   4.229  10.964  1.00  0.00    -0.264 NA
ATOM     87  C   UNL     1       5.253   3.656  11.681  1.00  0.00     0.111 A 
ENDBRANCH  81  82
ENDBRANCH  79  81
ENDBRANCH  66  68
ENDBRANCH  65  66
ENDBRANCH  64  65
ENDBRANCH  63  64
ENDBRANCH  62  63
ENDBRANCH  61  62
ENDBRANCH  60  61
ENDBRANCH   1  60
TORSDOF 22
