REMARK SMILES COC(=O)N/N=C/c1ccc(-c2cccc(C(=O)OCCOCCOCCOCCOC(=O)c3ccc(-c4c5nc(c(-c6ccccc6)c6ccc([nH]6)c(-c6ccccc6)c6nc(c(-c7ccccc7)c7ccc4[nH]7)C=C6)C=C5)cc3)c2)o1
REMARK SMILES IDX 24 1 23 2 22 3 21 4 20 5 19 6 17 7 18 8 16 9 12 10 13 11
REMARK SMILES IDX 82 12 14 13 15 14 11 15 8 16 9 17 83 18 10 19 7 20 6 21 5 22
REMARK SMILES IDX 3 23 4 24 2 26 1 27 25 28 26 29 27 30 28 31 29 32 30 33
REMARK SMILES IDX 31 34 32 35 33 36 34 37 35 38 81 39 36 40 80 41 37 42 38 43
REMARK SMILES IDX 39 44 74 45 40 46 79 47 73 48 75 49 41 50 78 51 72 52 71 53
REMARK SMILES IDX 42 55 64 56 49 57 63 58 50 59 53 60 62 61 76 62 51 63 52 64
REMARK SMILES IDX 61 66 77 67 54 68 43 69 44 70 48 71 45 72 47 73 46 74 65 75
REMARK SMILES IDX 66 76 70 77 67 78 69 79 68 80 55 81 56 82 60 83 57 84 59 85
REMARK SMILES IDX 58 86
REMARK H PARENT 5 25 75 54 53 65
REMARK Flexibility Score: inf
ROOT
ATOM      1  C   UNL     1      -5.474   4.479  -5.918  1.00  0.00     0.188 C 
ENDROOT
BRANCH   1   2
ATOM      2  C   UNL     1      -6.680   5.274  -6.459  1.00  0.00     0.188 C 
BRANCH   2   3
ATOM      3  O   UNL     1      -6.366   6.073  -7.587  1.00  0.00    -0.376 OA
BRANCH   3   4
ATOM      4  C   UNL     1      -6.299   7.478  -7.448  1.00  0.00     0.202 C 
BRANCH   4   5
ATOM      5  C   UNL     1      -5.346   8.101  -6.417  1.00  0.00     0.261 C 
BRANCH   5   6
ATOM      6  O   UNL     1      -5.259   7.447  -5.147  1.00  0.00    -0.460 OA
BRANCH   6   7
ATOM      7  C   UNL     1      -6.282   7.617  -4.280  1.00  0.00     0.338 C 
ATOM      8  O   UNL     1      -7.282   8.289  -4.450  1.00  0.00    -0.246 OA
BRANCH   7   9
ATOM      9  C   UNL     1      -6.075   6.654  -3.171  1.00  0.00     0.060 A 
ATOM     10  C   UNL     1      -4.600   5.519  -1.606  1.00  0.00     0.018 A 
ATOM     11  C   UNL     1      -5.661   4.672  -1.253  1.00  0.00     0.012 A 
ATOM     12  C   UNL     1      -4.811   6.493  -2.592  1.00  0.00     0.027 A 
ATOM     13  C   UNL     1      -6.924   4.830  -1.833  1.00  0.00     0.002 A 
ATOM     14  C   UNL     1      -7.139   5.836  -2.776  1.00  0.00     0.016 A 
BRANCH  10  15
ATOM     15  C   UNL     1      -3.327   5.471  -0.903  1.00  0.00     0.134 A 
ATOM     16  C   UNL     1      -1.732   4.471   0.236  1.00  0.00     0.147 A 
ATOM     17  C   UNL     1      -1.430   5.818   0.230  1.00  0.00     0.053 A 
ATOM     18  O   UNL     1      -2.888   4.252  -0.467  1.00  0.00    -0.455 OA
ATOM     19  C   UNL     1      -2.442   6.457  -0.518  1.00  0.00     0.051 A 
BRANCH  16  20
ATOM     20  C   UNL     1      -1.085   3.360   0.878  1.00  0.00     0.180 C 
ATOM     21  N   UNL     1      -0.183   3.593   1.780  1.00  0.00    -0.175 NA
BRANCH  21  22
ATOM     22  N   UNL     1       0.433   2.542   2.401  1.00  0.00    -0.212 N 
ATOM     23  C   UNL     1       0.872   1.347   1.874  1.00  0.00     0.427 C 
ATOM     24  O   UNL     1       1.453   0.521   2.571  1.00  0.00    -0.223 OA
ATOM     25  H   UNL     1       0.585   2.655   3.367  1.00  0.00     0.197 HD
BRANCH  23  26
ATOM     26  O   UNL     1       0.637   1.198   0.543  1.00  0.00    -0.452 OA
ATOM     27  C   UNL     1       1.134  -0.028   0.005  1.00  0.00     0.284 C 
ENDBRANCH  23  26
ENDBRANCH  21  22
ENDBRANCH  16  20
ENDBRANCH  10  15
ENDBRANCH   7   9
ENDBRANCH   6   7
ENDBRANCH   5   6
ENDBRANCH   4   5
ENDBRANCH   3   4
ENDBRANCH   2   3
ENDBRANCH   1   2
BRANCH   1  28
ATOM     28  O   UNL     1      -4.179   4.825  -6.387  1.00  0.00    -0.377 OA
BRANCH  28  29
ATOM     29  C   UNL     1      -3.920   4.874  -7.788  1.00  0.00     0.188 C 
BRANCH  29  30
ATOM     30  C   UNL     1      -4.836   4.183  -8.831  1.00  0.00     0.188 C 
BRANCH  30  31
ATOM     31  O   UNL     1      -5.799   3.299  -8.287  1.00  0.00    -0.376 OA
BRANCH  31  32
ATOM     32  C   UNL     1      -5.614   1.910  -8.479  1.00  0.00     0.202 C 
BRANCH  32  33
ATOM     33  C   UNL     1      -4.377   1.281  -7.825  1.00  0.00     0.261 C 
BRANCH  33  34
ATOM     34  O   UNL     1      -3.120   1.909  -8.118  1.00  0.00    -0.460 OA
BRANCH  34  35
ATOM     35  C   UNL     1      -2.673   1.835  -9.389  1.00  0.00     0.338 C 
ATOM     36  O   UNL     1      -3.219   1.289 -10.335  1.00  0.00    -0.246 OA
BRANCH  35  37
ATOM     37  C   UNL     1      -1.476   2.693  -9.491  1.00  0.00     0.060 A 
ATOM     38  C   UNL     1      -1.488   3.788 -10.367  1.00  0.00     0.016 A 
ATOM     39  C   UNL     1      -0.348   2.419  -8.715  1.00  0.00     0.016 A 
ATOM     40  C   UNL     1      -0.355   4.591 -10.493  1.00  0.00     0.010 A 
ATOM     41  C   UNL     1       0.793   3.210  -8.860  1.00  0.00     0.010 A 
ATOM     42  C   UNL     1       0.807   4.278  -9.775  1.00  0.00    -0.014 A 
BRANCH  42  43
ATOM     43  C   UNL     1       2.093   4.924 -10.132  1.00  0.00     0.031 A 
ATOM     44  C   UNL     1       3.032   4.176 -11.041  1.00  0.00     0.074 A 
ATOM     45  C   UNL     1       2.416   6.151  -9.687  1.00  0.00     0.049 A 
ATOM     46  N   UNL     1       4.233   4.501 -11.445  1.00  0.00    -0.248 NA
ATOM     47  C   UNL     1       2.548   2.887 -11.565  1.00  0.00     0.031 C 
ATOM     48  C   UNL     1       1.571   7.004  -8.853  1.00  0.00     0.029 A 
ATOM     49  N   UNL     1       3.557   6.891  -9.879  1.00  0.00    -0.354 N 
ATOM     50  C   UNL     1       4.646   3.460 -12.268  1.00  0.00     0.074 A 
ATOM     51  C   UNL     1       3.587   2.475 -12.276  1.00  0.00     0.031 C 
ATOM     52  C   UNL     1       2.227   8.152  -8.600  1.00  0.00     0.029 A 
ATOM     53  C   UNL     1       3.550   8.096  -9.219  1.00  0.00     0.049 A 
ATOM     54  H   UNL     1       4.309   6.587 -10.437  1.00  0.00     0.167 HD
ATOM     55  C   UNL     1       5.798   3.338 -12.968  1.00  0.00     0.031 A 
ATOM     56  C   UNL     1       4.514   9.032  -9.111  1.00  0.00     0.031 A 
ATOM     57  C   UNL     1       6.861   4.305 -12.946  1.00  0.00     0.049 A 
ATOM     58  C   UNL     1       5.836   8.813  -9.805  1.00  0.00     0.074 A 
ATOM     59  C   UNL     1       8.077   4.263 -13.606  1.00  0.00     0.029 A 
ATOM     60  N   UNL     1       6.836   5.487 -12.224  1.00  0.00    -0.354 N 
ATOM     61  N   UNL     1       6.212   7.830 -10.588  1.00  0.00    -0.248 NA
ATOM     62  C   UNL     1       6.867   9.843  -9.603  1.00  0.00     0.031 C 
ATOM     63  C   UNL     1       8.810   5.396 -13.239  1.00  0.00     0.029 A 
ATOM     64  C   UNL     1       8.023   6.175 -12.408  1.00  0.00     0.049 A 
ATOM     65  H   UNL     1       6.086   5.791 -11.663  1.00  0.00     0.167 HD
ATOM     66  C   UNL     1       7.500   8.148 -11.006  1.00  0.00     0.074 A 
ATOM     67  C   UNL     1       7.835   9.420 -10.403  1.00  0.00     0.031 C 
ATOM     68  C   UNL     1       8.332   7.450 -11.817  1.00  0.00     0.031 A 
BRANCH  55  69
ATOM     69  C   UNL     1       5.975   2.102 -13.804  1.00  0.00    -0.014 A 
ATOM     70  C   UNL     1       5.231   1.908 -14.979  1.00  0.00     0.009 A 
ATOM     71  C   UNL     1       6.933   1.143 -13.440  1.00  0.00     0.009 A 
ATOM     72  C   UNL     1       5.426   0.766 -15.759  1.00  0.00     0.001 A 
ATOM     73  C   UNL     1       7.146   0.018 -14.238  1.00  0.00     0.001 A 
ATOM     74  C   UNL     1       6.388  -0.173 -15.392  1.00  0.00     0.000 A 
ENDBRANCH  55  69
BRANCH  56  75
ATOM     75  C   UNL     1       4.300  10.257  -8.291  1.00  0.00    -0.014 A 
ATOM     76  C   UNL     1       4.298  11.528  -8.888  1.00  0.00     0.009 A 
ATOM     77  C   UNL     1       4.176  10.168  -6.896  1.00  0.00     0.009 A 
ATOM     78  C   UNL     1       4.226  12.682  -8.103  1.00  0.00     0.001 A 
ATOM     79  C   UNL     1       4.067  11.322  -6.116  1.00  0.00     0.001 A 
ATOM     80  C   UNL     1       4.109  12.578  -6.718  1.00  0.00     0.000 A 
ENDBRANCH  56  75
BRANCH  68  81
ATOM     81  C   UNL     1       9.657   8.077 -12.158  1.00  0.00    -0.014 A 
ATOM     82  C   UNL     1      10.679   8.207 -11.205  1.00  0.00     0.009 A 
ATOM     83  C   UNL     1       9.898   8.507 -13.473  1.00  0.00     0.009 A 
ATOM     84  C   UNL     1      11.898   8.793 -11.553  1.00  0.00     0.001 A 
ATOM     85  C   UNL     1      11.130   9.058 -13.827  1.00  0.00     0.001 A 
ATOM     86  C   UNL     1      12.125   9.212 -12.863  1.00  0.00     0.000 A 
ENDBRANCH  68  81
ENDBRANCH  42  43
ENDBRANCH  35  37
ENDBRANCH  34  35
ENDBRANCH  33  34
ENDBRANCH  32  33
ENDBRANCH  31  32
ENDBRANCH  30  31
ENDBRANCH  29  30
ENDBRANCH  28  29
ENDBRANCH   1  28
TORSDOF 24
