REMARK SMILES Nc1nc2ccccc2nc1N1CCC(C(=O)OCCOCCOCCOCCOC(=O)c2ccc(-c3c4nc(c(-c5ccccc5)c5ccc([nH]5)c(-c5ccccc5)c5nc(c(-c6ccccc6)c6ccc3[nH]6)C=C5)C=C4)cc2)CC1
REMARK SMILES IDX 24 1 23 2 22 3 21 4 20 5 19 6 18 7 16 8 17 9 15 10 12 11
REMARK SMILES IDX 13 12 82 13 14 14 81 15 11 16 2 17 3 18 4 19 10 20 5 21 9 22
REMARK SMILES IDX 6 23 8 24 7 25 1 26 25 29 26 30 27 31 28 32 29 33 30 34
REMARK SMILES IDX 31 35 32 36 33 37 34 38 80 39 35 40 79 41 36 42 37 43 38 44
REMARK SMILES IDX 73 45 39 46 78 47 72 48 74 49 40 50 77 51 71 52 70 53 41 55
REMARK SMILES IDX 63 56 48 57 62 58 49 59 52 60 61 61 75 62 50 63 51 64 60 66
REMARK SMILES IDX 76 67 53 68 42 69 43 70 47 71 44 72 46 73 45 74 64 75 65 76
REMARK SMILES IDX 69 77 66 78 68 79 67 80 54 81 55 82 59 83 56 84 58 85 57 86
REMARK H PARENT 1 27 1 28 74 54 52 65
REMARK Flexibility Score: inf
ROOT
ATOM      1  O   UNL     1       3.884   2.433  -7.192  1.00  0.00    -0.377 OA
ENDROOT
BRANCH   1   2
ATOM      2  C   UNL     1       5.066   1.831  -6.702  1.00  0.00     0.188 C 
BRANCH   2   3
ATOM      3  C   UNL     1       5.484   0.548  -7.431  1.00  0.00     0.188 C 
BRANCH   3   4
ATOM      4  O   UNL     1       4.947   0.235  -8.708  1.00  0.00    -0.376 OA
BRANCH   4   5
ATOM      5  C   UNL     1       3.548   0.318  -8.949  1.00  0.00     0.202 C 
BRANCH   5   6
ATOM      6  C   UNL     1       2.536  -0.336  -7.995  1.00  0.00     0.261 C 
BRANCH   6   7
ATOM      7  O   UNL     1       2.527   0.167  -6.646  1.00  0.00    -0.463 OA
BRANCH   7   8
ATOM      8  C   UNL     1       2.928  -0.705  -5.695  1.00  0.00     0.309 C 
ATOM      9  O   UNL     1       3.330  -1.843  -5.923  1.00  0.00    -0.252 OA
BRANCH   8  10
ATOM     10  C   UNL     1       2.823  -0.192  -4.275  1.00  0.00     0.103 C 
ATOM     11  N   UNL     1       1.777   0.738  -1.786  1.00  0.00    -0.353 N 
ATOM     12  C   UNL     1       2.735   1.561  -2.509  1.00  0.00     0.119 C 
ATOM     13  C   UNL     1       1.720  -0.693  -2.080  1.00  0.00     0.119 C 
ATOM     14  C   UNL     1       2.653   1.308  -4.014  1.00  0.00     0.037 C 
ATOM     15  C   UNL     1       1.673  -0.931  -3.586  1.00  0.00     0.037 C 
BRANCH  11  16
ATOM     16  C   UNL     1       0.603   1.351  -1.351  1.00  0.00     0.172 A 
ATOM     17  C   UNL     1       0.000   0.976  -0.120  1.00  0.00     0.167 A 
ATOM     18  N   UNL     1      -1.127   1.550   0.338  1.00  0.00    -0.226 NA
ATOM     19  C   UNL     1      -1.647   2.531  -0.417  1.00  0.00     0.091 A 
ATOM     20  N   UNL     1       0.081   2.355  -2.090  1.00  0.00    -0.225 NA
ATOM     21  C   UNL     1      -2.804   3.170   0.009  1.00  0.00     0.031 A 
ATOM     22  C   UNL     1      -1.044   2.936  -1.633  1.00  0.00     0.091 A 
ATOM     23  C   UNL     1      -3.386   4.194  -0.739  1.00  0.00     0.002 A 
ATOM     24  C   UNL     1      -1.633   3.957  -2.369  1.00  0.00     0.031 A 
ATOM     25  C   UNL     1      -2.799   4.588  -1.934  1.00  0.00     0.002 A 
BRANCH  17  26
ATOM     26  N   UNL     1       0.549  -0.013   0.692  1.00  0.00    -0.381 N 
ATOM     27  H   UNL     1       0.111  -0.253   1.540  1.00  0.00     0.158 HD
ATOM     28  H   UNL     1       1.376  -0.472   0.418  1.00  0.00     0.158 HD
ENDBRANCH  17  26
ENDBRANCH  11  16
ENDBRANCH   8  10
ENDBRANCH   7   8
ENDBRANCH   6   7
ENDBRANCH   5   6
ENDBRANCH   4   5
ENDBRANCH   3   4
ENDBRANCH   2   3
ENDBRANCH   1   2
BRANCH   1  29
ATOM     29  C   UNL     1       4.034   3.571  -8.036  1.00  0.00     0.188 C 
BRANCH  29  30
ATOM     30  C   UNL     1       5.235   3.607  -8.999  1.00  0.00     0.188 C 
BRANCH  30  31
ATOM     31  O   UNL     1       6.493   3.568  -8.331  1.00  0.00    -0.376 OA
BRANCH  31  32
ATOM     32  C   UNL     1       7.138   4.810  -8.064  1.00  0.00     0.202 C 
BRANCH  32  33
ATOM     33  C   UNL     1       6.484   5.700  -6.994  1.00  0.00     0.261 C 
BRANCH  33  34
ATOM     34  O   UNL     1       5.204   6.269  -7.327  1.00  0.00    -0.460 OA
BRANCH  34  35
ATOM     35  C   UNL     1       5.055   6.920  -8.498  1.00  0.00     0.338 C 
ATOM     36  O   UNL     1       5.924   7.208  -9.301  1.00  0.00    -0.246 OA
BRANCH  35  37
ATOM     37  C   UNL     1       3.603   7.038  -8.754  1.00  0.00     0.060 A 
ATOM     38  C   UNL     1       2.744   7.564  -7.785  1.00  0.00     0.016 A 
ATOM     39  C   UNL     1       3.095   6.589  -9.980  1.00  0.00     0.016 A 
ATOM     40  C   UNL     1       1.379   7.677  -8.061  1.00  0.00     0.010 A 
ATOM     41  C   UNL     1       1.728   6.692 -10.250  1.00  0.00     0.010 A 
ATOM     42  C   UNL     1       0.866   7.264  -9.304  1.00  0.00    -0.014 A 
BRANCH  42  43
ATOM     43  C   UNL     1      -0.518   7.633  -9.688  1.00  0.00     0.031 A 
ATOM     44  C   UNL     1      -1.654   6.659  -9.646  1.00  0.00     0.074 A 
ATOM     45  C   UNL     1      -0.728   8.896 -10.106  1.00  0.00     0.049 A 
ATOM     46  N   UNL     1      -2.926   6.882  -9.868  1.00  0.00    -0.248 NA
ATOM     47  C   UNL     1      -1.333   5.262  -9.324  1.00  0.00     0.031 C 
ATOM     48  C   UNL     1       0.312   9.920 -10.218  1.00  0.00     0.029 A 
ATOM     49  N   UNL     1      -1.874   9.535 -10.505  1.00  0.00    -0.354 N 
ATOM     50  C   UNL     1      -3.563   5.662  -9.696  1.00  0.00     0.074 A 
ATOM     51  C   UNL     1      -2.531   4.691  -9.391  1.00  0.00     0.031 C 
ATOM     52  C   UNL     1      -0.247  11.066 -10.632  1.00  0.00     0.029 A 
ATOM     53  C   UNL     1      -1.676  10.852 -10.839  1.00  0.00     0.049 A 
ATOM     54  H   UNL     1      -2.752   9.092 -10.549  1.00  0.00     0.167 HD
ATOM     55  C   UNL     1      -4.888   5.388  -9.774  1.00  0.00     0.031 A 
ATOM     56  C   UNL     1      -2.543  11.793 -11.257  1.00  0.00     0.031 A 
ATOM     57  C   UNL     1      -5.903   6.360 -10.104  1.00  0.00     0.049 A 
ATOM     58  C   UNL     1      -4.000  11.454 -11.369  1.00  0.00     0.074 A 
ATOM     59  C   UNL     1      -7.276   6.183 -10.140  1.00  0.00     0.029 A 
ATOM     60  N   UNL     1      -5.661   7.674 -10.472  1.00  0.00    -0.354 N 
ATOM     61  N   UNL     1      -4.602  10.321 -11.100  1.00  0.00    -0.248 NA
ATOM     62  C   UNL     1      -4.901  12.523 -11.822  1.00  0.00     0.031 C 
ATOM     63  C   UNL     1      -7.858   7.364 -10.606  1.00  0.00     0.029 A 
ATOM     64  C   UNL     1      -6.856   8.305 -10.780  1.00  0.00     0.049 A 
ATOM     65  H   UNL     1      -4.772   8.097 -10.508  1.00  0.00     0.167 HD
ATOM     66  C   UNL     1      -5.952  10.544 -11.332  1.00  0.00     0.074 A 
ATOM     67  C   UNL     1      -6.084  11.926 -11.745  1.00  0.00     0.031 C 
ATOM     68  C   UNL     1      -6.986   9.677 -11.207  1.00  0.00     0.031 A 
BRANCH  55  69
ATOM     69  C   UNL     1      -5.346   3.982  -9.495  1.00  0.00    -0.014 A 
ATOM     70  C   UNL     1      -5.937   3.220 -10.518  1.00  0.00     0.009 A 
ATOM     71  C   UNL     1      -5.324   3.461  -8.191  1.00  0.00     0.009 A 
ATOM     72  C   UNL     1      -6.512   1.979 -10.239  1.00  0.00     0.001 A 
ATOM     73  C   UNL     1      -5.875   2.206  -7.920  1.00  0.00     0.001 A 
ATOM     74  C   UNL     1      -6.479   1.472  -8.941  1.00  0.00     0.000 A 
ENDBRANCH  55  69
BRANCH  56  75
ATOM     75  C   UNL     1      -2.036  13.159 -11.547  1.00  0.00    -0.014 A 
ATOM     76  C   UNL     1      -1.193  13.388 -12.648  1.00  0.00     0.009 A 
ATOM     77  C   UNL     1      -2.321  14.222 -10.678  1.00  0.00     0.009 A 
ATOM     78  C   UNL     1      -0.623  14.646 -12.855  1.00  0.00     0.001 A 
ATOM     79  C   UNL     1      -1.774  15.487 -10.906  1.00  0.00     0.001 A 
ATOM     80  C   UNL     1      -0.916  15.694 -11.985  1.00  0.00     0.000 A 
ENDBRANCH  56  75
BRANCH  68  81
ATOM     81  C   UNL     1      -8.370  10.178 -11.520  1.00  0.00    -0.014 A 
ATOM     82  C   UNL     1      -9.322  10.286 -10.492  1.00  0.00     0.009 A 
ATOM     83  C   UNL     1      -8.765  10.440 -12.840  1.00  0.00     0.009 A 
ATOM     84  C   UNL     1     -10.645  10.624 -10.783  1.00  0.00     0.001 A 
ATOM     85  C   UNL     1     -10.082  10.809 -13.124  1.00  0.00     0.001 A 
ATOM     86  C   UNL     1     -11.023  10.888 -12.098  1.00  0.00     0.000 A 
ENDBRANCH  68  81
ENDBRANCH  42  43
ENDBRANCH  35  37
ENDBRANCH  34  35
ENDBRANCH  33  34
ENDBRANCH  32  33
ENDBRANCH  31  32
ENDBRANCH  30  31
ENDBRANCH  29  30
ENDBRANCH   1  29
TORSDOF 22
