REMARK SMILES CC(C)([NH2+]C[C@@H]1CCCO1)C(=O)OCCOCCOCCOCCOC(=O)c1ccc(-c2c3nc(c(-c4ccccc4)c4ccc([nH]4)c(-c4ccccc4)c4nc(c(-c5ccccc5)c5ccc2[nH]5)C=C4)C=C3)cc1
REMARK SMILES IDX 18 1 17 2 16 3 15 4 14 5 13 6 11 7 12 8 2 9 1 10 3 11 4 12
REMARK SMILES IDX 5 15 6 16 7 17 10 18 8 19 9 20 19 21 20 22 21 23 22 24 23 25
REMARK SMILES IDX 24 26 25 27 26 28 27 29 28 30 29 31 75 32 30 33 74 34 31 35
REMARK SMILES IDX 32 36 33 37 68 38 34 39 73 40 67 41 69 42 35 43 72 44 66 45
REMARK SMILES IDX 65 46 36 48 58 49 43 50 57 51 44 52 47 53 56 54 70 55 45 56
REMARK SMILES IDX 46 57 55 59 71 60 48 61 37 62 38 63 42 64 39 65 41 66 40 67
REMARK SMILES IDX 59 68 60 69 64 70 61 71 63 72 62 73 49 74 50 75 54 76 51 77
REMARK SMILES IDX 53 78 52 79
REMARK H PARENT 4 13 4 14 69 47 47 58
REMARK Flexibility Score: inf
ROOT
ATOM      1  C   UNL     1      -0.713  -1.164  -2.862  1.00  0.00     0.188 C 
ENDROOT
BRANCH   1   2
ATOM      2  C   UNL     1       0.735  -0.929  -3.340  1.00  0.00     0.188 C 
BRANCH   2   3
ATOM      3  O   UNL     1       1.196  -1.915  -4.244  1.00  0.00    -0.376 OA
BRANCH   3   4
ATOM      4  C   UNL     1       2.043  -2.946  -3.771  1.00  0.00     0.202 C 
BRANCH   4   5
ATOM      5  C   UNL     1       1.835  -3.620  -2.405  1.00  0.00     0.261 C 
BRANCH   5   6
ATOM      6  O   UNL     1       1.131  -2.854  -1.420  1.00  0.00    -0.459 OA
BRANCH   6   7
ATOM      7  C   UNL     1       1.820  -2.248  -0.426  1.00  0.00     0.367 C 
ATOM      8  O   UNL     1       3.045  -2.261  -0.359  1.00  0.00    -0.245 OA
BRANCH   7   9
ATOM      9  C   UNL     1       0.913  -1.464   0.576  1.00  0.00     0.188 C 
ATOM     10  C   UNL     1       1.051   0.033   0.197  1.00  0.00     0.092 C 
ATOM     11  C   UNL     1       1.441  -1.602   2.015  1.00  0.00     0.092 C 
BRANCH   9  12
ATOM     12  N   UNL     1      -0.544  -1.742   0.549  1.00  0.00    -0.330 N 
ATOM     13  H   UNL     1      -0.925  -1.176  -0.209  1.00  0.00     0.347 HD
ATOM     14  H   UNL     1      -0.810  -1.543   1.513  1.00  0.00     0.347 HD
BRANCH  12  15
ATOM     15  C   UNL     1      -1.094  -3.090   0.362  1.00  0.00     0.293 C 
BRANCH  15  16
ATOM     16  C   UNL     1      -0.758  -4.208   1.362  1.00  0.00     0.173 C 
ATOM     17  C   UNL     1       0.621  -4.833   1.215  1.00  0.00     0.040 C 
ATOM     18  O   UNL     1      -1.691  -5.303   1.187  1.00  0.00    -0.372 OA
ATOM     19  C   UNL     1       0.400  -6.204   1.798  1.00  0.00     0.031 C 
ATOM     20  C   UNL     1      -0.963  -6.539   1.242  1.00  0.00     0.161 C 
ENDBRANCH  15  16
ENDBRANCH  12  15
ENDBRANCH   9  12
ENDBRANCH   7   9
ENDBRANCH   6   7
ENDBRANCH   5   6
ENDBRANCH   4   5
ENDBRANCH   3   4
ENDBRANCH   2   3
ENDBRANCH   1   2
BRANCH   1  21
ATOM     21  O   UNL     1      -1.280  -2.448  -3.057  1.00  0.00    -0.377 OA
BRANCH  21  22
ATOM     22  C   UNL     1      -1.374  -2.986  -4.368  1.00  0.00     0.188 C 
BRANCH  22  23
ATOM     23  C   UNL     1      -1.226  -2.106  -5.632  1.00  0.00     0.188 C 
BRANCH  23  24
ATOM     24  O   UNL     1      -1.273  -0.706  -5.418  1.00  0.00    -0.376 OA
BRANCH  24  25
ATOM     25  C   UNL     1      -2.473  -0.022  -5.741  1.00  0.00     0.202 C 
BRANCH  25  26
ATOM     26  C   UNL     1      -3.727  -0.382  -4.930  1.00  0.00     0.261 C 
BRANCH  26  27
ATOM     27  O   UNL     1      -4.102  -1.767  -4.939  1.00  0.00    -0.460 OA
BRANCH  27  28
ATOM     28  C   UNL     1      -4.446  -2.305  -6.126  1.00  0.00     0.338 C 
ATOM     29  O   UNL     1      -4.496  -1.743  -7.209  1.00  0.00    -0.246 OA
BRANCH  28  30
ATOM     30  C   UNL     1      -4.582  -3.761  -5.937  1.00  0.00     0.060 A 
ATOM     31  C   UNL     1      -3.717  -4.621  -6.627  1.00  0.00     0.016 A 
ATOM     32  C   UNL     1      -5.554  -4.271  -5.076  1.00  0.00     0.016 A 
ATOM     33  C   UNL     1      -3.846  -6.001  -6.483  1.00  0.00     0.010 A 
ATOM     34  C   UNL     1      -5.702  -5.655  -4.955  1.00  0.00     0.010 A 
ATOM     35  C   UNL     1      -4.872  -6.524  -5.686  1.00  0.00    -0.014 A 
BRANCH  35  36
ATOM     36  C   UNL     1      -5.220  -7.959  -5.794  1.00  0.00     0.031 A 
ATOM     37  C   UNL     1      -6.345  -8.346  -6.715  1.00  0.00     0.074 A 
ATOM     38  C   UNL     1      -4.542  -8.903  -5.119  1.00  0.00     0.049 A 
ATOM     39  N   UNL     1      -6.866  -9.524  -6.942  1.00  0.00    -0.248 NA
ATOM     40  C   UNL     1      -6.966  -7.253  -7.483  1.00  0.00     0.031 C 
ATOM     41  C   UNL     1      -3.396  -8.664  -4.244  1.00  0.00     0.029 A 
ATOM     42  N   UNL     1      -4.731 -10.262  -5.067  1.00  0.00    -0.354 N 
ATOM     43  C   UNL     1      -7.880  -9.312  -7.869  1.00  0.00     0.074 A 
ATOM     44  C   UNL     1      -7.921  -7.893  -8.140  1.00  0.00     0.031 C 
ATOM     45  C   UNL     1      -2.989  -9.840  -3.733  1.00  0.00     0.029 A 
ATOM     46  C   UNL     1      -3.868 -10.904  -4.214  1.00  0.00     0.049 A 
ATOM     47  H   UNL     1      -5.419 -10.730  -5.591  1.00  0.00     0.167 HD
ATOM     48  C   UNL     1      -8.700 -10.219  -8.449  1.00  0.00     0.031 A 
ATOM     49  C   UNL     1      -3.816 -12.200  -3.845  1.00  0.00     0.031 A 
ATOM     50  C   UNL     1      -8.672 -11.628  -8.165  1.00  0.00     0.049 A 
ATOM     51  C   UNL     1      -4.809 -13.174  -4.428  1.00  0.00     0.074 A 
ATOM     52  C   UNL     1      -9.461 -12.630  -8.702  1.00  0.00     0.029 A 
ATOM     53  N   UNL     1      -7.817 -12.232  -7.257  1.00  0.00    -0.354 N 
ATOM     54  N   UNL     1      -5.749 -12.968  -5.319  1.00  0.00    -0.248 NA
ATOM     55  C   UNL     1      -4.726 -14.564  -3.955  1.00  0.00     0.031 C 
ATOM     56  C   UNL     1      -9.126 -13.832  -8.070  1.00  0.00     0.029 A 
ATOM     57  C   UNL     1      -8.079 -13.590  -7.196  1.00  0.00     0.049 A 
ATOM     58  H   UNL     1      -7.126 -11.765  -6.734  1.00  0.00     0.167 HD
ATOM     59  C   UNL     1      -6.344 -14.206  -5.538  1.00  0.00     0.074 A 
ATOM     60  C   UNL     1      -5.647 -15.159  -4.699  1.00  0.00     0.031 C 
ATOM     61  C   UNL     1      -7.373 -14.527  -6.360  1.00  0.00     0.031 A 
BRANCH  48  62
ATOM     62  C   UNL     1      -9.726  -9.704  -9.419  1.00  0.00    -0.014 A 
ATOM     63  C   UNL     1      -9.358  -9.205 -10.678  1.00  0.00     0.009 A 
ATOM     64  C   UNL     1     -11.088  -9.751  -9.079  1.00  0.00     0.009 A 
ATOM     65  C   UNL     1     -10.331  -8.734 -11.564  1.00  0.00     0.001 A 
ATOM     66  C   UNL     1     -12.059  -9.309  -9.978  1.00  0.00     0.001 A 
ATOM     67  C   UNL     1     -11.680  -8.793 -11.216  1.00  0.00     0.000 A 
ENDBRANCH  48  62
BRANCH  49  68
ATOM     68  C   UNL     1      -2.809 -12.659  -2.850  1.00  0.00    -0.014 A 
ATOM     69  C   UNL     1      -1.792 -13.554  -3.217  1.00  0.00     0.009 A 
ATOM     70  C   UNL     1      -2.889 -12.241  -1.512  1.00  0.00     0.009 A 
ATOM     71  C   UNL     1      -0.900 -14.046  -2.260  1.00  0.00     0.001 A 
ATOM     72  C   UNL     1      -1.976 -12.707  -0.565  1.00  0.00     0.001 A 
ATOM     73  C   UNL     1      -0.990 -13.620  -0.936  1.00  0.00     0.000 A 
ENDBRANCH  49  68
BRANCH  61  74
ATOM     74  C   UNL     1      -7.777 -15.975  -6.435  1.00  0.00    -0.014 A 
ATOM     75  C   UNL     1      -8.419 -16.617  -5.365  1.00  0.00     0.009 A 
ATOM     76  C   UNL     1      -7.552 -16.695  -7.620  1.00  0.00     0.009 A 
ATOM     77  C   UNL     1      -8.790 -17.959  -5.466  1.00  0.00     0.001 A 
ATOM     78  C   UNL     1      -7.956 -18.026  -7.732  1.00  0.00     0.001 A 
ATOM     79  C   UNL     1      -8.565 -18.660  -6.651  1.00  0.00     0.000 A 
ENDBRANCH  61  74
ENDBRANCH  35  36
ENDBRANCH  28  30
ENDBRANCH  27  28
ENDBRANCH  26  27
ENDBRANCH  25  26
ENDBRANCH  24  25
ENDBRANCH  23  24
ENDBRANCH  22  23
ENDBRANCH  21  22
ENDBRANCH   1  21
TORSDOF 23
