REMARK SMILES Cc1nc(NC(=O)[C@H]2[C@@H]3CC[C@@H](C3)[C@@H]2C(=O)OCCOCCOCCOCCOC(=O)c2ccc(-c3c4nc(c(-c5ccccc5)c5ccc([nH]5)c(-c5ccccc5)c5nc(c(-c6ccccc6)c6ccc3[nH]6)C=C5)C=C4)cc2)sc1-c1ccccc1
REMARK SMILES IDX 22 1 21 2 20 3 19 4 18 5 17 6 15 7 16 8 14 9 8 10 9 11 10 12
REMARK SMILES IDX 13 13 12 14 11 15 6 16 5 17 7 19 4 20 1 21 2 22 3 23 81 24
REMARK SMILES IDX 80 25 82 26 83 27 87 28 84 29 86 30 85 31 23 32 24 33 25 34
REMARK SMILES IDX 26 35 27 36 28 37 29 38 30 39 31 40 32 41 33 42 79 43 34 44
REMARK SMILES IDX 78 45 35 46 36 47 37 48 72 49 38 50 77 51 71 52 73 53 39 54
REMARK SMILES IDX 76 55 70 56 69 57 40 59 62 60 47 61 61 62 48 63 51 64 60 65
REMARK SMILES IDX 74 66 49 67 50 68 59 70 75 71 52 72 41 73 42 74 46 75 43 76
REMARK SMILES IDX 45 77 44 78 63 79 64 80 68 81 65 82 67 83 66 84 53 85 54 86
REMARK SMILES IDX 58 87 55 88 57 89 56 90
REMARK H PARENT 5 18 73 58 51 69
REMARK Flexibility Score: inf
ROOT
ATOM      1  C   UNL     1      -0.024   1.050   3.409  1.00  0.00     0.188 C 
ENDROOT
BRANCH   1   2
ATOM      2  C   UNL     1      -1.057   2.174   3.522  1.00  0.00     0.188 C 
BRANCH   2   3
ATOM      3  O   UNL     1      -2.141   1.919   4.415  1.00  0.00    -0.376 OA
BRANCH   3   4
ATOM      4  C   UNL     1      -3.247   1.155   3.933  1.00  0.00     0.202 C 
BRANCH   4   5
ATOM      5  C   UNL     1      -4.229   1.889   3.012  1.00  0.00     0.261 C 
BRANCH   5   6
ATOM      6  O   UNL     1      -3.711   1.952   1.677  1.00  0.00    -0.463 OA
BRANCH   6   7
ATOM      7  C   UNL     1      -3.280   3.166   1.232  1.00  0.00     0.310 C 
ATOM      8  O   UNL     1      -3.440   4.235   1.811  1.00  0.00    -0.252 OA
BRANCH   7   9
ATOM      9  C   UNL     1      -2.469   2.953  -0.027  1.00  0.00     0.115 C 
ATOM     10  C   UNL     1      -1.228   3.835  -0.160  1.00  0.00     0.096 C 
ATOM     11  C   UNL     1      -1.550   4.667  -1.425  1.00  0.00     0.003 C 
ATOM     12  C   UNL     1      -2.794   5.552  -1.165  1.00  0.00     0.005 C 
ATOM     13  C   UNL     1      -2.123   3.588  -2.339  1.00  0.00     0.009 C 
ATOM     14  C   UNL     1      -3.232   3.209  -1.346  1.00  0.00     0.004 C 
ATOM     15  C   UNL     1      -3.963   4.556  -1.266  1.00  0.00     0.005 C 
BRANCH  10  16
ATOM     16  C   UNL     1       0.166   3.196  -0.301  1.00  0.00     0.230 C 
ATOM     17  N   UNL     1       0.513   1.939  -0.665  1.00  0.00    -0.302 N 
ATOM     18  H   UNL     1       1.486   1.822  -0.755  1.00  0.00     0.172 HD
ATOM     19  O   UNL     1       1.140   3.941  -0.080  1.00  0.00    -0.274 OA
BRANCH  17  20
ATOM     20  C   UNL     1      -0.188   0.797  -0.934  1.00  0.00     0.190 A 
ATOM     21  C   UNL     1      -3.162  -1.192  -1.062  1.00  0.00     0.068 C 
ATOM     22  C   UNL     1      -1.740  -0.791  -0.965  1.00  0.00     0.058 A 
ATOM     23  N   UNL     1      -1.450   0.562  -1.152  1.00  0.00    -0.225 NA
ATOM     24  C   UNL     1      -0.640  -1.588  -0.714  1.00  0.00     0.059 A 
ATOM     25  S   UNL     1       0.777  -0.597  -0.991  1.00  0.00    -0.096 S 
BRANCH  24  26
ATOM     26  C   UNL     1      -0.429  -3.038  -0.517  1.00  0.00    -0.006 A 
ATOM     27  C   UNL     1      -0.179  -3.815   1.127  1.00  0.00     0.009 A 
ATOM     28  C   UNL     1       0.378  -3.792  -1.950  1.00  0.00     0.009 A 
ATOM     29  C   UNL     1       0.977  -5.222   1.339  1.00  0.00     0.001 A 
ATOM     30  C   UNL     1       1.527  -5.159  -1.749  1.00  0.00     0.001 A 
ATOM     31  C   UNL     1       1.891  -5.842  -0.115  1.00  0.00     0.000 A 
ENDBRANCH  24  26
ENDBRANCH  17  20
ENDBRANCH  10  16
ENDBRANCH   7   9
ENDBRANCH   6   7
ENDBRANCH   5   6
ENDBRANCH   4   5
ENDBRANCH   3   4
ENDBRANCH   2   3
ENDBRANCH   1   2
BRANCH   1  32
ATOM     32  O   UNL     1      -0.450  -0.011   2.559  1.00  0.00    -0.377 OA
BRANCH  32  33
ATOM     33  C   UNL     1      -0.652  -1.240   3.256  1.00  0.00     0.188 C 
BRANCH  33  34
ATOM     34  C   UNL     1       0.642  -1.924   3.789  1.00  0.00     0.188 C 
BRANCH  34  35
ATOM     35  O   UNL     1       1.412  -2.796   2.942  1.00  0.00    -0.376 OA
BRANCH  35  36
ATOM     36  C   UNL     1       1.983  -2.236   1.751  1.00  0.00     0.202 C 
BRANCH  36  37
ATOM     37  C   UNL     1       2.386  -3.311   0.642  1.00  0.00     0.261 C 
BRANCH  37  38
ATOM     38  O   UNL     1       1.088  -4.086  -0.203  1.00  0.00    -0.460 OA
BRANCH  38  39
ATOM     39  C   UNL     1      -0.271  -5.349  -0.395  1.00  0.00     0.338 C 
ATOM     40  O   UNL     1      -0.156  -6.620  -0.325  1.00  0.00    -0.246 OA
BRANCH  39  41
ATOM     41  C   UNL     1      -1.824  -5.182  -0.541  1.00  0.00     0.060 A 
ATOM     42  C   UNL     1      -2.656  -4.998   0.598  1.00  0.00     0.016 A 
ATOM     43  C   UNL     1      -2.375  -5.821  -1.658  1.00  0.00     0.016 A 
ATOM     44  C   UNL     1      -3.948  -5.503   0.660  1.00  0.00     0.010 A 
ATOM     45  C   UNL     1      -3.659  -6.356  -1.587  1.00  0.00     0.010 A 
ATOM     46  C   UNL     1      -4.414  -6.251  -0.408  1.00  0.00    -0.014 A 
BRANCH  46  47
ATOM     47  C   UNL     1      -5.638  -7.058  -0.299  1.00  0.00     0.031 A 
ATOM     48  C   UNL     1      -5.506  -8.545  -0.224  1.00  0.00     0.074 A 
ATOM     49  C   UNL     1      -6.820  -6.449  -0.463  1.00  0.00     0.049 A 
ATOM     50  N   UNL     1      -6.342  -9.465  -0.617  1.00  0.00    -0.248 NA
ATOM     51  C   UNL     1      -4.246  -9.062   0.337  1.00  0.00     0.031 C 
ATOM     52  C   UNL     1      -7.035  -5.003  -0.458  1.00  0.00     0.029 A 
ATOM     53  N   UNL     1      -8.039  -6.984  -0.775  1.00  0.00    -0.354 N 
ATOM     54  C   UNL     1      -5.683 -10.673  -0.421  1.00  0.00     0.074 A 
ATOM     55  C   UNL     1      -4.392 -10.369   0.157  1.00  0.00     0.031 C 
ATOM     56  C   UNL     1      -8.292  -4.756  -0.853  1.00  0.00     0.029 A 
ATOM     57  C   UNL     1      -8.927  -6.024  -1.196  1.00  0.00     0.049 A 
ATOM     58  H   UNL     1      -8.255  -7.942  -0.706  1.00  0.00     0.167 HD
ATOM     59  C   UNL     1      -6.122 -11.913  -0.741  1.00  0.00     0.031 A 
ATOM     60  C   UNL     1     -10.078  -6.157  -1.876  1.00  0.00     0.031 A 
ATOM     61  C   UNL     1      -7.415 -12.159  -1.326  1.00  0.00     0.049 A 
ATOM     62  C   UNL     1     -10.534  -7.532  -2.259  1.00  0.00     0.074 A 
ATOM     63  C   UNL     1      -7.999 -13.365  -1.668  1.00  0.00     0.029 A 
ATOM     64  N   UNL     1      -8.324 -11.162  -1.656  1.00  0.00    -0.354 N 
ATOM     65  N   UNL     1      -9.915  -8.679  -2.101  1.00  0.00    -0.248 NA
ATOM     66  C   UNL     1     -11.846  -7.633  -2.905  1.00  0.00     0.031 C 
ATOM     67  C   UNL     1      -9.247 -13.094  -2.241  1.00  0.00     0.029 A 
ATOM     68  C   UNL     1      -9.461 -11.723  -2.206  1.00  0.00     0.049 A 
ATOM     69  H   UNL     1      -8.180 -10.198  -1.519  1.00  0.00     0.167 HD
ATOM     70  C   UNL     1     -10.780  -9.646  -2.591  1.00  0.00     0.074 A 
ATOM     71  C   UNL     1     -11.963  -8.946  -3.057  1.00  0.00     0.031 C 
ATOM     72  C   UNL     1     -10.621 -10.991  -2.644  1.00  0.00     0.031 A 
BRANCH  59  73
ATOM     73  C   UNL     1      -5.190 -13.074  -0.524  1.00  0.00    -0.014 A 
ATOM     74  C   UNL     1      -4.849 -13.519   0.762  1.00  0.00     0.009 A 
ATOM     75  C   UNL     1      -4.673 -13.762  -1.635  1.00  0.00     0.009 A 
ATOM     76  C   UNL     1      -3.988 -14.608   0.930  1.00  0.00     0.001 A 
ATOM     77  C   UNL     1      -3.835 -14.866  -1.464  1.00  0.00     0.001 A 
ATOM     78  C   UNL     1      -3.486 -15.283  -0.182  1.00  0.00     0.000 A 
ENDBRANCH  59  73
BRANCH  60  79
ATOM     79  C   UNL     1     -10.835  -4.940  -2.253  1.00  0.00    -0.014 A 
ATOM     80  C   UNL     1     -11.985  -4.585  -1.537  1.00  0.00     0.009 A 
ATOM     81  C   UNL     1     -10.369  -4.087  -3.267  1.00  0.00     0.009 A 
ATOM     82  C   UNL     1     -12.662  -3.401  -1.833  1.00  0.00     0.001 A 
ATOM     83  C   UNL     1     -11.035  -2.891  -3.545  1.00  0.00     0.001 A 
ATOM     84  C   UNL     1     -12.182  -2.552  -2.830  1.00  0.00     0.000 A 
ENDBRANCH  60  79
BRANCH  72  85
ATOM     85  C   UNL     1     -11.781 -11.790  -3.158  1.00  0.00    -0.014 A 
ATOM     86  C   UNL     1     -12.066 -11.867  -4.528  1.00  0.00     0.009 A 
ATOM     87  C   UNL     1     -12.566 -12.519  -2.250  1.00  0.00     0.009 A 
ATOM     88  C   UNL     1     -13.134 -12.644  -4.978  1.00  0.00     0.001 A 
ATOM     89  C   UNL     1     -13.617 -13.313  -2.705  1.00  0.00     0.001 A 
ATOM     90  C   UNL     1     -13.904 -13.369  -4.068  1.00  0.00     0.000 A 
ENDBRANCH  72  85
ENDBRANCH  46  47
ENDBRANCH  39  41
ENDBRANCH  38  39
ENDBRANCH  37  38
ENDBRANCH  36  37
ENDBRANCH  35  36
ENDBRANCH  34  35
ENDBRANCH  33  34
ENDBRANCH  32  33
ENDBRANCH   1  32
TORSDOF 23
