REMARK SMILES Cc1cccc(-c2cc(OCC(=O)OCCOCCOCCOCCOC(=O)c3ccc(-c4c5nc(c(-c6ccccc6)c6ccc([nH]6)c(-c6ccccc6)c6nc(c(-c7ccccc7)c7ccc4[nH]7)C=C6)C=C5)cc3)nc(Nc3ccccc3C)n2)c1
REMARK SMILES IDX 19 1 18 2 17 3 16 4 15 5 14 6 12 7 13 8 11 9 10 10 9 11 7 12
REMARK SMILES IDX 8 13 87 14 78 15 77 16 6 17 1 18 2 19 3 20 88 21 4 22 5 23
REMARK SMILES IDX 79 24 80 26 81 27 85 28 82 29 84 30 86 31 83 32 20 33 21 34
REMARK SMILES IDX 22 35 23 36 24 37 25 38 26 39 27 40 28 41 29 42 30 43 76 44
REMARK SMILES IDX 31 45 75 46 32 47 33 48 34 49 69 50 35 51 74 52 68 53 70 54
REMARK SMILES IDX 36 55 73 56 67 57 66 58 37 60 59 61 44 62 58 63 45 64 48 65
REMARK SMILES IDX 57 66 71 67 46 68 47 69 56 71 72 72 49 73 38 74 39 75 43 76
REMARK SMILES IDX 40 77 42 78 41 79 60 80 61 81 65 82 62 83 64 84 63 85 50 86
REMARK SMILES IDX 51 87 55 88 52 89 54 90 53 91
REMARK H PARENT 79 25 70 59 48 70
REMARK Flexibility Score: inf
ROOT
ATOM      1  C   UNL     1      -1.292   5.121  -0.564  1.00  0.00     0.188 C 
ENDROOT
BRANCH   1   2
ATOM      2  C   UNL     1      -0.930   3.798  -1.240  1.00  0.00     0.188 C 
BRANCH   2   3
ATOM      3  O   UNL     1       0.435   3.697  -1.583  1.00  0.00    -0.376 OA
BRANCH   3   4
ATOM      4  C   UNL     1       0.826   3.043  -2.777  1.00  0.00     0.202 C 
BRANCH   4   5
ATOM      5  C   UNL     1       0.408   3.713  -4.088  1.00  0.00     0.261 C 
BRANCH   5   6
ATOM      6  O   UNL     1      -0.876   4.341  -4.060  1.00  0.00    -0.461 OA
BRANCH   6   7
ATOM      7  C   UNL     1      -1.929   3.575  -4.426  1.00  0.00     0.344 C 
ATOM      8  O   UNL     1      -1.844   2.441  -4.894  1.00  0.00    -0.248 OA
BRANCH   7   9
ATOM      9  C   UNL     1      -3.250   4.289  -4.104  1.00  0.00     0.353 C 
BRANCH   9  10
ATOM     10  O   UNL     1      -4.018   4.233  -2.916  1.00  0.00    -0.466 OA
BRANCH  10  11
ATOM     11  C   UNL     1      -3.955   3.267  -1.960  1.00  0.00     0.219 A 
ATOM     12  C   UNL     1      -3.299   1.263  -0.945  1.00  0.00     0.080 A 
ATOM     13  C   UNL     1      -3.452   1.993  -2.112  1.00  0.00     0.097 A 
ATOM     14  N   UNL     1      -3.740   1.723   0.249  1.00  0.00    -0.212 NA
ATOM     15  C   UNL     1      -4.205   2.974   0.329  1.00  0.00     0.231 A 
ATOM     16  N   UNL     1      -4.320   3.760  -0.750  1.00  0.00    -0.177 NA
BRANCH  12  17
ATOM     17  C   UNL     1      -2.412   0.082  -0.809  1.00  0.00     0.001 A 
ATOM     18  C   UNL     1       1.378  -0.487  -0.633  1.00  0.00     0.044 C 
ATOM     19  C   UNL     1      -0.100  -0.758  -0.576  1.00  0.00    -0.050 A 
ATOM     20  C   UNL     1      -0.585  -1.932  -0.007  1.00  0.00     0.003 A 
ATOM     21  C   UNL     1      -1.024   0.195  -1.033  1.00  0.00     0.013 A 
ATOM     22  C   UNL     1      -1.959  -2.110   0.158  1.00  0.00     0.001 A 
ATOM     23  C   UNL     1      -2.860  -1.102  -0.215  1.00  0.00     0.010 A 
ENDBRANCH  12  17
BRANCH  15  24
ATOM     24  N   UNL     1      -4.433   3.540   1.597  1.00  0.00    -0.324 N 
ATOM     25  H   UNL     1      -4.304   4.512   1.675  1.00  0.00     0.170 HD
BRANCH  24  26
ATOM     26  C   UNL     1      -4.828   2.860   2.764  1.00  0.00     0.044 A 
ATOM     27  C   UNL     1      -5.884   1.938   2.669  1.00  0.00     0.026 A 
ATOM     28  C   UNL     1      -4.234   3.052   4.029  1.00  0.00    -0.027 A 
ATOM     29  C   UNL     1      -6.266   1.143   3.748  1.00  0.00     0.002 A 
ATOM     30  C   UNL     1      -4.561   2.173   5.084  1.00  0.00     0.005 A 
ATOM     31  C   UNL     1      -3.307   4.180   4.383  1.00  0.00     0.046 C 
ATOM     32  C   UNL     1      -5.563   1.218   4.940  1.00  0.00     0.000 A 
ENDBRANCH  24  26
ENDBRANCH  15  24
ENDBRANCH  10  11
ENDBRANCH   9  10
ENDBRANCH   7   9
ENDBRANCH   6   7
ENDBRANCH   5   6
ENDBRANCH   4   5
ENDBRANCH   3   4
ENDBRANCH   2   3
ENDBRANCH   1   2
BRANCH   1  33
ATOM     33  O   UNL     1      -0.408   5.550   0.462  1.00  0.00    -0.377 OA
BRANCH  33  34
ATOM     34  C   UNL     1      -0.337   4.706   1.592  1.00  0.00     0.188 C 
BRANCH  34  35
ATOM     35  C   UNL     1       0.420   3.417   1.336  1.00  0.00     0.188 C 
BRANCH  35  36
ATOM     36  O   UNL     1      -0.305   2.209   1.315  1.00  0.00    -0.376 OA
BRANCH  36  37
ATOM     37  C   UNL     1      -0.935   1.790   2.521  1.00  0.00     0.202 C 
BRANCH  37  38
ATOM     38  C   UNL     1      -0.394   2.328   3.867  1.00  0.00     0.261 C 
BRANCH  38  39
ATOM     39  O   UNL     1       1.039   2.182   4.018  1.00  0.00    -0.460 OA
BRANCH  39  40
ATOM     40  C   UNL     1       1.687   3.286   4.528  1.00  0.00     0.338 C 
ATOM     41  O   UNL     1       1.200   4.075   5.324  1.00  0.00    -0.246 OA
BRANCH  40  42
ATOM     42  C   UNL     1       2.884   3.620   3.663  1.00  0.00     0.060 A 
ATOM     43  C   UNL     1       3.166   4.981   3.443  1.00  0.00     0.016 A 
ATOM     44  C   UNL     1       3.300   2.690   2.712  1.00  0.00     0.016 A 
ATOM     45  C   UNL     1       3.607   5.425   2.178  1.00  0.00     0.010 A 
ATOM     46  C   UNL     1       3.607   3.155   1.428  1.00  0.00     0.010 A 
ATOM     47  C   UNL     1       3.693   4.527   1.105  1.00  0.00    -0.014 A 
BRANCH  47  48
ATOM     48  C   UNL     1       3.564   4.937  -0.338  1.00  0.00     0.031 A 
ATOM     49  C   UNL     1       4.198   4.146  -1.467  1.00  0.00     0.074 A 
ATOM     50  C   UNL     1       2.635   5.866  -0.708  1.00  0.00     0.049 A 
ATOM     51  N   UNL     1       4.138   4.452  -2.729  1.00  0.00    -0.248 NA
ATOM     52  C   UNL     1       4.983   2.931  -1.280  1.00  0.00     0.031 C 
ATOM     53  C   UNL     1       2.006   5.962  -2.021  1.00  0.00     0.029 A 
ATOM     54  N   UNL     1       1.954   6.851   0.013  1.00  0.00    -0.354 N 
ATOM     55  C   UNL     1       4.506   3.362  -3.492  1.00  0.00     0.074 A 
ATOM     56  C   UNL     1       5.115   2.475  -2.531  1.00  0.00     0.031 C 
ATOM     57  C   UNL     1       1.044   6.883  -2.044  1.00  0.00     0.029 A 
ATOM     58  C   UNL     1       1.234   7.688  -0.880  1.00  0.00     0.049 A 
ATOM     59  H   UNL     1       1.970   6.950   0.993  1.00  0.00     0.167 HD
ATOM     60  C   UNL     1       4.171   3.290  -4.825  1.00  0.00     0.031 A 
ATOM     61  C   UNL     1       1.468   9.026  -0.965  1.00  0.00     0.031 A 
ATOM     62  C   UNL     1       3.565   4.548  -5.365  1.00  0.00     0.049 A 
ATOM     63  C   UNL     1       2.289   9.348  -2.216  1.00  0.00     0.074 A 
ATOM     64  C   UNL     1       2.578   4.897  -6.281  1.00  0.00     0.029 A 
ATOM     65  N   UNL     1       3.973   5.775  -4.837  1.00  0.00    -0.354 N 
ATOM     66  N   UNL     1       2.306   8.619  -3.314  1.00  0.00    -0.248 NA
ATOM     67  C   UNL     1       3.249  10.443  -2.293  1.00  0.00     0.031 C 
ATOM     68  C   UNL     1       2.400   6.323  -6.265  1.00  0.00     0.029 A 
ATOM     69  C   UNL     1       3.318   6.861  -5.386  1.00  0.00     0.049 A 
ATOM     70  H   UNL     1       4.662   5.859  -4.138  1.00  0.00     0.167 HD
ATOM     71  C   UNL     1       3.392   8.950  -4.082  1.00  0.00     0.074 A 
ATOM     72  C   UNL     1       3.900  10.153  -3.436  1.00  0.00     0.031 C 
ATOM     73  C   UNL     1       3.874   8.189  -5.121  1.00  0.00     0.031 A 
BRANCH  60  74
ATOM     74  C   UNL     1       4.312   2.005  -5.673  1.00  0.00    -0.014 A 
ATOM     75  C   UNL     1       3.944   1.993  -7.034  1.00  0.00     0.009 A 
ATOM     76  C   UNL     1       4.763   0.757  -5.195  1.00  0.00     0.009 A 
ATOM     77  C   UNL     1       3.994   0.834  -7.837  1.00  0.00     0.001 A 
ATOM     78  C   UNL     1       4.857  -0.399  -5.996  1.00  0.00     0.001 A 
ATOM     79  C   UNL     1       4.460  -0.364  -7.320  1.00  0.00     0.000 A 
ENDBRANCH  60  74
BRANCH  61  80
ATOM     80  C   UNL     1       1.354   9.625   0.406  1.00  0.00    -0.014 A 
ATOM     81  C   UNL     1       0.013   9.700   0.863  1.00  0.00     0.009 A 
ATOM     82  C   UNL     1       2.351   9.372   1.366  1.00  0.00     0.009 A 
ATOM     83  C   UNL     1      -0.341   9.230   2.136  1.00  0.00     0.001 A 
ATOM     84  C   UNL     1       1.988   8.911   2.646  1.00  0.00     0.001 A 
ATOM     85  C   UNL     1       0.646   8.776   3.003  1.00  0.00     0.000 A 
ENDBRANCH  61  80
BRANCH  73  86
ATOM     86  C   UNL     1       5.087   8.569  -5.950  1.00  0.00    -0.014 A 
ATOM     87  C   UNL     1       5.439   9.889  -6.238  1.00  0.00     0.009 A 
ATOM     88  C   UNL     1       5.883   7.562  -6.550  1.00  0.00     0.009 A 
ATOM     89  C   UNL     1       6.605  10.189  -6.953  1.00  0.00     0.001 A 
ATOM     90  C   UNL     1       7.026   7.853  -7.294  1.00  0.00     0.001 A 
ATOM     91  C   UNL     1       7.407   9.172  -7.466  1.00  0.00     0.000 A 
ENDBRANCH  73  86
ENDBRANCH  47  48
ENDBRANCH  40  42
ENDBRANCH  39  40
ENDBRANCH  38  39
ENDBRANCH  37  38
ENDBRANCH  36  37
ENDBRANCH  35  36
ENDBRANCH  34  35
ENDBRANCH  33  34
ENDBRANCH   1  33
TORSDOF 25
