REMARK SMILES COc1cc2c(CC(=O)OCCOCCOCCOCCOC(=O)c3ccc(-c4c5nc(c(-c6ccccc6)c6ccc([nH]6)c(-c6ccccc6)c6nc(c(-c7ccccc7)c7ccc4[nH]7)C=C6)C=C5)cc3)c(C)n(C(=O)c3ccc(Cl)cc3)c2cc1Cl
REMARK SMILES IDX 15 1 14 2 13 3 12 4 11 5 10 6 8 7 9 8 7 9 6 10 3 11 4 12
REMARK SMILES IDX 87 13 5 14 86 15 88 16 85 17 73 18 75 19 74 20 2 21 1 22
REMARK SMILES IDX 76 23 77 24 78 25 79 26 84 27 80 28 83 29 81 30 82 31 16 32
REMARK SMILES IDX 17 33 18 34 19 35 20 36 21 37 22 38 23 39 24 40 25 41 26 42
REMARK SMILES IDX 72 43 27 44 71 45 28 46 29 47 30 48 65 49 31 50 70 51 64 52
REMARK SMILES IDX 66 53 32 54 69 55 63 56 62 57 33 59 55 60 40 61 54 62 41 63
REMARK SMILES IDX 44 64 53 65 67 66 42 67 43 68 52 70 68 71 45 72 34 73 35 74
REMARK SMILES IDX 39 75 36 76 38 77 37 78 56 79 57 80 61 81 58 82 60 83 59 84
REMARK SMILES IDX 46 85 47 86 51 87 48 88 50 89 49 90
REMARK H PARENT 66 58 44 69
REMARK Flexibility Score: inf
ROOT
ATOM      1  C   UNL     1      -1.228   3.483   2.084  1.00  0.00     0.188 C 
ENDROOT
BRANCH   1   2
ATOM      2  C   UNL     1      -2.610   3.970   1.665  1.00  0.00     0.188 C 
BRANCH   2   3
ATOM      3  O   UNL     1      -2.688   5.369   1.469  1.00  0.00    -0.376 OA
BRANCH   3   4
ATOM      4  C   UNL     1      -3.229   6.161   2.514  1.00  0.00     0.202 C 
BRANCH   4   5
ATOM      5  C   UNL     1      -2.447   6.308   3.837  1.00  0.00     0.261 C 
BRANCH   5   6
ATOM      6  O   UNL     1      -1.874   5.115   4.413  1.00  0.00    -0.463 OA
BRANCH   6   7
ATOM      7  C   UNL     1      -2.662   4.328   5.183  1.00  0.00     0.310 C 
ATOM      8  O   UNL     1      -3.848   4.576   5.387  1.00  0.00    -0.252 OA
BRANCH   7   9
ATOM      9  C   UNL     1      -2.010   3.047   5.713  1.00  0.00     0.160 C 
BRANCH   9  10
ATOM     10  C   UNL     1      -0.514   2.801   5.557  1.00  0.00    -0.008 A 
ATOM     11  C   UNL     1       0.463   0.204   2.862  1.00  0.00     0.138 A 
ATOM     12  C   UNL     1      -0.389   0.899   3.744  1.00  0.00     0.058 A 
ATOM     13  C   UNL     1       1.834   0.311   3.041  1.00  0.00     0.085 A 
ATOM     14  C   UNL     1       0.108   1.838   4.688  1.00  0.00     0.008 A 
ATOM     15  C   UNL     1       2.346   1.161   4.028  1.00  0.00     0.051 A 
ATOM     16  Cl  UNL     1       3.012  -0.602   2.160  1.00  0.00    -0.080 Cl
ATOM     17  C   UNL     1       1.493   1.951   4.834  1.00  0.00     0.058 A 
ATOM     18  C   UNL     1       0.513   3.378   6.299  1.00  0.00     0.028 A 
ATOM     19  N   UNL     1       1.756   2.893   5.846  1.00  0.00    -0.280 N 
ATOM     20  C   UNL     1       0.353   4.371   7.409  1.00  0.00     0.065 C 
BRANCH  11  21
ATOM     21  O   UNL     1      -0.201  -0.538   1.919  1.00  0.00    -0.495 OA
ATOM     22  C   UNL     1       0.380  -0.607   0.618  1.00  0.00     0.278 C 
ENDBRANCH  11  21
BRANCH  19  23
ATOM     23  C   UNL     1       3.053   3.269   6.323  1.00  0.00     0.262 C 
ATOM     24  O   UNL     1       3.150   4.104   7.219  1.00  0.00    -0.268 OA
BRANCH  23  25
ATOM     25  C   UNL     1       4.328   2.726   5.819  1.00  0.00     0.040 A 
ATOM     26  C   UNL     1       4.906   3.279   4.669  1.00  0.00     0.015 A 
ATOM     27  C   UNL     1       4.911   1.621   6.453  1.00  0.00     0.015 A 
ATOM     28  C   UNL     1       6.038   2.676   4.112  1.00  0.00     0.021 A 
ATOM     29  C   UNL     1       6.046   1.028   5.892  1.00  0.00     0.021 A 
ATOM     30  C   UNL     1       6.595   1.548   4.718  1.00  0.00     0.041 A 
ATOM     31  Cl  UNL     1       7.953   0.777   3.996  1.00  0.00    -0.084 Cl
ENDBRANCH  23  25
ENDBRANCH  19  23
ENDBRANCH   9  10
ENDBRANCH   7   9
ENDBRANCH   6   7
ENDBRANCH   5   6
ENDBRANCH   4   5
ENDBRANCH   3   4
ENDBRANCH   2   3
ENDBRANCH   1   2
BRANCH   1  32
ATOM     32  O   UNL     1      -0.026   4.040   1.614  1.00  0.00    -0.377 OA
BRANCH  32  33
ATOM     33  C   UNL     1      -0.070   5.200   0.827  1.00  0.00     0.188 C 
BRANCH  33  34
ATOM     34  C   UNL     1      -0.470   4.977  -0.636  1.00  0.00     0.188 C 
BRANCH  34  35
ATOM     35  O   UNL     1      -0.044   3.834  -1.381  1.00  0.00    -0.376 OA
BRANCH  35  36
ATOM     36  C   UNL     1       0.824   2.875  -0.801  1.00  0.00     0.202 C 
BRANCH  36  37
ATOM     37  C   UNL     1       2.318   3.237  -0.725  1.00  0.00     0.261 C 
BRANCH  37  38
ATOM     38  O   UNL     1       2.557   4.572  -0.269  1.00  0.00    -0.460 OA
BRANCH  38  39
ATOM     39  C   UNL     1       3.178   5.427  -1.119  1.00  0.00     0.338 C 
ATOM     40  O   UNL     1       3.831   5.157  -2.111  1.00  0.00    -0.246 OA
BRANCH  39  41
ATOM     41  C   UNL     1       2.629   6.762  -0.802  1.00  0.00     0.060 A 
ATOM     42  C   UNL     1       2.644   7.250   0.507  1.00  0.00     0.016 A 
ATOM     43  C   UNL     1       1.804   7.339  -1.777  1.00  0.00     0.016 A 
ATOM     44  C   UNL     1       1.707   8.213   0.871  1.00  0.00     0.010 A 
ATOM     45  C   UNL     1       0.860   8.295  -1.406  1.00  0.00     0.010 A 
ATOM     46  C   UNL     1       0.774   8.695  -0.070  1.00  0.00    -0.014 A 
BRANCH  46  47
ATOM     47  C   UNL     1      -0.070   9.821   0.344  1.00  0.00     0.031 A 
ATOM     48  C   UNL     1       0.740  11.036   0.635  1.00  0.00     0.074 A 
ATOM     49  C   UNL     1      -1.413   9.935   0.310  1.00  0.00     0.049 A 
ATOM     50  N   UNL     1       0.795  11.735   1.721  1.00  0.00    -0.248 NA
ATOM     51  C   UNL     1       1.700  11.437  -0.408  1.00  0.00     0.031 C 
ATOM     52  C   UNL     1      -2.389   9.025  -0.285  1.00  0.00     0.029 A 
ATOM     53  N   UNL     1      -2.183  10.995   0.722  1.00  0.00    -0.354 N 
ATOM     54  C   UNL     1       1.710  12.747   1.454  1.00  0.00     0.074 A 
ATOM     55  C   UNL     1       2.340  12.429   0.199  1.00  0.00     0.031 C 
ATOM     56  C   UNL     1      -3.578   9.666  -0.398  1.00  0.00     0.029 A 
ATOM     57  C   UNL     1      -3.474  10.986   0.210  1.00  0.00     0.049 A 
ATOM     58  H   UNL     1      -1.850  11.698   1.325  1.00  0.00     0.167 HD
ATOM     59  C   UNL     1       1.776  13.897   2.173  1.00  0.00     0.031 A 
ATOM     60  C   UNL     1      -4.353  12.020   0.205  1.00  0.00     0.031 A 
ATOM     61  C   UNL     1       1.163  13.783   3.464  1.00  0.00     0.049 A 
ATOM     62  C   UNL     1      -3.904  13.033   1.187  1.00  0.00     0.074 A 
ATOM     63  C   UNL     1       1.376  12.978   4.566  1.00  0.00     0.029 A 
ATOM     64  N   UNL     1      -0.065  14.365   3.654  1.00  0.00    -0.354 N 
ATOM     65  N   UNL     1      -3.961  12.893   2.478  1.00  0.00    -0.248 NA
ATOM     66  C   UNL     1      -3.080  14.135   0.715  1.00  0.00     0.031 C 
ATOM     67  C   UNL     1       0.087  12.765   5.130  1.00  0.00     0.029 A 
ATOM     68  C   UNL     1      -0.835  13.469   4.353  1.00  0.00     0.049 A 
ATOM     69  H   UNL     1      -0.342  15.258   3.347  1.00  0.00     0.167 HD
ATOM     70  C   UNL     1      -2.876  13.607   2.962  1.00  0.00     0.074 A 
ATOM     71  C   UNL     1      -2.453  14.449   1.849  1.00  0.00     0.031 C 
ATOM     72  C   UNL     1      -2.248  13.249   4.121  1.00  0.00     0.031 A 
BRANCH  59  73
ATOM     73  C   UNL     1       2.140  15.210   1.535  1.00  0.00    -0.014 A 
ATOM     74  C   UNL     1       2.048  15.434   0.144  1.00  0.00     0.009 A 
ATOM     75  C   UNL     1       2.368  16.334   2.341  1.00  0.00     0.009 A 
ATOM     76  C   UNL     1       2.217  16.697  -0.422  1.00  0.00     0.001 A 
ATOM     77  C   UNL     1       2.486  17.613   1.781  1.00  0.00     0.001 A 
ATOM     78  C   UNL     1       2.419  17.792   0.401  1.00  0.00     0.000 A 
ENDBRANCH  59  73
BRANCH  60  79
ATOM     79  C   UNL     1      -5.408  12.344  -0.788  1.00  0.00    -0.014 A 
ATOM     80  C   UNL     1      -5.299  11.900  -2.117  1.00  0.00     0.009 A 
ATOM     81  C   UNL     1      -6.381  13.320  -0.507  1.00  0.00     0.009 A 
ATOM     82  C   UNL     1      -6.101  12.433  -3.132  1.00  0.00     0.001 A 
ATOM     83  C   UNL     1      -7.176  13.863  -1.526  1.00  0.00     0.001 A 
ATOM     84  C   UNL     1      -7.026  13.429  -2.840  1.00  0.00     0.000 A 
ENDBRANCH  60  79
BRANCH  72  85
ATOM     85  C   UNL     1      -2.949  12.301   5.068  1.00  0.00    -0.014 A 
ATOM     86  C   UNL     1      -2.964  12.620   6.437  1.00  0.00     0.009 A 
ATOM     87  C   UNL     1      -3.454  11.048   4.678  1.00  0.00     0.009 A 
ATOM     88  C   UNL     1      -3.462  11.720   7.382  1.00  0.00     0.001 A 
ATOM     89  C   UNL     1      -3.983  10.160   5.620  1.00  0.00     0.001 A 
ATOM     90  C   UNL     1      -3.978  10.492   6.973  1.00  0.00     0.000 A 
ENDBRANCH  72  85
ENDBRANCH  46  47
ENDBRANCH  39  41
ENDBRANCH  38  39
ENDBRANCH  37  38
ENDBRANCH  36  37
ENDBRANCH  35  36
ENDBRANCH  34  35
ENDBRANCH  33  34
ENDBRANCH  32  33
ENDBRANCH   1  32
TORSDOF 24
