REMARK SMILES COc1ccc(-c2ncn(CC(=O)OCCOCCOCCOCCOC(=O)c3ccc(-c4c5nc(c(-c6ccccc6)c6ccc([nH]6)c(-c6ccccc6)c6nc(c(-c7ccccc7)c7ccc4[nH]7)C=C6)C=C5)cc3)c2-c2ccc(OC)cc2)cc1
REMARK SMILES IDX 19 1 18 2 17 3 16 4 15 5 14 6 12 7 13 8 11 9 10 10 7 11 8 12
REMARK SMILES IDX 77 13 9 14 6 15 3 16 4 17 87 18 5 19 86 20 2 21 1 22 78 23
REMARK SMILES IDX 79 24 85 25 80 26 84 27 81 28 82 29 83 30 20 31 21 32 22 33
REMARK SMILES IDX 23 34 24 35 25 36 26 37 27 38 28 39 29 40 30 41 76 42 31 43
REMARK SMILES IDX 75 44 32 45 33 46 34 47 69 48 35 49 74 50 68 51 70 52 36 53
REMARK SMILES IDX 73 54 67 55 66 56 37 58 59 59 44 60 58 61 45 62 48 63 57 64
REMARK SMILES IDX 71 65 46 66 47 67 56 69 72 70 49 71 38 72 39 73 43 74 40 75
REMARK SMILES IDX 42 76 41 77 60 78 61 79 65 80 62 81 64 82 63 83 50 84 51 85
REMARK SMILES IDX 55 86 52 87 54 88 53 89
REMARK H PARENT 70 57 48 68
REMARK Flexibility Score: inf
ROOT
ATOM      1  C   UNL     1      -0.902   8.338  -2.971  1.00  0.00     0.188 C 
ENDROOT
BRANCH   1   2
ATOM      2  C   UNL     1      -1.430   9.537  -2.167  1.00  0.00     0.188 C 
BRANCH   2   3
ATOM      3  O   UNL     1      -2.050  10.597  -2.880  1.00  0.00    -0.376 OA
BRANCH   3   4
ATOM      4  C   UNL     1      -1.466  10.955  -4.122  1.00  0.00     0.202 C 
BRANCH   4   5
ATOM      5  C   UNL     1       0.019  11.376  -4.108  1.00  0.00     0.261 C 
BRANCH   5   6
ATOM      6  O   UNL     1       0.956  10.409  -3.541  1.00  0.00    -0.462 OA
BRANCH   6   7
ATOM      7  C   UNL     1       1.724  10.810  -2.496  1.00  0.00     0.326 C 
ATOM      8  O   UNL     1       1.742  11.974  -2.099  1.00  0.00    -0.250 OA
BRANCH   7   9
ATOM      9  C   UNL     1       2.613   9.771  -1.819  1.00  0.00     0.246 C 
BRANCH   9  10
ATOM     10  N   UNL     1       2.496   8.336  -2.107  1.00  0.00    -0.319 N 
ATOM     11  C   UNL     1       2.521   6.139  -2.022  1.00  0.00     0.096 A 
ATOM     12  N   UNL     1       3.153   6.496  -3.184  1.00  0.00    -0.236 NA
ATOM     13  C   UNL     1       2.112   7.261  -1.275  1.00  0.00     0.076 A 
ATOM     14  C   UNL     1       3.127   7.802  -3.207  1.00  0.00     0.201 A 
BRANCH  11  15
ATOM     15  C   UNL     1       2.209   4.736  -1.778  1.00  0.00     0.003 A 
ATOM     16  C   UNL     1       1.535   2.025  -1.411  1.00  0.00     0.118 A 
ATOM     17  C   UNL     1       0.655   2.892  -2.049  1.00  0.00     0.047 A 
ATOM     18  C   UNL     1       2.769   2.501  -0.971  1.00  0.00     0.047 A 
ATOM     19  C   UNL     1       0.986   4.237  -2.228  1.00  0.00     0.014 A 
ATOM     20  C   UNL     1       3.110   3.854  -1.164  1.00  0.00     0.014 A 
BRANCH  16  21
ATOM     21  O   UNL     1       1.129   0.721  -1.347  1.00  0.00    -0.497 OA
ATOM     22  C   UNL     1       1.337   0.103  -0.081  1.00  0.00     0.278 C 
ENDBRANCH  16  21
ENDBRANCH  11  15
BRANCH  13  23
ATOM     23  C   UNL     1       1.328   7.307  -0.004  1.00  0.00     0.001 A 
ATOM     24  C   UNL     1       0.511   8.386   0.328  1.00  0.00     0.014 A 
ATOM     25  C   UNL     1       1.264   6.209   0.874  1.00  0.00     0.014 A 
ATOM     26  C   UNL     1      -0.435   8.318   1.360  1.00  0.00     0.047 A 
ATOM     27  C   UNL     1       0.333   6.137   1.931  1.00  0.00     0.047 A 
ATOM     28  C   UNL     1      -0.557   7.179   2.144  1.00  0.00     0.118 A 
BRANCH  28  29
ATOM     29  O   UNL     1      -1.578   7.221   3.046  1.00  0.00    -0.497 OA
ATOM     30  C   UNL     1      -1.868   6.037   3.777  1.00  0.00     0.278 C 
ENDBRANCH  28  29
ENDBRANCH  13  23
ENDBRANCH   9  10
ENDBRANCH   7   9
ENDBRANCH   6   7
ENDBRANCH   5   6
ENDBRANCH   4   5
ENDBRANCH   3   4
ENDBRANCH   2   3
ENDBRANCH   1   2
BRANCH   1  31
ATOM     31  O   UNL     1      -1.683   8.054  -4.113  1.00  0.00    -0.377 OA
BRANCH  31  32
ATOM     32  C   UNL     1      -2.561   6.960  -3.945  1.00  0.00     0.188 C 
BRANCH  32  33
ATOM     33  C   UNL     1      -3.599   7.145  -2.832  1.00  0.00     0.188 C 
BRANCH  33  34
ATOM     34  O   UNL     1      -3.190   7.094  -1.465  1.00  0.00    -0.376 OA
BRANCH  34  35
ATOM     35  C   UNL     1      -2.417   6.045  -0.898  1.00  0.00     0.202 C 
BRANCH  35  36
ATOM     36  C   UNL     1      -2.880   4.616  -1.065  1.00  0.00     0.261 C 
BRANCH  36  37
ATOM     37  O   UNL     1      -2.588   4.208  -2.393  1.00  0.00    -0.460 OA
BRANCH  37  38
ATOM     38  C   UNL     1      -3.637   4.059  -3.211  1.00  0.00     0.338 C 
ATOM     39  O   UNL     1      -4.829   4.236  -2.941  1.00  0.00    -0.246 OA
BRANCH  38  40
ATOM     40  C   UNL     1      -3.155   3.465  -4.454  1.00  0.00     0.060 A 
ATOM     41  C   UNL     1      -4.118   2.749  -5.146  1.00  0.00     0.016 A 
ATOM     42  C   UNL     1      -1.779   3.245  -4.640  1.00  0.00     0.016 A 
ATOM     43  C   UNL     1      -3.713   1.581  -5.728  1.00  0.00     0.010 A 
ATOM     44  C   UNL     1      -1.372   2.059  -5.195  1.00  0.00     0.010 A 
ATOM     45  C   UNL     1      -2.363   1.201  -5.639  1.00  0.00    -0.014 A 
BRANCH  45  46
ATOM     46  C   UNL     1      -2.036  -0.073  -6.213  1.00  0.00     0.031 A 
ATOM     47  C   UNL     1      -2.053  -0.020  -7.679  1.00  0.00     0.074 A 
ATOM     48  C   UNL     1      -1.847  -1.206  -5.526  1.00  0.00     0.049 A 
ATOM     49  N   UNL     1      -3.038  -0.356  -8.437  1.00  0.00    -0.248 NA
ATOM     50  C   UNL     1      -0.957   0.687  -8.348  1.00  0.00     0.031 C 
ATOM     51  C   UNL     1      -1.531  -1.414  -4.116  1.00  0.00     0.029 A 
ATOM     52  N   UNL     1      -1.853  -2.459  -6.044  1.00  0.00    -0.354 N 
ATOM     53  C   UNL     1      -2.629  -0.052  -9.722  1.00  0.00     0.074 A 
ATOM     54  C   UNL     1      -1.426   0.736  -9.594  1.00  0.00     0.031 C 
ATOM     55  C   UNL     1      -1.166  -2.709  -3.943  1.00  0.00     0.029 A 
ATOM     56  C   UNL     1      -1.374  -3.431  -5.192  1.00  0.00     0.049 A 
ATOM     57  H   UNL     1      -2.174  -2.658  -6.953  1.00  0.00     0.167 HD
ATOM     58  C   UNL     1      -3.183  -0.673 -10.793  1.00  0.00     0.031 A 
ATOM     59  C   UNL     1      -1.109  -4.709  -5.547  1.00  0.00     0.031 A 
ATOM     60  C   UNL     1      -4.422  -1.330 -10.457  1.00  0.00     0.049 A 
ATOM     61  C   UNL     1      -1.882  -5.011  -6.780  1.00  0.00     0.074 A 
ATOM     62  C   UNL     1      -5.650  -0.908  -9.985  1.00  0.00     0.029 A 
ATOM     63  N   UNL     1      -4.370  -2.684 -10.224  1.00  0.00    -0.354 N 
ATOM     64  N   UNL     1      -3.178  -5.136  -6.803  1.00  0.00    -0.248 NA
ATOM     65  C   UNL     1      -1.264  -4.763  -8.075  1.00  0.00     0.031 C 
ATOM     66  C   UNL     1      -6.084  -1.938  -9.099  1.00  0.00     0.029 A 
ATOM     67  C   UNL     1      -5.118  -2.946  -9.105  1.00  0.00     0.049 A 
ATOM     68  H   UNL     1      -3.883  -3.348 -10.764  1.00  0.00     0.167 HD
ATOM     69  C   UNL     1      -3.574  -4.563  -8.005  1.00  0.00     0.074 A 
ATOM     70  C   UNL     1      -2.349  -4.459  -8.793  1.00  0.00     0.031 C 
ATOM     71  C   UNL     1      -4.801  -3.977  -8.139  1.00  0.00     0.031 A 
BRANCH  58  72
ATOM     72  C   UNL     1      -2.378  -1.036 -12.008  1.00  0.00    -0.014 A 
ATOM     73  C   UNL     1      -3.033  -1.652 -13.085  1.00  0.00     0.009 A 
ATOM     74  C   UNL     1      -0.970  -1.056 -12.021  1.00  0.00     0.009 A 
ATOM     75  C   UNL     1      -2.312  -2.318 -14.082  1.00  0.00     0.001 A 
ATOM     76  C   UNL     1      -0.246  -1.681 -13.036  1.00  0.00     0.001 A 
ATOM     77  C   UNL     1      -0.920  -2.338 -14.051  1.00  0.00     0.000 A 
ENDBRANCH  58  72
BRANCH  59  78
ATOM     78  C   UNL     1      -0.025  -5.583  -5.061  1.00  0.00    -0.014 A 
ATOM     79  C   UNL     1      -0.053  -6.961  -5.316  1.00  0.00     0.009 A 
ATOM     80  C   UNL     1       1.175  -5.023  -4.588  1.00  0.00     0.009 A 
ATOM     81  C   UNL     1       1.095  -7.745  -5.145  1.00  0.00     0.001 A 
ATOM     82  C   UNL     1       2.319  -5.806  -4.412  1.00  0.00     0.001 A 
ATOM     83  C   UNL     1       2.283  -7.164  -4.707  1.00  0.00     0.000 A 
ENDBRANCH  59  78
BRANCH  71  84
ATOM     84  C   UNL     1      -5.816  -4.210  -7.045  1.00  0.00    -0.014 A 
ATOM     85  C   UNL     1      -5.596  -3.844  -5.705  1.00  0.00     0.009 A 
ATOM     86  C   UNL     1      -7.085  -4.689  -7.404  1.00  0.00     0.009 A 
ATOM     87  C   UNL     1      -6.606  -3.990  -4.748  1.00  0.00     0.001 A 
ATOM     88  C   UNL     1      -8.100  -4.813  -6.452  1.00  0.00     0.001 A 
ATOM     89  C   UNL     1      -7.858  -4.470  -5.124  1.00  0.00     0.000 A 
ENDBRANCH  71  84
ENDBRANCH  45  46
ENDBRANCH  38  40
ENDBRANCH  37  38
ENDBRANCH  36  37
ENDBRANCH  35  36
ENDBRANCH  34  35
ENDBRANCH  33  34
ENDBRANCH  32  33
ENDBRANCH  31  32
ENDBRANCH   1  31
TORSDOF 25
