REMARK SMILES O=C(OCCOCCOCCOCCOC(=O)c1ccc(-c2c3nc(c(-c4ccccc4)c4ccc([nH]4)c(-c4ccccc4)c4nc(c(-c5ccccc5)c5ccc2[nH]5)C=C4)C=C3)cc1)c1ccc(/[NH+]=C2\S[C@@H](Cc3ccc(F)cc3)C(=O)N2Cc2ccccc2)cc1
REMARK SMILES IDX 8 1 7 2 6 3 5 4 4 5 3 6 2 7 1 8 66 9 67 10 93 11 68 12 92 13
REMARK SMILES IDX 69 14 70 15 71 16 72 18 84 19 73 20 82 21 83 22 85 23 86 24
REMARK SMILES IDX 87 25 91 26 88 27 90 28 89 29 74 30 75 31 76 32 81 33 77 34
REMARK SMILES IDX 80 35 78 36 79 37 9 38 10 39 11 40 12 41 13 42 14 43 15 44
REMARK SMILES IDX 16 45 17 46 18 47 19 48 65 49 20 50 64 51 21 52 22 53 23 54
REMARK SMILES IDX 58 55 24 56 63 57 57 58 59 59 25 60 62 61 56 62 55 63 26 65
REMARK SMILES IDX 48 66 33 67 47 68 34 69 37 70 46 71 60 72 35 73 36 74 45 76
REMARK SMILES IDX 61 77 38 78 27 79 28 80 32 81 29 82 31 83 30 84 49 85 50 86
REMARK SMILES IDX 54 87 51 88 53 89 52 90 39 91 40 92 44 93 41 94 43 95 42 96
REMARK H PARENT 70 17 59 64 37 75
REMARK Flexibility Score: inf
ROOT
ATOM      1  C   UNL     1       1.881   2.065  -1.680  1.00  0.00     0.188 C 
ENDROOT
BRANCH   1   2
ATOM      2  C   UNL     1       2.370   0.698  -1.196  1.00  0.00     0.188 C 
BRANCH   2   3
ATOM      3  O   UNL     1       3.683   0.770  -0.635  1.00  0.00    -0.376 OA
BRANCH   3   4
ATOM      4  C   UNL     1       4.577  -0.290  -0.975  1.00  0.00     0.202 C 
BRANCH   4   5
ATOM      5  C   UNL     1       4.295  -1.635  -0.306  1.00  0.00     0.261 C 
BRANCH   5   6
ATOM      6  O   UNL     1       2.909  -1.833   0.005  1.00  0.00    -0.460 OA
BRANCH   6   7
ATOM      7  C   UNL     1       2.251  -1.503   1.144  1.00  0.00     0.338 C 
ATOM      8  O   UNL     1       1.058  -1.793   1.230  1.00  0.00    -0.246 OA
BRANCH   7   9
ATOM      9  C   UNL     1       2.878  -0.812   2.312  1.00  0.00     0.060 A 
ATOM     10  C   UNL     1       3.942   0.085   2.247  1.00  0.00     0.020 A 
ATOM     11  C   UNL     1       2.281  -1.021   3.568  1.00  0.00     0.020 A 
ATOM     12  C   UNL     1       4.443   0.696   3.385  1.00  0.00     0.052 A 
ATOM     13  C   UNL     1       2.789  -0.415   4.725  1.00  0.00     0.052 A 
ATOM     14  C   UNL     1       3.911   0.403   4.634  1.00  0.00     0.125 A 
BRANCH  14  15
ATOM     15  N   UNL     1       4.639   0.839   5.744  1.00  0.00    -0.235 N 
ATOM     16  C   UNL     1       5.582   0.054   6.155  1.00  0.00     0.320 C 
ATOM     17  H   UNL     1       4.446   1.696   6.188  1.00  0.00     0.313 HD
ATOM     18  S   UNL     1       5.832  -1.611   5.669  1.00  0.00    -0.022 SA
ATOM     19  N   UNL     1       6.569   0.449   7.013  1.00  0.00    -0.186 N 
ATOM     20  C   UNL     1       6.880  -1.922   7.102  1.00  0.00     0.178 C 
ATOM     21  C   UNL     1       7.413  -0.543   7.473  1.00  0.00     0.324 C 
ATOM     22  O   UNL     1       8.414  -0.347   8.152  1.00  0.00    -0.245 OA
BRANCH  19  23
ATOM     23  C   UNL     1       6.807   1.854   7.323  1.00  0.00     0.283 C 
BRANCH  23  24
ATOM     24  C   UNL     1       7.575   2.579   6.229  1.00  0.00    -0.006 A 
ATOM     25  C   UNL     1       8.960   2.775   6.324  1.00  0.00     0.008 A 
ATOM     26  C   UNL     1       6.911   3.072   5.094  1.00  0.00     0.008 A 
ATOM     27  C   UNL     1       9.655   3.444   5.310  1.00  0.00     0.000 A 
ATOM     28  C   UNL     1       7.609   3.710   4.067  1.00  0.00     0.000 A 
ATOM     29  C   UNL     1       8.982   3.901   4.177  1.00  0.00     0.000 A 
ENDBRANCH  23  24
ENDBRANCH  19  23
BRANCH  20  30
ATOM     30  C   UNL     1       7.926  -2.974   6.754  1.00  0.00     0.063 C 
BRANCH  30  31
ATOM     31  C   UNL     1       8.641  -3.489   7.979  1.00  0.00    -0.046 A 
ATOM     32  C   UNL     1      10.018  -3.271   8.124  1.00  0.00     0.007 A 
ATOM     33  C   UNL     1       7.935  -4.154   8.995  1.00  0.00     0.007 A 
ATOM     34  C   UNL     1      10.671  -3.674   9.287  1.00  0.00     0.039 A 
ATOM     35  C   UNL     1       8.589  -4.546  10.160  1.00  0.00     0.039 A 
ATOM     36  C   UNL     1       9.949  -4.296  10.298  1.00  0.00     0.123 A 
ATOM     37  F   UNL     1      10.574  -4.659  11.426  1.00  0.00    -0.207 F 
ENDBRANCH  30  31
ENDBRANCH  20  30
ENDBRANCH  14  15
ENDBRANCH   7   9
ENDBRANCH   6   7
ENDBRANCH   5   6
ENDBRANCH   4   5
ENDBRANCH   3   4
ENDBRANCH   2   3
ENDBRANCH   1   2
BRANCH   1  38
ATOM     38  O   UNL     1       2.559   2.595  -2.818  1.00  0.00    -0.377 OA
BRANCH  38  39
ATOM     39  C   UNL     1       3.978   2.501  -2.805  1.00  0.00     0.188 C 
BRANCH  39  40
ATOM     40  C   UNL     1       4.754   3.228  -1.683  1.00  0.00     0.188 C 
BRANCH  40  41
ATOM     41  O   UNL     1       3.927   3.705  -0.637  1.00  0.00    -0.376 OA
BRANCH  41  42
ATOM     42  C   UNL     1       3.667   5.102  -0.606  1.00  0.00     0.202 C 
BRANCH  42  43
ATOM     43  C   UNL     1       3.054   5.801  -1.837  1.00  0.00     0.261 C 
BRANCH  43  44
ATOM     44  O   UNL     1       3.532   5.397  -3.129  1.00  0.00    -0.460 OA
BRANCH  44  45
ATOM     45  C   UNL     1       4.730   5.867  -3.562  1.00  0.00     0.338 C 
ATOM     46  O   UNL     1       5.463   6.630  -2.994  1.00  0.00    -0.246 OA
BRANCH  45  47
ATOM     47  C   UNL     1       5.091   5.049  -4.759  1.00  0.00     0.060 A 
ATOM     48  C   UNL     1       6.311   4.352  -4.746  1.00  0.00     0.016 A 
ATOM     49  C   UNL     1       4.182   4.843  -5.802  1.00  0.00     0.016 A 
ATOM     50  C   UNL     1       6.618   3.448  -5.770  1.00  0.00     0.010 A 
ATOM     51  C   UNL     1       4.504   3.964  -6.842  1.00  0.00     0.010 A 
ATOM     52  C   UNL     1       5.731   3.275  -6.842  1.00  0.00    -0.014 A 
BRANCH  52  53
ATOM     53  C   UNL     1       6.174   2.579  -8.077  1.00  0.00     0.031 A 
ATOM     54  C   UNL     1       6.788   3.425  -9.159  1.00  0.00     0.074 A 
ATOM     55  C   UNL     1       6.022   1.255  -8.264  1.00  0.00     0.049 A 
ATOM     56  N   UNL     1       7.164   3.091 -10.366  1.00  0.00    -0.248 NA
ATOM     57  C   UNL     1       7.000   4.846  -8.831  1.00  0.00     0.031 C 
ATOM     58  C   UNL     1       5.486   0.310  -7.286  1.00  0.00     0.029 A 
ATOM     59  N   UNL     1       6.294   0.479  -9.367  1.00  0.00    -0.354 N 
ATOM     60  C   UNL     1       7.636   4.262 -10.945  1.00  0.00     0.074 A 
ATOM     61  C   UNL     1       7.491   5.316  -9.966  1.00  0.00     0.031 C 
ATOM     62  C   UNL     1       5.447  -0.916  -7.842  1.00  0.00     0.029 A 
ATOM     63  C   UNL     1       5.915  -0.836  -9.226  1.00  0.00     0.049 A 
ATOM     64  H   UNL     1       6.720   0.832 -10.181  1.00  0.00     0.167 HD
ATOM     65  C   UNL     1       8.140   4.449 -12.186  1.00  0.00     0.031 A 
ATOM     66  C   UNL     1       5.912  -1.844 -10.123  1.00  0.00     0.031 A 
ATOM     67  C   UNL     1       8.268   3.412 -13.170  1.00  0.00     0.049 A 
ATOM     68  C   UNL     1       6.394  -1.589 -11.532  1.00  0.00     0.074 A 
ATOM     69  C   UNL     1       8.796   3.499 -14.445  1.00  0.00     0.029 A 
ATOM     70  N   UNL     1       7.845   2.105 -12.996  1.00  0.00    -0.354 N 
ATOM     71  N   UNL     1       6.888  -0.490 -12.052  1.00  0.00    -0.248 NA
ATOM     72  C   UNL     1       6.315  -2.713 -12.478  1.00  0.00     0.031 C 
ATOM     73  C   UNL     1       8.629   2.260 -15.069  1.00  0.00     0.029 A 
ATOM     74  C   UNL     1       8.060   1.385 -14.157  1.00  0.00     0.049 A 
ATOM     75  H   UNL     1       7.450   1.743 -12.169  1.00  0.00     0.167 HD
ATOM     76  C   UNL     1       7.199  -0.800 -13.373  1.00  0.00     0.074 A 
ATOM     77  C   UNL     1       6.856  -2.192 -13.570  1.00  0.00     0.031 C 
ATOM     78  C   UNL     1       7.720  -0.002 -14.337  1.00  0.00     0.031 A 
BRANCH  65  79
ATOM     79  C   UNL     1       8.541   5.845 -12.566  1.00  0.00    -0.014 A 
ATOM     80  C   UNL     1       9.684   6.453 -12.025  1.00  0.00     0.009 A 
ATOM     81  C   UNL     1       7.777   6.548 -13.511  1.00  0.00     0.009 A 
ATOM     82  C   UNL     1      10.039   7.749 -12.405  1.00  0.00     0.001 A 
ATOM     83  C   UNL     1       8.150   7.832 -13.909  1.00  0.00     0.001 A 
ATOM     84  C   UNL     1       9.276   8.434 -13.350  1.00  0.00     0.000 A 
ENDBRANCH  65  79
BRANCH  66  85
ATOM     85  C   UNL     1       5.382  -3.187  -9.752  1.00  0.00    -0.014 A 
ATOM     86  C   UNL     1       6.226  -4.308  -9.707  1.00  0.00     0.009 A 
ATOM     87  C   UNL     1       4.013  -3.364  -9.498  1.00  0.00     0.009 A 
ATOM     88  C   UNL     1       5.705  -5.580  -9.447  1.00  0.00     0.001 A 
ATOM     89  C   UNL     1       3.500  -4.631  -9.207  1.00  0.00     0.001 A 
ATOM     90  C   UNL     1       4.344  -5.739  -9.193  1.00  0.00     0.000 A 
ENDBRANCH  66  85
BRANCH  78  91
ATOM     91  C   UNL     1       7.988  -0.612 -15.684  1.00  0.00    -0.014 A 
ATOM     92  C   UNL     1       6.941  -0.929 -16.563  1.00  0.00     0.009 A 
ATOM     93  C   UNL     1       9.313  -0.798 -16.111  1.00  0.00     0.009 A 
ATOM     94  C   UNL     1       7.217  -1.441 -17.833  1.00  0.00     0.001 A 
ATOM     95  C   UNL     1       9.586  -1.281 -17.391  1.00  0.00     0.001 A 
ATOM     96  C   UNL     1       8.538  -1.609 -18.249  1.00  0.00     0.000 A 
ENDBRANCH  78  91
ENDBRANCH  52  53
ENDBRANCH  45  47
ENDBRANCH  44  45
ENDBRANCH  43  44
ENDBRANCH  42  43
ENDBRANCH  41  42
ENDBRANCH  40  41
ENDBRANCH  39  40
ENDBRANCH  38  39
ENDBRANCH   1  38
TORSDOF 25
