REMARK SMILES C[C@@H](C(=O)OCCOCCOCCOCCOC(=O)c1ccc(-c2c3nc(c(-c4ccccc4)c4ccc([nH]4)c(-c4ccccc4)c4nc(c(-c5ccccc5)c5ccc2[nH]5)C=C4)C=C3)cc1)[C@@H](C)C(=O)c1cc(Cl)c2c(c1)OCCCO2
REMARK SMILES IDX 9 1 8 2 7 3 6 4 5 5 3 6 4 7 2 8 1 9 68 10 69 11 70 12 71 13
REMARK SMILES IDX 72 14 73 15 78 16 74 17 77 18 75 19 76 20 79 21 80 22 83 24
REMARK SMILES IDX 82 25 81 26 10 28 11 29 12 30 13 31 14 32 15 33 16 34 17 35
REMARK SMILES IDX 18 36 19 37 20 38 21 39 67 40 22 41 66 42 23 43 24 44 25 45
REMARK SMILES IDX 60 46 26 47 65 48 59 49 61 50 27 51 64 52 58 53 57 54 28 56
REMARK SMILES IDX 50 57 35 58 49 59 36 60 39 61 48 62 62 63 37 64 38 65 47 67
REMARK SMILES IDX 63 68 40 69 29 70 30 71 34 72 31 73 33 74 32 75 51 76 52 77
REMARK SMILES IDX 56 78 53 79 55 80 54 81 41 82 42 83 46 84 43 85 45 86 44 87
REMARK H PARENT 61 55 39 66
REMARK Flexibility Score: 90.00
ROOT
ATOM      1  C   UNL     1       0.284  -3.301   2.229  1.00  0.00     0.188 C 
ENDROOT
BRANCH   1   2
ATOM      2  O   UNL     1       1.318  -4.244   2.455  1.00  0.00    -0.376 OA
BRANCH   2   3
ATOM      3  C   UNL     1       2.018  -4.855   1.390  1.00  0.00     0.202 C 
BRANCH   3   4
ATOM      4  C   UNL     1       2.886  -4.040   0.397  1.00  0.00     0.261 C 
BRANCH   4   5
ATOM      5  O   UNL     1       2.401  -2.785  -0.105  1.00  0.00    -0.463 OA
BRANCH   5   6
ATOM      6  C   UNL     1       1.176  -2.846  -0.647  1.00  0.00     0.309 C 
ATOM      7  O   UNL     1       0.548  -3.896  -0.709  1.00  0.00    -0.252 OA
BRANCH   6   8
ATOM      8  C   UNL     1       0.651  -1.541  -1.240  1.00  0.00     0.106 C 
ATOM      9  C   UNL     1       1.319  -0.254  -0.721  1.00  0.00     0.021 C 
BRANCH   8  10
ATOM     10  C   UNL     1      -0.899  -1.560  -1.128  1.00  0.00     0.072 C 
ATOM     11  C   UNL     1      -1.545  -0.260  -1.619  1.00  0.00     0.017 C 
BRANCH  10  12
ATOM     12  C   UNL     1      -1.621  -2.787  -1.783  1.00  0.00     0.166 C 
ATOM     13  O   UNL     1      -2.634  -3.269  -1.280  1.00  0.00    -0.294 OA
BRANCH  12  14
ATOM     14  C   UNL     1      -1.247  -3.206  -3.167  1.00  0.00     0.023 A 
ATOM     15  C   UNL     1      -2.119  -2.784  -4.170  1.00  0.00     0.036 A 
ATOM     16  C   UNL     1       0.031  -3.673  -3.498  1.00  0.00     0.062 A 
ATOM     17  C   UNL     1      -1.591  -2.479  -5.415  1.00  0.00     0.087 A 
ATOM     18  C   UNL     1       0.582  -3.269  -4.696  1.00  0.00     0.163 A 
ATOM     19  Cl  UNL     1      -2.612  -1.811  -6.623  1.00  0.00    -0.080 Cl
ATOM     20  C   UNL     1      -0.205  -2.536  -5.575  1.00  0.00     0.179 A 
BRANCH  18  21
ATOM     21  O   UNL     1       1.923  -3.383  -4.936  1.00  0.00    -0.489 OA
BRANCH  21  22
ATOM     22  C   UNL     1       2.670  -2.322  -4.335  1.00  0.00     0.233 CG0
ATOM     23  G   UNL     1       2.353  -0.899  -4.826  1.00  0.00     0.000 G0
ENDBRANCH  21  22
ENDBRANCH  18  21
BRANCH  20  24
ATOM     24  O   UNL     1       0.437  -1.525  -6.271  1.00  0.00    -0.488 OA
BRANCH  24  25
ATOM     25  C   UNL     1       0.921  -0.596  -5.269  1.00  0.00     0.233 C 
BRANCH  25  26
ATOM     26  C   UNL     1       2.353  -0.899  -4.826  1.00  0.00     0.083 CG0
ATOM     27  G   UNL     1       2.670  -2.322  -4.335  1.00  0.00     0.000 G0
ENDBRANCH  25  26
ENDBRANCH  24  25
ENDBRANCH  20  24
ENDBRANCH  12  14
ENDBRANCH  10  12
ENDBRANCH   8  10
ENDBRANCH   6   8
ENDBRANCH   5   6
ENDBRANCH   4   5
ENDBRANCH   3   4
ENDBRANCH   2   3
ENDBRANCH   1   2
BRANCH   1  28
ATOM     28  C   UNL     1       0.763  -1.845   2.339  1.00  0.00     0.188 C 
BRANCH  28  29
ATOM     29  O   UNL     1       2.167  -1.649   2.360  1.00  0.00    -0.377 OA
BRANCH  29  30
ATOM     30  C   UNL     1       2.920  -2.195   3.444  1.00  0.00     0.188 C 
BRANCH  30  31
ATOM     31  C   UNL     1       2.235  -2.896   4.644  1.00  0.00     0.188 C 
BRANCH  31  32
ATOM     32  O   UNL     1       0.900  -2.496   4.894  1.00  0.00    -0.376 OA
BRANCH  32  33
ATOM     33  C   UNL     1       0.654  -1.513   5.883  1.00  0.00     0.202 C 
BRANCH  33  34
ATOM     34  C   UNL     1       1.313  -0.138   5.702  1.00  0.00     0.261 C 
BRANCH  34  35
ATOM     35  O   UNL     1       2.747  -0.122   5.596  1.00  0.00    -0.460 OA
BRANCH  35  36
ATOM     36  C   UNL     1       3.463  -0.674   6.596  1.00  0.00     0.338 C 
ATOM     37  O   UNL     1       3.039  -1.138   7.644  1.00  0.00    -0.246 OA
BRANCH  36  38
ATOM     38  C   UNL     1       4.855  -0.822   6.123  1.00  0.00     0.060 A 
ATOM     39  C   UNL     1       5.426  -2.102   6.064  1.00  0.00     0.016 A 
ATOM     40  C   UNL     1       5.586   0.298   5.725  1.00  0.00     0.016 A 
ATOM     41  C   UNL     1       6.747  -2.260   5.647  1.00  0.00     0.010 A 
ATOM     42  C   UNL     1       6.919   0.143   5.339  1.00  0.00     0.010 A 
ATOM     43  C   UNL     1       7.514  -1.131   5.339  1.00  0.00    -0.014 A 
BRANCH  43  44
ATOM     44  C   UNL     1       8.987  -1.256   5.250  1.00  0.00     0.031 A 
ATOM     45  C   UNL     1       9.798  -0.925   6.473  1.00  0.00     0.074 A 
ATOM     46  C   UNL     1       9.594  -1.679   4.128  1.00  0.00     0.049 A 
ATOM     47  N   UNL     1      11.096  -0.906   6.631  1.00  0.00    -0.248 NA
ATOM     48  C   UNL     1       9.037  -0.565   7.682  1.00  0.00     0.031 C 
ATOM     49  C   UNL     1       8.918  -2.088   2.899  1.00  0.00     0.029 A 
ATOM     50  N   UNL     1      10.929  -1.827   3.847  1.00  0.00    -0.354 N 
ATOM     51  C   UNL     1      11.306  -0.522   7.950  1.00  0.00     0.074 A 
ATOM     52  C   UNL     1      10.007  -0.287   8.539  1.00  0.00     0.031 C 
ATOM     53  C   UNL     1       9.846  -2.430   1.988  1.00  0.00     0.029 A 
ATOM     54  C   UNL     1      11.177  -2.227   2.557  1.00  0.00     0.049 A 
ATOM     55  H   UNL     1      11.641  -1.662   4.507  1.00  0.00     0.167 HD
ATOM     56  C   UNL     1      12.476  -0.382   8.615  1.00  0.00     0.031 A 
ATOM     57  C   UNL     1      12.346  -2.382   1.906  1.00  0.00     0.031 A 
ATOM     58  C   UNL     1      13.769  -0.594   8.021  1.00  0.00     0.049 A 
ATOM     59  C   UNL     1      13.639  -2.126   2.638  1.00  0.00     0.074 A 
ATOM     60  C   UNL     1      15.016  -0.481   8.609  1.00  0.00     0.029 A 
ATOM     61  N   UNL     1      13.979  -0.953   6.699  1.00  0.00    -0.354 N 
ATOM     62  N   UNL     1      13.829  -1.778   3.889  1.00  0.00    -0.248 NA
ATOM     63  C   UNL     1      14.880  -2.292   1.868  1.00  0.00     0.031 C 
ATOM     64  C   UNL     1      15.982  -0.706   7.624  1.00  0.00     0.029 A 
ATOM     65  C   UNL     1      15.336  -1.035   6.443  1.00  0.00     0.049 A 
ATOM     66  H   UNL     1      13.268  -1.125   6.040  1.00  0.00     0.167 HD
ATOM     67  C   UNL     1      15.207  -1.716   4.062  1.00  0.00     0.074 A 
ATOM     68  C   UNL     1      15.804  -2.077   2.793  1.00  0.00     0.031 C 
ATOM     69  C   UNL     1      15.915  -1.393   5.173  1.00  0.00     0.031 A 
BRANCH  56  70
ATOM     70  C   UNL     1      12.405   0.066  10.048  1.00  0.00    -0.014 A 
ATOM     71  C   UNL     1      11.892  -0.769  11.055  1.00  0.00     0.009 A 
ATOM     72  C   UNL     1      12.875   1.341  10.400  1.00  0.00     0.009 A 
ATOM     73  C   UNL     1      11.816  -0.320  12.375  1.00  0.00     0.001 A 
ATOM     74  C   UNL     1      12.828   1.774  11.726  1.00  0.00     0.001 A 
ATOM     75  C   UNL     1      12.289   0.948  12.710  1.00  0.00     0.000 A 
ENDBRANCH  56  70
BRANCH  57  76
ATOM     76  C   UNL     1      12.354  -2.773   0.471  1.00  0.00    -0.014 A 
ATOM     77  C   UNL     1      12.854  -4.020   0.067  1.00  0.00     0.009 A 
ATOM     78  C   UNL     1      11.880  -1.885  -0.508  1.00  0.00     0.009 A 
ATOM     79  C   UNL     1      12.904  -4.359  -1.288  1.00  0.00     0.001 A 
ATOM     80  C   UNL     1      11.901  -2.239  -1.859  1.00  0.00     0.001 A 
ATOM     81  C   UNL     1      12.422  -3.471  -2.249  1.00  0.00     0.000 A 
ENDBRANCH  57  76
BRANCH  69  82
ATOM     82  C   UNL     1      17.416  -1.458   5.082  1.00  0.00    -0.014 A 
ATOM     83  C   UNL     1      18.149  -0.524   4.333  1.00  0.00     0.009 A 
ATOM     84  C   UNL     1      18.111  -2.445   5.800  1.00  0.00     0.009 A 
ATOM     85  C   UNL     1      19.543  -0.602   4.276  1.00  0.00     0.001 A 
ATOM     86  C   UNL     1      19.505  -2.499   5.769  1.00  0.00     0.001 A 
ATOM     87  C   UNL     1      20.219  -1.584   4.998  1.00  0.00     0.000 A 
ENDBRANCH  69  82
ENDBRANCH  43  44
ENDBRANCH  36  38
ENDBRANCH  35  36
ENDBRANCH  34  35
ENDBRANCH  33  34
ENDBRANCH  32  33
ENDBRANCH  31  32
ENDBRANCH  30  31
ENDBRANCH  29  30
ENDBRANCH  28  29
ENDBRANCH   1  28
TORSDOF 23
