REMARK SMILES CCCCCNC(=O)Oc1cccc(-c2ccc([C@@H](C)C(=O)OCCOCCOCCOCCOC(=O)c3ccc(-c4c5nc(c(-c6ccccc6)c6ccc([nH]6)c(-c6ccccc6)c6nc(c(-c7ccccc7)c7ccc4[nH]7)C=C6)C=C5)cc3)cc2F)c1
REMARK SMILES IDX 26 1 25 2 24 3 23 4 21 5 22 6 19 7 20 8 18 9 15 10 16 11
REMARK SMILES IDX 87 12 17 13 86 14 88 15 14 16 10 17 11 18 89 19 12 20 13 21
REMARK SMILES IDX 9 22 7 23 6 24 8 26 5 27 4 28 3 29 2 30 1 31 27 32 28 33
REMARK SMILES IDX 29 34 30 35 31 36 32 37 33 38 34 39 35 40 36 41 37 42 38 43
REMARK SMILES IDX 39 44 85 45 40 46 84 47 41 48 42 49 43 50 78 51 44 52 83 53
REMARK SMILES IDX 77 54 79 55 45 56 82 57 76 58 75 59 46 61 68 62 53 63 67 64
REMARK SMILES IDX 54 65 57 66 66 67 80 68 55 69 56 70 65 72 81 73 58 74 47 75
REMARK SMILES IDX 48 76 52 77 49 78 51 79 50 80 69 81 70 82 74 83 71 84 73 85
REMARK SMILES IDX 72 86 59 87 60 88 64 89 61 90 63 91 62 92
REMARK H PARENT 6 25 79 60 57 71
REMARK Flexibility Score: inf
ROOT
ATOM      1  O   UNL     1      -2.060 -12.027  -7.045  1.00  0.00    -0.376 OA
ENDROOT
BRANCH   1   2
ATOM      2  C   UNL     1      -3.451 -12.238  -7.234  1.00  0.00     0.202 C 
BRANCH   2   3
ATOM      3  C   UNL     1      -4.225 -13.250  -6.367  1.00  0.00     0.261 C 
BRANCH   3   4
ATOM      4  O   UNL     1      -4.084 -13.131  -4.935  1.00  0.00    -0.463 OA
BRANCH   4   5
ATOM      5  C   UNL     1      -3.326 -14.073  -4.327  1.00  0.00     0.313 C 
ATOM      6  O   UNL     1      -2.796 -15.005  -4.930  1.00  0.00    -0.252 OA
BRANCH   5   7
ATOM      7  C   UNL     1      -3.182 -13.944  -2.809  1.00  0.00     0.126 C 
ATOM      8  C   UNL     1      -3.965 -15.078  -2.157  1.00  0.00     0.025 C 
BRANCH   7   9
ATOM      9  C   UNL     1      -3.430 -12.613  -2.095  1.00  0.00    -0.031 A 
ATOM     10  C   UNL     1      -3.753 -10.084  -0.759  1.00  0.00     0.018 A 
ATOM     11  C   UNL     1      -4.800 -10.678  -1.490  1.00  0.00     0.012 A 
ATOM     12  C   UNL     1      -2.548 -10.790  -0.708  1.00  0.00     0.131 A 
ATOM     13  C   UNL     1      -4.645 -11.919  -2.144  1.00  0.00     0.005 A 
ATOM     14  C   UNL     1      -2.389 -12.030  -1.343  1.00  0.00     0.044 A 
ATOM     15  F   UNL     1      -1.501 -10.293  -0.029  1.00  0.00    -0.206 F 
BRANCH  10  16
ATOM     16  C   UNL     1      -3.944  -8.800  -0.046  1.00  0.00    -0.012 A 
ATOM     17  C   UNL     1      -3.349  -6.479   0.417  1.00  0.00     0.133 A 
ATOM     18  C   UNL     1      -4.353  -6.383   1.377  1.00  0.00     0.047 A 
ATOM     19  C   UNL     1      -3.128  -7.675  -0.282  1.00  0.00     0.056 A 
ATOM     20  C   UNL     1      -5.161  -7.487   1.629  1.00  0.00     0.004 A 
ATOM     21  C   UNL     1      -4.957  -8.680   0.925  1.00  0.00     0.009 A 
BRANCH  17  22
ATOM     22  O   UNL     1      -2.499  -5.364   0.281  1.00  0.00    -0.410 OA
BRANCH  22  23
ATOM     23  C   UNL     1      -2.450  -4.751  -0.961  1.00  0.00     0.412 C 
ATOM     24  N   UNL     1      -1.645  -3.645  -1.008  1.00  0.00    -0.321 N 
ATOM     25  H   UNL     1      -1.480  -3.261  -1.899  1.00  0.00     0.167 HD
ATOM     26  O   UNL     1      -3.059  -5.112  -1.961  1.00  0.00    -0.224 OA
BRANCH  24  27
ATOM     27  C   UNL     1      -1.010  -2.976   0.110  1.00  0.00     0.119 C 
BRANCH  27  28
ATOM     28  C   UNL     1       0.512  -2.926  -0.018  1.00  0.00     0.021 C 
BRANCH  28  29
ATOM     29  C   UNL     1       1.047  -2.130  -1.216  1.00  0.00     0.002 C 
BRANCH  29  30
ATOM     30  C   UNL     1       0.622  -0.660  -1.290  1.00  0.00    -0.003 C 
ATOM     31  C   UNL     1       1.069   0.168  -0.096  1.00  0.00     0.004 C 
ENDBRANCH  29  30
ENDBRANCH  28  29
ENDBRANCH  27  28
ENDBRANCH  24  27
ENDBRANCH  22  23
ENDBRANCH  17  22
ENDBRANCH  10  16
ENDBRANCH   7   9
ENDBRANCH   5   7
ENDBRANCH   4   5
ENDBRANCH   3   4
ENDBRANCH   2   3
ENDBRANCH   1   2
BRANCH   1  32
ATOM     32  C   UNL     1      -1.538 -11.723  -5.759  1.00  0.00     0.188 C 
BRANCH  32  33
ATOM     33  C   UNL     1      -2.316 -10.836  -4.777  1.00  0.00     0.188 C 
BRANCH  33  34
ATOM     34  O   UNL     1      -3.630 -10.508  -5.176  1.00  0.00    -0.377 OA
BRANCH  34  35
ATOM     35  C   UNL     1      -3.826  -9.204  -5.699  1.00  0.00     0.188 C 
BRANCH  35  36
ATOM     36  C   UNL     1      -2.729  -8.642  -6.624  1.00  0.00     0.188 C 
BRANCH  36  37
ATOM     37  O   UNL     1      -1.420  -8.675  -6.066  1.00  0.00    -0.376 OA
BRANCH  37  38
ATOM     38  C   UNL     1      -0.930  -7.504  -5.426  1.00  0.00     0.202 C 
BRANCH  38  39
ATOM     39  C   UNL     1      -1.629  -7.052  -4.136  1.00  0.00     0.261 C 
BRANCH  39  40
ATOM     40  O   UNL     1      -3.033  -6.785  -4.247  1.00  0.00    -0.460 OA
BRANCH  40  41
ATOM     41  C   UNL     1      -3.434  -5.792  -5.068  1.00  0.00     0.338 C 
ATOM     42  O   UNL     1      -2.737  -5.069  -5.745  1.00  0.00    -0.246 OA
BRANCH  41  43
ATOM     43  C   UNL     1      -4.910  -5.888  -5.183  1.00  0.00     0.060 A 
ATOM     44  C   UNL     1      -5.471  -6.158  -6.438  1.00  0.00     0.016 A 
ATOM     45  C   UNL     1      -5.734  -5.711  -4.069  1.00  0.00     0.016 A 
ATOM     46  C   UNL     1      -6.858  -6.207  -6.591  1.00  0.00     0.010 A 
ATOM     47  C   UNL     1      -7.124  -5.734  -4.227  1.00  0.00     0.010 A 
ATOM     48  C   UNL     1      -7.692  -5.945  -5.496  1.00  0.00    -0.014 A 
BRANCH  48  49
ATOM     49  C   UNL     1      -9.136  -5.684  -5.718  1.00  0.00     0.031 A 
ATOM     50  C   UNL     1      -9.595  -4.254  -5.824  1.00  0.00     0.074 A 
ATOM     51  C   UNL     1     -10.023  -6.686  -5.858  1.00  0.00     0.049 A 
ATOM     52  N   UNL     1     -10.803  -3.777  -5.982  1.00  0.00    -0.248 NA
ATOM     53  C   UNL     1      -8.546  -3.224  -5.744  1.00  0.00     0.031 C 
ATOM     54  C   UNL     1      -9.704  -8.111  -5.839  1.00  0.00     0.029 A 
ATOM     55  N   UNL     1     -11.384  -6.646  -6.043  1.00  0.00    -0.354 N 
ATOM     56  C   UNL     1     -10.659  -2.395  -6.013  1.00  0.00     0.074 A 
ATOM     57  C   UNL     1      -9.254  -2.109  -5.826  1.00  0.00     0.031 C 
ATOM     58  C   UNL     1     -10.840  -8.813  -6.002  1.00  0.00     0.029 A 
ATOM     59  C   UNL     1     -11.969  -7.887  -6.097  1.00  0.00     0.049 A 
ATOM     60  H   UNL     1     -11.891  -5.807  -6.129  1.00  0.00     0.167 HD
ATOM     61  C   UNL     1     -11.610  -1.446  -6.187  1.00  0.00     0.031 A 
ATOM     62  C   UNL     1     -13.267  -8.235  -6.191  1.00  0.00     0.031 A 
ATOM     63  C   UNL     1     -13.011  -1.725  -6.348  1.00  0.00     0.049 A 
ATOM     64  C   UNL     1     -14.319  -7.157  -6.275  1.00  0.00     0.074 A 
ATOM     65  C   UNL     1     -14.053  -0.831  -6.529  1.00  0.00     0.029 A 
ATOM     66  N   UNL     1     -13.569  -2.994  -6.338  1.00  0.00    -0.354 N 
ATOM     67  N   UNL     1     -14.171  -5.855  -6.317  1.00  0.00    -0.248 NA
ATOM     68  C   UNL     1     -15.720  -7.603  -6.330  1.00  0.00     0.031 C 
ATOM     69  C   UNL     1     -15.248  -1.556  -6.564  1.00  0.00     0.029 A 
ATOM     70  C   UNL     1     -14.943  -2.906  -6.479  1.00  0.00     0.049 A 
ATOM     71  H   UNL     1     -13.062  -3.833  -6.244  1.00  0.00     0.167 HD
ATOM     72  C   UNL     1     -15.453  -5.330  -6.440  1.00  0.00     0.074 A 
ATOM     73  C   UNL     1     -16.364  -6.454  -6.478  1.00  0.00     0.031 C 
ATOM     74  C   UNL     1     -15.840  -4.032  -6.518  1.00  0.00     0.031 A 
BRANCH  61  75
ATOM     75  C   UNL     1     -11.163  -0.010  -6.168  1.00  0.00    -0.014 A 
ATOM     76  C   UNL     1     -10.399   0.533  -7.213  1.00  0.00     0.009 A 
ATOM     77  C   UNL     1     -11.536   0.820  -5.098  1.00  0.00     0.009 A 
ATOM     78  C   UNL     1      -9.988   1.868  -7.170  1.00  0.00     0.001 A 
ATOM     79  C   UNL     1     -11.151   2.161  -5.073  1.00  0.00     0.001 A 
ATOM     80  C   UNL     1     -10.369   2.681  -6.103  1.00  0.00     0.000 A 
ENDBRANCH  61  75
BRANCH  62  81
ATOM     81  C   UNL     1     -13.662  -9.669  -6.187  1.00  0.00    -0.014 A 
ATOM     82  C   UNL     1     -14.228 -10.260  -7.328  1.00  0.00     0.009 A 
ATOM     83  C   UNL     1     -13.507 -10.448  -5.029  1.00  0.00     0.009 A 
ATOM     84  C   UNL     1     -14.655 -11.591  -7.299  1.00  0.00     0.001 A 
ATOM     85  C   UNL     1     -13.904 -11.787  -5.014  1.00  0.00     0.001 A 
ATOM     86  C   UNL     1     -14.488 -12.354  -6.145  1.00  0.00     0.000 A 
ENDBRANCH  62  81
BRANCH  74  87
ATOM     87  C   UNL     1     -17.308  -3.755  -6.702  1.00  0.00    -0.014 A 
ATOM     88  C   UNL     1     -18.233  -3.973  -5.670  1.00  0.00     0.009 A 
ATOM     89  C   UNL     1     -17.763  -3.219  -7.918  1.00  0.00     0.009 A 
ATOM     90  C   UNL     1     -19.589  -3.696  -5.865  1.00  0.00     0.001 A 
ATOM     91  C   UNL     1     -19.112  -2.911  -8.099  1.00  0.00     0.001 A 
ATOM     92  C   UNL     1     -20.026  -3.160  -7.077  1.00  0.00     0.000 A 
ENDBRANCH  74  87
ENDBRANCH  48  49
ENDBRANCH  41  43
ENDBRANCH  40  41
ENDBRANCH  39  40
ENDBRANCH  38  39
ENDBRANCH  37  38
ENDBRANCH  36  37
ENDBRANCH  35  36
ENDBRANCH  34  35
ENDBRANCH  33  34
ENDBRANCH  32  33
ENDBRANCH   1  32
TORSDOF 28
