REMARK SMILES Cc1c(NC(=O)[C@@H]2CC=CC[C@@H]2C(=O)OCCOCCOCCOCCOC(=O)c2ccc(-c3c4nc(c(-c5ccccc5)c5ccc([nH]5)c(-c5ccccc5)c5nc(c(-c6ccccc6)c6ccc3[nH]6)C=C5)C=C4)cc2)cccc1C(=O)N1CCOCC1
REMARK SMILES IDX 20 1 19 2 18 3 17 4 16 5 15 6 13 7 14 8 12 9 7 10 8 11 9 12
REMARK SMILES IDX 11 13 10 14 5 15 4 16 6 18 3 19 1 20 2 21 81 22 78 23 80 24
REMARK SMILES IDX 79 25 82 26 83 27 84 28 85 29 89 30 86 31 88 32 87 33 21 34
REMARK SMILES IDX 22 35 23 36 24 37 25 38 26 39 27 40 28 41 29 42 30 43 31 44
REMARK SMILES IDX 77 45 32 46 76 47 33 48 34 49 35 50 70 51 36 52 75 53 69 54
REMARK SMILES IDX 71 55 37 56 74 57 68 58 67 59 38 61 60 62 45 63 59 64 46 65
REMARK SMILES IDX 49 66 58 67 72 68 47 69 48 70 57 72 73 73 50 74 39 75 40 76
REMARK SMILES IDX 44 77 41 78 43 79 42 80 61 81 62 82 66 83 63 84 65 85 64 86
REMARK SMILES IDX 51 87 52 88 56 89 53 90 55 91 54 92
REMARK H PARENT 4 17 71 60 49 71
REMARK Flexibility Score: inf
ROOT
ATOM      1  C   UNL     1      -3.795   0.419   0.262  1.00  0.00     0.188 C 
ENDROOT
BRANCH   1   2
ATOM      2  C   UNL     1      -5.461   0.601   0.048  1.00  0.00     0.188 C 
BRANCH   2   3
ATOM      3  O   UNL     1      -6.678  -0.284  -0.914  1.00  0.00    -0.376 OA
BRANCH   3   4
ATOM      4  C   UNL     1      -6.945  -1.993  -1.363  1.00  0.00     0.202 C 
BRANCH   4   5
ATOM      5  C   UNL     1      -5.702  -3.409  -1.742  1.00  0.00     0.261 C 
BRANCH   5   6
ATOM      6  O   UNL     1      -3.905  -3.322  -2.020  1.00  0.00    -0.463 OA
BRANCH   6   7
ATOM      7  C   UNL     1      -2.813  -2.608  -2.645  1.00  0.00     0.310 C 
ATOM      8  O   UNL     1      -2.917  -1.798  -3.585  1.00  0.00    -0.252 OA
BRANCH   7   9
ATOM      9  C   UNL     1      -1.251  -2.495  -2.125  1.00  0.00     0.116 C 
ATOM     10  C   UNL     1      -0.283  -3.289  -1.172  1.00  0.00     0.097 C 
ATOM     11  C   UNL     1      -0.234  -2.787   0.298  1.00  0.00     0.041 C 
ATOM     12  C   UNL     1      -0.072  -1.306   0.389  1.00  0.00    -0.030 C 
ATOM     13  C   UNL     1      -0.870  -0.959  -1.970  1.00  0.00     0.043 C 
ATOM     14  C   UNL     1      -0.331  -0.495  -0.640  1.00  0.00    -0.030 C 
BRANCH  10  15
ATOM     15  C   UNL     1      -0.322  -4.767  -1.482  1.00  0.00     0.228 C 
ATOM     16  N   UNL     1       0.302  -5.736  -0.776  1.00  0.00    -0.326 N 
ATOM     17  H   UNL     1       0.019  -6.630  -1.075  1.00  0.00     0.169 HD
ATOM     18  O   UNL     1      -0.939  -5.179  -2.471  1.00  0.00    -0.274 OA
BRANCH  16  19
ATOM     19  C   UNL     1       1.241  -5.825   0.264  1.00  0.00     0.044 A 
ATOM     20  C   UNL     1       0.069  -7.967   0.874  1.00  0.00     0.047 C 
ATOM     21  C   UNL     1       1.233  -7.020   1.033  1.00  0.00    -0.015 A 
ATOM     22  C   UNL     1       2.246  -7.238   1.990  1.00  0.00     0.045 A 
ATOM     23  C   UNL     1       2.191  -4.840   0.533  1.00  0.00     0.026 A 
ATOM     24  C   UNL     1       3.122  -6.184   2.303  1.00  0.00     0.014 A 
ATOM     25  C   UNL     1       3.077  -4.984   1.599  1.00  0.00     0.003 A 
BRANCH  22  26
ATOM     26  C   UNL     1       2.358  -8.448   2.856  1.00  0.00     0.254 C 
ATOM     27  O   UNL     1       2.582  -8.245   4.052  1.00  0.00    -0.269 OA
ATOM     28  N   UNL     1       2.193  -9.738   2.360  1.00  0.00    -0.334 N 
ATOM     29  C   UNL     1       2.315 -10.212   0.973  1.00  0.00     0.148 C 
ATOM     30  C   UNL     1       2.008 -10.825   3.323  1.00  0.00     0.148 C 
ATOM     31  C   UNL     1       1.181 -11.197   0.616  1.00  0.00     0.181 C 
ATOM     32  C   UNL     1       0.804 -11.669   2.906  1.00  0.00     0.181 C 
ATOM     33  O   UNL     1       1.021 -12.231   1.601  1.00  0.00    -0.378 OA
ENDBRANCH  22  26
ENDBRANCH  16  19
ENDBRANCH  10  15
ENDBRANCH   7   9
ENDBRANCH   6   7
ENDBRANCH   5   6
ENDBRANCH   4   5
ENDBRANCH   3   4
ENDBRANCH   2   3
ENDBRANCH   1   2
BRANCH   1  34
ATOM     34  O   UNL     1      -3.067  -0.463   1.147  1.00  0.00    -0.377 OA
BRANCH  34  35
ATOM     35  C   UNL     1      -3.399  -0.832   2.479  1.00  0.00     0.188 C 
BRANCH  35  36
ATOM     36  C   UNL     1      -3.570   0.264   3.487  1.00  0.00     0.188 C 
BRANCH  36  37
ATOM     37  O   UNL     1      -4.410   1.226   2.882  1.00  0.00    -0.376 OA
BRANCH  37  38
ATOM     38  C   UNL     1      -4.441   2.467   3.554  1.00  0.00     0.202 C 
BRANCH  38  39
ATOM     39  C   UNL     1      -5.277   2.380   4.830  1.00  0.00     0.261 C 
BRANCH  39  40
ATOM     40  O   UNL     1      -6.574   1.836   4.492  1.00  0.00    -0.460 OA
BRANCH  40  41
ATOM     41  C   UNL     1      -6.806   0.557   4.920  1.00  0.00     0.338 C 
ATOM     42  O   UNL     1      -6.463   0.090   5.982  1.00  0.00    -0.246 OA
BRANCH  41  43
ATOM     43  C   UNL     1      -7.220  -0.267   3.747  1.00  0.00     0.060 A 
ATOM     44  C   UNL     1      -6.912  -1.613   3.690  1.00  0.00     0.016 A 
ATOM     45  C   UNL     1      -7.705   0.279   2.587  1.00  0.00     0.016 A 
ATOM     46  C   UNL     1      -6.650  -2.209   2.432  1.00  0.00     0.010 A 
ATOM     47  C   UNL     1      -7.486  -0.406   1.370  1.00  0.00     0.010 A 
ATOM     48  C   UNL     1      -6.536  -1.476   1.243  1.00  0.00    -0.014 A 
BRANCH  48  49
ATOM     49  C   UNL     1      -5.177  -1.756   0.029  1.00  0.00     0.031 A 
ATOM     50  C   UNL     1      -4.942  -1.030  -1.807  1.00  0.00     0.074 A 
ATOM     51  C   UNL     1      -4.431  -2.786   0.567  1.00  0.00     0.049 A 
ATOM     52  N   UNL     1      -5.199  -1.759  -2.932  1.00  0.00    -0.248 NA
ATOM     53  C   UNL     1      -5.146   0.390  -2.523  1.00  0.00     0.031 C 
ATOM     54  C   UNL     1      -3.153  -3.229   0.144  1.00  0.00     0.029 A 
ATOM     55  N   UNL     1      -4.735  -3.804   1.476  1.00  0.00    -0.354 N 
ATOM     56  C   UNL     1      -5.404  -1.172  -4.147  1.00  0.00     0.074 A 
ATOM     57  C   UNL     1      -5.548   0.188  -3.792  1.00  0.00     0.031 C 
ATOM     58  C   UNL     1      -2.996  -4.545   0.305  1.00  0.00     0.029 A 
ATOM     59  C   UNL     1      -4.102  -4.973   1.079  1.00  0.00     0.049 A 
ATOM     60  H   UNL     1      -5.307  -3.706   2.271  1.00  0.00     0.167 HD
ATOM     61  C   UNL     1      -5.395  -1.848  -5.346  1.00  0.00     0.031 A 
ATOM     62  C   UNL     1      -4.551  -6.232   1.170  1.00  0.00     0.031 A 
ATOM     63  C   UNL     1      -4.815  -3.214  -5.283  1.00  0.00     0.049 A 
ATOM     64  C   UNL     1      -4.615  -6.837  -0.221  1.00  0.00     0.074 A 
ATOM     65  C   UNL     1      -3.510  -3.639  -5.503  1.00  0.00     0.029 A 
ATOM     66  N   UNL     1      -5.457  -4.324  -4.721  1.00  0.00    -0.354 N 
ATOM     67  N   UNL     1      -4.708  -6.136  -1.339  1.00  0.00    -0.248 NA
ATOM     68  C   UNL     1      -4.453  -8.260  -0.478  1.00  0.00     0.031 C 
ATOM     69  C   UNL     1      -3.313  -4.868  -4.812  1.00  0.00     0.029 A 
ATOM     70  C   UNL     1      -4.529  -5.295  -4.291  1.00  0.00     0.049 A 
ATOM     71  H   UNL     1      -6.433  -4.415  -4.638  1.00  0.00     0.167 HD
ATOM     72  C   UNL     1      -4.691  -6.974  -2.435  1.00  0.00     0.074 A 
ATOM     73  C   UNL     1      -4.456  -8.283  -1.822  1.00  0.00     0.031 C 
ATOM     74  C   UNL     1      -4.891  -6.630  -3.760  1.00  0.00     0.031 A 
BRANCH  61  75
ATOM     75  C   UNL     1      -5.511  -1.024  -6.629  1.00  0.00    -0.014 A 
ATOM     76  C   UNL     1      -4.615  -1.199  -7.699  1.00  0.00     0.009 A 
ATOM     77  C   UNL     1      -6.447   0.021  -6.777  1.00  0.00     0.009 A 
ATOM     78  C   UNL     1      -4.553  -0.291  -8.772  1.00  0.00     0.001 A 
ATOM     79  C   UNL     1      -6.357   0.962  -7.819  1.00  0.00     0.001 A 
ATOM     80  C   UNL     1      -5.391   0.818  -8.806  1.00  0.00     0.000 A 
ENDBRANCH  61  75
BRANCH  62  81
ATOM     81  C   UNL     1      -5.126  -6.455   2.533  1.00  0.00    -0.014 A 
ATOM     82  C   UNL     1      -4.156  -6.328   3.573  1.00  0.00     0.009 A 
ATOM     83  C   UNL     1      -6.439  -6.073   2.842  1.00  0.00     0.009 A 
ATOM     84  C   UNL     1      -4.423  -5.601   4.743  1.00  0.00     0.001 A 
ATOM     85  C   UNL     1      -6.715  -5.394   4.050  1.00  0.00     0.001 A 
ATOM     86  C   UNL     1      -5.697  -5.097   4.961  1.00  0.00     0.000 A 
ENDBRANCH  62  81
BRANCH  74  87
ATOM     87  C   UNL     1      -5.354  -7.638  -4.811  1.00  0.00    -0.014 A 
ATOM     88  C   UNL     1      -5.864  -8.912  -4.526  1.00  0.00     0.009 A 
ATOM     89  C   UNL     1      -5.442  -7.231  -6.164  1.00  0.00     0.009 A 
ATOM     90  C   UNL     1      -6.391  -9.739  -5.526  1.00  0.00     0.001 A 
ATOM     91  C   UNL     1      -6.026  -8.022  -7.154  1.00  0.00     0.001 A 
ATOM     92  C   UNL     1      -6.493  -9.285  -6.834  1.00  0.00     0.000 A 
ENDBRANCH  74  87
ENDBRANCH  48  49
ENDBRANCH  41  43
ENDBRANCH  40  41
ENDBRANCH  39  40
ENDBRANCH  38  39
ENDBRANCH  37  38
ENDBRANCH  36  37
ENDBRANCH  35  36
ENDBRANCH  34  35
ENDBRANCH   1  34
TORSDOF 23
