REMARK SMILES Cc1c(CC(=O)OCCOCCOCCOCCOC(=O)c2ccc(-c3c4nc(c(-c5ccccc5)c5ccc([nH]5)c(-c5ccccc5)c5nc(c(-c6ccccc6)c6ccc3[nH]6)C=C5)C=C4)cc2)cccc1-c1ccn(C(F)F)c(=O)c1
REMARK SMILES IDX 12 1 11 2 10 3 9 4 8 5 7 6 5 7 6 8 4 9 3 10 1 11 2 12 73 13
REMARK SMILES IDX 70 14 72 15 71 16 74 17 75 18 83 19 76 20 81 21 77 22 82 23
REMARK SMILES IDX 78 24 79 25 80 26 13 27 14 28 15 29 16 30 17 31 18 32 19 33
REMARK SMILES IDX 20 34 21 35 22 36 23 37 69 38 24 39 68 40 25 41 26 42 27 43
REMARK SMILES IDX 62 44 28 45 67 46 61 47 63 48 29 49 66 50 60 51 59 52 30 54
REMARK SMILES IDX 52 55 37 56 51 57 38 58 41 59 50 60 64 61 39 62 40 63 49 65
REMARK SMILES IDX 65 66 42 67 31 68 32 69 36 70 33 71 35 72 34 73 53 74 54 75
REMARK SMILES IDX 58 76 55 77 57 78 56 79 43 80 44 81 48 82 45 83 47 84 46 85
REMARK H PARENT 63 53 41 64
REMARK Flexibility Score: inf
ROOT
ATOM      1  C   UNL     1      -1.440  -2.264   0.399  1.00  0.00     0.188 C 
ENDROOT
BRANCH   1   2
ATOM      2  C   UNL     1      -2.037  -3.631  -0.006  1.00  0.00     0.188 C 
BRANCH   2   3
ATOM      3  O   UNL     1      -1.183  -4.764  -0.108  1.00  0.00    -0.376 OA
BRANCH   3   4
ATOM      4  C   UNL     1      -0.251  -4.922   0.939  1.00  0.00     0.202 C 
BRANCH   4   5
ATOM      5  C   UNL     1       1.150  -4.919   0.347  1.00  0.00     0.261 C 
BRANCH   5   6
ATOM      6  O   UNL     1       1.516  -3.634  -0.196  1.00  0.00    -0.463 OA
BRANCH   6   7
ATOM      7  C   UNL     1       1.281  -3.470  -1.524  1.00  0.00     0.310 C 
ATOM      8  O   UNL     1       0.808  -4.319  -2.271  1.00  0.00    -0.252 OA
BRANCH   7   9
ATOM      9  C   UNL     1       1.750  -2.121  -2.019  1.00  0.00     0.158 C 
BRANCH   9  10
ATOM     10  C   UNL     1       0.943  -0.906  -1.593  1.00  0.00    -0.033 A 
ATOM     11  C   UNL     1       2.921   0.066  -0.341  1.00  0.00     0.045 C 
ATOM     12  C   UNL     1       1.487   0.139  -0.809  1.00  0.00    -0.039 A 
ATOM     13  C   UNL     1       0.691   1.283  -0.527  1.00  0.00    -0.015 A 
ATOM     14  C   UNL     1      -0.386  -0.784  -2.046  1.00  0.00     0.004 A 
ATOM     15  C   UNL     1      -0.664   1.310  -0.874  1.00  0.00     0.009 A 
ATOM     16  C   UNL     1      -1.195   0.285  -1.646  1.00  0.00     0.001 A 
BRANCH  13  17
ATOM     17  C   UNL     1       1.329   2.578  -0.203  1.00  0.00    -0.011 A 
ATOM     18  C   UNL     1       2.158   3.196  -1.222  1.00  0.00     0.027 A 
ATOM     19  C   UNL     1       1.142   3.216   0.965  1.00  0.00     0.080 A 
ATOM     20  C   UNL     1       2.818   4.326  -0.979  1.00  0.00     0.095 A 
ATOM     21  C   UNL     1       1.849   4.508   1.238  1.00  0.00     0.255 A 
ATOM     22  N   UNL     1       2.698   4.963   0.237  1.00  0.00    -0.258 N 
ATOM     23  O   UNL     1       1.654   5.067   2.312  1.00  0.00    -0.269 OA
BRANCH  22  24
ATOM     24  C   UNL     1       3.480   6.142   0.502  1.00  0.00     0.451 C 
ATOM     25  F   UNL     1       2.692   7.217   0.737  1.00  0.00    -0.185 F 
ATOM     26  F   UNL     1       4.282   5.959   1.579  1.00  0.00    -0.185 F 
ENDBRANCH  22  24
ENDBRANCH  13  17
ENDBRANCH   9  10
ENDBRANCH   7   9
ENDBRANCH   6   7
ENDBRANCH   5   6
ENDBRANCH   4   5
ENDBRANCH   3   4
ENDBRANCH   2   3
ENDBRANCH   1   2
BRANCH   1  27
ATOM     27  O   UNL     1      -1.328  -1.802   1.741  1.00  0.00    -0.377 OA
BRANCH  27  28
ATOM     28  C   UNL     1      -2.506  -1.874   2.507  1.00  0.00     0.188 C 
BRANCH  28  29
ATOM     29  C   UNL     1      -3.754  -1.291   1.915  1.00  0.00     0.188 C 
BRANCH  29  30
ATOM     30  O   UNL     1      -4.373  -2.388   1.265  1.00  0.00    -0.376 OA
BRANCH  30  31
ATOM     31  C   UNL     1      -5.715  -2.207   0.872  1.00  0.00     0.202 C 
BRANCH  31  32
ATOM     32  C   UNL     1      -6.638  -1.881   2.051  1.00  0.00     0.261 C 
BRANCH  32  33
ATOM     33  O   UNL     1      -6.449  -2.893   3.070  1.00  0.00    -0.460 OA
BRANCH  33  34
ATOM     34  C   UNL     1      -5.993  -2.475   4.278  1.00  0.00     0.338 C 
ATOM     35  O   UNL     1      -6.288  -1.406   4.816  1.00  0.00    -0.246 OA
BRANCH  34  36
ATOM     36  C   UNL     1      -4.845  -3.325   4.726  1.00  0.00     0.060 A 
ATOM     37  C   UNL     1      -4.004  -2.873   5.761  1.00  0.00     0.016 A 
ATOM     38  C   UNL     1      -4.411  -4.372   3.918  1.00  0.00     0.016 A 
ATOM     39  C   UNL     1      -2.666  -3.315   5.849  1.00  0.00     0.010 A 
ATOM     40  C   UNL     1      -3.079  -4.773   3.987  1.00  0.00     0.010 A 
ATOM     41  C   UNL     1      -2.158  -4.187   4.886  1.00  0.00    -0.014 A 
BRANCH  41  42
ATOM     42  C   UNL     1      -0.710  -4.382   4.570  1.00  0.00     0.031 A 
ATOM     43  C   UNL     1      -0.220  -5.779   4.309  1.00  0.00     0.074 A 
ATOM     44  C   UNL     1       0.084  -3.335   4.183  1.00  0.00     0.049 A 
ATOM     45  N   UNL     1       0.972  -6.080   3.922  1.00  0.00    -0.248 NA
ATOM     46  C   UNL     1      -1.057  -6.974   4.423  1.00  0.00     0.031 C 
ATOM     47  C   UNL     1       1.286  -3.387   3.338  1.00  0.00     0.029 A 
ATOM     48  N   UNL     1      -0.044  -1.958   4.391  1.00  0.00    -0.354 N 
ATOM     49  C   UNL     1       0.994  -7.380   3.472  1.00  0.00     0.074 A 
ATOM     50  C   UNL     1      -0.291  -7.910   3.849  1.00  0.00     0.031 C 
ATOM     51  C   UNL     1       1.833  -2.174   3.174  1.00  0.00     0.029 A 
ATOM     52  C   UNL     1       1.197  -1.327   4.146  1.00  0.00     0.049 A 
ATOM     53  H   UNL     1      -0.871  -1.498   4.666  1.00  0.00     0.167 HD
ATOM     54  C   UNL     1       2.071  -7.809   2.747  1.00  0.00     0.031 A 
ATOM     55  C   UNL     1       1.851  -0.674   5.146  1.00  0.00     0.031 A 
ATOM     56  C   UNL     1       3.184  -6.834   2.791  1.00  0.00     0.049 A 
ATOM     57  C   UNL     1       3.058  -1.507   5.533  1.00  0.00     0.074 A 
ATOM     58  C   UNL     1       3.963  -6.183   1.848  1.00  0.00     0.029 A 
ATOM     59  N   UNL     1       3.519  -6.244   4.017  1.00  0.00    -0.354 N 
ATOM     60  N   UNL     1       3.127  -2.799   5.300  1.00  0.00    -0.248 NA
ATOM     61  C   UNL     1       4.333  -0.969   5.999  1.00  0.00     0.031 C 
ATOM     62  C   UNL     1       4.591  -5.071   2.489  1.00  0.00     0.029 A 
ATOM     63  C   UNL     1       4.304  -5.121   3.847  1.00  0.00     0.049 A 
ATOM     64  H   UNL     1       3.231  -6.588   4.893  1.00  0.00     0.167 HD
ATOM     65  C   UNL     1       4.416  -3.215   5.400  1.00  0.00     0.074 A 
ATOM     66  C   UNL     1       5.125  -2.057   5.924  1.00  0.00     0.031 C 
ATOM     67  C   UNL     1       4.876  -4.435   5.000  1.00  0.00     0.031 A 
BRANCH  54  68
ATOM     68  C   UNL     1       2.083  -9.055   1.862  1.00  0.00    -0.014 A 
ATOM     69  C   UNL     1       3.227  -9.364   1.098  1.00  0.00     0.009 A 
ATOM     70  C   UNL     1       0.992  -9.925   1.666  1.00  0.00     0.009 A 
ATOM     71  C   UNL     1       3.273 -10.444   0.198  1.00  0.00     0.001 A 
ATOM     72  C   UNL     1       1.039 -11.029   0.794  1.00  0.00     0.001 A 
ATOM     73  C   UNL     1       2.180 -11.284   0.051  1.00  0.00     0.000 A 
ENDBRANCH  54  68
BRANCH  55  74
ATOM     74  C   UNL     1       0.876   0.174   5.909  1.00  0.00    -0.014 A 
ATOM     75  C   UNL     1       0.337   1.245   5.146  1.00  0.00     0.009 A 
ATOM     76  C   UNL     1       0.052  -0.402   6.889  1.00  0.00     0.009 A 
ATOM     77  C   UNL     1      -1.039   1.511   5.148  1.00  0.00     0.001 A 
ATOM     78  C   UNL     1      -1.324  -0.099   6.912  1.00  0.00     0.001 A 
ATOM     79  C   UNL     1      -1.877   0.797   5.994  1.00  0.00     0.000 A 
ENDBRANCH  55  74
BRANCH  67  80
ATOM     80  C   UNL     1       5.985  -5.126   5.738  1.00  0.00    -0.014 A 
ATOM     81  C   UNL     1       6.308  -4.797   7.061  1.00  0.00     0.009 A 
ATOM     82  C   UNL     1       6.555  -6.299   5.201  1.00  0.00     0.009 A 
ATOM     83  C   UNL     1       7.202  -5.573   7.797  1.00  0.00     0.001 A 
ATOM     84  C   UNL     1       7.409  -7.103   5.952  1.00  0.00     0.001 A 
ATOM     85  C   UNL     1       7.744  -6.730   7.246  1.00  0.00     0.000 A 
ENDBRANCH  67  80
ENDBRANCH  41  42
ENDBRANCH  34  36
ENDBRANCH  33  34
ENDBRANCH  32  33
ENDBRANCH  31  32
ENDBRANCH  30  31
ENDBRANCH  29  30
ENDBRANCH  28  29
ENDBRANCH  27  28
ENDBRANCH   1  27
TORSDOF 23
