REMARK SMILES O=C(OCCOCCOCCOCCOC(=O)c1ccc(-c2c3nc(c(-c4ccccc4)c4ccc([nH]4)c(-c4ccccc4)c4nc(c(-c5ccccc5)c5ccc2[nH]5)C=C4)C=C3)cc1)C1=Cc2cc(S(F)(F)(F)(F)F)ccc2O[C@@H]1C(F)(F)F
REMARK SMILES IDX 10 1 9 2 8 3 7 4 6 5 5 6 4 7 3 8 2 9 1 10 66 11 67 12 81 13
REMARK SMILES IDX 68 14 80 15 69 16 79 17 70 18 78 19 77 20 82 21 83 22 84 23
REMARK SMILES IDX 85 24 71 25 72 26 73 27 74 28 75 29 76 30 11 31 12 32 13 33
REMARK SMILES IDX 14 34 15 35 16 36 17 37 18 38 19 39 65 40 20 41 64 42 21 43
REMARK SMILES IDX 22 44 23 45 58 46 24 47 63 48 57 49 59 50 25 51 62 52 56 53
REMARK SMILES IDX 55 54 26 56 48 57 33 58 47 59 34 60 37 61 46 62 60 63 35 64
REMARK SMILES IDX 36 65 45 67 61 68 38 69 27 70 28 71 32 72 29 73 31 74 30 75
REMARK SMILES IDX 49 76 50 77 54 78 51 79 53 80 52 81 39 82 40 83 44 84 41 85
REMARK SMILES IDX 43 86 42 87
REMARK H PARENT 59 55 37 66
REMARK Flexibility Score: inf
ROOT
ATOM      1  C   UNL     1       4.492  -2.395  -1.420  1.00  0.00     0.188 C 
ENDROOT
BRANCH   1   2
ATOM      2  O   UNL     1       3.072  -2.395  -1.420  1.00  0.00    -0.377 OA
BRANCH   2   3
ATOM      3  C   UNL     1       2.599  -1.262  -2.133  1.00  0.00     0.188 C 
BRANCH   3   4
ATOM      4  C   UNL     1       3.106   0.006  -1.464  1.00  0.00     0.188 C 
BRANCH   4   5
ATOM      5  O   UNL     1       4.526   0.006  -1.464  1.00  0.00    -0.376 OA
BRANCH   5   6
ATOM      6  C   UNL     1       4.999  -1.127  -0.751  1.00  0.00     0.202 C 
BRANCH   6   7
ATOM      7  C   UNL     1       4.492  -1.072   0.681  1.00  0.00     0.261 C 
BRANCH   7   8
ATOM      8  O   UNL     1       3.072  -1.072   0.681  1.00  0.00    -0.460 OA
BRANCH   8   9
ATOM      9  C   UNL     1       2.362  -0.032   0.026  1.00  0.00     0.338 C 
ATOM     10  O   UNL     1       1.091  -0.032   0.026  1.00  0.00    -0.246 OA
BRANCH   9  11
ATOM     11  C   UNL     1       3.122   1.082  -0.675  1.00  0.00     0.087 C 
ATOM     12  C   UNL     1       4.483   1.082  -0.675  1.00  0.00     0.027 C 
ATOM     13  C   UNL     1       2.362   2.196  -1.377  1.00  0.00     0.316 C 
ATOM     14  C   UNL     1       5.243  -0.032   0.026  1.00  0.00     0.019 A 
ATOM     15  O   UNL     1       3.657  -1.646  -0.702  1.00  0.00    -0.475 OA
ATOM     16  C   UNL     1       6.375   0.339   0.733  1.00  0.00     0.036 A 
ATOM     17  C   UNL     1       4.904  -1.308  -0.112  1.00  0.00     0.128 A 
ATOM     18  C   UNL     1       7.251  -0.735   1.016  1.00  0.00     0.107 A 
ATOM     19  C   UNL     1       5.749  -2.305   0.311  1.00  0.00     0.048 A 
ATOM     20  C   UNL     1       6.914  -2.010   0.964  1.00  0.00     0.028 A 
BRANCH  13  21
ATOM     21  C   UNL     1       2.729   2.210  -2.852  1.00  0.00     0.430 C 
ATOM     22  F   UNL     1       2.408   1.041  -3.399  1.00  0.00    -0.167 F 
ATOM     23  F   UNL     1       2.064   3.184  -3.465  1.00  0.00    -0.167 F 
ATOM     24  F   UNL     1       4.037   2.415  -2.981  1.00  0.00    -0.167 F 
ENDBRANCH  13  21
BRANCH  18  25
ATOM     25  S   UNL     1       8.953  -0.332   1.482  1.00  0.00     0.310 S 
ATOM     26  F   UNL     1       8.596  -0.356   3.027  1.00  0.00    -0.094 F 
ATOM     27  F   UNL     1       8.556   1.193   1.484  1.00  0.00    -0.094 F 
ATOM     28  F   UNL     1      10.413   0.019   1.887  1.00  0.00    -0.094 F 
ATOM     29  F   UNL     1       9.295  -1.868   1.611  1.00  0.00    -0.094 F 
ATOM     30  F   UNL     1       7.447  -0.707   1.181  1.00  0.00    -0.094 F 
ENDBRANCH  18  25
ENDBRANCH   9  11
ENDBRANCH   8   9
ENDBRANCH   7   8
ENDBRANCH   6   7
ENDBRANCH   5   6
ENDBRANCH   4   5
ENDBRANCH   3   4
ENDBRANCH   2   3
ENDBRANCH   1   2
BRANCH   1  31
ATOM     31  C   UNL     1       4.999  -2.450  -2.852  1.00  0.00     0.188 C 
BRANCH  31  32
ATOM     32  O   UNL     1       4.526  -1.317  -3.565  1.00  0.00    -0.376 OA
BRANCH  32  33
ATOM     33  C   UNL     1       3.106  -1.317  -3.565  1.00  0.00     0.202 C 
BRANCH  33  34
ATOM     34  C   UNL     1       2.599  -2.584  -4.233  1.00  0.00     0.261 C 
BRANCH  34  35
ATOM     35  O   UNL     1       3.072  -3.717  -3.520  1.00  0.00    -0.460 OA
BRANCH  35  36
ATOM     36  C   UNL     1       4.468  -3.937  -3.382  1.00  0.00     0.338 C 
ATOM     37  O   UNL     1       5.294  -3.119  -3.897  1.00  0.00    -0.246 OA
BRANCH  36  38
ATOM     38  C   UNL     1       4.975  -5.149  -2.618  1.00  0.00     0.060 A 
ATOM     39  C   UNL     1       6.105  -4.983  -1.835  1.00  0.00     0.016 A 
ATOM     40  C   UNL     1       4.443  -6.350  -2.814  1.00  0.00     0.016 A 
ATOM     41  C   UNL     1       6.776  -6.192  -1.532  1.00  0.00     0.010 A 
ATOM     42  C   UNL     1       5.087  -7.481  -2.372  1.00  0.00     0.010 A 
ATOM     43  C   UNL     1       6.239  -7.394  -1.642  1.00  0.00    -0.014 A 
BRANCH  43  44
ATOM     44  C   UNL     1       6.870  -8.614  -0.992  1.00  0.00     0.031 A 
ATOM     45  C   UNL     1       7.290  -9.713  -1.743  1.00  0.00     0.074 A 
ATOM     46  C   UNL     1       7.075  -8.484   0.371  1.00  0.00     0.049 A 
ATOM     47  N   UNL     1       7.968 -10.779  -1.316  1.00  0.00    -0.248 NA
ATOM     48  C   UNL     1       7.043  -9.869  -3.184  1.00  0.00     0.031 C 
ATOM     49  C   UNL     1       6.662  -7.375   1.135  1.00  0.00     0.029 A 
ATOM     50  N   UNL     1       7.697  -9.373   1.220  1.00  0.00    -0.354 N 
ATOM     51  C   UNL     1       8.206 -11.612  -2.332  1.00  0.00     0.074 A 
ATOM     52  C   UNL     1       7.609 -11.041  -3.547  1.00  0.00     0.031 C 
ATOM     53  C   UNL     1       7.018  -7.597   2.427  1.00  0.00     0.029 A 
ATOM     54  C   UNL     1       7.661  -8.848   2.493  1.00  0.00     0.049 A 
ATOM     55  H   UNL     1       8.097 -10.234   0.962  1.00  0.00     0.167 HD
ATOM     56  C   UNL     1       8.899 -12.823  -2.293  1.00  0.00     0.031 A 
ATOM     57  C   UNL     1       8.154  -9.413   3.659  1.00  0.00     0.031 A 
ATOM     58  C   UNL     1       9.430 -13.368  -1.135  1.00  0.00     0.049 A 
ATOM     59  C   UNL     1       8.796 -10.653   3.708  1.00  0.00     0.074 A 
ATOM     60  C   UNL     1      10.137 -14.584  -1.079  1.00  0.00     0.029 A 
ATOM     61  N   UNL     1       9.372 -12.854   0.142  1.00  0.00    -0.354 N 
ATOM     62  N   UNL     1       9.068 -11.466   2.686  1.00  0.00    -0.248 NA
ATOM     63  C   UNL     1       9.293 -11.276   4.941  1.00  0.00     0.031 C 
ATOM     64  C   UNL     1      10.494 -14.806   0.214  1.00  0.00     0.029 A 
ATOM     65  C   UNL     1      10.014 -13.732   0.988  1.00  0.00     0.049 A 
ATOM     66  H   UNL     1       8.946 -12.006   0.405  1.00  0.00     0.167 HD
ATOM     67  C   UNL     1       9.710 -12.552   3.121  1.00  0.00     0.074 A 
ATOM     68  C   UNL     1       9.857 -12.449   4.579  1.00  0.00     0.031 C 
ATOM     69  C   UNL     1      10.181 -13.623   2.360  1.00  0.00     0.031 A 
BRANCH  56  70
ATOM     70  C   UNL     1       9.081 -13.587  -3.594  1.00  0.00    -0.014 A 
ATOM     71  C   UNL     1       9.850 -12.976  -4.571  1.00  0.00     0.009 A 
ATOM     72  C   UNL     1       8.609 -14.817  -3.760  1.00  0.00     0.009 A 
ATOM     73  C   UNL     1       9.825 -13.640  -5.819  1.00  0.00     0.001 A 
ATOM     74  C   UNL     1       8.740 -15.460  -4.967  1.00  0.00     0.001 A 
ATOM     75  C   UNL     1       9.436 -14.890  -5.995  1.00  0.00     0.000 A 
ENDBRANCH  56  70
BRANCH  57  76
ATOM     76  C   UNL     1       7.986  -8.640   4.957  1.00  0.00    -0.014 A 
ATOM     77  C   UNL     1       9.080  -8.338   5.752  1.00  0.00     0.009 A 
ATOM     78  C   UNL     1       6.750  -8.353   5.348  1.00  0.00     0.009 A 
ATOM     79  C   UNL     1       8.743  -7.992   7.082  1.00  0.00     0.001 A 
ATOM     80  C   UNL     1       6.508  -7.888   6.618  1.00  0.00     0.001 A 
ATOM     81  C   UNL     1       7.538  -7.624   7.478  1.00  0.00     0.000 A 
ENDBRANCH  57  76
BRANCH  69  82
ATOM     82  C   UNL     1      10.924 -14.737   3.079  1.00  0.00    -0.014 A 
ATOM     83  C   UNL     1      10.265 -15.336   4.140  1.00  0.00     0.009 A 
ATOM     84  C   UNL     1      12.179 -15.052   2.781  1.00  0.00     0.009 A 
ATOM     85  C   UNL     1      11.118 -16.052   5.014  1.00  0.00     0.001 A 
ATOM     86  C   UNL     1      12.911 -15.866   3.611  1.00  0.00     0.001 A 
ATOM     87  C   UNL     1      12.341 -16.445   4.710  1.00  0.00     0.000 A 
ENDBRANCH  69  82
ENDBRANCH  43  44
ENDBRANCH  36  38
ENDBRANCH  35  36
ENDBRANCH  34  35
ENDBRANCH  33  34
ENDBRANCH  32  33
ENDBRANCH  31  32
ENDBRANCH   1  31
TORSDOF 22
