REMARK SMILES NS(=O)(=O)c1ccc(-n2nc(C(=O)OCCOCCOCCOCCOC(=O)c3ccc(-c4c5nc(c(-c6ccccc6)c6ccc([nH]6)c(-c6ccccc6)c6nc(c(-c7ccccc7)c7ccc4[nH]7)C=C6)C=C5)cc3)c(Cl)c2-c2ccc(Cl)cc2)cc1
REMARK SMILES IDX 19 1 18 2 17 3 16 4 15 5 14 6 12 7 13 8 11 9 9 10 10 11
REMARK SMILES IDX 79 12 77 13 78 14 8 15 5 16 6 17 88 18 7 19 87 20 2 21 3 22
REMARK SMILES IDX 4 23 1 24 80 27 81 28 86 29 82 30 85 31 83 32 84 33 20 34
REMARK SMILES IDX 21 35 22 36 23 37 24 38 25 39 26 40 27 41 28 42 29 43 30 44
REMARK SMILES IDX 76 45 31 46 75 47 32 48 33 49 34 50 69 51 35 52 74 53 68 54
REMARK SMILES IDX 70 55 36 56 73 57 67 58 66 59 37 61 59 62 44 63 58 64 45 65
REMARK SMILES IDX 48 66 57 67 71 68 46 69 47 70 56 72 72 73 49 74 38 75 39 76
REMARK SMILES IDX 43 77 40 78 42 79 41 80 60 81 61 82 65 83 62 84 64 85 63 86
REMARK SMILES IDX 50 87 51 88 55 89 52 90 54 91 53 92
REMARK H PARENT 1 25 1 26 70 60 48 71
REMARK Flexibility Score: inf
ROOT
ATOM      1  C   UNL     1       3.616  -0.711  10.517  1.00  0.00     0.188 C 
ENDROOT
BRANCH   1   2
ATOM      2  C   UNL     1       5.096  -0.700  10.069  1.00  0.00     0.188 C 
BRANCH   2   3
ATOM      3  O   UNL     1       6.143  -0.475  11.001  1.00  0.00    -0.376 OA
BRANCH   3   4
ATOM      4  C   UNL     1       6.209   0.663  11.839  1.00  0.00     0.202 C 
BRANCH   4   5
ATOM      5  C   UNL     1       5.686   2.049  11.445  1.00  0.00     0.261 C 
BRANCH   5   6
ATOM      6  O   UNL     1       4.578   2.076  10.557  1.00  0.00    -0.458 OA
BRANCH   6   7
ATOM      7  C   UNL     1       4.844   2.279   9.237  1.00  0.00     0.360 C 
ATOM      8  O   UNL     1       5.967   2.436   8.772  1.00  0.00    -0.244 OA
BRANCH   7   9
ATOM      9  C   UNL     1       3.617   2.226   8.435  1.00  0.00     0.190 A 
ATOM     10  N   UNL     1       2.333   1.996   6.739  1.00  0.00    -0.231 N 
ATOM     11  N   UNL     1       3.567   1.678   7.202  1.00  0.00    -0.159 NA
ATOM     12  C   UNL     1       1.553   2.623   7.697  1.00  0.00     0.094 A 
ATOM     13  C   UNL     1       2.342   2.690   8.826  1.00  0.00     0.102 A 
ATOM     14  Cl  UNL     1       1.891   3.315  10.348  1.00  0.00    -0.079 Cl
BRANCH  10  15
ATOM     15  C   UNL     1       2.025   1.828   5.369  1.00  0.00     0.065 A 
ATOM     16  C   UNL     1       1.233   1.532   2.721  1.00  0.00     0.082 A 
ATOM     17  C   UNL     1       1.625   0.405   3.455  1.00  0.00     0.024 A 
ATOM     18  C   UNL     1       1.276   2.807   3.293  1.00  0.00     0.024 A 
ATOM     19  C   UNL     1       2.051   0.555   4.783  1.00  0.00     0.030 A 
ATOM     20  C   UNL     1       1.653   2.954   4.624  1.00  0.00     0.030 A 
BRANCH  16  21
ATOM     21  S   UNL     1       0.677   1.407   1.046  1.00  0.00     0.238 S 
ATOM     22  O   UNL     1       1.242   2.508   0.293  1.00  0.00    -0.207 OA
ATOM     23  O   UNL     1      -0.732   1.114   1.060  1.00  0.00    -0.207 OA
BRANCH  21  24
ATOM     24  N   UNL     1       1.435   0.036   0.441  1.00  0.00    -0.225 NA
ATOM     25  H   UNL     1       1.161  -0.103  -0.531  1.00  0.00     0.137 HD
ATOM     26  H   UNL     1       1.159  -0.776   0.993  1.00  0.00     0.137 HD
ENDBRANCH  21  24
ENDBRANCH  16  21
ENDBRANCH  10  15
BRANCH  12  27
ATOM     27  C   UNL     1       0.196   3.130   7.519  1.00  0.00     0.002 A 
ATOM     28  C   UNL     1      -0.053   4.476   7.827  1.00  0.00     0.012 A 
ATOM     29  C   UNL     1      -0.864   2.308   7.121  1.00  0.00     0.012 A 
ATOM     30  C   UNL     1      -1.345   4.990   7.776  1.00  0.00     0.021 A 
ATOM     31  C   UNL     1      -2.160   2.828   7.058  1.00  0.00     0.021 A 
ATOM     32  C   UNL     1      -2.396   4.161   7.397  1.00  0.00     0.041 A 
ATOM     33  Cl  UNL     1      -3.996   4.787   7.365  1.00  0.00    -0.084 Cl
ENDBRANCH  12  27
ENDBRANCH   7   9
ENDBRANCH   6   7
ENDBRANCH   5   6
ENDBRANCH   4   5
ENDBRANCH   3   4
ENDBRANCH   2   3
ENDBRANCH   1   2
BRANCH   1  34
ATOM     34  O   UNL     1       3.376  -0.181  11.807  1.00  0.00    -0.377 OA
BRANCH  34  35
ATOM     35  C   UNL     1       3.525  -1.051  12.927  1.00  0.00     0.188 C 
BRANCH  35  36
ATOM     36  C   UNL     1       4.478  -2.276  12.892  1.00  0.00     0.188 C 
BRANCH  36  37
ATOM     37  O   UNL     1       4.689  -2.844  11.608  1.00  0.00    -0.376 OA
BRANCH  37  38
ATOM     38  C   UNL     1       4.210  -4.126  11.251  1.00  0.00     0.202 C 
BRANCH  38  39
ATOM     39  C   UNL     1       2.703  -4.255  11.058  1.00  0.00     0.261 C 
BRANCH  39  40
ATOM     40  O   UNL     1       1.963  -3.585  12.059  1.00  0.00    -0.460 OA
BRANCH  40  41
ATOM     41  C   UNL     1       2.065  -4.132  13.284  1.00  0.00     0.338 C 
ATOM     42  O   UNL     1       2.799  -5.040  13.630  1.00  0.00    -0.246 OA
BRANCH  41  43
ATOM     43  C   UNL     1       1.014  -3.550  14.122  1.00  0.00     0.060 A 
ATOM     44  C   UNL     1       0.912  -4.107  15.393  1.00  0.00     0.016 A 
ATOM     45  C   UNL     1      -0.053  -2.890  13.489  1.00  0.00     0.016 A 
ATOM     46  C   UNL     1      -0.351  -4.327  15.869  1.00  0.00     0.010 A 
ATOM     47  C   UNL     1      -1.315  -3.127  13.956  1.00  0.00     0.010 A 
ATOM     48  C   UNL     1      -1.438  -3.946  15.071  1.00  0.00    -0.014 A 
BRANCH  48  49
ATOM     49  C   UNL     1      -2.735  -4.410  15.480  1.00  0.00     0.031 A 
ATOM     50  C   UNL     1      -3.236  -3.690  16.658  1.00  0.00     0.074 A 
ATOM     51  C   UNL     1      -3.406  -5.368  14.821  1.00  0.00     0.049 A 
ATOM     52  N   UNL     1      -3.360  -4.145  17.857  1.00  0.00    -0.248 NA
ATOM     53  C   UNL     1      -3.433  -2.239  16.521  1.00  0.00     0.031 C 
ATOM     54  C   UNL     1      -3.135  -5.946  13.502  1.00  0.00     0.029 A 
ATOM     55  N   UNL     1      -4.575  -5.952  15.180  1.00  0.00    -0.354 N 
ATOM     56  C   UNL     1      -3.839  -3.078  18.599  1.00  0.00     0.074 A 
ATOM     57  C   UNL     1      -3.677  -1.900  17.785  1.00  0.00     0.031 C 
ATOM     58  C   UNL     1      -4.242  -6.601  13.077  1.00  0.00     0.029 A 
ATOM     59  C   UNL     1      -5.230  -6.598  14.145  1.00  0.00     0.049 A 
ATOM     60  H   UNL     1      -4.929  -5.920  16.098  1.00  0.00     0.167 HD
ATOM     61  C   UNL     1      -4.597  -3.281  19.707  1.00  0.00     0.031 A 
ATOM     62  C   UNL     1      -6.524  -7.000  14.164  1.00  0.00     0.031 A 
ATOM     63  C   UNL     1      -4.454  -4.619  20.222  1.00  0.00     0.049 A 
ATOM     64  C   UNL     1      -6.959  -7.052  15.583  1.00  0.00     0.074 A 
ATOM     65  C   UNL     1      -3.393  -5.370  20.688  1.00  0.00     0.029 A 
ATOM     66  N   UNL     1      -5.455  -5.517  19.935  1.00  0.00    -0.354 N 
ATOM     67  N   UNL     1      -6.515  -7.927  16.438  1.00  0.00    -0.248 NA
ATOM     68  C   UNL     1      -7.543  -5.853  16.167  1.00  0.00     0.031 C 
ATOM     69  C   UNL     1      -3.640  -6.694  20.217  1.00  0.00     0.029 A 
ATOM     70  C   UNL     1      -4.859  -6.686  19.537  1.00  0.00     0.049 A 
ATOM     71  H   UNL     1      -6.423  -5.351  20.003  1.00  0.00     0.167 HD
ATOM     72  C   UNL     1      -6.361  -7.220  17.623  1.00  0.00     0.074 A 
ATOM     73  C   UNL     1      -7.106  -5.978  17.424  1.00  0.00     0.031 C 
ATOM     74  C   UNL     1      -5.410  -7.575  18.538  1.00  0.00     0.031 A 
BRANCH  61  75
ATOM     75  C   UNL     1      -5.786  -2.412  20.020  1.00  0.00    -0.014 A 
ATOM     76  C   UNL     1      -6.497  -2.648  21.205  1.00  0.00     0.009 A 
ATOM     77  C   UNL     1      -6.398  -1.572  19.066  1.00  0.00     0.009 A 
ATOM     78  C   UNL     1      -7.782  -2.127  21.391  1.00  0.00     0.001 A 
ATOM     79  C   UNL     1      -7.659  -1.013  19.267  1.00  0.00     0.001 A 
ATOM     80  C   UNL     1      -8.365  -1.317  20.419  1.00  0.00     0.000 A 
ENDBRANCH  61  75
BRANCH  62  81
ATOM     81  C   UNL     1      -7.491  -7.025  13.047  1.00  0.00    -0.014 A 
ATOM     82  C   UNL     1      -8.701  -7.725  13.170  1.00  0.00     0.009 A 
ATOM     83  C   UNL     1      -7.354  -6.135  11.966  1.00  0.00     0.009 A 
ATOM     84  C   UNL     1      -9.752  -7.507  12.269  1.00  0.00     0.001 A 
ATOM     85  C   UNL     1      -8.401  -5.922  11.063  1.00  0.00     0.001 A 
ATOM     86  C   UNL     1      -9.606  -6.596  11.226  1.00  0.00     0.000 A 
ENDBRANCH  62  81
BRANCH  74  87
ATOM     87  C   UNL     1      -4.690  -8.886  18.331  1.00  0.00    -0.014 A 
ATOM     88  C   UNL     1      -3.914  -9.162  17.190  1.00  0.00     0.009 A 
ATOM     89  C   UNL     1      -4.677  -9.814  19.382  1.00  0.00     0.009 A 
ATOM     90  C   UNL     1      -3.177 -10.347  17.092  1.00  0.00     0.001 A 
ATOM     91  C   UNL     1      -3.924 -10.987  19.294  1.00  0.00     0.001 A 
ATOM     92  C   UNL     1      -3.180 -11.257  18.147  1.00  0.00     0.000 A 
ENDBRANCH  74  87
ENDBRANCH  48  49
ENDBRANCH  41  43
ENDBRANCH  40  41
ENDBRANCH  39  40
ENDBRANCH  38  39
ENDBRANCH  37  38
ENDBRANCH  36  37
ENDBRANCH  35  36
ENDBRANCH  34  35
ENDBRANCH   1  34
TORSDOF 24
