REMARK SMILES C[C@@H]1CN(C(=O)Nc2ccc(O)c(C(=O)OCCOCCOCCOCCOC(=O)c3ccc(-c4c5nc(c(-c6ccccc6)c6ccc([nH]6)c(-c6ccccc6)c6nc(c(-c7ccccc7)c7ccc4[nH]7)C=C6)C=C5)cc3)c2)C[C@H]1C
REMARK SMILES IDX 23 1 22 2 21 3 20 4 19 5 18 6 17 7 16 8 14 9 15 10 13 11
REMARK SMILES IDX 8 12 9 13 79 14 10 15 11 16 7 17 1 18 2 19 3 20 81 21 4 22
REMARK SMILES IDX 80 23 82 24 5 25 6 26 12 28 24 30 25 31 26 32 27 33 28 34
REMARK SMILES IDX 29 35 30 36 31 37 32 38 78 39 33 40 77 41 34 42 35 43 36 44
REMARK SMILES IDX 71 45 37 46 76 47 70 48 72 49 38 50 75 51 69 52 68 53 39 55
REMARK SMILES IDX 61 56 46 57 60 58 47 59 50 60 59 61 73 62 48 63 49 64 58 66
REMARK SMILES IDX 74 67 51 68 40 69 41 70 45 71 42 72 44 73 43 74 62 75 63 76
REMARK SMILES IDX 67 77 64 78 66 79 65 80 52 81 53 82 57 83 54 84 56 85 55 86
REMARK H PARENT 7 27 12 29 72 54 50 65
REMARK Flexibility Score: inf
ROOT
ATOM      1  C   UNL     1      -8.003   3.535   1.487  1.00  0.00     0.188 C 
ENDROOT
BRANCH   1   2
ATOM      2  O   UNL     1      -7.105   2.720   0.739  1.00  0.00    -0.377 OA
BRANCH   2   3
ATOM      3  C   UNL     1      -6.959   1.347   1.080  1.00  0.00     0.188 C 
BRANCH   3   4
ATOM      4  C   UNL     1      -6.865   0.912   2.562  1.00  0.00     0.188 C 
BRANCH   4   5
ATOM      5  O   UNL     1      -7.216   1.928   3.484  1.00  0.00    -0.376 OA
BRANCH   5   6
ATOM      6  C   UNL     1      -6.230   2.466   4.344  1.00  0.00     0.202 C 
BRANCH   6   7
ATOM      7  C   UNL     1      -4.965   3.095   3.744  1.00  0.00     0.261 C 
BRANCH   7   8
ATOM      8  O   UNL     1      -4.504   2.490   2.538  1.00  0.00    -0.460 OA
BRANCH   8   9
ATOM      9  C   UNL     1      -3.636   1.461   2.640  1.00  0.00     0.342 C 
ATOM     10  O   UNL     1      -3.200   0.974   3.669  1.00  0.00    -0.246 OA
BRANCH   9  11
ATOM     11  C   UNL     1      -3.527   0.833   1.303  1.00  0.00     0.103 A 
ATOM     12  C   UNL     1      -3.583  -1.196   0.004  1.00  0.00     0.044 A 
ATOM     13  C   UNL     1      -3.581  -0.448  -1.177  1.00  0.00     0.030 A 
ATOM     14  C   UNL     1      -3.641  -0.563   1.243  1.00  0.00     0.045 A 
ATOM     15  C   UNL     1      -3.476   0.943  -1.120  1.00  0.00     0.049 A 
ATOM     16  C   UNL     1      -3.406   1.577   0.121  1.00  0.00     0.130 A 
BRANCH  12  17
ATOM     17  N   UNL     1      -3.406  -2.577  -0.034  1.00  0.00    -0.308 N 
ATOM     18  C   UNL     1       1.346  -0.015   0.077  1.00  0.00     0.010 C 
ATOM     19  C   UNL     1       0.770  -1.181  -0.716  1.00  0.00     0.010 C 
ATOM     20  C   UNL     1      -0.735  -1.277  -0.525  1.00  0.00     0.125 C 
ATOM     21  C   UNL     1       1.252  -2.564  -0.276  1.00  0.00     0.010 C 
ATOM     22  N   UNL     1      -1.087  -2.684  -0.603  1.00  0.00    -0.324 N 
ATOM     23  C   UNL     1       0.121  -3.482  -0.757  1.00  0.00     0.125 C 
ATOM     24  C   UNL     1       2.604  -2.921  -0.868  1.00  0.00     0.010 C 
ATOM     25  C   UNL     1      -2.298  -3.297  -0.391  1.00  0.00     0.321 C 
ATOM     26  O   UNL     1      -2.411  -4.526  -0.409  1.00  0.00    -0.248 OA
ATOM     27  H   UNL     1      -4.189  -3.111   0.233  1.00  0.00     0.171 HD
ENDBRANCH  12  17
BRANCH  16  28
ATOM     28  O   UNL     1      -3.195   2.925   0.169  1.00  0.00    -0.507 OA
ATOM     29  H   UNL     1      -3.115   3.416  -0.625  1.00  0.00     0.293 HD
ENDBRANCH  16  28
ENDBRANCH   9  11
ENDBRANCH   8   9
ENDBRANCH   7   8
ENDBRANCH   6   7
ENDBRANCH   5   6
ENDBRANCH   4   5
ENDBRANCH   3   4
ENDBRANCH   2   3
ENDBRANCH   1   2
BRANCH   1  30
ATOM     30  C   UNL     1      -9.311   2.944   2.066  1.00  0.00     0.188 C 
BRANCH  30  31
ATOM     31  O   UNL     1      -9.526   1.576   1.764  1.00  0.00    -0.376 OA
BRANCH  31  32
ATOM     32  C   UNL     1     -10.507   1.257   0.794  1.00  0.00     0.202 C 
BRANCH  32  33
ATOM     33  C   UNL     1     -10.319   1.808  -0.627  1.00  0.00     0.261 C 
BRANCH  33  34
ATOM     34  O   UNL     1     -10.080   3.219  -0.738  1.00  0.00    -0.460 OA
BRANCH  34  35
ATOM     35  C   UNL     1     -11.084   4.049  -0.391  1.00  0.00     0.338 C 
ATOM     36  O   UNL     1     -12.194   3.742   0.015  1.00  0.00    -0.246 OA
BRANCH  35  37
ATOM     37  C   UNL     1     -10.548   5.424  -0.415  1.00  0.00     0.060 A 
ATOM     38  C   UNL     1     -10.514   6.172   0.771  1.00  0.00     0.016 A 
ATOM     39  C   UNL     1     -10.072   5.965  -1.610  1.00  0.00     0.016 A 
ATOM     40  C   UNL     1     -10.031   7.480   0.756  1.00  0.00     0.010 A 
ATOM     41  C   UNL     1      -9.612   7.283  -1.629  1.00  0.00     0.010 A 
ATOM     42  C   UNL     1      -9.623   8.057  -0.454  1.00  0.00    -0.014 A 
BRANCH  42  43
ATOM     43  C   UNL     1      -9.423   9.521  -0.548  1.00  0.00     0.031 A 
ATOM     44  C   UNL     1     -10.559  10.355  -1.076  1.00  0.00     0.074 A 
ATOM     45  C   UNL     1      -8.269  10.103  -0.180  1.00  0.00     0.049 A 
ATOM     46  N   UNL     1     -10.598  11.634  -1.342  1.00  0.00    -0.248 NA
ATOM     47  C   UNL     1     -11.819   9.642  -1.347  1.00  0.00     0.031 C 
ATOM     48  C   UNL     1      -7.118   9.416   0.401  1.00  0.00     0.029 A 
ATOM     49  N   UNL     1      -7.878  11.417  -0.256  1.00  0.00    -0.354 N 
ATOM     50  C   UNL     1     -11.879  11.876  -1.825  1.00  0.00     0.074 A 
ATOM     51  C   UNL     1     -12.575  10.608  -1.843  1.00  0.00     0.031 C 
ATOM     52  C   UNL     1      -6.140  10.315   0.616  1.00  0.00     0.029 A 
ATOM     53  C   UNL     1      -6.583  11.628   0.149  1.00  0.00     0.049 A 
ATOM     54  H   UNL     1      -8.469  12.139  -0.572  1.00  0.00     0.167 HD
ATOM     55  C   UNL     1     -12.428  13.048  -2.219  1.00  0.00     0.031 A 
ATOM     56  C   UNL     1      -5.834  12.748   0.117  1.00  0.00     0.031 A 
ATOM     57  C   UNL     1     -11.727  14.304  -2.219  1.00  0.00     0.049 A 
ATOM     58  C   UNL     1      -6.436  14.024  -0.416  1.00  0.00     0.074 A 
ATOM     59  C   UNL     1     -12.196  15.551  -2.592  1.00  0.00     0.029 A 
ATOM     60  N   UNL     1     -10.405  14.468  -1.836  1.00  0.00    -0.354 N 
ATOM     61  N   UNL     1      -7.652  14.247  -0.857  1.00  0.00    -0.248 NA
ATOM     62  C   UNL     1      -5.562  15.206  -0.448  1.00  0.00     0.031 C 
ATOM     63  C   UNL     1     -11.137  16.459  -2.498  1.00  0.00     0.029 A 
ATOM     64  C   UNL     1     -10.032  15.792  -1.992  1.00  0.00     0.049 A 
ATOM     65  H   UNL     1      -9.820  13.751  -1.503  1.00  0.00     0.167 HD
ATOM     66  C   UNL     1      -7.698  15.599  -1.180  1.00  0.00     0.074 A 
ATOM     67  C   UNL     1      -6.393  16.146  -0.876  1.00  0.00     0.031 C 
ATOM     68  C   UNL     1      -8.730  16.324  -1.678  1.00  0.00     0.031 A 
BRANCH  55  69
ATOM     69  C   UNL     1     -13.842  13.014  -2.728  1.00  0.00    -0.014 A 
ATOM     70  C   UNL     1     -14.925  12.761  -1.870  1.00  0.00     0.009 A 
ATOM     71  C   UNL     1     -14.096  13.262  -4.086  1.00  0.00     0.009 A 
ATOM     72  C   UNL     1     -16.229  12.721  -2.371  1.00  0.00     0.001 A 
ATOM     73  C   UNL     1     -15.402  13.254  -4.577  1.00  0.00     0.001 A 
ATOM     74  C   UNL     1     -16.466  12.974  -3.722  1.00  0.00     0.000 A 
ENDBRANCH  55  69
BRANCH  56  75
ATOM     75  C   UNL     1      -4.419  12.718   0.576  1.00  0.00    -0.014 A 
ATOM     76  C   UNL     1      -4.021  13.421   1.723  1.00  0.00     0.009 A 
ATOM     77  C   UNL     1      -3.450  12.008  -0.152  1.00  0.00     0.009 A 
ATOM     78  C   UNL     1      -2.680  13.439   2.115  1.00  0.00     0.001 A 
ATOM     79  C   UNL     1      -2.115  12.001   0.261  1.00  0.00     0.001 A 
ATOM     80  C   UNL     1      -1.730  12.725   1.387  1.00  0.00     0.000 A 
ENDBRANCH  56  75
BRANCH  68  81
ATOM     81  C   UNL     1      -8.516  17.800  -1.872  1.00  0.00    -0.014 A 
ATOM     82  C   UNL     1      -7.681  18.299  -2.884  1.00  0.00     0.009 A 
ATOM     83  C   UNL     1      -9.210  18.710  -1.056  1.00  0.00     0.009 A 
ATOM     84  C   UNL     1      -7.521  19.677  -3.052  1.00  0.00     0.001 A 
ATOM     85  C   UNL     1      -9.075  20.085  -1.249  1.00  0.00     0.001 A 
ATOM     86  C   UNL     1      -8.223  20.567  -2.240  1.00  0.00     0.000 A 
ENDBRANCH  68  81
ENDBRANCH  42  43
ENDBRANCH  35  37
ENDBRANCH  34  35
ENDBRANCH  33  34
ENDBRANCH  32  33
ENDBRANCH  31  32
ENDBRANCH  30  31
ENDBRANCH   1  30
TORSDOF 22
