REMARK SMILES O=C(OCCOCCOCCOCCOC(=O)[C@@H](Cc1cccc(F)c1)[C@H]1CCOC2(CCC2)C1)c1ccc(-c2c3nc(c(-c4ccccc4)c4ccc([nH]4)c(-c4ccccc4)c4nc(c(-c5ccccc5)c5ccc2[nH]5)C=C4)C=C3)cc1
REMARK SMILES IDX 9 1 8 2 7 3 6 4 5 5 4 6 3 7 2 8 1 9 36 10 37 11 83 12 38 13
REMARK SMILES IDX 82 14 39 15 40 16 41 17 76 18 42 19 81 20 75 21 77 22 43 23
REMARK SMILES IDX 80 24 74 25 73 26 44 28 66 29 51 30 65 31 52 32 55 33 64 34
REMARK SMILES IDX 78 35 53 36 54 37 63 39 79 40 56 41 45 42 46 43 50 44 47 45
REMARK SMILES IDX 49 46 48 47 67 48 68 49 72 50 69 51 71 52 70 53 57 54 58 55
REMARK SMILES IDX 62 56 59 57 61 58 60 59 10 60 11 61 12 62 13 63 14 64 15 65
REMARK SMILES IDX 16 66 17 67 18 68 19 69 20 70 21 71 26 72 22 73 24 74 23 75
REMARK SMILES IDX 25 76 27 77 28 78 35 79 29 80 31 81 30 82 32 83 34 84 33 85
REMARK H PARENT 77 27 55 38
REMARK Flexibility Score: inf
ROOT
ATOM      1  O   UNL     1       2.268   6.881   4.258  1.00  0.00    -0.377 OA
ENDROOT
BRANCH   1   2
ATOM      2  C   UNL     1       2.345   8.174   3.678  1.00  0.00     0.188 C 
BRANCH   2   3
ATOM      3  C   UNL     1       1.189   8.542   2.777  1.00  0.00     0.188 C 
BRANCH   3   4
ATOM      4  O   UNL     1      -0.027   8.167   3.386  1.00  0.00    -0.376 OA
BRANCH   4   5
ATOM      5  C   UNL     1      -1.116   7.756   2.584  1.00  0.00     0.202 C 
BRANCH   5   6
ATOM      6  C   UNL     1      -1.322   8.453   1.248  1.00  0.00     0.261 C 
BRANCH   6   7
ATOM      7  O   UNL     1      -0.605   9.683   0.967  1.00  0.00    -0.460 OA
BRANCH   7   8
ATOM      8  C   UNL     1      -0.597  10.954   1.394  1.00  0.00     0.338 C 
ATOM      9  O   UNL     1       0.034  11.788   0.718  1.00  0.00    -0.246 OA
BRANCH   8  10
ATOM     10  C   UNL     1      -1.238  11.461   2.631  1.00  0.00     0.060 A 
ATOM     11  C   UNL     1      -1.464  10.690   3.760  1.00  0.00     0.016 A 
ATOM     12  C   UNL     1      -1.516  12.833   2.731  1.00  0.00     0.016 A 
ATOM     13  C   UNL     1      -2.037  11.186   4.908  1.00  0.00     0.010 A 
ATOM     14  C   UNL     1      -2.066  13.372   3.901  1.00  0.00     0.010 A 
ATOM     15  C   UNL     1      -2.362  12.527   4.976  1.00  0.00    -0.014 A 
BRANCH  15  16
ATOM     16  C   UNL     1      -3.234  12.907   6.090  1.00  0.00     0.031 A 
ATOM     17  C   UNL     1      -4.694  13.030   5.786  1.00  0.00     0.074 A 
ATOM     18  C   UNL     1      -2.765  12.876   7.349  1.00  0.00     0.049 A 
ATOM     19  N   UNL     1      -5.675  13.390   6.563  1.00  0.00    -0.248 NA
ATOM     20  C   UNL     1      -5.111  12.665   4.417  1.00  0.00     0.031 C 
ATOM     21  C   UNL     1      -1.398  12.506   7.737  1.00  0.00     0.029 A 
ATOM     22  N   UNL     1      -3.398  13.101   8.538  1.00  0.00    -0.354 N 
ATOM     23  C   UNL     1      -6.811  13.346   5.765  1.00  0.00     0.074 A 
ATOM     24  C   UNL     1      -6.410  12.907   4.452  1.00  0.00     0.031 C 
ATOM     25  C   UNL     1      -1.305  12.517   9.077  1.00  0.00     0.029 A 
ATOM     26  C   UNL     1      -2.571  12.982   9.627  1.00  0.00     0.049 A 
ATOM     27  H   UNL     1      -4.354  13.327   8.607  1.00  0.00     0.167 HD
ATOM     28  C   UNL     1      -8.074  13.678   6.110  1.00  0.00     0.031 A 
ATOM     29  C   UNL     1      -2.814  13.280  10.916  1.00  0.00     0.031 A 
ATOM     30  C   UNL     1      -8.413  14.130   7.427  1.00  0.00     0.049 A 
ATOM     31  C   UNL     1      -4.184  13.809  11.245  1.00  0.00     0.074 A 
ATOM     32  C   UNL     1      -9.612  14.625   7.899  1.00  0.00     0.029 A 
ATOM     33  N   UNL     1      -7.520  14.134   8.493  1.00  0.00    -0.354 N 
ATOM     34  N   UNL     1      -5.235  13.917  10.463  1.00  0.00    -0.248 NA
ATOM     35  C   UNL     1      -4.398  14.283  12.616  1.00  0.00     0.031 C 
ATOM     36  C   UNL     1      -9.425  14.981   9.240  1.00  0.00     0.029 A 
ATOM     37  C   UNL     1      -8.132  14.645   9.619  1.00  0.00     0.049 A 
ATOM     38  H   UNL     1      -6.589  13.819   8.450  1.00  0.00     0.167 HD
ATOM     39  C   UNL     1      -6.242  14.457  11.249  1.00  0.00     0.074 A 
ATOM     40  C   UNL     1      -5.677  14.632  12.575  1.00  0.00     0.031 C 
ATOM     41  C   UNL     1      -7.514  14.787  10.914  1.00  0.00     0.031 A 
BRANCH  28  42
ATOM     42  C   UNL     1      -9.092  13.686   5.007  1.00  0.00    -0.014 A 
ATOM     43  C   UNL     1      -9.584  12.501   4.436  1.00  0.00     0.009 A 
ATOM     44  C   UNL     1      -9.498  14.917   4.468  1.00  0.00     0.009 A 
ATOM     45  C   UNL     1     -10.425  12.551   3.321  1.00  0.00     0.001 A 
ATOM     46  C   UNL     1     -10.359  14.965   3.371  1.00  0.00     0.001 A 
ATOM     47  C   UNL     1     -10.811  13.782   2.790  1.00  0.00     0.000 A 
ENDBRANCH  28  42
BRANCH  29  48
ATOM     48  C   UNL     1      -1.734  13.198  11.936  1.00  0.00    -0.014 A 
ATOM     49  C   UNL     1      -1.833  12.335  13.036  1.00  0.00     0.009 A 
ATOM     50  C   UNL     1      -0.592  14.012  11.824  1.00  0.00     0.009 A 
ATOM     51  C   UNL     1      -0.829  12.307  14.011  1.00  0.00     0.001 A 
ATOM     52  C   UNL     1       0.424  13.960  12.780  1.00  0.00     0.001 A 
ATOM     53  C   UNL     1       0.300  13.116  13.880  1.00  0.00     0.000 A 
ENDBRANCH  29  48
BRANCH  41  54
ATOM     54  C   UNL     1      -8.377  15.323  12.015  1.00  0.00    -0.014 A 
ATOM     55  C   UNL     1      -8.207  16.627  12.504  1.00  0.00     0.009 A 
ATOM     56  C   UNL     1      -9.416  14.526  12.519  1.00  0.00     0.009 A 
ATOM     57  C   UNL     1      -9.050  17.113  13.501  1.00  0.00     0.001 A 
ATOM     58  C   UNL     1     -10.277  15.027  13.492  1.00  0.00     0.001 A 
ATOM     59  C   UNL     1     -10.088  16.317  13.988  1.00  0.00     0.000 A 
ENDBRANCH  41  54
ENDBRANCH  15  16
ENDBRANCH   8  10
ENDBRANCH   7   8
ENDBRANCH   6   7
ENDBRANCH   5   6
ENDBRANCH   4   5
ENDBRANCH   3   4
ENDBRANCH   2   3
ENDBRANCH   1   2
BRANCH   1  60
ATOM     60  C   UNL     1       1.149   6.495   5.055  1.00  0.00     0.188 C 
BRANCH  60  61
ATOM     61  C   UNL     1       0.801   7.327   6.301  1.00  0.00     0.188 C 
BRANCH  61  62
ATOM     62  O   UNL     1       1.286   8.652   6.254  1.00  0.00    -0.376 OA
BRANCH  62  63
ATOM     63  C   UNL     1       2.408   8.990   7.059  1.00  0.00     0.202 C 
BRANCH  63  64
ATOM     64  C   UNL     1       3.568   8.011   7.350  1.00  0.00     0.261 C 
BRANCH  64  65
ATOM     65  O   UNL     1       3.892   7.026   6.350  1.00  0.00    -0.463 OA
BRANCH  65  66
ATOM     66  C   UNL     1       3.585   5.748   6.665  1.00  0.00     0.309 C 
ATOM     67  O   UNL     1       3.007   5.444   7.715  1.00  0.00    -0.252 OA
BRANCH  66  68
ATOM     68  C   UNL     1       4.024   4.645   5.695  1.00  0.00     0.107 C 
BRANCH  68  69
ATOM     69  C   UNL     1       4.100   4.737   4.153  1.00  0.00     0.051 C 
BRANCH  69  70
ATOM     70  C   UNL     1       5.136   5.508   3.371  1.00  0.00    -0.044 A 
ATOM     71  C   UNL     1       5.534   6.813   3.673  1.00  0.00     0.004 A 
ATOM     72  C   UNL     1       5.597   4.953   2.163  1.00  0.00     0.043 A 
ATOM     73  C   UNL     1       6.347   7.550   2.801  1.00  0.00     0.003 A 
ATOM     74  C   UNL     1       6.414   5.684   1.305  1.00  0.00     0.123 A 
ATOM     75  C   UNL     1       6.787   6.983   1.611  1.00  0.00     0.039 A 
ATOM     76  F   UNL     1       6.818   5.134   0.153  1.00  0.00    -0.207 F 
ENDBRANCH  69  70
ENDBRANCH  68  69
BRANCH  68  77
ATOM     77  C   UNL     1       5.206   3.846   6.264  1.00  0.00     0.009 C 
ATOM     78  C   UNL     1       6.385   4.711   6.716  1.00  0.00     0.033 C 
ATOM     79  C   UNL     1       4.756   2.949   7.431  1.00  0.00     0.040 C 
ATOM     80  C   UNL     1       7.520   3.809   7.184  1.00  0.00     0.161 C 
ATOM     81  C   UNL     1       5.925   2.063   7.829  1.00  0.00     0.069 C 
ATOM     82  O   UNL     1       7.065   2.892   8.181  1.00  0.00    -0.375 OA
ATOM     83  C   UNL     1       5.549   0.992   8.891  1.00  0.00     0.035 C 
ATOM     84  C   UNL     1       6.199   0.873   6.863  1.00  0.00     0.035 C 
ATOM     85  C   UNL     1       6.437   0.005   8.110  1.00  0.00     0.006 C 
ENDBRANCH  68  77
ENDBRANCH  66  68
ENDBRANCH  65  66
ENDBRANCH  64  65
ENDBRANCH  63  64
ENDBRANCH  62  63
ENDBRANCH  61  62
ENDBRANCH  60  61
ENDBRANCH   1  60
TORSDOF 23
