REMARK SMILES CCCCc1cc(S(F)(F)(F)(F)F)cc2c1O[C@@H](C(F)(F)F)C(C(=O)OCCOCCOCCOCCOC(=O)c1ccc(-c3c4nc(c(-c5ccccc5)c5ccc([nH]5)c(-c5ccccc5)c5nc(c(-c6ccccc6)c6ccc3[nH]6)C=C5)C=C4)cc1)=C2
REMARK SMILES IDX 31 1 30 2 29 3 28 4 27 5 26 6 24 7 25 8 23 9 5 10 6 11 16 12
REMARK SMILES IDX 7 13 15 14 17 15 14 16 89 17 18 18 4 19 3 20 2 21 1 22 8 23
REMARK SMILES IDX 9 24 10 25 11 26 12 27 13 28 19 29 20 30 21 31 22 32 32 33
REMARK SMILES IDX 33 34 34 35 35 36 36 37 37 38 38 39 39 40 40 41 41 42 42 43
REMARK SMILES IDX 88 44 43 45 87 46 44 47 45 48 46 49 81 50 47 51 86 52 80 53
REMARK SMILES IDX 82 54 48 55 85 56 79 57 78 58 49 60 71 61 56 62 70 63 57 64
REMARK SMILES IDX 60 65 69 66 83 67 58 68 59 69 68 71 84 72 61 73 50 74 51 75
REMARK SMILES IDX 55 76 52 77 54 78 53 79 72 80 73 81 77 82 74 83 76 84 75 85
REMARK SMILES IDX 62 86 63 87 67 88 64 89 66 90 65 91
REMARK H PARENT 82 59 60 70
REMARK Flexibility Score: inf
ROOT
ATOM      1  C   UNL     1      -4.380  -6.999  -4.378  1.00  0.00     0.188 C 
ENDROOT
BRANCH   1   2
ATOM      2  C   UNL     1      -3.713  -7.688  -3.198  1.00  0.00     0.188 C 
BRANCH   2   3
ATOM      3  O   UNL     1      -4.352  -8.932  -2.954  1.00  0.00    -0.376 OA
BRANCH   3   4
ATOM      4  C   UNL     1      -5.723  -8.710  -2.659  1.00  0.00     0.202 C 
BRANCH   4   5
ATOM      5  C   UNL     1      -5.840  -7.830  -1.426  1.00  0.00     0.261 C 
BRANCH   5   6
ATOM      6  O   UNL     1      -5.201  -6.586  -1.670  1.00  0.00    -0.460 OA
BRANCH   6   7
ATOM      7  C   UNL     1      -3.818  -6.548  -1.988  1.00  0.00     0.338 C 
ATOM      8  O   UNL     1      -3.152  -7.629  -2.054  1.00  0.00    -0.246 OA
BRANCH   7   9
ATOM      9  C   UNL     1      -3.134  -5.216  -2.250  1.00  0.00     0.087 C 
ATOM     10  C   UNL     1      -1.085  -1.584  -2.486  1.00  0.00    -0.004 A 
ATOM     11  C   UNL     1      -1.790  -0.401  -2.616  1.00  0.00     0.032 A 
ATOM     12  C   UNL     1      -1.785  -2.759  -2.356  1.00  0.00     0.131 A 
ATOM     13  C   UNL     1      -3.160  -0.394  -2.612  1.00  0.00     0.108 A 
ATOM     14  C   UNL     1      -3.168  -2.792  -2.367  1.00  0.00     0.019 A 
ATOM     15  O   UNL     1      -1.075  -3.909  -2.115  1.00  0.00    -0.475 OA
ATOM     16  C   UNL     1      -3.846  -1.585  -2.494  1.00  0.00     0.036 A 
ATOM     17  C   UNL     1      -3.816  -4.079  -2.184  1.00  0.00     0.027 C 
ATOM     18  C   UNL     1      -1.651  -5.157  -2.592  1.00  0.00     0.316 C 
BRANCH  10  19
ATOM     19  C   UNL     1       0.435  -1.584  -2.486  1.00  0.00     0.039 C 
BRANCH  19  20
ATOM     20  C   UNL     1       0.942  -0.152  -2.547  1.00  0.00     0.005 C 
BRANCH  20  21
ATOM     21  C   UNL     1       0.435   0.617  -1.338  1.00  0.00    -0.003 C 
ATOM     22  C   UNL     1       0.942  -0.045  -0.067  1.00  0.00     0.004 C 
ENDBRANCH  20  21
ENDBRANCH  19  20
ENDBRANCH  10  19
BRANCH  13  23
ATOM     23  S   UNL     1      -4.064   1.168  -2.759  1.00  0.00     0.310 S 
ATOM     24  F   UNL     1      -4.420   1.181  -1.213  1.00  0.00    -0.094 F 
ATOM     25  F   UNL     1      -5.393   0.353  -2.988  1.00  0.00    -0.094 F 
ATOM     26  F   UNL     1      -4.833   2.513  -2.885  1.00  0.00    -0.094 F 
ATOM     27  F   UNL     1      -2.750   1.963  -2.389  1.00  0.00    -0.094 F 
ATOM     28  F   UNL     1      -3.292  -0.190  -2.517  1.00  0.00    -0.094 F 
ENDBRANCH  13  23
BRANCH  18  29
ATOM     29  C   UNL     1      -0.940  -6.321  -1.920  1.00  0.00     0.430 C 
ATOM     30  F   UNL     1      -1.458  -7.466  -2.353  1.00  0.00    -0.167 F 
ATOM     31  F   UNL     1       0.356  -6.279  -2.217  1.00  0.00    -0.167 F 
ATOM     32  F   UNL     1      -1.096  -6.234  -0.602  1.00  0.00    -0.167 F 
ENDBRANCH  18  29
ENDBRANCH   7   9
ENDBRANCH   6   7
ENDBRANCH   5   6
ENDBRANCH   4   5
ENDBRANCH   3   4
ENDBRANCH   2   3
ENDBRANCH   1   2
BRANCH   1  33
ATOM     33  O   UNL     1      -5.751  -6.777  -4.083  1.00  0.00    -0.377 OA
BRANCH  33  34
ATOM     34  C   UNL     1      -6.390  -8.021  -3.839  1.00  0.00     0.188 C 
BRANCH  34  35
ATOM     35  C   UNL     1      -6.273  -8.902  -5.072  1.00  0.00     0.188 C 
BRANCH  35  36
ATOM     36  O   UNL     1      -4.902  -9.124  -5.367  1.00  0.00    -0.376 OA
BRANCH  36  37
ATOM     37  C   UNL     1      -4.263  -7.880  -5.611  1.00  0.00     0.202 C 
BRANCH  37  38
ATOM     38  C   UNL     1      -4.929  -7.191  -6.791  1.00  0.00     0.261 C 
BRANCH  38  39
ATOM     39  O   UNL     1      -6.301  -6.968  -6.496  1.00  0.00    -0.460 OA
BRANCH  39  40
ATOM     40  C   UNL     1      -7.153  -8.069  -6.214  1.00  0.00     0.338 C 
ATOM     41  O   UNL     1      -6.689  -9.252  -6.226  1.00  0.00    -0.246 OA
BRANCH  40  42
ATOM     42  C   UNL     1      -8.621  -7.831  -5.899  1.00  0.00     0.060 A 
ATOM     43  C   UNL     1      -9.204  -8.501  -4.836  1.00  0.00     0.016 A 
ATOM     44  C   UNL     1      -9.321  -6.987  -6.648  1.00  0.00     0.016 A 
ATOM     45  C   UNL     1     -10.617  -8.432  -4.820  1.00  0.00     0.010 A 
ATOM     46  C   UNL     1     -10.680  -6.870  -6.486  1.00  0.00     0.010 A 
ATOM     47  C   UNL     1     -11.331  -7.549  -5.493  1.00  0.00    -0.014 A 
BRANCH  47  48
ATOM     48  C   UNL     1     -12.798  -7.300  -5.181  1.00  0.00     0.031 A 
ATOM     49  C   UNL     1     -13.732  -7.527  -6.193  1.00  0.00     0.074 A 
ATOM     50  C   UNL     1     -13.125  -6.864  -3.909  1.00  0.00     0.049 A 
ATOM     51  N   UNL     1     -15.059  -7.405  -6.118  1.00  0.00    -0.248 NA
ATOM     52  C   UNL     1     -13.384  -7.958  -7.556  1.00  0.00     0.031 C 
ATOM     53  C   UNL     1     -12.189  -6.641  -2.880  1.00  0.00     0.029 A 
ATOM     54  N   UNL     1     -14.376  -6.571  -3.412  1.00  0.00    -0.354 N 
ATOM     55  C   UNL     1     -15.618  -7.728  -7.286  1.00  0.00     0.074 A 
ATOM     56  C   UNL     1     -14.549  -8.081  -8.229  1.00  0.00     0.031 C 
ATOM     57  C   UNL     1     -12.864  -6.209  -1.783  1.00  0.00     0.029 A 
ATOM     58  C   UNL     1     -14.233  -6.155  -2.106  1.00  0.00     0.049 A 
ATOM     59  H   UNL     1     -15.225  -6.646  -3.904  1.00  0.00     0.167 HD
ATOM     60  C   UNL     1     -16.978  -7.742  -7.601  1.00  0.00     0.031 A 
ATOM     61  C   UNL     1     -15.228  -5.747  -1.232  1.00  0.00     0.031 A 
ATOM     62  C   UNL     1     -17.976  -7.375  -6.713  1.00  0.00     0.049 A 
ATOM     63  C   UNL     1     -16.584  -5.705  -1.566  1.00  0.00     0.074 A 
ATOM     64  C   UNL     1     -19.352  -7.392  -7.012  1.00  0.00     0.029 A 
ATOM     65  N   UNL     1     -17.831  -6.936  -5.416  1.00  0.00    -0.354 N 
ATOM     66  N   UNL     1     -17.146  -6.066  -2.721  1.00  0.00    -0.248 NA
ATOM     67  C   UNL     1     -17.643  -5.244  -0.658  1.00  0.00     0.031 C 
ATOM     68  C   UNL     1     -20.027  -6.959  -5.914  1.00  0.00     0.029 A 
ATOM     69  C   UNL     1     -19.084  -6.665  -4.911  1.00  0.00     0.049 A 
ATOM     70  H   UNL     1     -16.980  -6.833  -4.933  1.00  0.00     0.167 HD
ATOM     71  C   UNL     1     -18.469  -5.904  -2.658  1.00  0.00     0.074 A 
ATOM     72  C   UNL     1     -18.807  -5.366  -1.333  1.00  0.00     0.031 C 
ATOM     73  C   UNL     1     -19.409  -6.187  -3.651  1.00  0.00     0.031 A 
BRANCH  60  74
ATOM     74  C   UNL     1     -17.386  -8.185  -8.997  1.00  0.00    -0.014 A 
ATOM     75  C   UNL     1     -17.158  -9.485  -9.419  1.00  0.00     0.009 A 
ATOM     76  C   UNL     1     -18.052  -7.322  -9.754  1.00  0.00     0.009 A 
ATOM     77  C   UNL     1     -17.425  -9.696 -10.793  1.00  0.00     0.001 A 
ATOM     78  C   UNL     1     -18.401  -7.645 -11.043  1.00  0.00     0.001 A 
ATOM     79  C   UNL     1     -18.153  -8.892 -11.546  1.00  0.00     0.000 A 
ENDBRANCH  60  74
BRANCH  61  80
ATOM     80  C   UNL     1     -14.821  -5.320   0.168  1.00  0.00    -0.014 A 
ATOM     81  C   UNL     1     -15.400  -5.929   1.270  1.00  0.00     0.009 A 
ATOM     82  C   UNL     1     -13.984  -4.298   0.307  1.00  0.00     0.009 A 
ATOM     83  C   UNL     1     -15.257  -5.196   2.471  1.00  0.00     0.001 A 
ATOM     84  C   UNL     1     -13.789  -3.716   1.536  1.00  0.00     0.001 A 
ATOM     85  C   UNL     1     -14.376  -4.229   2.659  1.00  0.00     0.000 A 
ENDBRANCH  61  80
BRANCH  73  86
ATOM     86  C   UNL     1     -20.877  -5.956  -3.331  1.00  0.00    -0.014 A 
ATOM     87  C   UNL     1     -21.304  -4.684  -2.986  1.00  0.00     0.009 A 
ATOM     88  C   UNL     1     -21.724  -6.976  -3.387  1.00  0.00     0.009 A 
ATOM     89  C   UNL     1     -22.605  -4.648  -2.431  1.00  0.00     0.001 A 
ATOM     90  C   UNL     1     -23.021  -6.833  -2.954  1.00  0.00     0.001 A 
ATOM     91  C   UNL     1     -23.494  -5.618  -2.543  1.00  0.00     0.000 A 
ENDBRANCH  73  86
ENDBRANCH  47  48
ENDBRANCH  40  42
ENDBRANCH  39  40
ENDBRANCH  38  39
ENDBRANCH  37  38
ENDBRANCH  36  37
ENDBRANCH  35  36
ENDBRANCH  34  35
ENDBRANCH  33  34
ENDBRANCH   1  33
TORSDOF 25
