REMARK SMILES O=C(OCCOCCOCCOCCOC(=O)c1nnn(Cc2ccccc2Cl)c1-c1ccc(Cl)cc1)c1ccc(-c2c3nc(c(-c4ccccc4)c4ccc([nH]4)c(-c4ccccc4)c4nc(c(-c5ccccc5)c5ccc2[nH]5)C=C4)C=C3)cc1
REMARK SMILES IDX 9 1 8 2 7 3 6 4 5 5 4 6 3 7 2 8 1 9 38 10 39 11 85 12 40 13
REMARK SMILES IDX 84 14 41 15 42 16 43 17 78 18 44 19 83 20 77 21 79 22 45 23
REMARK SMILES IDX 82 24 76 25 75 26 46 28 68 29 53 30 67 31 54 32 57 33 66 34
REMARK SMILES IDX 80 35 55 36 56 37 65 39 81 40 58 41 47 42 48 43 52 44 49 45
REMARK SMILES IDX 51 46 50 47 69 48 70 49 74 50 71 51 73 52 72 53 59 54 60 55
REMARK SMILES IDX 64 56 61 57 63 58 62 59 10 60 11 61 12 62 13 63 14 64 15 65
REMARK SMILES IDX 16 66 17 67 18 68 19 69 30 70 20 71 21 72 31 73 32 74 37 75
REMARK SMILES IDX 33 76 36 77 34 78 35 79 22 80 23 81 24 82 28 83 25 84 27 85
REMARK SMILES IDX 29 86 26 87
REMARK H PARENT 79 27 57 38
REMARK Flexibility Score: inf
ROOT
ATOM      1  O   UNL     1       2.797   3.083   1.140  1.00  0.00    -0.377 OA
ENDROOT
BRANCH   1   2
ATOM      2  C   UNL     1       2.345   1.820   0.676  1.00  0.00     0.188 C 
BRANCH   2   3
ATOM      3  C   UNL     1       2.982   0.606   1.373  1.00  0.00     0.188 C 
BRANCH   3   4
ATOM      4  O   UNL     1       4.009  -0.196   0.790  1.00  0.00    -0.376 OA
BRANCH   4   5
ATOM      5  C   UNL     1       4.920   0.261  -0.184  1.00  0.00     0.202 C 
BRANCH   5   6
ATOM      6  C   UNL     1       4.495   0.097  -1.645  1.00  0.00     0.261 C 
BRANCH   6   7
ATOM      7  O   UNL     1       3.114   0.338  -1.938  1.00  0.00    -0.460 OA
BRANCH   7   8
ATOM      8  C   UNL     1       2.018  -0.382  -1.620  1.00  0.00     0.338 C 
ATOM      9  O   UNL     1       0.914   0.076  -1.920  1.00  0.00    -0.246 OA
BRANCH   8  10
ATOM     10  C   UNL     1       2.041  -1.669  -0.875  1.00  0.00     0.060 A 
ATOM     11  C   UNL     1       3.142  -2.519  -0.764  1.00  0.00     0.016 A 
ATOM     12  C   UNL     1       0.817  -2.065  -0.297  1.00  0.00     0.016 A 
ATOM     13  C   UNL     1       3.007  -3.776  -0.210  1.00  0.00     0.010 A 
ATOM     14  C   UNL     1       0.672  -3.325   0.260  1.00  0.00     0.010 A 
ATOM     15  C   UNL     1       1.752  -4.199   0.211  1.00  0.00    -0.014 A 
BRANCH  15  16
ATOM     16  C   UNL     1       1.605  -5.627   0.423  1.00  0.00     0.031 A 
ATOM     17  C   UNL     1       2.331  -6.224   1.569  1.00  0.00     0.074 A 
ATOM     18  C   UNL     1       0.847  -6.348  -0.425  1.00  0.00     0.049 A 
ATOM     19  N   UNL     1       3.179  -7.202   1.558  1.00  0.00    -0.248 NA
ATOM     20  C   UNL     1       2.130  -5.610   2.889  1.00  0.00     0.031 C 
ATOM     21  C   UNL     1      -0.076  -5.844  -1.450  1.00  0.00     0.029 A 
ATOM     22  N   UNL     1       0.648  -7.693  -0.461  1.00  0.00    -0.354 N 
ATOM     23  C   UNL     1       3.497  -7.444   2.893  1.00  0.00     0.074 A 
ATOM     24  C   UNL     1       2.907  -6.373   3.657  1.00  0.00     0.031 C 
ATOM     25  C   UNL     1      -0.917  -6.836  -1.809  1.00  0.00     0.029 A 
ATOM     26  C   UNL     1      -0.497  -8.058  -1.147  1.00  0.00     0.049 A 
ATOM     27  H   UNL     1       1.258  -8.342  -0.041  1.00  0.00     0.167 HD
ATOM     28  C   UNL     1       4.040  -8.621   3.308  1.00  0.00     0.031 A 
ATOM     29  C   UNL     1      -1.123  -9.255  -1.094  1.00  0.00     0.031 A 
ATOM     30  C   UNL     1       4.706  -9.326   2.248  1.00  0.00     0.049 A 
ATOM     31  C   UNL     1      -0.159 -10.255  -0.585  1.00  0.00     0.074 A 
ATOM     32  C   UNL     1       5.779  -9.059   1.421  1.00  0.00     0.029 A 
ATOM     33  N   UNL     1       4.069 -10.409   1.694  1.00  0.00    -0.354 N 
ATOM     34  N   UNL     1       0.881 -10.661  -1.255  1.00  0.00    -0.248 NA
ATOM     35  C   UNL     1      -0.115 -10.511   0.846  1.00  0.00     0.031 C 
ATOM     36  C   UNL     1       5.457  -9.685   0.181  1.00  0.00     0.029 A 
ATOM     37  C   UNL     1       4.221 -10.315   0.336  1.00  0.00     0.049 A 
ATOM     38  H   UNL     1       3.593 -11.119   2.182  1.00  0.00     0.167 HD
ATOM     39  C   UNL     1       1.874 -10.833  -0.302  1.00  0.00     0.074 A 
ATOM     40  C   UNL     1       1.171 -10.847   0.977  1.00  0.00     0.031 C 
ATOM     41  C   UNL     1       3.193 -10.665  -0.618  1.00  0.00     0.031 A 
BRANCH  28  42
ATOM     42  C   UNL     1       3.609  -9.303   4.584  1.00  0.00    -0.014 A 
ATOM     43  C   UNL     1       4.220 -10.515   4.952  1.00  0.00     0.009 A 
ATOM     44  C   UNL     1       2.430  -8.956   5.274  1.00  0.00     0.009 A 
ATOM     45  C   UNL     1       3.637 -11.368   5.898  1.00  0.00     0.001 A 
ATOM     46  C   UNL     1       1.869  -9.783   6.250  1.00  0.00     0.001 A 
ATOM     47  C   UNL     1       2.456 -11.005   6.539  1.00  0.00     0.000 A 
ENDBRANCH  28  42
BRANCH  29  48
ATOM     48  C   UNL     1      -2.579  -9.485  -1.161  1.00  0.00    -0.014 A 
ATOM     49  C   UNL     1      -3.098 -10.752  -1.451  1.00  0.00     0.009 A 
ATOM     50  C   UNL     1      -3.475  -8.494  -0.711  1.00  0.00     0.009 A 
ATOM     51  C   UNL     1      -4.463 -11.021  -1.279  1.00  0.00     0.001 A 
ATOM     52  C   UNL     1      -4.836  -8.758  -0.549  1.00  0.00     0.001 A 
ATOM     53  C   UNL     1      -5.328 -10.028  -0.822  1.00  0.00     0.000 A 
ENDBRANCH  29  48
BRANCH  41  54
ATOM     54  C   UNL     1       3.555 -10.517  -2.075  1.00  0.00    -0.014 A 
ATOM     55  C   UNL     1       3.083  -9.451  -2.862  1.00  0.00     0.009 A 
ATOM     56  C   UNL     1       4.518 -11.375  -2.625  1.00  0.00     0.009 A 
ATOM     57  C   UNL     1       3.536  -9.271  -4.172  1.00  0.00     0.001 A 
ATOM     58  C   UNL     1       4.986 -11.183  -3.928  1.00  0.00     0.001 A 
ATOM     59  C   UNL     1       4.490 -10.135  -4.703  1.00  0.00     0.000 A 
ENDBRANCH  41  54
ENDBRANCH  15  16
ENDBRANCH   8  10
ENDBRANCH   7   8
ENDBRANCH   6   7
ENDBRANCH   5   6
ENDBRANCH   4   5
ENDBRANCH   3   4
ENDBRANCH   2   3
ENDBRANCH   1   2
BRANCH   1  60
ATOM     60  C   UNL     1       4.111   3.430   0.760  1.00  0.00     0.188 C 
BRANCH  60  61
ATOM     61  C   UNL     1       5.178   3.217   1.855  1.00  0.00     0.188 C 
BRANCH  61  62
ATOM     62  O   UNL     1       4.854   3.046   3.233  1.00  0.00    -0.376 OA
BRANCH  62  63
ATOM     63  C   UNL     1       3.591   3.400   3.765  1.00  0.00     0.202 C 
BRANCH  63  64
ATOM     64  C   UNL     1       3.226   4.885   3.834  1.00  0.00     0.261 C 
BRANCH  64  65
ATOM     65  O   UNL     1       3.531   5.627   2.654  1.00  0.00    -0.458 OA
BRANCH  65  66
ATOM     66  C   UNL     1       4.763   6.224   2.635  1.00  0.00     0.361 C 
ATOM     67  O   UNL     1       5.543   6.250   3.567  1.00  0.00    -0.244 OA
BRANCH  66  68
ATOM     68  C   UNL     1       5.061   6.768   1.319  1.00  0.00     0.198 A 
ATOM     69  N   UNL     1       6.176   6.385   0.622  1.00  0.00    -0.122 NA
ATOM     70  C   UNL     1       4.281   7.612   0.535  1.00  0.00     0.104 A 
ATOM     71  N   UNL     1       6.122   6.944  -0.572  1.00  0.00    -0.066 NA
ATOM     72  N   UNL     1       5.069   7.788  -0.583  1.00  0.00    -0.239 N 
BRANCH  70  73
ATOM     73  C   UNL     1       2.988   8.224   0.830  1.00  0.00     0.002 A 
ATOM     74  C   UNL     1       2.747   8.745   2.111  1.00  0.00     0.012 A 
ATOM     75  C   UNL     1       1.935   8.193  -0.094  1.00  0.00     0.012 A 
ATOM     76  C   UNL     1       1.476   9.193   2.476  1.00  0.00     0.021 A 
ATOM     77  C   UNL     1       0.666   8.662   0.264  1.00  0.00     0.021 A 
ATOM     78  C   UNL     1       0.439   9.148   1.550  1.00  0.00     0.041 A 
ATOM     79  Cl  UNL     1      -1.132   9.677   2.006  1.00  0.00    -0.084 Cl
ENDBRANCH  70  73
BRANCH  72  80
ATOM     80  C   UNL     1       5.024   8.826  -1.602  1.00  0.00     0.183 C 
BRANCH  80  81
ATOM     81  C   UNL     1       6.115   9.842  -1.343  1.00  0.00    -0.008 A 
ATOM     82  C   UNL     1       5.865  10.881  -0.426  1.00  0.00     0.007 A 
ATOM     83  C   UNL     1       7.407   9.725  -1.884  1.00  0.00     0.046 A 
ATOM     84  C   UNL     1       6.879  11.762  -0.049  1.00  0.00     0.000 A 
ATOM     85  C   UNL     1       8.423  10.603  -1.494  1.00  0.00     0.021 A 
ATOM     86  Cl  UNL     1       7.815   8.512  -3.046  1.00  0.00    -0.084 Cl
ATOM     87  C   UNL     1       8.160  11.617  -0.574  1.00  0.00     0.002 A 
ENDBRANCH  80  81
ENDBRANCH  72  80
ENDBRANCH  66  68
ENDBRANCH  65  66
ENDBRANCH  64  65
ENDBRANCH  63  64
ENDBRANCH  62  63
ENDBRANCH  61  62
ENDBRANCH  60  61
ENDBRANCH   1  60
TORSDOF 23
