REMARK SMILES O=C(OCCOCCOCCOCCOC(=O)[C@@H]1CC(=O)N(c2ccc(Cl)cc2C(=O)c2ccccc2)C1)c1ccc(-c2c3nc(c(-c4ccccc4)c4ccc([nH]4)c(-c4ccccc4)c4nc(c(-c5ccccc5)c5ccc2[nH]5)C=C4)C=C3)cc1
REMARK SMILES IDX 10 1 9 2 8 3 7 4 6 5 5 6 4 7 3 8 2 9 1 10 39 11 40 12 86 13
REMARK SMILES IDX 41 14 85 15 42 16 43 17 44 18 79 19 45 20 84 21 78 22 80 23
REMARK SMILES IDX 46 24 83 25 77 26 76 27 47 29 69 30 54 31 68 32 55 33 58 34
REMARK SMILES IDX 67 35 81 36 56 37 57 38 66 40 82 41 59 42 48 43 49 44 53 45
REMARK SMILES IDX 50 46 52 47 51 48 70 49 71 50 75 51 72 52 74 53 73 54 60 55
REMARK SMILES IDX 61 56 65 57 62 58 64 59 63 60 11 61 12 62 13 63 14 64 15 65
REMARK SMILES IDX 16 66 17 67 18 68 19 69 38 70 20 71 22 72 21 73 23 74 24 75
REMARK SMILES IDX 29 76 25 77 28 78 26 79 27 80 30 81 31 82 32 83 33 84 37 85
REMARK SMILES IDX 34 86 36 87 35 88
REMARK H PARENT 80 28 58 39
REMARK Flexibility Score: inf
ROOT
ATOM      1  C   UNL     1       5.084  -0.815   2.334  1.00  0.00     0.188 C 
ENDROOT
BRANCH   1   2
ATOM      2  O   UNL     1       4.182   0.260   2.530  1.00  0.00    -0.377 OA
BRANCH   2   3
ATOM      3  C   UNL     1       2.841   0.104   2.078  1.00  0.00     0.188 C 
BRANCH   3   4
ATOM      4  C   UNL     1       2.672   0.495   0.630  1.00  0.00     0.188 C 
BRANCH   4   5
ATOM      5  O   UNL     1       3.684  -0.210  -0.065  1.00  0.00    -0.376 OA
BRANCH   5   6
ATOM      6  C   UNL     1       4.287   0.417  -1.169  1.00  0.00     0.202 C 
BRANCH   6   7
ATOM      7  C   UNL     1       3.300   0.664  -2.303  1.00  0.00     0.261 C 
BRANCH   7   8
ATOM      8  O   UNL     1       2.793  -0.609  -2.763  1.00  0.00    -0.460 OA
BRANCH   8   9
ATOM      9  C   UNL     1       1.706  -1.124  -2.109  1.00  0.00     0.338 C 
ATOM     10  O   UNL     1       0.753  -0.537  -1.666  1.00  0.00    -0.246 OA
BRANCH   9  11
ATOM     11  C   UNL     1       2.114  -2.507  -1.764  1.00  0.00     0.060 A 
ATOM     12  C   UNL     1       2.724  -2.668  -0.529  1.00  0.00     0.016 A 
ATOM     13  C   UNL     1       2.273  -3.471  -2.747  1.00  0.00     0.016 A 
ATOM     14  C   UNL     1       3.809  -3.505  -0.432  1.00  0.00     0.010 A 
ATOM     15  C   UNL     1       3.148  -4.529  -2.504  1.00  0.00     0.010 A 
ATOM     16  C   UNL     1       3.999  -4.495  -1.382  1.00  0.00    -0.014 A 
BRANCH  16  17
ATOM     17  C   UNL     1       5.129  -5.435  -1.231  1.00  0.00     0.031 A 
ATOM     18  C   UNL     1       6.030  -5.635  -2.409  1.00  0.00     0.074 A 
ATOM     19  C   UNL     1       5.345  -6.071  -0.061  1.00  0.00     0.049 A 
ATOM     20  N   UNL     1       6.767  -6.663  -2.716  1.00  0.00    -0.248 NA
ATOM     21  C   UNL     1       6.068  -4.545  -3.404  1.00  0.00     0.031 C 
ATOM     22  C   UNL     1       4.646  -5.821   1.209  1.00  0.00     0.029 A 
ATOM     23  N   UNL     1       6.220  -7.077   0.256  1.00  0.00    -0.354 N 
ATOM     24  C   UNL     1       7.258  -6.399  -3.988  1.00  0.00     0.074 A 
ATOM     25  C   UNL     1       6.765  -5.100  -4.384  1.00  0.00     0.031 C 
ATOM     26  C   UNL     1       5.142  -6.616   2.164  1.00  0.00     0.029 A 
ATOM     27  C   UNL     1       6.048  -7.554   1.535  1.00  0.00     0.049 A 
ATOM     28  H   UNL     1       6.901  -7.421  -0.367  1.00  0.00     0.167 HD
ATOM     29  C   UNL     1       8.016  -7.216  -4.754  1.00  0.00     0.031 A 
ATOM     30  C   UNL     1       6.474  -8.698   2.097  1.00  0.00     0.031 A 
ATOM     31  C   UNL     1       8.483  -8.488  -4.271  1.00  0.00     0.049 A 
ATOM     32  C   UNL     1       7.234  -9.634   1.204  1.00  0.00     0.074 A 
ATOM     33  C   UNL     1       9.216  -9.458  -4.924  1.00  0.00     0.029 A 
ATOM     34  N   UNL     1       8.261  -8.948  -2.976  1.00  0.00    -0.354 N 
ATOM     35  N   UNL     1       7.589  -9.469  -0.050  1.00  0.00    -0.248 NA
ATOM     36  C   UNL     1       7.626 -10.919   1.785  1.00  0.00     0.031 C 
ATOM     37  C   UNL     1       9.391 -10.527  -4.037  1.00  0.00     0.029 A 
ATOM     38  C   UNL     1       8.832 -10.192  -2.810  1.00  0.00     0.049 A 
ATOM     39  H   UNL     1       7.768  -8.457  -2.280  1.00  0.00     0.167 HD
ATOM     40  C   UNL     1       8.274 -10.619  -0.404  1.00  0.00     0.074 A 
ATOM     41  C   UNL     1       8.297 -11.462   0.780  1.00  0.00     0.031 C 
ATOM     42  C   UNL     1       8.831 -10.963  -1.591  1.00  0.00     0.031 A 
BRANCH  29  43
ATOM     43  C   UNL     1       8.266  -6.803  -6.178  1.00  0.00    -0.014 A 
ATOM     44  C   UNL     1       9.072  -5.702  -6.509  1.00  0.00     0.009 A 
ATOM     45  C   UNL     1       7.636  -7.510  -7.215  1.00  0.00     0.009 A 
ATOM     46  C   UNL     1       9.201  -5.292  -7.840  1.00  0.00     0.001 A 
ATOM     47  C   UNL     1       7.791  -7.118  -8.546  1.00  0.00     0.001 A 
ATOM     48  C   UNL     1       8.563  -6.001  -8.857  1.00  0.00     0.000 A 
ENDBRANCH  29  43
BRANCH  30  49
ATOM     49  C   UNL     1       6.090  -9.065   3.490  1.00  0.00    -0.014 A 
ATOM     50  C   UNL     1       7.070  -9.230   4.479  1.00  0.00     0.009 A 
ATOM     51  C   UNL     1       4.743  -9.264   3.844  1.00  0.00     0.009 A 
ATOM     52  C   UNL     1       6.717  -9.622   5.774  1.00  0.00     0.001 A 
ATOM     53  C   UNL     1       4.388  -9.615   5.150  1.00  0.00     0.001 A 
ATOM     54  C   UNL     1       5.377  -9.810   6.110  1.00  0.00     0.000 A 
ENDBRANCH  30  49
BRANCH  42  55
ATOM     55  C   UNL     1       9.572 -12.264  -1.619  1.00  0.00    -0.014 A 
ATOM     56  C   UNL     1       8.897 -13.492  -1.594  1.00  0.00     0.009 A 
ATOM     57  C   UNL     1      10.971 -12.244  -1.722  1.00  0.00     0.009 A 
ATOM     58  C   UNL     1       9.619 -14.684  -1.639  1.00  0.00     0.001 A 
ATOM     59  C   UNL     1      11.685 -13.435  -1.807  1.00  0.00     0.001 A 
ATOM     60  C   UNL     1      11.009 -14.653  -1.756  1.00  0.00     0.000 A 
ENDBRANCH  42  55
ENDBRANCH  16  17
ENDBRANCH   9  11
ENDBRANCH   8   9
ENDBRANCH   7   8
ENDBRANCH   6   7
ENDBRANCH   5   6
ENDBRANCH   4   5
ENDBRANCH   3   4
ENDBRANCH   2   3
ENDBRANCH   1   2
BRANCH   1  61
ATOM     61  C   UNL     1       5.272  -1.757   3.536  1.00  0.00     0.188 C 
BRANCH  61  62
ATOM     62  O   UNL     1       4.618  -1.420   4.751  1.00  0.00    -0.376 OA
BRANCH  62  63
ATOM     63  C   UNL     1       3.203  -1.488   4.789  1.00  0.00     0.202 C 
BRANCH  63  64
ATOM     64  C   UNL     1       2.418  -0.200   5.246  1.00  0.00     0.261 C 
BRANCH  64  65
ATOM     65  O   UNL     1       3.329   1.228   5.498  1.00  0.00    -0.463 OA
BRANCH  65  66
ATOM     66  C   UNL     1       4.081   2.628   6.494  1.00  0.00     0.311 C 
ATOM     67  O   UNL     1       3.780   2.968   7.676  1.00  0.00    -0.252 OA
BRANCH  66  68
ATOM     68  C   UNL     1       5.325   3.602   6.009  1.00  0.00     0.128 C 
ATOM     69  C   UNL     1       4.803   5.047   5.892  1.00  0.00     0.117 C 
ATOM     70  C   UNL     1       6.473   3.589   4.999  1.00  0.00     0.141 C 
ATOM     71  C   UNL     1       5.104   5.413   4.468  1.00  0.00     0.227 C 
ATOM     72  N   UNL     1       6.107   4.557   4.007  1.00  0.00    -0.311 N 
ATOM     73  O   UNL     1       4.536   6.287   3.833  1.00  0.00    -0.274 OA
BRANCH  72  74
ATOM     74  C   UNL     1       6.169   4.224   2.648  1.00  0.00     0.055 A 
ATOM     75  C   UNL     1       7.205   4.775   1.878  1.00  0.00     0.028 A 
ATOM     76  C   UNL     1       5.119   3.530   2.044  1.00  0.00     0.048 A 
ATOM     77  C   UNL     1       7.183   4.668   0.486  1.00  0.00     0.023 A 
ATOM     78  C   UNL     1       5.072   3.505   0.640  1.00  0.00     0.035 A 
ATOM     79  C   UNL     1       6.104   4.045  -0.130  1.00  0.00     0.041 A 
ATOM     80  Cl  UNL     1       6.026   3.970  -1.849  1.00  0.00    -0.084 Cl
BRANCH  76  81
ATOM     81  C   UNL     1       3.941   3.033   2.799  1.00  0.00     0.195 C 
ATOM     82  O   UNL     1       2.843   3.187   2.255  1.00  0.00    -0.289 OA
BRANCH  81  83
ATOM     83  C   UNL     1       3.917   2.446   4.184  1.00  0.00     0.023 A 
ATOM     84  C   UNL     1       5.099   1.280   4.974  1.00  0.00     0.012 A 
ATOM     85  C   UNL     1       2.366   2.825   5.033  1.00  0.00     0.012 A 
ATOM     86  C   UNL     1       4.705   0.525   6.600  1.00  0.00     0.001 A 
ATOM     87  C   UNL     1       1.936   2.028   6.591  1.00  0.00     0.001 A 
ATOM     88  C   UNL     1       3.100   0.866   7.388  1.00  0.00     0.000 A 
ENDBRANCH  81  83
ENDBRANCH  76  81
ENDBRANCH  72  74
ENDBRANCH  66  68
ENDBRANCH  65  66
ENDBRANCH  64  65
ENDBRANCH  63  64
ENDBRANCH  62  63
ENDBRANCH  61  62
ENDBRANCH   1  61
TORSDOF 23
