REMARK SMILES CCCn1cc(S(=O)(=O)N[C@H]2C=C[C@@H](C(=O)OCCOCCOCCOCCOC(=O)c3ccc(-c4c5nc(c(-c6ccccc6)c6ccc([nH]6)c(-c6ccccc6)c6nc(c(-c7ccccc7)c7ccc4[nH]7)C=C6)C=C5)cc3)C2)nc1C
REMARK SMILES IDX 21 1 20 2 19 3 18 4 17 5 15 6 16 7 14 8 11 9 12 10 80 11
REMARK SMILES IDX 13 12 10 13 7 15 8 16 9 17 6 18 4 19 5 20 82 21 81 22 83 23
REMARK SMILES IDX 3 24 2 25 1 26 22 27 23 28 24 29 25 30 26 31 27 32 28 33
REMARK SMILES IDX 29 34 30 35 31 36 32 37 33 38 79 39 34 40 78 41 35 42 36 43
REMARK SMILES IDX 37 44 72 45 38 46 77 47 71 48 73 49 39 50 76 51 70 52 69 53
REMARK SMILES IDX 40 55 62 56 47 57 61 58 48 59 51 60 60 61 74 62 49 63 50 64
REMARK SMILES IDX 59 66 75 67 52 68 41 69 42 70 46 71 43 72 45 73 44 74 63 75
REMARK SMILES IDX 64 76 68 77 65 78 67 79 66 80 53 81 54 82 58 83 55 84 57 85
REMARK SMILES IDX 56 86
REMARK H PARENT 10 14 73 54 51 65
REMARK Flexibility Score: inf
ROOT
ATOM      1  C   UNL     1       5.513  -7.145   2.463  1.00  0.00     0.188 C 
ENDROOT
BRANCH   1   2
ATOM      2  O   UNL     1       5.377  -6.605   3.768  1.00  0.00    -0.376 OA
BRANCH   2   3
ATOM      3  C   UNL     1       4.188  -5.930   4.156  1.00  0.00     0.202 C 
BRANCH   3   4
ATOM      4  C   UNL     1       3.447  -4.963   3.216  1.00  0.00     0.261 C 
BRANCH   4   5
ATOM      5  O   UNL     1       3.472  -5.325   1.831  1.00  0.00    -0.463 OA
BRANCH   5   6
ATOM      6  C   UNL     1       4.054  -4.457   0.977  1.00  0.00     0.312 C 
ATOM      7  O   UNL     1       4.499  -3.358   1.297  1.00  0.00    -0.252 OA
BRANCH   6   8
ATOM      8  C   UNL     1       4.245  -5.030  -0.429  1.00  0.00     0.123 C 
ATOM      9  C   UNL     1       2.784  -6.050  -2.142  1.00  0.00     0.093 C 
ATOM     10  C   UNL     1       2.975  -4.597  -2.366  1.00  0.00    -0.011 C 
ATOM     11  C   UNL     1       3.530  -6.325  -0.849  1.00  0.00     0.043 C 
ATOM     12  C   UNL     1       3.765  -4.040  -1.443  1.00  0.00    -0.015 C 
BRANCH   9  13
ATOM     13  N   UNL     1       1.393  -6.498  -2.209  1.00  0.00    -0.203 NA
ATOM     14  H   UNL     1       1.028  -6.111  -3.079  1.00  0.00     0.142 HD
BRANCH  13  15
ATOM     15  S   UNL     1       0.198  -6.192  -1.049  1.00  0.00     0.260 S 
ATOM     16  O   UNL     1       0.688  -6.545   0.252  1.00  0.00    -0.205 OA
ATOM     17  O   UNL     1      -1.005  -6.810  -1.589  1.00  0.00    -0.205 OA
BRANCH  15  18
ATOM     18  C   UNL     1      -0.167  -4.499  -0.994  1.00  0.00     0.188 A 
ATOM     19  N   UNL     1      -0.060  -2.370  -1.440  1.00  0.00    -0.334 N 
ATOM     20  C   UNL     1       0.031  -3.613  -2.024  1.00  0.00     0.129 A 
ATOM     21  C   UNL     1      -0.699  -2.554  -0.235  1.00  0.00     0.107 A 
ATOM     22  N   UNL     1      -0.677  -3.834   0.097  1.00  0.00    -0.221 NA
ATOM     23  C   UNL     1      -1.360  -1.526   0.605  1.00  0.00     0.088 C 
BRANCH  19  24
ATOM     24  C   UNL     1       0.606  -1.238  -2.059  1.00  0.00     0.123 C 
BRANCH  24  25
ATOM     25  C   UNL     1       0.540   0.156  -1.453  1.00  0.00     0.018 C 
ATOM     26  C   UNL     1       1.338   0.307  -0.166  1.00  0.00     0.006 C 
ENDBRANCH  24  25
ENDBRANCH  19  24
ENDBRANCH  15  18
ENDBRANCH  13  15
ENDBRANCH   9  13
ENDBRANCH   6   8
ENDBRANCH   5   6
ENDBRANCH   4   5
ENDBRANCH   3   4
ENDBRANCH   2   3
ENDBRANCH   1   2
BRANCH   1  27
ATOM     27  C   UNL     1       4.432  -8.061   1.869  1.00  0.00     0.188 C 
BRANCH  27  28
ATOM     28  O   UNL     1       3.141  -7.916   2.410  1.00  0.00    -0.377 OA
BRANCH  28  29
ATOM     29  C   UNL     1       2.741  -8.831   3.421  1.00  0.00     0.188 C 
BRANCH  29  30
ATOM     30  C   UNL     1       3.806  -9.455   4.360  1.00  0.00     0.188 C 
BRANCH  30  31
ATOM     31  O   UNL     1       5.092  -9.680   3.792  1.00  0.00    -0.376 OA
BRANCH  31  32
ATOM     32  C   UNL     1       5.489 -10.958   3.315  1.00  0.00     0.202 C 
BRANCH  32  33
ATOM     33  C   UNL     1       4.724 -11.601   2.155  1.00  0.00     0.261 C 
BRANCH  33  34
ATOM     34  O   UNL     1       3.318 -11.489   2.242  1.00  0.00    -0.460 OA
BRANCH  34  35
ATOM     35  C   UNL     1       2.766 -12.161   3.267  1.00  0.00     0.338 C 
ATOM     36  O   UNL     1       3.346 -12.691   4.202  1.00  0.00    -0.246 OA
BRANCH  35  37
ATOM     37  C   UNL     1       1.335 -12.306   3.004  1.00  0.00     0.060 A 
ATOM     38  C   UNL     1       0.609 -12.954   3.999  1.00  0.00     0.016 A 
ATOM     39  C   UNL     1       0.877 -12.194   1.681  1.00  0.00     0.016 A 
ATOM     40  C   UNL     1      -0.418 -13.765   3.596  1.00  0.00     0.010 A 
ATOM     41  C   UNL     1      -0.145 -13.012   1.279  1.00  0.00     0.010 A 
ATOM     42  C   UNL     1      -0.694 -13.869   2.225  1.00  0.00    -0.014 A 
BRANCH  42  43
ATOM     43  C   UNL     1      -1.673 -14.845   1.821  1.00  0.00     0.031 A 
ATOM     44  C   UNL     1      -3.028 -14.448   2.237  1.00  0.00     0.074 A 
ATOM     45  C   UNL     1      -1.372 -15.955   1.124  1.00  0.00     0.049 A 
ATOM     46  N   UNL     1      -3.716 -14.963   3.197  1.00  0.00    -0.248 NA
ATOM     47  C   UNL     1      -3.581 -13.202   1.683  1.00  0.00     0.031 C 
ATOM     48  C   UNL     1      -0.114 -16.320   0.467  1.00  0.00     0.029 A 
ATOM     49  N   UNL     1      -2.200 -16.973   0.775  1.00  0.00    -0.354 N 
ATOM     50  C   UNL     1      -4.898 -14.241   3.223  1.00  0.00     0.074 A 
ATOM     51  C   UNL     1      -4.675 -13.058   2.430  1.00  0.00     0.031 C 
ATOM     52  C   UNL     1      -0.346 -17.336  -0.399  1.00  0.00     0.029 A 
ATOM     53  C   UNL     1      -1.724 -17.777  -0.252  1.00  0.00     0.049 A 
ATOM     54  H   UNL     1      -3.067 -17.127   1.214  1.00  0.00     0.167 HD
ATOM     55  C   UNL     1      -6.053 -14.835   3.622  1.00  0.00     0.031 A 
ATOM     56  C   UNL     1      -2.451 -18.680  -0.959  1.00  0.00     0.031 A 
ATOM     57  C   UNL     1      -5.800 -16.033   4.385  1.00  0.00     0.049 A 
ATOM     58  C   UNL     1      -3.658 -19.005  -0.160  1.00  0.00     0.074 A 
ATOM     59  C   UNL     1      -5.114 -16.317   5.551  1.00  0.00     0.029 A 
ATOM     60  N   UNL     1      -5.940 -17.233   3.729  1.00  0.00    -0.354 N 
ATOM     61  N   UNL     1      -3.613 -19.678   0.953  1.00  0.00    -0.248 NA
ATOM     62  C   UNL     1      -4.843 -18.182  -0.344  1.00  0.00     0.031 C 
ATOM     63  C   UNL     1      -4.475 -17.570   5.310  1.00  0.00     0.029 A 
ATOM     64  C   UNL     1      -4.862 -18.018   4.046  1.00  0.00     0.049 A 
ATOM     65  H   UNL     1      -6.684 -17.485   3.136  1.00  0.00     0.167 HD
ATOM     66  C   UNL     1      -4.494 -19.016   1.796  1.00  0.00     0.074 A 
ATOM     67  C   UNL     1      -5.296 -18.167   0.914  1.00  0.00     0.031 C 
ATOM     68  C   UNL     1      -4.291 -18.995   3.147  1.00  0.00     0.031 A 
BRANCH  55  69
ATOM     69  C   UNL     1      -7.351 -14.602   2.890  1.00  0.00    -0.014 A 
ATOM     70  C   UNL     1      -8.504 -15.253   3.355  1.00  0.00     0.009 A 
ATOM     71  C   UNL     1      -7.422 -14.026   1.605  1.00  0.00     0.009 A 
ATOM     72  C   UNL     1      -9.633 -15.392   2.540  1.00  0.00     0.001 A 
ATOM     73  C   UNL     1      -8.560 -14.126   0.806  1.00  0.00     0.001 A 
ATOM     74  C   UNL     1      -9.656 -14.838   1.264  1.00  0.00     0.000 A 
ENDBRANCH  55  69
BRANCH  56  75
ATOM     75  C   UNL     1      -2.360 -19.038  -2.392  1.00  0.00    -0.014 A 
ATOM     76  C   UNL     1      -3.042 -20.162  -2.891  1.00  0.00     0.009 A 
ATOM     77  C   UNL     1      -1.858 -18.113  -3.324  1.00  0.00     0.009 A 
ATOM     78  C   UNL     1      -3.260 -20.323  -4.266  1.00  0.00     0.001 A 
ATOM     79  C   UNL     1      -2.073 -18.276  -4.698  1.00  0.00     0.001 A 
ATOM     80  C   UNL     1      -2.790 -19.371  -5.167  1.00  0.00     0.000 A 
ENDBRANCH  56  75
BRANCH  68  81
ATOM     81  C   UNL     1      -3.225 -19.908   3.709  1.00  0.00    -0.014 A 
ATOM     82  C   UNL     1      -1.872 -19.856   3.325  1.00  0.00     0.009 A 
ATOM     83  C   UNL     1      -3.584 -20.782   4.744  1.00  0.00     0.009 A 
ATOM     84  C   UNL     1      -0.922 -20.692   3.924  1.00  0.00     0.001 A 
ATOM     85  C   UNL     1      -2.633 -21.599   5.359  1.00  0.00     0.001 A 
ATOM     86  C   UNL     1      -1.304 -21.562   4.942  1.00  0.00     0.000 A 
ENDBRANCH  68  81
ENDBRANCH  42  43
ENDBRANCH  35  37
ENDBRANCH  34  35
ENDBRANCH  33  34
ENDBRANCH  32  33
ENDBRANCH  31  32
ENDBRANCH  30  31
ENDBRANCH  29  30
ENDBRANCH  28  29
ENDBRANCH  27  28
ENDBRANCH   1  27
TORSDOF 25
