REMARK SMILES O=C(OCCOCCOCCOCCOC(=O)[C@H]1CC2(CC[NH+](C(=O)c3cccc(O)c3)CC2)CN1C(=O)C1CC1)c1ccc(-c2c3nc(c(-c4ccccc4)c4ccc([nH]4)c(-c4ccccc4)c4nc(c(-c5ccccc5)c5ccc2[nH]5)C=C4)C=C3)cc1
REMARK SMILES IDX 10 1 9 2 8 3 7 4 6 5 5 6 4 7 3 8 2 9 1 10 42 11 43 12 89 13
REMARK SMILES IDX 44 14 88 15 45 16 46 17 47 18 82 19 48 20 87 21 81 22 83 23
REMARK SMILES IDX 49 24 86 25 80 26 79 27 50 29 72 30 57 31 71 32 58 33 61 34
REMARK SMILES IDX 70 35 84 36 59 37 60 38 69 40 85 41 62 42 51 43 52 44 56 45
REMARK SMILES IDX 53 46 55 47 54 48 73 49 74 50 78 51 75 52 77 53 76 54 63 55
REMARK SMILES IDX 64 56 68 57 65 58 67 59 66 60 11 61 12 62 13 63 14 64 15 65
REMARK SMILES IDX 16 66 17 67 18 68 19 69 36 70 20 71 35 72 21 73 34 74 22 75
REMARK SMILES IDX 33 76 23 77 37 79 38 80 39 81 40 82 41 83 24 84 25 85 26 86
REMARK SMILES IDX 27 87 32 88 28 89 30 90 29 91 31 92
REMARK H PARENT 83 28 61 39 23 78 31 93
REMARK Flexibility Score: inf
ROOT
ATOM      1  C   UNL     1       5.589   2.980  -7.353  1.00  0.00     0.188 C 
ENDROOT
BRANCH   1   2
ATOM      2  O   UNL     1       6.717   3.831  -7.319  1.00  0.00    -0.377 OA
BRANCH   2   3
ATOM      3  C   UNL     1       7.748   3.524  -8.242  1.00  0.00     0.188 C 
BRANCH   3   4
ATOM      4  C   UNL     1       7.234   3.419  -9.667  1.00  0.00     0.188 C 
BRANCH   4   5
ATOM      5  O   UNL     1       6.525   2.208  -9.968  1.00  0.00    -0.376 OA
BRANCH   5   6
ATOM      6  C   UNL     1       7.105   0.955  -9.604  1.00  0.00     0.202 C 
BRANCH   6   7
ATOM      7  C   UNL     1       8.399   0.523 -10.303  1.00  0.00     0.261 C 
BRANCH   7   8
ATOM      8  O   UNL     1       9.278   1.613 -10.598  1.00  0.00    -0.460 OA
BRANCH   8   9
ATOM      9  C   UNL     1       9.551   1.929 -11.893  1.00  0.00     0.338 C 
ATOM     10  O   UNL     1      10.706   2.013 -12.298  1.00  0.00    -0.246 OA
BRANCH   9  11
ATOM     11  C   UNL     1       8.426   2.500 -12.694  1.00  0.00     0.060 A 
ATOM     12  C   UNL     1       7.130   1.982 -12.667  1.00  0.00     0.016 A 
ATOM     13  C   UNL     1       8.680   3.629 -13.490  1.00  0.00     0.016 A 
ATOM     14  C   UNL     1       6.086   2.622 -13.307  1.00  0.00     0.010 A 
ATOM     15  C   UNL     1       7.651   4.217 -14.238  1.00  0.00     0.010 A 
ATOM     16  C   UNL     1       6.355   3.696 -14.151  1.00  0.00    -0.014 A 
BRANCH  16  17
ATOM     17  C   UNL     1       5.316   3.939 -15.166  1.00  0.00     0.031 A 
ATOM     18  C   UNL     1       5.311   2.992 -16.335  1.00  0.00     0.074 A 
ATOM     19  C   UNL     1       4.282   4.757 -14.912  1.00  0.00     0.049 A 
ATOM     20  N   UNL     1       4.414   2.821 -17.266  1.00  0.00    -0.248 NA
ATOM     21  C   UNL     1       6.451   2.055 -16.418  1.00  0.00     0.031 C 
ATOM     22  C   UNL     1       4.111   5.557 -13.700  1.00  0.00     0.029 A 
ATOM     23  N   UNL     1       3.148   4.997 -15.640  1.00  0.00    -0.354 N 
ATOM     24  C   UNL     1       4.876   1.757 -18.031  1.00  0.00     0.074 A 
ATOM     25  C   UNL     1       6.119   1.307 -17.454  1.00  0.00     0.031 C 
ATOM     26  C   UNL     1       2.927   6.194 -13.763  1.00  0.00     0.029 A 
ATOM     27  C   UNL     1       2.281   5.871 -15.033  1.00  0.00     0.049 A 
ATOM     28  H   UNL     1       2.972   4.583 -16.516  1.00  0.00     0.167 HD
ATOM     29  C   UNL     1       4.323   1.217 -19.139  1.00  0.00     0.031 A 
ATOM     30  C   UNL     1       1.106   6.356 -15.477  1.00  0.00     0.031 A 
ATOM     31  C   UNL     1       3.132   1.734 -19.745  1.00  0.00     0.049 A 
ATOM     32  C   UNL     1       0.607   5.874 -16.815  1.00  0.00     0.074 A 
ATOM     33  C   UNL     1       2.542   1.382 -20.942  1.00  0.00     0.029 A 
ATOM     34  N   UNL     1       2.362   2.748 -19.191  1.00  0.00    -0.354 N 
ATOM     35  N   UNL     1       1.088   4.924 -17.584  1.00  0.00    -0.248 NA
ATOM     36  C   UNL     1      -0.588   6.537 -17.353  1.00  0.00     0.031 C 
ATOM     37  C   UNL     1       1.444   2.227 -21.140  1.00  0.00     0.029 A 
ATOM     38  C   UNL     1       1.316   3.058 -20.036  1.00  0.00     0.049 A 
ATOM     39  H   UNL     1       2.537   3.181 -18.324  1.00  0.00     0.167 HD
ATOM     40  C   UNL     1       0.245   4.861 -18.686  1.00  0.00     0.074 A 
ATOM     41  C   UNL     1      -0.788   5.857 -18.474  1.00  0.00     0.031 C 
ATOM     42  C   UNL     1       0.312   4.059 -19.778  1.00  0.00     0.031 A 
BRANCH  29  43
ATOM     43  C   UNL     1       5.101   0.119 -19.804  1.00  0.00    -0.014 A 
ATOM     44  C   UNL     1       5.168  -1.174 -19.260  1.00  0.00     0.009 A 
ATOM     45  C   UNL     1       5.864   0.419 -20.943  1.00  0.00     0.009 A 
ATOM     46  C   UNL     1       6.020  -2.130 -19.820  1.00  0.00     0.001 A 
ATOM     47  C   UNL     1       6.696  -0.545 -21.513  1.00  0.00     0.001 A 
ATOM     48  C   UNL     1       6.784  -1.814 -20.943  1.00  0.00     0.000 A 
ENDBRANCH  29  43
BRANCH  30  49
ATOM     49  C   UNL     1       0.361   7.385 -14.701  1.00  0.00    -0.014 A 
ATOM     50  C   UNL     1      -0.925   7.133 -14.198  1.00  0.00     0.009 A 
ATOM     51  C   UNL     1       0.922   8.658 -14.496  1.00  0.00     0.009 A 
ATOM     52  C   UNL     1      -1.638   8.137 -13.533  1.00  0.00     0.001 A 
ATOM     53  C   UNL     1       0.221   9.649 -13.807  1.00  0.00     0.001 A 
ATOM     54  C   UNL     1      -1.064   9.392 -13.335  1.00  0.00     0.000 A 
ENDBRANCH  30  49
BRANCH  42  55
ATOM     55  C   UNL     1      -0.777   4.208 -20.799  1.00  0.00    -0.014 A 
ATOM     56  C   UNL     1      -0.824   5.317 -21.657  1.00  0.00     0.009 A 
ATOM     57  C   UNL     1      -1.733   3.190 -20.938  1.00  0.00     0.009 A 
ATOM     58  C   UNL     1      -1.831   5.416 -22.618  1.00  0.00     0.001 A 
ATOM     59  C   UNL     1      -2.719   3.279 -21.919  1.00  0.00     0.001 A 
ATOM     60  C   UNL     1      -2.772   4.396 -22.751  1.00  0.00     0.000 A 
ENDBRANCH  42  55
ENDBRANCH  16  17
ENDBRANCH   9  11
ENDBRANCH   8   9
ENDBRANCH   7   8
ENDBRANCH   6   7
ENDBRANCH   5   6
ENDBRANCH   4   5
ENDBRANCH   3   4
ENDBRANCH   2   3
ENDBRANCH   1   2
BRANCH   1  61
ATOM     61  C   UNL     1       4.334   3.517  -8.060  1.00  0.00     0.188 C 
BRANCH  61  62
ATOM     62  O   UNL     1       4.375   4.805  -8.663  1.00  0.00    -0.376 OA
BRANCH  62  63
ATOM     63  C   UNL     1       4.751   5.921  -7.854  1.00  0.00     0.202 C 
BRANCH  63  64
ATOM     64  C   UNL     1       4.112   5.989  -6.463  1.00  0.00     0.261 C 
BRANCH  64  65
ATOM     65  O   UNL     1       4.751   5.010  -5.618  1.00  0.00    -0.462 OA
BRANCH  65  66
ATOM     66  C   UNL     1       4.098   4.571  -4.533  1.00  0.00     0.328 C 
ATOM     67  O   UNL     1       2.999   4.995  -4.187  1.00  0.00    -0.250 OA
BRANCH  66  68
ATOM     68  C   UNL     1       4.773   3.354  -3.852  1.00  0.00     0.195 C 
ATOM     69  C   UNL     1       3.818   2.175  -4.277  1.00  0.00     0.046 C 
ATOM     70  N   UNL     1       6.106   2.716  -4.024  1.00  0.00    -0.328 N 
ATOM     71  C   UNL     1       4.510   0.862  -3.882  1.00  0.00     0.001 C 
ATOM     72  C   UNL     1       5.978   1.279  -3.763  1.00  0.00     0.128 C 
ATOM     73  C   UNL     1       4.414  -0.284  -4.928  1.00  0.00     0.071 C 
ATOM     74  C   UNL     1       3.940   0.355  -2.541  1.00  0.00     0.071 C 
ATOM     75  C   UNL     1       3.048  -0.960  -5.013  1.00  0.00     0.271 C 
ATOM     76  C   UNL     1       2.544  -0.252  -2.707  1.00  0.00     0.271 C 
ATOM     77  N   UNL     1       2.563  -1.333  -3.687  1.00  0.00    -0.267 N 
ATOM     78  H   UNL     1       3.216  -1.662  -3.029  1.00  0.00     0.357 HD
BRANCH  70  79
ATOM     79  C   UNL     1       7.442   3.138  -3.908  1.00  0.00     0.226 C 
ATOM     80  O   UNL     1       8.285   2.293  -3.580  1.00  0.00    -0.275 OA
BRANCH  79  81
ATOM     81  C   UNL     1       8.056   4.462  -4.177  1.00  0.00     0.079 C 
ATOM     82  C   UNL     1       7.655   5.646  -4.984  1.00  0.00     0.014 C 
ATOM     83  C   UNL     1       7.641   5.726  -3.485  1.00  0.00     0.014 C 
ENDBRANCH  79  81
ENDBRANCH  70  79
BRANCH  77  84
ATOM     84  C   UNL     1       1.916  -2.523  -3.355  1.00  0.00     0.344 C 
ATOM     85  O   UNL     1       1.272  -2.667  -2.317  1.00  0.00    -0.226 OA
BRANCH  84  86
ATOM     86  C   UNL     1       2.001  -3.701  -4.246  1.00  0.00     0.083 A 
ATOM     87  C   UNL     1       3.238  -4.265  -4.579  1.00  0.00     0.018 A 
ATOM     88  C   UNL     1       0.814  -4.344  -4.613  1.00  0.00     0.064 A 
ATOM     89  C   UNL     1       3.283  -5.457  -5.309  1.00  0.00     0.005 A 
ATOM     90  C   UNL     1       0.873  -5.531  -5.334  1.00  0.00     0.116 A 
ATOM     91  C   UNL     1       2.097  -6.092  -5.689  1.00  0.00     0.046 A 
BRANCH  90  92
ATOM     92  O   UNL     1      -0.305  -6.133  -5.662  1.00  0.00    -0.508 OA
ATOM     93  H   UNL     1      -0.303  -6.935  -6.147  1.00  0.00     0.293 HD
ENDBRANCH  90  92
ENDBRANCH  84  86
ENDBRANCH  77  84
ENDBRANCH  66  68
ENDBRANCH  65  66
ENDBRANCH  64  65
ENDBRANCH  63  64
ENDBRANCH  62  63
ENDBRANCH  61  62
ENDBRANCH   1  61
TORSDOF 25
