REMARK SMILES O=C(CC1CCN(C(=O)c2ccc3[nH]ccc3c2)CC1)OCCOCCOCCOCCOC(=O)c1ccc(-c2c3nc(c(-c4ccccc4)c4ccc([nH]4)c(-c4ccccc4)c4nc(c(-c5ccccc5)c5ccc2[nH]5)C=C4)C=C3)cc1
REMARK SMILES IDX 27 1 26 2 25 3 24 4 23 5 22 6 21 7 2 8 1 9 3 10 4 11 5 12
REMARK SMILES IDX 20 13 6 14 19 15 7 16 8 17 9 18 10 19 11 20 18 21 12 22
REMARK SMILES IDX 17 23 13 24 16 25 14 26 15 27 28 29 29 30 30 31 31 32 32 33
REMARK SMILES IDX 33 34 34 35 35 36 36 37 37 38 83 39 38 40 82 41 39 42 40 43
REMARK SMILES IDX 41 44 76 45 42 46 81 47 75 48 77 49 43 50 80 51 74 52 73 53
REMARK SMILES IDX 44 55 66 56 51 57 65 58 52 59 55 60 64 61 78 62 53 63 54 64
REMARK SMILES IDX 63 66 79 67 56 68 45 69 46 70 50 71 47 72 49 73 48 74 67 75
REMARK SMILES IDX 68 76 72 77 69 78 71 79 70 80 57 81 58 82 62 83 59 84 61 85
REMARK SMILES IDX 60 86
REMARK H PARENT 14 28 77 54 55 65
REMARK Flexibility Score: inf
ROOT
ATOM      1  O   UNL     1       2.832   3.441   1.587  1.00  0.00    -0.377 OA
ENDROOT
BRANCH   1   2
ATOM      2  C   UNL     1       2.105   2.306   1.144  1.00  0.00     0.188 C 
BRANCH   2   3
ATOM      3  C   UNL     1       2.693   0.941   1.510  1.00  0.00     0.188 C 
BRANCH   3   4
ATOM      4  O   UNL     1       4.093   0.790   1.351  1.00  0.00    -0.376 OA
BRANCH   4   5
ATOM      5  C   UNL     1       4.787   0.332   0.209  1.00  0.00     0.202 C 
BRANCH   5   6
ATOM      6  C   UNL     1       4.232   0.503  -1.200  1.00  0.00     0.261 C 
BRANCH   6   7
ATOM      7  O   UNL     1       2.837   0.249  -1.407  1.00  0.00    -0.463 OA
BRANCH   7   8
ATOM      8  C   UNL     1       2.192  -0.904  -1.158  1.00  0.00     0.306 C 
ATOM      9  O   UNL     1       1.080  -1.102  -1.641  1.00  0.00    -0.252 OA
BRANCH   8  10
ATOM     10  C   UNL     1       2.780  -1.881  -0.176  1.00  0.00     0.126 C 
BRANCH  10  11
ATOM     11  C   UNL     1       3.880  -2.790  -0.708  1.00  0.00     0.003 C 
ATOM     12  C   UNL     1       3.349  -3.695  -1.819  1.00  0.00     0.026 C 
ATOM     13  C   UNL     1       4.428  -3.627   0.465  1.00  0.00     0.026 C 
ATOM     14  C   UNL     1       2.290  -4.649  -1.272  1.00  0.00     0.120 C 
ATOM     15  C   UNL     1       3.374  -4.610   0.969  1.00  0.00     0.120 C 
ATOM     16  N   UNL     1       2.857  -5.400  -0.156  1.00  0.00    -0.339 N 
ATOM     17  C   UNL     1       3.117  -6.748  -0.362  1.00  0.00     0.253 C 
ATOM     18  O   UNL     1       2.865  -7.348  -1.403  1.00  0.00    -0.269 OA
BRANCH  17  19
ATOM     19  C   UNL     1       3.800  -7.485   0.708  1.00  0.00     0.040 A 
ATOM     20  C   UNL     1       3.195  -7.648   1.956  1.00  0.00     0.016 A 
ATOM     21  C   UNL     1       5.082  -7.970   0.429  1.00  0.00     0.024 A 
ATOM     22  C   UNL     1       3.886  -8.279   2.991  1.00  0.00     0.027 A 
ATOM     23  C   UNL     1       5.777  -8.625   1.456  1.00  0.00     0.000 A 
ATOM     24  C   UNL     1       5.171  -8.759   2.706  1.00  0.00     0.045 A 
ATOM     25  C   UNL     1       7.056  -9.237   1.535  1.00  0.00     0.028 A 
ATOM     26  N   UNL     1       6.065  -9.428   3.512  1.00  0.00    -0.361 N 
ATOM     27  C   UNL     1       7.202  -9.730   2.809  1.00  0.00     0.083 A 
ATOM     28  H   UNL     1       5.910  -9.655   4.457  1.00  0.00     0.166 HD
ENDBRANCH  17  19
ENDBRANCH  10  11
ENDBRANCH   8  10
ENDBRANCH   7   8
ENDBRANCH   6   7
ENDBRANCH   5   6
ENDBRANCH   4   5
ENDBRANCH   3   4
ENDBRANCH   2   3
ENDBRANCH   1   2
BRANCH   1  29
ATOM     29  C   UNL     1       4.191   3.458   1.192  1.00  0.00     0.188 C 
BRANCH  29  30
ATOM     30  C   UNL     1       5.200   3.129   2.320  1.00  0.00     0.188 C 
BRANCH  30  31
ATOM     31  O   UNL     1       4.805   2.520   3.540  1.00  0.00    -0.376 OA
BRANCH  31  32
ATOM     32  C   UNL     1       3.637   2.930   4.230  1.00  0.00     0.202 C 
BRANCH  32  33
ATOM     33  C   UNL     1       3.288   4.407   4.484  1.00  0.00     0.261 C 
BRANCH  33  34
ATOM     34  O   UNL     1       3.552   5.322   3.420  1.00  0.00    -0.460 OA
BRANCH  34  35
ATOM     35  C   UNL     1       4.719   6.000   3.490  1.00  0.00     0.338 C 
ATOM     36  O   UNL     1       5.551   5.962   4.381  1.00  0.00    -0.246 OA
BRANCH  35  37
ATOM     37  C   UNL     1       4.944   6.640   2.177  1.00  0.00     0.060 A 
ATOM     38  C   UNL     1       6.140   6.370   1.489  1.00  0.00     0.016 A 
ATOM     39  C   UNL     1       3.957   7.439   1.598  1.00  0.00     0.016 A 
ATOM     40  C   UNL     1       6.354   6.899   0.219  1.00  0.00     0.010 A 
ATOM     41  C   UNL     1       4.196   8.017   0.354  1.00  0.00     0.010 A 
ATOM     42  C   UNL     1       5.407   7.772  -0.321  1.00  0.00    -0.014 A 
BRANCH  42  43
ATOM     43  C   UNL     1       5.790   8.675  -1.425  1.00  0.00     0.031 A 
ATOM     44  C   UNL     1       6.343  10.016  -1.042  1.00  0.00     0.074 A 
ATOM     45  C   UNL     1       5.600   8.349  -2.712  1.00  0.00     0.049 A 
ATOM     46  N   UNL     1       6.586  11.061  -1.787  1.00  0.00    -0.248 NA
ATOM     47  C   UNL     1       6.643  10.207   0.388  1.00  0.00     0.031 C 
ATOM     48  C   UNL     1       5.122   7.059  -3.202  1.00  0.00     0.029 A 
ATOM     49  N   UNL     1       5.759   9.109  -3.842  1.00  0.00    -0.354 N 
ATOM     50  C   UNL     1       7.034  12.041  -0.912  1.00  0.00     0.074 A 
ATOM     51  C   UNL     1       7.016  11.474   0.417  1.00  0.00     0.031 C 
ATOM     52  C   UNL     1       4.989   7.129  -4.538  1.00  0.00     0.029 A 
ATOM     53  C   UNL     1       5.325   8.482  -4.983  1.00  0.00     0.049 A 
ATOM     54  H   UNL     1       6.146  10.014  -3.836  1.00  0.00     0.167 HD
ATOM     55  C   UNL     1       7.412  13.309  -1.190  1.00  0.00     0.031 A 
ATOM     56  C   UNL     1       5.172   8.965  -6.231  1.00  0.00     0.031 A 
ATOM     57  C   UNL     1       7.389  13.874  -2.509  1.00  0.00     0.049 A 
ATOM     58  C   UNL     1       5.525  10.402  -6.514  1.00  0.00     0.074 A 
ATOM     59  C   UNL     1       7.767  15.141  -2.912  1.00  0.00     0.029 A 
ATOM     60  N   UNL     1       6.942  13.206  -3.640  1.00  0.00    -0.354 N 
ATOM     61  N   UNL     1       5.971  11.322  -5.690  1.00  0.00    -0.248 NA
ATOM     62  C   UNL     1       5.356  10.868  -7.898  1.00  0.00     0.031 C 
ATOM     63  C   UNL     1       7.482  15.263  -4.275  1.00  0.00     0.029 A 
ATOM     64  C   UNL     1       7.003  14.046  -4.737  1.00  0.00     0.049 A 
ATOM     65  H   UNL     1       6.628  12.273  -3.659  1.00  0.00     0.167 HD
ATOM     66  C   UNL     1       6.168  12.463  -6.460  1.00  0.00     0.074 A 
ATOM     67  C   UNL     1       5.794  12.118  -7.817  1.00  0.00     0.031 C 
ATOM     68  C   UNL     1       6.627  13.681  -6.081  1.00  0.00     0.031 A 
BRANCH  55  69
ATOM     69  C   UNL     1       7.803  14.174  -0.024  1.00  0.00    -0.014 A 
ATOM     70  C   UNL     1       8.960  13.919   0.731  1.00  0.00     0.009 A 
ATOM     71  C   UNL     1       6.976  15.246   0.345  1.00  0.00     0.009 A 
ATOM     72  C   UNL     1       9.249  14.685   1.862  1.00  0.00     0.001 A 
ATOM     73  C   UNL     1       7.287  16.034   1.454  1.00  0.00     0.001 A 
ATOM     74  C   UNL     1       8.414  15.743   2.221  1.00  0.00     0.000 A 
ENDBRANCH  55  69
BRANCH  56  75
ATOM     75  C   UNL     1       4.623   8.084  -7.294  1.00  0.00    -0.014 A 
ATOM     76  C   UNL     1       5.444   7.615  -8.331  1.00  0.00     0.009 A 
ATOM     77  C   UNL     1       3.278   7.681  -7.259  1.00  0.00     0.009 A 
ATOM     78  C   UNL     1       4.926   6.768  -9.315  1.00  0.00     0.001 A 
ATOM     79  C   UNL     1       2.771   6.812  -8.228  1.00  0.00     0.001 A 
ATOM     80  C   UNL     1       3.594   6.360  -9.257  1.00  0.00     0.000 A 
ENDBRANCH  56  75
BRANCH  68  81
ATOM     81  C   UNL     1       6.806  14.725  -7.149  1.00  0.00    -0.014 A 
ATOM     82  C   UNL     1       5.711  15.368  -7.744  1.00  0.00     0.009 A 
ATOM     83  C   UNL     1       8.105  15.129  -7.501  1.00  0.00     0.009 A 
ATOM     84  C   UNL     1       5.914  16.380  -8.686  1.00  0.00     0.001 A 
ATOM     85  C   UNL     1       8.305  16.161  -8.418  1.00  0.00     0.001 A 
ATOM     86  C   UNL     1       7.209  16.780  -9.015  1.00  0.00     0.000 A 
ENDBRANCH  68  81
ENDBRANCH  42  43
ENDBRANCH  35  37
ENDBRANCH  34  35
ENDBRANCH  33  34
ENDBRANCH  32  33
ENDBRANCH  31  32
ENDBRANCH  30  31
ENDBRANCH  29  30
ENDBRANCH   1  29
TORSDOF 22
