REMARK SMILES CCCC[C@H](NS(=O)(=O)c1cccc(Br)c1)C(=O)OCCOCCOCCOCCOC(=O)c1ccc(-c2c3nc(c(-c4ccccc4)c4ccc([nH]4)c(-c4ccccc4)c4nc(c(-c5ccccc5)c5ccc2[nH]5)C=C4)C=C3)cc1
REMARK SMILES IDX 24 1 23 2 22 3 21 4 20 5 19 6 17 7 18 8 5 9 4 10 3 11 2 12
REMARK SMILES IDX 1 13 6 14 7 16 8 17 9 18 10 19 11 20 16 21 12 22 14 23 13 24
REMARK SMILES IDX 15 25 25 26 26 27 27 28 28 29 29 30 30 31 31 32 32 33 33 34
REMARK SMILES IDX 34 35 35 36 81 37 36 38 80 39 37 40 38 41 39 42 74 43 40 44
REMARK SMILES IDX 79 45 73 46 75 47 41 48 78 49 72 50 71 51 42 53 64 54 49 55
REMARK SMILES IDX 63 56 50 57 53 58 62 59 76 60 51 61 52 62 61 64 77 65 54 66
REMARK SMILES IDX 43 67 44 68 48 69 45 70 47 71 46 72 65 73 66 74 70 75 67 76
REMARK SMILES IDX 69 77 68 78 55 79 56 80 60 81 57 82 59 83 58 84
REMARK H PARENT 6 15 75 52 53 63
REMARK Flexibility Score: inf
ROOT
ATOM      1  C   UNL     1      -1.141   3.094   3.480  1.00  0.00     0.188 C 
ENDROOT
BRANCH   1   2
ATOM      2  C   UNL     1      -2.087   1.896   3.633  1.00  0.00     0.188 C 
BRANCH   2   3
ATOM      3  O   UNL     1      -2.444   1.671   5.007  1.00  0.00    -0.376 OA
BRANCH   3   4
ATOM      4  C   UNL     1      -3.606   0.840   5.133  1.00  0.00     0.202 C 
BRANCH   4   5
ATOM      5  C   UNL     1      -3.320  -0.617   5.528  1.00  0.00     0.261 C 
BRANCH   5   6
ATOM      6  O   UNL     1      -2.247  -1.267   4.826  1.00  0.00    -0.462 OA
BRANCH   6   7
ATOM      7  C   UNL     1      -2.433  -1.569   3.520  1.00  0.00     0.324 C 
ATOM      8  O   UNL     1      -3.430  -1.234   2.890  1.00  0.00    -0.250 OA
BRANCH   7   9
ATOM      9  C   UNL     1      -1.281  -2.399   2.934  1.00  0.00     0.179 C 
BRANCH   9  10
ATOM     10  C   UNL     1      -1.842  -3.726   2.374  1.00  0.00     0.032 C 
BRANCH  10  11
ATOM     11  C   UNL     1      -2.630  -3.628   1.062  1.00  0.00     0.002 C 
BRANCH  11  12
ATOM     12  C   UNL     1      -1.869  -3.055  -0.137  1.00  0.00    -0.003 C 
ATOM     13  C   UNL     1      -0.583  -3.800  -0.458  1.00  0.00     0.004 C 
ENDBRANCH  11  12
ENDBRANCH  10  11
ENDBRANCH   9  10
BRANCH   9  14
ATOM     14  N   UNL     1      -0.184  -2.790   3.879  1.00  0.00    -0.197 NA
ATOM     15  H   UNL     1       0.342  -3.543   3.434  1.00  0.00     0.142 HD
BRANCH  14  16
ATOM     16  S   UNL     1       0.930  -1.614   4.347  1.00  0.00     0.241 S 
ATOM     17  O   UNL     1       2.209  -2.285   4.388  1.00  0.00    -0.207 OA
ATOM     18  O   UNL     1       0.712  -0.443   3.529  1.00  0.00    -0.207 OA
BRANCH  16  19
ATOM     19  C   UNL     1       0.474  -1.275   6.021  1.00  0.00     0.083 A 
ATOM     20  C   UNL     1      -0.062  -0.034   6.346  1.00  0.00     0.022 A 
ATOM     21  C   UNL     1       0.606  -2.257   6.996  1.00  0.00     0.037 A 
ATOM     22  C   UNL     1      -0.474   0.253   7.646  1.00  0.00     0.003 A 
ATOM     23  C   UNL     1       0.144  -1.988   8.284  1.00  0.00     0.019 A 
ATOM     24  C   UNL     1      -0.375  -0.734   8.621  1.00  0.00     0.016 A 
ATOM     25  Br  UNL     1       0.129  -3.385   9.553  1.00  0.00    -0.051 Br
ENDBRANCH  16  19
ENDBRANCH  14  16
ENDBRANCH   9  14
ENDBRANCH   7   9
ENDBRANCH   6   7
ENDBRANCH   5   6
ENDBRANCH   4   5
ENDBRANCH   3   4
ENDBRANCH   2   3
ENDBRANCH   1   2
BRANCH   1  26
ATOM     26  O   UNL     1       0.227   2.724   3.623  1.00  0.00    -0.377 OA
BRANCH  26  27
ATOM     27  C   UNL     1       0.792   2.950   4.909  1.00  0.00     0.188 C 
BRANCH  27  28
ATOM     28  C   UNL     1       1.170   4.403   5.194  1.00  0.00     0.188 C 
BRANCH  28  29
ATOM     29  O   UNL     1       1.958   5.095   4.233  1.00  0.00    -0.376 OA
BRANCH  29  30
ATOM     30  C   UNL     1       2.926   4.359   3.495  1.00  0.00     0.202 C 
BRANCH  30  31
ATOM     31  C   UNL     1       4.234   4.040   4.227  1.00  0.00     0.261 C 
BRANCH  31  32
ATOM     32  O   UNL     1       4.097   3.076   5.290  1.00  0.00    -0.460 OA
BRANCH  32  33
ATOM     33  C   UNL     1       4.148   3.597   6.537  1.00  0.00     0.338 C 
ATOM     34  O   UNL     1       4.198   4.780   6.836  1.00  0.00    -0.246 OA
BRANCH  33  35
ATOM     35  C   UNL     1       4.100   2.548   7.577  1.00  0.00     0.060 A 
ATOM     36  C   UNL     1       3.249   2.760   8.668  1.00  0.00     0.016 A 
ATOM     37  C   UNL     1       5.030   1.505   7.604  1.00  0.00     0.016 A 
ATOM     38  C   UNL     1       3.391   1.993   9.827  1.00  0.00     0.010 A 
ATOM     39  C   UNL     1       5.171   0.736   8.770  1.00  0.00     0.010 A 
ATOM     40  C   UNL     1       4.396   1.020   9.910  1.00  0.00    -0.014 A 
BRANCH  40  41
ATOM     41  C   UNL     1       4.765   0.471  11.245  1.00  0.00     0.031 A 
ATOM     42  C   UNL     1       5.939   1.063  11.984  1.00  0.00     0.074 A 
ATOM     43  C   UNL     1       4.034  -0.483  11.848  1.00  0.00     0.049 A 
ATOM     44  N   UNL     1       6.397   0.775  13.178  1.00  0.00    -0.248 NA
ATOM     45  C   UNL     1       6.686   2.124  11.292  1.00  0.00     0.031 C 
ATOM     46  C   UNL     1       2.839  -1.108  11.293  1.00  0.00     0.029 A 
ATOM     47  N   UNL     1       4.192  -1.082  13.076  1.00  0.00    -0.354 N 
ATOM     48  C   UNL     1       7.479   1.621  13.381  1.00  0.00     0.074 A 
ATOM     49  C   UNL     1       7.634   2.405  12.174  1.00  0.00     0.031 C 
ATOM     50  C   UNL     1       2.370  -2.003  12.180  1.00  0.00     0.029 A 
ATOM     51  C   UNL     1       3.246  -2.039  13.347  1.00  0.00     0.049 A 
ATOM     52  H   UNL     1       4.915  -0.848  13.702  1.00  0.00     0.167 HD
ATOM     53  C   UNL     1       8.268   1.752  14.475  1.00  0.00     0.031 A 
ATOM     54  C   UNL     1       3.095  -2.862  14.402  1.00  0.00     0.031 A 
ATOM     55  C   UNL     1       8.144   0.974  15.679  1.00  0.00     0.049 A 
ATOM     56  C   UNL     1       4.042  -2.768  15.566  1.00  0.00     0.074 A 
ATOM     57  C   UNL     1       8.901   1.051  16.836  1.00  0.00     0.029 A 
ATOM     58  N   UNL     1       7.210  -0.029  15.879  1.00  0.00    -0.354 N 
ATOM     59  N   UNL     1       5.041  -1.942  15.753  1.00  0.00    -0.248 NA
ATOM     60  C   UNL     1       3.824  -3.710  16.675  1.00  0.00     0.031 C 
ATOM     61  C   UNL     1       8.457   0.060  17.718  1.00  0.00     0.029 A 
ATOM     62  C   UNL     1       7.389  -0.597  17.131  1.00  0.00     0.049 A 
ATOM     63  H   UNL     1       6.522  -0.298  15.229  1.00  0.00     0.167 HD
ATOM     64  C   UNL     1       5.548  -2.241  17.011  1.00  0.00     0.074 A 
ATOM     65  C   UNL     1       4.739  -3.315  17.548  1.00  0.00     0.031 C 
ATOM     66  C   UNL     1       6.588  -1.667  17.664  1.00  0.00     0.031 A 
BRANCH  53  67
ATOM     67  C   UNL     1       9.369   2.773  14.402  1.00  0.00    -0.014 A 
ATOM     68  C   UNL     1       9.090   4.147  14.459  1.00  0.00     0.009 A 
ATOM     69  C   UNL     1      10.703   2.352  14.293  1.00  0.00     0.009 A 
ATOM     70  C   UNL     1      10.124   5.081  14.374  1.00  0.00     0.001 A 
ATOM     71  C   UNL     1      11.737   3.287  14.235  1.00  0.00     0.001 A 
ATOM     72  C   UNL     1      11.446   4.650  14.265  1.00  0.00     0.000 A 
ENDBRANCH  53  67
BRANCH  54  73
ATOM     73  C   UNL     1       2.000  -3.869  14.414  1.00  0.00    -0.014 A 
ATOM     74  C   UNL     1       0.910  -3.735  15.287  1.00  0.00     0.009 A 
ATOM     75  C   UNL     1       2.062  -4.990  13.571  1.00  0.00     0.009 A 
ATOM     76  C   UNL     1      -0.081  -4.719  15.337  1.00  0.00     0.001 A 
ATOM     77  C   UNL     1       1.056  -5.958  13.604  1.00  0.00     0.001 A 
ATOM     78  C   UNL     1      -0.008  -5.827  14.494  1.00  0.00     0.000 A 
ENDBRANCH  54  73
BRANCH  66  79
ATOM     79  C   UNL     1       6.887  -2.163  19.051  1.00  0.00    -0.014 A 
ATOM     80  C   UNL     1       7.458  -3.426  19.270  1.00  0.00     0.009 A 
ATOM     81  C   UNL     1       6.609  -1.343  20.156  1.00  0.00     0.009 A 
ATOM     82  C   UNL     1       7.708  -3.873  20.570  1.00  0.00     0.001 A 
ATOM     83  C   UNL     1       6.886  -1.781  21.452  1.00  0.00     0.001 A 
ATOM     84  C   UNL     1       7.425  -3.050  21.659  1.00  0.00     0.000 A 
ENDBRANCH  66  79
ENDBRANCH  40  41
ENDBRANCH  33  35
ENDBRANCH  32  33
ENDBRANCH  31  32
ENDBRANCH  30  31
ENDBRANCH  29  30
ENDBRANCH  28  29
ENDBRANCH  27  28
ENDBRANCH  26  27
ENDBRANCH   1  26
TORSDOF 26
