REMARK SMILES C[C@]1(c2ccccc2C(=O)OCCOCCOCCOCCOC(=O)c2ccc(-c3c4nc(c(-c5ccccc5)c5ccc([nH]5)c(-c5ccccc5)c5nc(c(-c6ccccc6)c6ccc3[nH]6)C=C5)C=C4)cc2)NN=C(c2ccccc2)S1
REMARK SMILES IDX 17 1 16 2 15 3 14 4 13 5 12 6 11 7 9 8 10 9 8 10 3 11 4 12
REMARK SMILES IDX 5 13 7 14 6 15 2 16 1 17 74 18 83 19 75 20 76 22 77 23 78 24
REMARK SMILES IDX 82 25 79 26 81 27 80 28 18 29 19 30 20 31 21 32 22 33 23 34
REMARK SMILES IDX 24 35 25 36 26 37 27 38 73 39 28 40 72 41 29 42 30 43 31 44
REMARK SMILES IDX 66 45 32 46 71 47 65 48 67 49 33 50 70 51 64 52 63 53 34 55
REMARK SMILES IDX 56 56 41 57 55 58 42 59 45 60 54 61 68 62 43 63 44 64 53 66
REMARK SMILES IDX 69 67 46 68 35 69 36 70 40 71 37 72 39 73 38 74 57 75 58 76
REMARK SMILES IDX 62 77 59 78 61 79 60 80 47 81 48 82 52 83 49 84 51 85 50 86
REMARK H PARENT 74 21 67 54 45 65
REMARK Flexibility Score: inf
ROOT
ATOM      1  O   UNL     1       1.310  -2.446   2.636  1.00  0.00    -0.377 OA
ENDROOT
BRANCH   1   2
ATOM      2  C   UNL     1       0.792  -2.153   3.929  1.00  0.00     0.188 C 
BRANCH   2   3
ATOM      3  C   UNL     1      -0.738  -2.130   4.097  1.00  0.00     0.188 C 
BRANCH   3   4
ATOM      4  O   UNL     1      -1.321  -3.381   3.766  1.00  0.00    -0.376 OA
BRANCH   4   5
ATOM      5  C   UNL     1      -2.385  -3.432   2.810  1.00  0.00     0.202 C 
BRANCH   5   6
ATOM      6  C   UNL     1      -2.630  -2.266   1.840  1.00  0.00     0.261 C 
BRANCH   6   7
ATOM      7  O   UNL     1      -1.401  -1.744   1.319  1.00  0.00    -0.460 OA
BRANCH   7   8
ATOM      8  C   UNL     1      -1.420  -0.422   1.023  1.00  0.00     0.338 C 
ATOM      9  O   UNL     1      -2.366   0.337   1.121  1.00  0.00    -0.246 OA
BRANCH   8  10
ATOM     10  C   UNL     1      -0.045   0.053   0.780  1.00  0.00     0.066 A 
ATOM     11  C   UNL     1       0.699  -0.159  -0.397  1.00  0.00     0.004 A 
ATOM     12  C   UNL     1       1.950   0.523  -0.460  1.00  0.00     0.008 A 
ATOM     13  C   UNL     1       2.438   1.330   0.574  1.00  0.00     0.000 A 
ATOM     14  C   UNL     1       0.457   0.865   1.827  1.00  0.00     0.016 A 
ATOM     15  C   UNL     1       1.695   1.492   1.729  1.00  0.00     0.001 A 
BRANCH  11  16
ATOM     16  C   UNL     1       0.261  -0.916  -1.668  1.00  0.00     0.129 C 
ATOM     17  C   UNL     1      -0.321   0.098  -2.665  1.00  0.00     0.054 C 
ATOM     18  N   UNL     1       1.416  -1.644  -2.245  1.00  0.00    -0.288 NA
ATOM     19  S   UNL     1      -0.985  -2.230  -1.540  1.00  0.00    -0.070 SA
ATOM     20  N   UNL     1       1.419  -3.009  -2.115  1.00  0.00    -0.171 NA
ATOM     21  H   UNL     1       2.148  -1.169  -2.700  1.00  0.00     0.185 HD
ATOM     22  C   UNL     1       0.267  -3.433  -1.688  1.00  0.00     0.126 C 
BRANCH  22  23
ATOM     23  C   UNL     1      -0.009  -4.807  -1.213  1.00  0.00     0.009 A 
ATOM     24  C   UNL     1       1.040  -5.492  -0.617  1.00  0.00     0.011 A 
ATOM     25  C   UNL     1      -1.296  -5.356  -1.143  1.00  0.00     0.011 A 
ATOM     26  C   UNL     1       0.777  -6.613   0.174  1.00  0.00     0.001 A 
ATOM     27  C   UNL     1      -1.534  -6.526  -0.411  1.00  0.00     0.001 A 
ATOM     28  C   UNL     1      -0.501  -7.133   0.285  1.00  0.00     0.000 A 
ENDBRANCH  22  23
ENDBRANCH  11  16
ENDBRANCH   8  10
ENDBRANCH   7   8
ENDBRANCH   6   7
ENDBRANCH   5   6
ENDBRANCH   4   5
ENDBRANCH   3   4
ENDBRANCH   2   3
ENDBRANCH   1   2
BRANCH   1  29
ATOM     29  C   UNL     1       1.044  -3.740   2.099  1.00  0.00     0.188 C 
BRANCH  29  30
ATOM     30  C   UNL     1       1.500  -4.938   2.949  1.00  0.00     0.188 C 
BRANCH  30  31
ATOM     31  O   UNL     1       2.521  -5.761   2.365  1.00  0.00    -0.376 OA
BRANCH  31  32
ATOM     32  C   UNL     1       3.713  -5.101   1.942  1.00  0.00     0.202 C 
BRANCH  32  33
ATOM     33  C   UNL     1       4.616  -6.112   1.205  1.00  0.00     0.261 C 
BRANCH  33  34
ATOM     34  O   UNL     1       4.073  -6.449  -0.106  1.00  0.00    -0.460 OA
BRANCH  34  35
ATOM     35  C   UNL     1       3.949  -7.770  -0.411  1.00  0.00     0.338 C 
ATOM     36  O   UNL     1       4.346  -8.708   0.261  1.00  0.00    -0.246 OA
BRANCH  35  37
ATOM     37  C   UNL     1       3.065  -7.963  -1.601  1.00  0.00     0.060 A 
ATOM     38  C   UNL     1       1.980  -8.842  -1.461  1.00  0.00     0.016 A 
ATOM     39  C   UNL     1       3.223  -7.268  -2.805  1.00  0.00     0.016 A 
ATOM     40  C   UNL     1       1.020  -8.968  -2.473  1.00  0.00     0.010 A 
ATOM     41  C   UNL     1       2.299  -7.459  -3.856  1.00  0.00     0.010 A 
ATOM     42  C   UNL     1       1.188  -8.309  -3.698  1.00  0.00    -0.014 A 
BRANCH  42  43
ATOM     43  C   UNL     1       0.363  -8.759  -4.860  1.00  0.00     0.031 A 
ATOM     44  C   UNL     1       0.766 -10.053  -5.523  1.00  0.00     0.074 A 
ATOM     45  C   UNL     1      -0.742  -8.123  -5.296  1.00  0.00     0.049 A 
ATOM     46  N   UNL     1       0.203 -10.702  -6.511  1.00  0.00    -0.248 NA
ATOM     47  C   UNL     1       1.966 -10.707  -4.977  1.00  0.00     0.031 C 
ATOM     48  C   UNL     1      -1.312  -6.910  -4.718  1.00  0.00     0.029 A 
ATOM     49  N   UNL     1      -1.594  -8.426  -6.338  1.00  0.00    -0.354 N 
ATOM     50  C   UNL     1       0.975 -11.843  -6.694  1.00  0.00     0.074 A 
ATOM     51  C   UNL     1       2.046 -11.793  -5.725  1.00  0.00     0.031 C 
ATOM     52  C   UNL     1      -2.412  -6.566  -5.416  1.00  0.00     0.029 A 
ATOM     53  C   UNL     1      -2.608  -7.513  -6.516  1.00  0.00     0.049 A 
ATOM     54  H   UNL     1      -1.486  -9.225  -6.904  1.00  0.00     0.167 HD
ATOM     55  C   UNL     1       0.829 -12.841  -7.598  1.00  0.00     0.031 A 
ATOM     56  C   UNL     1      -3.564  -7.434  -7.467  1.00  0.00     0.031 A 
ATOM     57  C   UNL     1      -0.179 -12.868  -8.621  1.00  0.00     0.049 A 
ATOM     58  C   UNL     1      -3.639  -8.493  -8.544  1.00  0.00     0.074 A 
ATOM     59  C   UNL     1      -0.383 -13.819  -9.604  1.00  0.00     0.029 A 
ATOM     60  N   UNL     1      -1.132 -11.880  -8.814  1.00  0.00    -0.354 N 
ATOM     61  N   UNL     1      -2.914  -9.575  -8.695  1.00  0.00    -0.248 NA
ATOM     62  C   UNL     1      -4.668  -8.317  -9.582  1.00  0.00     0.031 C 
ATOM     63  C   UNL     1      -1.410 -13.367 -10.440  1.00  0.00     0.029 A 
ATOM     64  C   UNL     1      -1.899 -12.176  -9.928  1.00  0.00     0.049 A 
ATOM     65  H   UNL     1      -1.246 -11.085  -8.243  1.00  0.00     0.167 HD
ATOM     66  C   UNL     1      -3.407 -10.214  -9.829  1.00  0.00     0.074 A 
ATOM     67  C   UNL     1      -4.511  -9.412 -10.313  1.00  0.00     0.031 C 
ATOM     68  C   UNL     1      -2.983 -11.361 -10.417  1.00  0.00     0.031 A 
BRANCH  55  69
ATOM     69  C   UNL     1       1.865 -13.929  -7.567  1.00  0.00    -0.014 A 
ATOM     70  C   UNL     1       1.936 -14.852  -6.510  1.00  0.00     0.009 A 
ATOM     71  C   UNL     1       2.819 -13.998  -8.594  1.00  0.00     0.009 A 
ATOM     72  C   UNL     1       2.973 -15.786  -6.458  1.00  0.00     0.001 A 
ATOM     73  C   UNL     1       3.834 -14.953  -8.556  1.00  0.00     0.001 A 
ATOM     74  C   UNL     1       3.920 -15.836  -7.481  1.00  0.00     0.000 A 
ENDBRANCH  55  69
BRANCH  56  75
ATOM     75  C   UNL     1      -4.506  -6.275  -7.496  1.00  0.00    -0.014 A 
ATOM     76  C   UNL     1      -5.884  -6.443  -7.283  1.00  0.00     0.009 A 
ATOM     77  C   UNL     1      -4.026  -4.988  -7.789  1.00  0.00     0.009 A 
ATOM     78  C   UNL     1      -6.757  -5.354  -7.378  1.00  0.00     0.001 A 
ATOM     79  C   UNL     1      -4.896  -3.896  -7.851  1.00  0.00     0.001 A 
ATOM     80  C   UNL     1      -6.262  -4.080  -7.654  1.00  0.00     0.000 A 
ENDBRANCH  56  75
BRANCH  68  81
ATOM     81  C   UNL     1      -3.725 -11.834 -11.640  1.00  0.00    -0.014 A 
ATOM     82  C   UNL     1      -3.642 -11.148 -12.862  1.00  0.00     0.009 A 
ATOM     83  C   UNL     1      -4.487 -13.013 -11.579  1.00  0.00     0.009 A 
ATOM     84  C   UNL     1      -4.340 -11.607 -13.982  1.00  0.00     0.001 A 
ATOM     85  C   UNL     1      -5.155 -13.489 -12.709  1.00  0.00     0.001 A 
ATOM     86  C   UNL     1      -5.091 -12.780 -13.906  1.00  0.00     0.000 A 
ENDBRANCH  68  81
ENDBRANCH  42  43
ENDBRANCH  35  37
ENDBRANCH  34  35
ENDBRANCH  33  34
ENDBRANCH  32  33
ENDBRANCH  31  32
ENDBRANCH  30  31
ENDBRANCH  29  30
ENDBRANCH   1  29
TORSDOF 22
