REMARK SMILES CCCC[C@@H](C(=O)OCCOCCOCCOCCOC(=O)c1ccc(-c2c3nc(c(-c4ccccc4)c4ccc([nH]4)c(-c4ccccc4)c4nc(c(-c5ccccc5)c5ccc2[nH]5)C=C4)C=C3)cc1)[C@@H](O)c1cccc(C(F)(F)F)c1
REMARK SMILES IDX 13 1 12 2 11 3 10 4 9 5 8 6 6 7 7 8 5 9 4 10 3 11 2 12 1 13
REMARK SMILES IDX 71 14 72 15 73 17 74 18 82 19 75 20 77 21 76 22 78 23 79 24
REMARK SMILES IDX 80 25 81 26 14 27 15 28 16 29 17 30 18 31 19 32 20 33 21 34
REMARK SMILES IDX 22 35 23 36 24 37 70 38 25 39 69 40 26 41 27 42 28 43 63 44
REMARK SMILES IDX 29 45 68 46 62 47 64 48 30 49 67 50 61 51 60 52 31 54 53 55
REMARK SMILES IDX 38 56 52 57 39 58 42 59 51 60 65 61 40 62 41 63 50 65 66 66
REMARK SMILES IDX 43 67 32 68 33 69 37 70 34 71 36 72 35 73 54 74 55 75 59 76
REMARK SMILES IDX 56 77 58 78 57 79 44 80 45 81 49 82 46 83 48 84 47 85
REMARK H PARENT 72 16 64 53 42 64
REMARK Flexibility Score: inf
ROOT
ATOM      1  C   UNL     1      -0.137  -5.067   2.618  1.00  0.00     0.188 C 
ENDROOT
BRANCH   1   2
ATOM      2  C   UNL     1      -1.590  -5.561   2.590  1.00  0.00     0.188 C 
BRANCH   2   3
ATOM      3  O   UNL     1      -1.907  -6.398   1.489  1.00  0.00    -0.376 OA
BRANCH   3   4
ATOM      4  C   UNL     1      -2.783  -5.832   0.521  1.00  0.00     0.202 C 
BRANCH   4   5
ATOM      5  C   UNL     1      -2.268  -4.593  -0.229  1.00  0.00     0.261 C 
BRANCH   5   6
ATOM      6  O   UNL     1      -1.654  -3.613   0.635  1.00  0.00    -0.463 OA
BRANCH   6   7
ATOM      7  C   UNL     1      -2.238  -2.403   0.773  1.00  0.00     0.312 C 
ATOM      8  O   UNL     1      -3.311  -2.104   0.264  1.00  0.00    -0.252 OA
BRANCH   7   9
ATOM      9  C   UNL     1      -1.440  -1.453   1.669  1.00  0.00     0.132 C 
BRANCH   9  10
ATOM     10  C   UNL     1       0.110  -1.487   1.547  1.00  0.00     0.018 C 
BRANCH  10  11
ATOM     11  C   UNL     1       0.752  -1.789   0.191  1.00  0.00     0.001 C 
BRANCH  11  12
ATOM     12  C   UNL     1       0.441  -0.792  -0.918  1.00  0.00    -0.003 C 
ATOM     13  C   UNL     1       0.947   0.608  -0.611  1.00  0.00     0.004 C 
ENDBRANCH  11  12
ENDBRANCH  10  11
ENDBRANCH   9  10
BRANCH   9  14
ATOM     14  C   UNL     1      -1.851  -1.608   3.162  1.00  0.00     0.158 C 
BRANCH  14  15
ATOM     15  O   UNL     1      -1.295  -0.535   3.934  1.00  0.00    -0.388 OA
ATOM     16  H   UNL     1      -1.675   0.307   3.637  1.00  0.00     0.211 HD
ENDBRANCH  14  15
BRANCH  14  17
ATOM     17  C   UNL     1      -3.343  -1.631   3.425  1.00  0.00    -0.018 A 
ATOM     18  C   UNL     1      -4.118  -0.473   3.323  1.00  0.00     0.006 A 
ATOM     19  C   UNL     1      -3.992  -2.842   3.717  1.00  0.00     0.019 A 
ATOM     20  C   UNL     1      -5.506  -0.536   3.457  1.00  0.00     0.001 A 
ATOM     21  C   UNL     1      -5.390  -2.936   3.773  1.00  0.00     0.056 A 
ATOM     22  C   UNL     1      -6.141  -1.763   3.656  1.00  0.00     0.013 A 
BRANCH  21  23
ATOM     23  C   UNL     1      -6.066  -4.278   3.912  1.00  0.00     0.416 C 
ATOM     24  F   UNL     1      -6.735  -4.417   5.088  1.00  0.00    -0.166 F 
ATOM     25  F   UNL     1      -6.982  -4.505   2.928  1.00  0.00    -0.166 F 
ATOM     26  F   UNL     1      -5.197  -5.329   3.849  1.00  0.00    -0.166 F 
ENDBRANCH  21  23
ENDBRANCH  14  17
ENDBRANCH   9  14
ENDBRANCH   7   9
ENDBRANCH   6   7
ENDBRANCH   5   6
ENDBRANCH   4   5
ENDBRANCH   3   4
ENDBRANCH   2   3
ENDBRANCH   1   2
BRANCH   1  27
ATOM     27  O   UNL     1       0.675  -5.267   1.474  1.00  0.00    -0.377 OA
BRANCH  27  28
ATOM     28  C   UNL     1       0.739  -6.576   0.917  1.00  0.00     0.188 C 
BRANCH  28  29
ATOM     29  C   UNL     1       0.563  -7.813   1.830  1.00  0.00     0.188 C 
BRANCH  29  30
ATOM     30  O   UNL     1       0.619  -7.554   3.225  1.00  0.00    -0.376 OA
BRANCH  30  31
ATOM     31  C   UNL     1       1.856  -7.797   3.881  1.00  0.00     0.202 C 
BRANCH  31  32
ATOM     32  C   UNL     1       3.038  -6.913   3.457  1.00  0.00     0.261 C 
BRANCH  32  33
ATOM     33  O   UNL     1       3.456  -7.042   2.088  1.00  0.00    -0.460 OA
BRANCH  33  34
ATOM     34  C   UNL     1       3.814  -8.270   1.653  1.00  0.00     0.338 C 
ATOM     35  O   UNL     1       3.883  -9.297   2.296  1.00  0.00    -0.246 OA
BRANCH  34  36
ATOM     36  C   UNL     1       3.935  -8.194   0.184  1.00  0.00     0.060 A 
ATOM     37  C   UNL     1       3.080  -8.968  -0.612  1.00  0.00     0.016 A 
ATOM     38  C   UNL     1       4.880  -7.348  -0.398  1.00  0.00     0.016 A 
ATOM     39  C   UNL     1       3.188  -8.917  -2.000  1.00  0.00     0.010 A 
ATOM     40  C   UNL     1       5.007  -7.320  -1.786  1.00  0.00     0.010 A 
ATOM     41  C   UNL     1       4.183  -8.128  -2.590  1.00  0.00    -0.014 A 
BRANCH  41  42
ATOM     42  C   UNL     1       4.514  -8.312  -4.021  1.00  0.00     0.031 A 
ATOM     43  C   UNL     1       5.630  -9.256  -4.370  1.00  0.00     0.074 A 
ATOM     44  C   UNL     1       3.840  -7.669  -4.989  1.00  0.00     0.049 A 
ATOM     45  N   UNL     1       6.142  -9.542  -5.539  1.00  0.00    -0.248 NA
ATOM     46  C   UNL     1       6.252  -9.975  -3.245  1.00  0.00     0.031 C 
ATOM     47  C   UNL     1       2.703  -6.774  -4.785  1.00  0.00     0.029 A 
ATOM     48  N   UNL     1       4.029  -7.673  -6.349  1.00  0.00    -0.354 N 
ATOM     49  C   UNL     1       7.148 -10.467  -5.289  1.00  0.00     0.074 A 
ATOM     50  C   UNL     1       7.195 -10.672  -3.858  1.00  0.00     0.031 C 
ATOM     51  C   UNL     1       2.298  -6.308  -5.980  1.00  0.00     0.029 A 
ATOM     52  C   UNL     1       3.170  -6.842  -7.025  1.00  0.00     0.049 A 
ATOM     53  H   UNL     1       4.714  -8.220  -6.796  1.00  0.00     0.167 HD
ATOM     54  C   UNL     1       7.958 -11.096  -6.171  1.00  0.00     0.031 A 
ATOM     55  C   UNL     1       3.114  -6.534  -8.335  1.00  0.00     0.031 A 
ATOM     56  C   UNL     1       7.932 -10.872  -7.591  1.00  0.00     0.049 A 
ATOM     57  C   UNL     1       4.100  -7.163  -9.286  1.00  0.00     0.074 A 
ATOM     58  C   UNL     1       8.714 -11.457  -8.571  1.00  0.00     0.029 A 
ATOM     59  N   UNL     1       7.085  -9.980  -8.230  1.00  0.00    -0.354 N 
ATOM     60  N   UNL     1       5.035  -8.050  -9.044  1.00  0.00    -0.248 NA
ATOM     61  C   UNL     1       4.017  -6.748 -10.695  1.00  0.00     0.031 C 
ATOM     62  C   UNL     1       8.380 -10.874  -9.798  1.00  0.00     0.029 A 
ATOM     63  C   UNL     1       7.345  -9.976  -9.590  1.00  0.00     0.049 A 
ATOM     64  H   UNL     1       6.400  -9.432  -7.784  1.00  0.00     0.167 HD
ATOM     65  C   UNL     1       5.629  -8.323 -10.271  1.00  0.00     0.074 A 
ATOM     66  C   UNL     1       4.940  -7.516 -11.258  1.00  0.00     0.031 C 
ATOM     67  C   UNL     1       6.649  -9.169 -10.558  1.00  0.00     0.031 A 
BRANCH  54  68
ATOM     68  C   UNL     1       8.972 -12.053  -5.610  1.00  0.00    -0.014 A 
ATOM     69  C   UNL     1       8.585 -13.284  -5.056  1.00  0.00     0.009 A 
ATOM     70  C   UNL     1      10.335 -11.722  -5.645  1.00  0.00     0.009 A 
ATOM     71  C   UNL     1       9.541 -14.146  -4.513  1.00  0.00     0.001 A 
ATOM     72  C   UNL     1      11.290 -12.599  -5.130  1.00  0.00     0.001 A 
ATOM     73  C   UNL     1      10.892 -13.805  -4.555  1.00  0.00     0.000 A 
ENDBRANCH  54  68
BRANCH  55  74
ATOM     74  C   UNL     1       2.102  -5.564  -8.834  1.00  0.00    -0.014 A 
ATOM     75  C   UNL     1       1.058  -5.987  -9.670  1.00  0.00     0.009 A 
ATOM     76  C   UNL     1       2.194  -4.204  -8.501  1.00  0.00     0.009 A 
ATOM     77  C   UNL     1       0.142  -5.065 -10.182  1.00  0.00     0.001 A 
ATOM     78  C   UNL     1       1.259  -3.288  -8.990  1.00  0.00     0.001 A 
ATOM     79  C   UNL     1       0.241  -3.717  -9.838  1.00  0.00     0.000 A 
ENDBRANCH  55  74
BRANCH  67  80
ATOM     80  C   UNL     1       7.057  -9.300 -12.000  1.00  0.00    -0.014 A 
ATOM     81  C   UNL     1       7.743  -8.273 -12.665  1.00  0.00     0.009 A 
ATOM     82  C   UNL     1       6.795 -10.497 -12.686  1.00  0.00     0.009 A 
ATOM     83  C   UNL     1       8.129  -8.430 -13.998  1.00  0.00     0.001 A 
ATOM     84  C   UNL     1       7.210 -10.664 -14.008  1.00  0.00     0.001 A 
ATOM     85  C   UNL     1       7.868  -9.626 -14.666  1.00  0.00     0.000 A 
ENDBRANCH  67  80
ENDBRANCH  41  42
ENDBRANCH  34  36
ENDBRANCH  33  34
ENDBRANCH  32  33
ENDBRANCH  31  32
ENDBRANCH  30  31
ENDBRANCH  29  30
ENDBRANCH  28  29
ENDBRANCH  27  28
ENDBRANCH   1  27
TORSDOF 27
