REMARK SMILES Cc1c(C[NH2+]Cc2cccc(F)c2)c(C(=O)OCCOCCOCCOCCOC(=O)c2ccc(-c3c4nc(c(-c5ccccc5)c5ccc([nH]5)c(-c5ccccc5)c5nc(c(-c6ccccc6)c6ccc3[nH]6)C=C5)C=C4)cc2)c(C)n1Cc1c(F)cccc1Cl
REMARK SMILES IDX 22 1 21 2 20 3 19 4 18 5 17 6 15 7 16 8 14 9 1 10 2 11 3 12
REMARK SMILES IDX 82 13 80 14 81 15 4 16 5 17 6 20 7 21 8 22 13 23 9 24 11 25
REMARK SMILES IDX 10 26 12 27 83 28 84 29 85 30 90 31 86 32 87 33 89 34 91 35
REMARK SMILES IDX 88 36 23 37 24 38 25 39 26 40 27 41 28 42 29 43 30 44 31 45
REMARK SMILES IDX 32 46 33 47 79 48 34 49 78 50 35 51 36 52 37 53 72 54 38 55
REMARK SMILES IDX 77 56 71 57 73 58 39 59 76 60 70 61 69 62 40 64 62 65 47 66
REMARK SMILES IDX 61 67 48 68 51 69 60 70 74 71 49 72 50 73 59 75 75 76 52 77
REMARK SMILES IDX 41 78 42 79 46 80 43 81 45 82 44 83 63 84 64 85 68 86 65 87
REMARK SMILES IDX 67 88 66 89 53 90 54 91 58 92 55 93 57 94 56 95
REMARK H PARENT 5 18 5 19 73 63 51 74
REMARK Flexibility Score: inf
ROOT
ATOM      1  C   UNL     1      -2.021  -4.552   2.974  1.00  0.00     0.188 C 
ENDROOT
BRANCH   1   2
ATOM      2  C   UNL     1      -1.257  -5.875   2.736  1.00  0.00     0.188 C 
BRANCH   2   3
ATOM      3  O   UNL     1      -1.250  -6.738   3.870  1.00  0.00    -0.376 OA
BRANCH   3   4
ATOM      4  C   UNL     1      -0.036  -6.877   4.598  1.00  0.00     0.202 C 
BRANCH   4   5
ATOM      5  C   UNL     1       0.440  -5.662   5.405  1.00  0.00     0.261 C 
BRANCH   5   6
ATOM      6  O   UNL     1       0.369  -4.418   4.711  1.00  0.00    -0.460 OA
BRANCH   6   7
ATOM      7  C   UNL     1       1.348  -4.082   3.832  1.00  0.00     0.340 C 
ATOM      8  O   UNL     1       2.359  -4.759   3.651  1.00  0.00    -0.246 OA
BRANCH   7   9
ATOM      9  C   UNL     1       0.994  -2.846   3.116  1.00  0.00     0.089 A 
ATOM     10  C   UNL     1       0.765  -0.418   0.300  1.00  0.00     0.065 C 
ATOM     11  C   UNL     1       0.648  -1.235   1.548  1.00  0.00     0.025 A 
ATOM     12  C   UNL     1       1.052  -2.564   1.714  1.00  0.00     0.042 A 
ATOM     13  N   UNL     1       0.111  -0.787   2.753  1.00  0.00    -0.343 N 
ATOM     14  C   UNL     1       0.429  -1.724   3.727  1.00  0.00     0.030 A 
ATOM     15  C   UNL     1       0.159  -1.568   5.187  1.00  0.00     0.065 C 
BRANCH  12  16
ATOM     16  C   UNL     1       1.435  -3.525   0.616  1.00  0.00     0.300 C 
BRANCH  16  17
ATOM     17  N   UNL     1       2.767  -4.041   0.858  1.00  0.00    -0.339 N 
ATOM     18  H   UNL     1       2.746  -4.591   1.717  1.00  0.00     0.346 HD
ATOM     19  H   UNL     1       3.387  -3.233   0.921  1.00  0.00     0.346 HD
BRANCH  17  20
ATOM     20  C   UNL     1       3.286  -4.884  -0.212  1.00  0.00     0.297 C 
BRANCH  20  21
ATOM     21  C   UNL     1       3.659  -4.181  -1.502  1.00  0.00     0.009 A 
ATOM     22  C   UNL     1       3.753  -2.784  -1.624  1.00  0.00     0.010 A 
ATOM     23  C   UNL     1       3.942  -4.963  -2.634  1.00  0.00     0.048 A 
ATOM     24  C   UNL     1       4.041  -2.183  -2.851  1.00  0.00     0.004 A 
ATOM     25  C   UNL     1       4.250  -4.355  -3.848  1.00  0.00     0.123 A 
ATOM     26  C   UNL     1       4.284  -2.972  -3.970  1.00  0.00     0.039 A 
ATOM     27  F   UNL     1       4.510  -5.116  -4.919  1.00  0.00    -0.207 F 
ENDBRANCH  20  21
ENDBRANCH  17  20
ENDBRANCH  16  17
ENDBRANCH  12  16
BRANCH  13  28
ATOM     28  C   UNL     1      -0.501   0.538   3.006  1.00  0.00     0.162 C 
BRANCH  28  29
ATOM     29  C   UNL     1      -2.020   0.599   2.987  1.00  0.00     0.026 A 
ATOM     30  C   UNL     1      -2.765   0.092   4.064  1.00  0.00     0.129 A 
ATOM     31  C   UNL     1      -2.765   1.263   1.997  1.00  0.00     0.048 A 
ATOM     32  F   UNL     1      -2.149  -0.377   5.151  1.00  0.00    -0.207 F 
ATOM     33  C   UNL     1      -4.159   0.145   4.128  1.00  0.00     0.040 A 
ATOM     34  C   UNL     1      -4.170   1.354   2.069  1.00  0.00     0.021 A 
ATOM     35  Cl  UNL     1      -2.025   2.097   0.677  1.00  0.00    -0.084 Cl
ATOM     36  C   UNL     1      -4.871   0.777   3.123  1.00  0.00     0.005 A 
ENDBRANCH  28  29
ENDBRANCH  13  28
ENDBRANCH   7   9
ENDBRANCH   6   7
ENDBRANCH   5   6
ENDBRANCH   4   5
ENDBRANCH   3   4
ENDBRANCH   2   3
ENDBRANCH   1   2
BRANCH   1  37
ATOM     37  O   UNL     1      -3.325  -4.565   3.548  1.00  0.00    -0.377 OA
BRANCH  37  38
ATOM     38  C   UNL     1      -3.569  -5.461   4.615  1.00  0.00     0.188 C 
BRANCH  38  39
ATOM     39  C   UNL     1      -4.322  -6.732   4.190  1.00  0.00     0.188 C 
BRANCH  39  40
ATOM     40  O   UNL     1      -4.537  -6.962   2.807  1.00  0.00    -0.376 OA
BRANCH  40  41
ATOM     41  C   UNL     1      -5.087  -5.919   2.005  1.00  0.00     0.202 C 
BRANCH  41  42
ATOM     42  C   UNL     1      -6.498  -5.317   2.305  1.00  0.00     0.261 C 
BRANCH  42  43
ATOM     43  O   UNL     1      -6.774  -4.251   3.298  1.00  0.00    -0.460 OA
BRANCH  43  44
ATOM     44  C   UNL     1      -7.858  -4.461   4.136  1.00  0.00     0.338 C 
ATOM     45  O   UNL     1      -8.233  -5.590   4.438  1.00  0.00    -0.246 OA
BRANCH  44  46
ATOM     46  C   UNL     1      -8.632  -3.233   4.704  1.00  0.00     0.060 A 
ATOM     47  C   UNL     1      -8.538  -2.910   6.054  1.00  0.00     0.016 A 
ATOM     48  C   UNL     1      -9.729  -2.600   4.066  1.00  0.00     0.016 A 
ATOM     49  C   UNL     1      -9.446  -1.964   6.694  1.00  0.00     0.010 A 
ATOM     50  C   UNL     1     -10.699  -1.680   4.746  1.00  0.00     0.010 A 
ATOM     51  C   UNL     1     -10.606  -1.315   6.105  1.00  0.00    -0.014 A 
BRANCH  51  52
ATOM     52  C   UNL     1     -11.794  -0.727   7.159  1.00  0.00     0.031 A 
ATOM     53  C   UNL     1     -11.771  -1.776   8.212  1.00  0.00     0.074 A 
ATOM     54  C   UNL     1     -12.851   0.194   7.389  1.00  0.00     0.049 A 
ATOM     55  N   UNL     1     -11.977  -3.007   7.846  1.00  0.00    -0.248 NA
ATOM     56  C   UNL     1     -11.177  -1.622   9.538  1.00  0.00     0.031 C 
ATOM     57  C   UNL     1     -13.388   1.233   6.485  1.00  0.00     0.029 A 
ATOM     58  N   UNL     1     -13.742   0.431   8.524  1.00  0.00    -0.354 N 
ATOM     59  C   UNL     1     -11.855  -3.771   8.972  1.00  0.00     0.074 A 
ATOM     60  C   UNL     1     -11.138  -2.910   9.906  1.00  0.00     0.031 C 
ATOM     61  C   UNL     1     -14.319   2.037   7.094  1.00  0.00     0.029 A 
ATOM     62  C   UNL     1     -14.594   1.617   8.471  1.00  0.00     0.049 A 
ATOM     63  H   UNL     1     -13.768  -0.183   9.293  1.00  0.00     0.167 HD
ATOM     64  C   UNL     1     -12.904  -4.613   9.204  1.00  0.00     0.031 A 
ATOM     65  C   UNL     1     -15.508   2.181   9.384  1.00  0.00     0.031 A 
ATOM     66  C   UNL     1     -13.778  -4.104  10.226  1.00  0.00     0.049 A 
ATOM     67  C   UNL     1     -16.030   1.074  10.195  1.00  0.00     0.074 A 
ATOM     68  C   UNL     1     -13.560  -3.464  11.429  1.00  0.00     0.029 A 
ATOM     69  N   UNL     1     -15.067  -3.803   9.842  1.00  0.00    -0.354 N 
ATOM     70  N   UNL     1     -16.954   0.291   9.725  1.00  0.00    -0.248 NA
ATOM     71  C   UNL     1     -15.735   0.908  11.614  1.00  0.00     0.031 C 
ATOM     72  C   UNL     1     -14.504  -2.417  11.452  1.00  0.00     0.029 A 
ATOM     73  C   UNL     1     -15.489  -2.676  10.508  1.00  0.00     0.049 A 
ATOM     74  H   UNL     1     -15.602  -4.315   9.192  1.00  0.00     0.167 HD
ATOM     75  C   UNL     1     -16.909  -0.767  10.576  1.00  0.00     0.074 A 
ATOM     76  C   UNL     1     -16.403  -0.229  11.826  1.00  0.00     0.031 C 
ATOM     77  C   UNL     1     -16.625  -1.956   9.989  1.00  0.00     0.031 A 
BRANCH  64  78
ATOM     78  C   UNL     1     -13.416  -5.336   7.975  1.00  0.00    -0.014 A 
ATOM     79  C   UNL     1     -13.315  -6.726   7.898  1.00  0.00     0.009 A 
ATOM     80  C   UNL     1     -13.919  -4.645   6.848  1.00  0.00     0.009 A 
ATOM     81  C   UNL     1     -13.628  -7.391   6.705  1.00  0.00     0.001 A 
ATOM     82  C   UNL     1     -14.180  -5.298   5.646  1.00  0.00     0.001 A 
ATOM     83  C   UNL     1     -14.027  -6.675   5.573  1.00  0.00     0.000 A 
ENDBRANCH  64  78
BRANCH  65  84
ATOM     84  C   UNL     1     -16.419   3.423   9.763  1.00  0.00    -0.014 A 
ATOM     85  C   UNL     1     -17.753   3.211  10.277  1.00  0.00     0.009 A 
ATOM     86  C   UNL     1     -15.890   4.677  10.107  1.00  0.00     0.009 A 
ATOM     87  C   UNL     1     -18.432   4.096  11.150  1.00  0.00     0.001 A 
ATOM     88  C   UNL     1     -16.593   5.593  10.954  1.00  0.00     0.001 A 
ATOM     89  C   UNL     1     -17.839   5.290  11.506  1.00  0.00     0.000 A 
ENDBRANCH  65  84
BRANCH  77  90
ATOM     90  C   UNL     1     -17.314  -2.270   8.672  1.00  0.00    -0.014 A 
ATOM     91  C   UNL     1     -17.386  -1.406   7.555  1.00  0.00     0.009 A 
ATOM     92  C   UNL     1     -17.960  -3.508   8.561  1.00  0.00     0.009 A 
ATOM     93  C   UNL     1     -18.105  -1.748   6.404  1.00  0.00     0.001 A 
ATOM     94  C   UNL     1     -18.639  -3.872   7.393  1.00  0.00     0.001 A 
ATOM     95  C   UNL     1     -18.724  -2.988   6.320  1.00  0.00     0.000 A 
ENDBRANCH  77  90
ENDBRANCH  51  52
ENDBRANCH  44  46
ENDBRANCH  43  44
ENDBRANCH  42  43
ENDBRANCH  41  42
ENDBRANCH  40  41
ENDBRANCH  39  40
ENDBRANCH  38  39
ENDBRANCH  37  38
ENDBRANCH   1  37
TORSDOF 26
