REMARK SMILES COC(=O)c1ccc(Cl)c(-c2ccc(C(=O)OCCOCCOCCOCCOC(=O)c3ccc(-c4c5nc(c(-c6ccccc6)c6ccc([nH]6)c(-c6ccccc6)c6nc(c(-c7ccccc7)c7ccc4[nH]7)C=C6)C=C5)cc3)c(F)c2)c1
REMARK SMILES IDX 22 1 21 2 20 3 19 4 18 5 17 6 15 7 16 8 14 9 11 10 12 11
REMARK SMILES IDX 82 12 13 13 80 14 81 15 10 16 5 17 6 18 83 19 7 20 8 21 9 22
REMARK SMILES IDX 3 23 4 24 2 25 1 26 23 27 24 28 25 29 26 30 27 31 28 32
REMARK SMILES IDX 29 33 30 34 31 35 32 36 33 37 79 38 34 39 78 40 35 41 36 42
REMARK SMILES IDX 37 43 72 44 38 45 77 46 71 47 73 48 39 49 76 50 70 51 69 52
REMARK SMILES IDX 40 54 62 55 47 56 61 57 48 58 51 59 60 60 74 61 49 62 50 63
REMARK SMILES IDX 59 65 75 66 52 67 41 68 42 69 46 70 43 71 45 72 44 73 63 74
REMARK SMILES IDX 64 75 68 76 65 77 67 78 66 79 53 80 54 81 58 82 55 83 57 84
REMARK SMILES IDX 56 85
REMARK H PARENT 73 53 51 64
REMARK Flexibility Score: inf
ROOT
ATOM      1  C   UNL     1       3.648  -4.294  10.679  1.00  0.00     0.188 C 
ENDROOT
BRANCH   1   2
ATOM      2  C   UNL     1       4.068  -5.782  10.701  1.00  0.00     0.188 C 
BRANCH   2   3
ATOM      3  O   UNL     1       5.309  -6.023  11.340  1.00  0.00    -0.376 OA
BRANCH   3   4
ATOM      4  C   UNL     1       6.425  -6.416  10.564  1.00  0.00     0.202 C 
BRANCH   4   5
ATOM      5  C   UNL     1       6.915  -5.491   9.442  1.00  0.00     0.261 C 
BRANCH   5   6
ATOM      6  O   UNL     1       5.889  -4.858   8.673  1.00  0.00    -0.460 OA
BRANCH   6   7
ATOM      7  C   UNL     1       5.297  -5.600   7.716  1.00  0.00     0.341 C 
ATOM      8  O   UNL     1       5.540  -6.762   7.439  1.00  0.00    -0.246 OA
BRANCH   7   9
ATOM      9  C   UNL     1       4.132  -4.857   7.200  1.00  0.00     0.095 A 
ATOM     10  C   UNL     1       1.891  -3.525   6.149  1.00  0.00    -0.014 A 
ATOM     11  C   UNL     1       1.801  -4.871   6.537  1.00  0.00     0.010 A 
ATOM     12  C   UNL     1       3.097  -2.838   6.379  1.00  0.00     0.049 A 
ATOM     13  C   UNL     1       2.916  -5.537   7.052  1.00  0.00     0.019 A 
ATOM     14  C   UNL     1       4.207  -3.503   6.892  1.00  0.00     0.138 A 
ATOM     15  F   UNL     1       5.353  -2.821   7.025  1.00  0.00    -0.206 F 
BRANCH  10  16
ATOM     16  C   UNL     1       0.840  -2.909   5.324  1.00  0.00     0.001 A 
ATOM     17  C   UNL     1       0.277  -2.031   3.106  1.00  0.00     0.060 A 
ATOM     18  C   UNL     1      -1.032  -1.788   3.520  1.00  0.00     0.017 A 
ATOM     19  C   UNL     1       1.192  -2.595   3.997  1.00  0.00     0.026 A 
ATOM     20  C   UNL     1      -1.409  -2.106   4.830  1.00  0.00     0.022 A 
ATOM     21  C   UNL     1      -0.481  -2.658   5.729  1.00  0.00     0.048 A 
ATOM     22  Cl  UNL     1      -1.025  -2.995   7.335  1.00  0.00    -0.084 Cl
BRANCH  17  23
ATOM     23  C   UNL     1       0.768  -1.729   1.745  1.00  0.00     0.337 C 
ATOM     24  O   UNL     1       1.649  -2.369   1.195  1.00  0.00    -0.246 OA
BRANCH  23  25
ATOM     25  O   UNL     1       0.184  -0.598   1.286  1.00  0.00    -0.465 OA
ATOM     26  C   UNL     1       0.757  -0.127   0.065  1.00  0.00     0.282 C 
ENDBRANCH  23  25
ENDBRANCH  17  23
ENDBRANCH  10  16
ENDBRANCH   7   9
ENDBRANCH   6   7
ENDBRANCH   5   6
ENDBRANCH   4   5
ENDBRANCH   3   4
ENDBRANCH   2   3
ENDBRANCH   1   2
BRANCH   1  27
ATOM     27  O   UNL     1       4.579  -3.291  11.063  1.00  0.00    -0.377 OA
BRANCH  27  28
ATOM     28  C   UNL     1       5.389  -3.476  12.220  1.00  0.00     0.188 C 
BRANCH  28  29
ATOM     29  C   UNL     1       4.891  -4.311  13.424  1.00  0.00     0.188 C 
BRANCH  29  30
ATOM     30  O   UNL     1       3.556  -4.772  13.310  1.00  0.00    -0.376 OA
BRANCH  30  31
ATOM     31  C   UNL     1       2.572  -4.150  14.116  1.00  0.00     0.202 C 
BRANCH  31  32
ATOM     32  C   UNL     1       2.327  -2.650  13.897  1.00  0.00     0.261 C 
BRANCH  32  33
ATOM     33  O   UNL     1       3.484  -1.802  13.946  1.00  0.00    -0.460 OA
BRANCH  33  34
ATOM     34  C   UNL     1       4.115  -1.677  15.131  1.00  0.00     0.338 C 
ATOM     35  O   UNL     1       3.817  -2.206  16.190  1.00  0.00    -0.246 OA
BRANCH  34  36
ATOM     36  C   UNL     1       5.360  -0.921  14.890  1.00  0.00     0.060 A 
ATOM     37  C   UNL     1       6.596  -1.530  15.148  1.00  0.00     0.016 A 
ATOM     38  C   UNL     1       5.302   0.383  14.393  1.00  0.00     0.016 A 
ATOM     39  C   UNL     1       7.780  -0.822  14.938  1.00  0.00     0.010 A 
ATOM     40  C   UNL     1       6.486   1.098  14.204  1.00  0.00     0.010 A 
ATOM     41  C   UNL     1       7.727   0.510  14.508  1.00  0.00    -0.014 A 
BRANCH  41  42
ATOM     42  C   UNL     1       8.943   1.355  14.569  1.00  0.00     0.031 A 
ATOM     43  C   UNL     1       9.126   2.253  15.761  1.00  0.00     0.074 A 
ATOM     44  C   UNL     1       9.871   1.325  13.599  1.00  0.00     0.049 A 
ATOM     45  N   UNL     1      10.078   3.113  16.019  1.00  0.00    -0.248 NA
ATOM     46  C   UNL     1       8.088   2.170  16.802  1.00  0.00     0.031 C 
ATOM     47  C   UNL     1       9.839   0.463  12.420  1.00  0.00     0.029 A 
ATOM     48  N   UNL     1      11.027   2.051  13.457  1.00  0.00    -0.354 N 
ATOM     49  C   UNL     1       9.747   3.680  17.243  1.00  0.00     0.074 A 
ATOM     50  C   UNL     1       8.491   3.095  17.658  1.00  0.00     0.031 C 
ATOM     51  C   UNL     1      10.928   0.712  11.671  1.00  0.00     0.029 A 
ATOM     52  C   UNL     1      11.710   1.776  12.299  1.00  0.00     0.049 A 
ATOM     53  H   UNL     1      11.337   2.707  14.123  1.00  0.00     0.167 HD
ATOM     54  C   UNL     1      10.428   4.604  17.962  1.00  0.00     0.031 A 
ATOM     55  C   UNL     1      12.827   2.335  11.794  1.00  0.00     0.031 A 
ATOM     56  C   UNL     1      11.662   5.208  17.534  1.00  0.00     0.049 A 
ATOM     57  C   UNL     1      13.516   3.434  12.561  1.00  0.00     0.074 A 
ATOM     58  C   UNL     1      12.438   6.146  18.192  1.00  0.00     0.029 A 
ATOM     59  N   UNL     1      12.292   4.942  16.327  1.00  0.00    -0.354 N 
ATOM     60  N   UNL     1      13.212   3.947  13.729  1.00  0.00    -0.248 NA
ATOM     61  C   UNL     1      14.709   4.026  11.938  1.00  0.00     0.031 C 
ATOM     62  C   UNL     1      13.498   6.500  17.352  1.00  0.00     0.029 A 
ATOM     63  C   UNL     1      13.427   5.726  16.205  1.00  0.00     0.049 A 
ATOM     64  H   UNL     1      11.978   4.293  15.657  1.00  0.00     0.167 HD
ATOM     65  C   UNL     1      14.192   4.897  13.996  1.00  0.00     0.074 A 
ATOM     66  C   UNL     1      15.106   4.879  12.873  1.00  0.00     0.031 C 
ATOM     67  C   UNL     1      14.326   5.705  15.077  1.00  0.00     0.031 A 
BRANCH  54  68
ATOM     68  C   UNL     1       9.813   5.052  19.260  1.00  0.00    -0.014 A 
ATOM     69  C   UNL     1       9.704   4.186  20.361  1.00  0.00     0.009 A 
ATOM     70  C   UNL     1       9.325   6.363  19.380  1.00  0.00     0.009 A 
ATOM     71  C   UNL     1       9.075   4.608  21.534  1.00  0.00     0.001 A 
ATOM     72  C   UNL     1       8.730   6.793  20.567  1.00  0.00     0.001 A 
ATOM     73  C   UNL     1       8.592   5.912  21.637  1.00  0.00     0.000 A 
ENDBRANCH  54  68
BRANCH  55  74
ATOM     74  C   UNL     1      13.366   1.870  10.488  1.00  0.00    -0.014 A 
ATOM     75  C   UNL     1      14.579   1.168  10.425  1.00  0.00     0.009 A 
ATOM     76  C   UNL     1      12.671   2.130   9.296  1.00  0.00     0.009 A 
ATOM     77  C   UNL     1      15.093   0.751   9.195  1.00  0.00     0.001 A 
ATOM     78  C   UNL     1      13.172   1.685   8.071  1.00  0.00     0.001 A 
ATOM     79  C   UNL     1      14.386   1.003   8.021  1.00  0.00     0.000 A 
ENDBRANCH  55  74
BRANCH  67  80
ATOM     80  C   UNL     1      15.527   6.612  15.121  1.00  0.00    -0.014 A 
ATOM     81  C   UNL     1      15.646   7.718  14.265  1.00  0.00     0.009 A 
ATOM     82  C   UNL     1      16.536   6.378  16.069  1.00  0.00     0.009 A 
ATOM     83  C   UNL     1      16.767   8.549  14.335  1.00  0.00     0.001 A 
ATOM     84  C   UNL     1      17.639   7.229  16.160  1.00  0.00     0.001 A 
ATOM     85  C   UNL     1      17.759   8.307  15.286  1.00  0.00     0.000 A 
ENDBRANCH  67  80
ENDBRANCH  41  42
ENDBRANCH  34  36
ENDBRANCH  33  34
ENDBRANCH  32  33
ENDBRANCH  31  32
ENDBRANCH  30  31
ENDBRANCH  29  30
ENDBRANCH  28  29
ENDBRANCH  27  28
ENDBRANCH   1  27
TORSDOF 23
