REMARK SMILES CCc1cc(C(=O)c2[nH]c3cc(Cl)ccc3c2CC(=O)OCCOCCOCCOCCOC(=O)c2ccc(-c3c4nc(c(-c5ccccc5)c5ccc([nH]5)c(-c5ccccc5)c5nc(c(-c6ccccc6)c6ccc3[nH]6)C=C5)C=C4)cc2)ncc1Cl
REMARK SMILES IDX 26 1 25 2 24 3 23 4 22 5 21 6 19 7 20 8 18 9 17 10 8 11 9 12
REMARK SMILES IDX 10 13 16 15 11 16 15 17 12 18 14 19 13 20 6 21 7 22 5 23
REMARK SMILES IDX 3 24 4 25 86 26 85 27 87 28 84 29 2 30 1 31 27 32 28 33
REMARK SMILES IDX 29 34 30 35 31 36 32 37 33 38 34 39 35 40 36 41 37 42 83 43
REMARK SMILES IDX 38 44 82 45 39 46 40 47 41 48 76 49 42 50 81 51 75 52 77 53
REMARK SMILES IDX 43 54 80 55 74 56 73 57 44 59 66 60 51 61 65 62 52 63 55 64
REMARK SMILES IDX 64 65 78 66 53 67 54 68 63 70 79 71 56 72 45 73 46 74 50 75
REMARK SMILES IDX 47 76 49 77 48 78 67 79 68 80 72 81 69 82 71 83 70 84 57 85
REMARK SMILES IDX 58 86 62 87 59 88 61 89 60 90
REMARK H PARENT 9 14 77 58 55 69
REMARK Flexibility Score: inf
ROOT
ATOM      1  C   UNL     1       3.176  -3.208  -7.568  1.00  0.00     0.188 C 
ENDROOT
BRANCH   1   2
ATOM      2  C   UNL     1       2.586  -3.978  -8.746  1.00  0.00     0.188 C 
BRANCH   2   3
ATOM      3  O   UNL     1       3.480  -4.462  -9.725  1.00  0.00    -0.376 OA
BRANCH   3   4
ATOM      4  C   UNL     1       4.246  -3.502 -10.448  1.00  0.00     0.202 C 
BRANCH   4   5
ATOM      5  C   UNL     1       3.651  -2.122 -10.806  1.00  0.00     0.261 C 
BRANCH   5   6
ATOM      6  O   UNL     1       3.333  -1.248  -9.686  1.00  0.00    -0.463 OA
BRANCH   6   7
ATOM      7  C   UNL     1       2.126  -0.630  -9.736  1.00  0.00     0.310 C 
ATOM      8  O   UNL     1       1.357  -0.758 -10.691  1.00  0.00    -0.252 OA
BRANCH   7   9
ATOM      9  C   UNL     1       1.711   0.248  -8.565  1.00  0.00     0.161 C 
BRANCH   9  10
ATOM     10  C   UNL     1       2.596   0.508  -7.363  1.00  0.00     0.000 A 
ATOM     11  C   UNL     1       2.532  -0.097  -6.094  1.00  0.00     0.093 A 
ATOM     12  N   UNL     1       3.581   0.424  -5.364  1.00  0.00    -0.351 N 
ATOM     13  C   UNL     1       3.991   1.612  -5.919  1.00  0.00     0.048 A 
ATOM     14  H   UNL     1       3.977   0.006  -4.565  1.00  0.00     0.167 HD
ATOM     15  C   UNL     1       3.409   1.684  -7.183  1.00  0.00     0.004 A 
ATOM     16  C   UNL     1       4.797   2.628  -5.388  1.00  0.00     0.047 A 
ATOM     17  C   UNL     1       3.623   2.850  -7.949  1.00  0.00     0.012 A 
ATOM     18  C   UNL     1       4.950   3.788  -6.152  1.00  0.00     0.043 A 
ATOM     19  C   UNL     1       4.371   3.906  -7.411  1.00  0.00     0.021 A 
ATOM     20  Cl  UNL     1       5.843   5.111  -5.503  1.00  0.00    -0.084 Cl
BRANCH  11  21
ATOM     21  C   UNL     1       1.563  -1.075  -5.604  1.00  0.00     0.227 C 
ATOM     22  O   UNL     1       0.697  -1.571  -6.326  1.00  0.00    -0.285 OA
BRANCH  21  23
ATOM     23  C   UNL     1       1.498  -1.466  -4.166  1.00  0.00     0.113 A 
ATOM     24  C   UNL     1       0.778  -0.912  -1.927  1.00  0.00    -0.026 A 
ATOM     25  C   UNL     1       1.240  -0.503  -3.195  1.00  0.00     0.037 A 
ATOM     26  C   UNL     1       0.608  -2.287  -1.702  1.00  0.00     0.062 A 
ATOM     27  C   UNL     1       0.964  -3.175  -2.711  1.00  0.00     0.132 A 
ATOM     28  Cl  UNL     1      -0.115  -2.928  -0.277  1.00  0.00    -0.082 Cl
ATOM     29  N   UNL     1       1.416  -2.799  -3.929  1.00  0.00    -0.251 NA
BRANCH  24  30
ATOM     30  C   UNL     1       0.363   0.150  -0.934  1.00  0.00     0.034 C 
ATOM     31  C   UNL     1       1.167   0.163   0.359  1.00  0.00     0.009 C 
ENDBRANCH  24  30
ENDBRANCH  21  23
ENDBRANCH  11  21
ENDBRANCH   9  10
ENDBRANCH   7   9
ENDBRANCH   6   7
ENDBRANCH   5   6
ENDBRANCH   4   5
ENDBRANCH   3   4
ENDBRANCH   2   3
ENDBRANCH   1   2
BRANCH   1  32
ATOM     32  O   UNL     1       4.440  -2.585  -7.711  1.00  0.00    -0.377 OA
BRANCH  32  33
ATOM     33  C   UNL     1       5.620  -3.269  -7.323  1.00  0.00     0.188 C 
BRANCH  33  34
ATOM     34  C   UNL     1       5.492  -4.696  -6.795  1.00  0.00     0.188 C 
BRANCH  34  35
ATOM     35  O   UNL     1       4.792  -4.908  -5.569  1.00  0.00    -0.376 OA
BRANCH  35  36
ATOM     36  C   UNL     1       4.658  -3.842  -4.634  1.00  0.00     0.202 C 
BRANCH  36  37
ATOM     37  C   UNL     1       5.794  -3.728  -3.626  1.00  0.00     0.261 C 
BRANCH  37  38
ATOM     38  O   UNL     1       6.961  -3.173  -4.245  1.00  0.00    -0.460 OA
BRANCH  38  39
ATOM     39  C   UNL     1       7.883  -4.081  -4.631  1.00  0.00     0.338 C 
ATOM     40  O   UNL     1       7.885  -5.283  -4.414  1.00  0.00    -0.246 OA
BRANCH  39  41
ATOM     41  C   UNL     1       8.850  -3.425  -5.524  1.00  0.00     0.060 A 
ATOM     42  C   UNL     1       9.224  -4.102  -6.692  1.00  0.00     0.016 A 
ATOM     43  C   UNL     1       9.417  -2.191  -5.196  1.00  0.00     0.016 A 
ATOM     44  C   UNL     1      10.214  -3.575  -7.510  1.00  0.00     0.010 A 
ATOM     45  C   UNL     1      10.420  -1.669  -6.008  1.00  0.00     0.010 A 
ATOM     46  C   UNL     1      10.852  -2.387  -7.136  1.00  0.00    -0.014 A 
BRANCH  46  47
ATOM     47  C   UNL     1      12.122  -2.019  -7.790  1.00  0.00     0.031 A 
ATOM     48  C   UNL     1      13.403  -2.403  -7.108  1.00  0.00     0.074 A 
ATOM     49  C   UNL     1      12.129  -1.386  -8.973  1.00  0.00     0.049 A 
ATOM     50  N   UNL     1      14.638  -2.155  -7.457  1.00  0.00    -0.248 NA
ATOM     51  C   UNL     1      13.271  -3.168  -5.856  1.00  0.00     0.031 C 
ATOM     52  C   UNL     1      10.943  -1.030  -9.749  1.00  0.00     0.029 A 
ATOM     53  N   UNL     1      13.180  -0.932  -9.724  1.00  0.00    -0.354 N 
ATOM     54  C   UNL     1      15.427  -2.723  -6.465  1.00  0.00     0.074 A 
ATOM     55  C   UNL     1      14.534  -3.293  -5.481  1.00  0.00     0.031 C 
ATOM     56  C   UNL     1      11.335  -0.407 -10.874  1.00  0.00     0.029 A 
ATOM     57  C   UNL     1      12.791  -0.288 -10.870  1.00  0.00     0.049 A 
ATOM     58  H   UNL     1      14.122  -1.056  -9.466  1.00  0.00     0.167 HD
ATOM     59  C   UNL     1      16.777  -2.767  -6.383  1.00  0.00     0.031 A 
ATOM     60  C   UNL     1      13.534   0.344 -11.797  1.00  0.00     0.031 A 
ATOM     61  C   UNL     1      17.652  -2.167  -7.353  1.00  0.00     0.049 A 
ATOM     62  C   UNL     1      15.030   0.377 -11.631  1.00  0.00     0.074 A 
ATOM     63  C   UNL     1      19.035  -2.146  -7.375  1.00  0.00     0.029 A 
ATOM     64  N   UNL     1      17.221  -1.468  -8.472  1.00  0.00    -0.354 N 
ATOM     65  N   UNL     1      15.773  -0.170 -10.697  1.00  0.00    -0.248 NA
ATOM     66  C   UNL     1      15.789   1.111 -12.651  1.00  0.00     0.031 C 
ATOM     67  C   UNL     1      19.438  -1.373  -8.469  1.00  0.00     0.029 A 
ATOM     68  C   UNL     1      18.309  -0.980  -9.173  1.00  0.00     0.049 A 
ATOM     69  H   UNL     1      16.279  -1.338  -8.728  1.00  0.00     0.167 HD
ATOM     70  C   UNL     1      17.088   0.124 -11.035  1.00  0.00     0.074 A 
ATOM     71  C   UNL     1      17.038   0.890 -12.266  1.00  0.00     0.031 C 
ATOM     72  C   UNL     1      18.234  -0.213 -10.392  1.00  0.00     0.031 A 
BRANCH  59  73
ATOM     73  C   UNL     1      17.368  -3.436  -5.171  1.00  0.00    -0.014 A 
ATOM     74  C   UNL     1      17.238  -4.818  -4.955  1.00  0.00     0.009 A 
ATOM     75  C   UNL     1      18.050  -2.665  -4.217  1.00  0.00     0.009 A 
ATOM     76  C   UNL     1      17.728  -5.402  -3.784  1.00  0.00     0.001 A 
ATOM     77  C   UNL     1      18.572  -3.257  -3.066  1.00  0.00     0.001 A 
ATOM     78  C   UNL     1      18.397  -4.622  -2.843  1.00  0.00     0.000 A 
ENDBRANCH  59  73
BRANCH  60  79
ATOM     79  C   UNL     1      12.873   0.995 -12.957  1.00  0.00    -0.014 A 
ATOM     80  C   UNL     1      13.028   0.473 -14.249  1.00  0.00     0.009 A 
ATOM     81  C   UNL     1      12.072   2.134 -12.777  1.00  0.00     0.009 A 
ATOM     82  C   UNL     1      12.409   1.088 -15.340  1.00  0.00     0.001 A 
ATOM     83  C   UNL     1      11.429   2.729 -13.865  1.00  0.00     0.001 A 
ATOM     84  C   UNL     1      11.604   2.210 -15.146  1.00  0.00     0.000 A 
ENDBRANCH  60  79
BRANCH  72  85
ATOM     85  C   UNL     1      19.530   0.207 -11.031  1.00  0.00    -0.014 A 
ATOM     86  C   UNL     1      19.933   1.550 -11.062  1.00  0.00     0.009 A 
ATOM     87  C   UNL     1      20.383  -0.771 -11.568  1.00  0.00     0.009 A 
ATOM     88  C   UNL     1      21.148   1.909 -11.651  1.00  0.00     0.001 A 
ATOM     89  C   UNL     1      21.611  -0.414 -12.123  1.00  0.00     0.001 A 
ATOM     90  C   UNL     1      21.988   0.926 -12.174  1.00  0.00     0.000 A 
ENDBRANCH  72  85
ENDBRANCH  46  47
ENDBRANCH  39  41
ENDBRANCH  38  39
ENDBRANCH  37  38
ENDBRANCH  36  37
ENDBRANCH  35  36
ENDBRANCH  34  35
ENDBRANCH  33  34
ENDBRANCH  32  33
ENDBRANCH   1  32
TORSDOF 24
