REMARK SMILES Nc1nc(Nc2ccc(C(=O)OCCOCCOCCOCCOC(=O)c3ccc(-c4c5nc(c(-c6ccccc6)c6ccc([nH]6)c(-c6ccccc6)c6nc(c(-c7ccccc7)c7ccc4[nH]7)C=C6)C=C5)cc3)cc2)ccc1[N+](=O)[O-]
REMARK SMILES IDX 17 1 16 2 15 3 14 4 13 5 12 6 10 7 11 8 9 9 6 10 7 11 76 12
REMARK SMILES IDX 8 13 75 14 5 15 4 17 2 18 3 19 79 20 78 21 77 22 1 23 80 26
REMARK SMILES IDX 81 27 82 28 18 29 19 30 20 31 21 32 22 33 23 34 24 35 25 36
REMARK SMILES IDX 26 37 27 38 28 39 74 40 29 41 73 42 30 43 31 44 32 45 67 46
REMARK SMILES IDX 33 47 72 48 66 49 68 50 34 51 71 52 65 53 64 54 35 56 57 57
REMARK SMILES IDX 42 58 56 59 43 60 46 61 55 62 69 63 44 64 45 65 54 67 70 68
REMARK SMILES IDX 47 69 36 70 37 71 41 72 38 73 40 74 39 75 58 76 59 77 63 78
REMARK SMILES IDX 60 79 62 80 61 81 48 82 49 83 53 84 50 85 52 86 51 87
REMARK H PARENT 5 16 1 24 1 25 68 55 46 66
REMARK Flexibility Score: inf
ROOT
ATOM      1  C   UNL     1      -0.001   8.471  -0.712  1.00  0.00     0.188 C 
ENDROOT
BRANCH   1   2
ATOM      2  C   UNL     1       0.620   8.984   0.606  1.00  0.00     0.188 C 
BRANCH   2   3
ATOM      3  O   UNL     1       1.712   9.869   0.421  1.00  0.00    -0.376 OA
BRANCH   3   4
ATOM      4  C   UNL     1       3.018   9.434   0.744  1.00  0.00     0.202 C 
BRANCH   4   5
ATOM      5  C   UNL     1       3.601   8.220   0.005  1.00  0.00     0.261 C 
BRANCH   5   6
ATOM      6  O   UNL     1       2.714   7.113  -0.176  1.00  0.00    -0.460 OA
BRANCH   6   7
ATOM      7  C   UNL     1       2.439   6.374   0.920  1.00  0.00     0.338 C 
ATOM      8  O   UNL     1       2.888   6.537   2.040  1.00  0.00    -0.246 OA
BRANCH   7   9
ATOM      9  C   UNL     1       1.332   5.450   0.584  1.00  0.00     0.060 A 
ATOM     10  C   UNL     1      -0.730   3.627   0.075  1.00  0.00     0.040 A 
ATOM     11  C   UNL     1      -0.734   4.379   1.256  1.00  0.00     0.027 A 
ATOM     12  C   UNL     1       0.263   3.869  -0.886  1.00  0.00     0.027 A 
ATOM     13  C   UNL     1       0.303   5.276   1.518  1.00  0.00     0.018 A 
ATOM     14  C   UNL     1       1.287   4.784  -0.643  1.00  0.00     0.018 A 
BRANCH  10  15
ATOM     15  N   UNL     1      -1.544   2.475  -0.012  1.00  0.00    -0.340 N 
ATOM     16  H   UNL     1      -2.522   2.583  -0.059  1.00  0.00     0.168 HD
BRANCH  15  17
ATOM     17  C   UNL     1      -0.998   1.174  -0.034  1.00  0.00     0.133 A 
ATOM     18  C   UNL     1       0.915  -0.193  -0.036  1.00  0.00     0.204 A 
ATOM     19  N   UNL     1       0.348   1.027  -0.050  1.00  0.00    -0.207 NA
ATOM     20  C   UNL     1       0.130  -1.335  -0.013  1.00  0.00     0.311 A 
ATOM     21  C   UNL     1      -1.267  -1.204  -0.024  1.00  0.00     0.093 A 
ATOM     22  C   UNL     1      -1.836   0.070  -0.050  1.00  0.00     0.054 A 
BRANCH  18  23
ATOM     23  N   UNL     1       2.286  -0.154  -0.143  1.00  0.00    -0.378 N 
ATOM     24  H   UNL     1       2.755   0.711  -0.150  1.00  0.00     0.158 HD
ATOM     25  H   UNL     1       2.798  -0.993  -0.212  1.00  0.00     0.158 HD
ENDBRANCH  18  23
BRANCH  20  26
ATOM     26  N   UNL     1       0.724  -2.666   0.057  1.00  0.00     0.066 N 
ATOM     27  O   UNL     1      -0.032  -3.635  -0.114  1.00  0.00    -0.258 OA
ATOM     28  O   UNL     1       1.932  -2.768   0.321  1.00  0.00    -0.258 OA
ENDBRANCH  20  26
ENDBRANCH  15  17
ENDBRANCH  10  15
ENDBRANCH   7   9
ENDBRANCH   6   7
ENDBRANCH   5   6
ENDBRANCH   4   5
ENDBRANCH   3   4
ENDBRANCH   2   3
ENDBRANCH   1   2
BRANCH   1  29
ATOM     29  O   UNL     1       0.673   8.716  -1.939  1.00  0.00    -0.377 OA
BRANCH  29  30
ATOM     30  C   UNL     1       1.182  10.016  -2.226  1.00  0.00     0.188 C 
BRANCH  30  31
ATOM     31  C   UNL     1       0.561  11.290  -1.603  1.00  0.00     0.188 C 
BRANCH  31  32
ATOM     32  O   UNL     1      -0.624  11.067  -0.859  1.00  0.00    -0.376 OA
BRANCH  32  33
ATOM     33  C   UNL     1      -1.849  11.495  -1.421  1.00  0.00     0.202 C 
BRANCH  33  34
ATOM     34  C   UNL     1      -2.281  10.845  -2.742  1.00  0.00     0.261 C 
BRANCH  34  35
ATOM     35  O   UNL     1      -1.315  10.857  -3.803  1.00  0.00    -0.460 OA
BRANCH  35  36
ATOM     36  C   UNL     1      -0.989  12.053  -4.335  1.00  0.00     0.338 C 
ATOM     37  O   UNL     1      -1.423  13.149  -4.016  1.00  0.00    -0.246 OA
BRANCH  36  38
ATOM     38  C   UNL     1       0.137  11.832  -5.265  1.00  0.00     0.060 A 
ATOM     39  C   UNL     1       1.369  12.451  -5.014  1.00  0.00     0.016 A 
ATOM     40  C   UNL     1      -0.025  10.999  -6.374  1.00  0.00     0.016 A 
ATOM     41  C   UNL     1       2.437  12.262  -5.893  1.00  0.00     0.010 A 
ATOM     42  C   UNL     1       1.037  10.829  -7.265  1.00  0.00     0.010 A 
ATOM     43  C   UNL     1       2.262  11.485  -7.046  1.00  0.00    -0.014 A 
BRANCH  43  44
ATOM     44  C   UNL     1       3.280  11.518  -8.124  1.00  0.00     0.031 A 
ATOM     45  C   UNL     1       3.044  12.435  -9.295  1.00  0.00     0.074 A 
ATOM     46  C   UNL     1       4.396  10.771  -8.065  1.00  0.00     0.049 A 
ATOM     47  N   UNL     1       3.752  12.594 -10.383  1.00  0.00    -0.248 NA
ATOM     48  C   UNL     1       1.844  13.287  -9.226  1.00  0.00     0.031 C 
ATOM     49  C   UNL     1       4.772   9.890  -6.961  1.00  0.00     0.029 A 
ATOM     50  N   UNL     1       5.422  10.638  -8.968  1.00  0.00    -0.354 N 
ATOM     51  C   UNL     1       3.085  13.559 -11.126  1.00  0.00     0.074 A 
ATOM     52  C   UNL     1       1.897  13.922 -10.386  1.00  0.00     0.031 C 
ATOM     53  C   UNL     1       5.946   9.301  -7.255  1.00  0.00     0.029 A 
ATOM     54  C   UNL     1       6.381   9.733  -8.582  1.00  0.00     0.049 A 
ATOM     55  H   UNL     1       5.465  11.142  -9.812  1.00  0.00     0.167 HD
ATOM     56  C   UNL     1       3.434  14.105 -12.315  1.00  0.00     0.031 A 
ATOM     57  C   UNL     1       7.471   9.289  -9.240  1.00  0.00     0.031 A 
ATOM     58  C   UNL     1       4.601  13.728 -13.064  1.00  0.00     0.049 A 
ATOM     59  C   UNL     1       7.772   9.827 -10.617  1.00  0.00     0.074 A 
ATOM     60  C   UNL     1       5.036  14.213 -14.285  1.00  0.00     0.029 A 
ATOM     61  N   UNL     1       5.517  12.768 -12.665  1.00  0.00    -0.354 N 
ATOM     62  N   UNL     1       7.142  10.749 -11.305  1.00  0.00    -0.248 NA
ATOM     63  C   UNL     1       8.943   9.263 -11.305  1.00  0.00     0.031 C 
ATOM     64  C   UNL     1       6.183  13.504 -14.652  1.00  0.00     0.029 A 
ATOM     65  C   UNL     1       6.503  12.629 -13.627  1.00  0.00     0.049 A 
ATOM     66  H   UNL     1       5.473  12.261 -11.822  1.00  0.00     0.167 HD
ATOM     67  C   UNL     1       7.864  10.903 -12.484  1.00  0.00     0.074 A 
ATOM     68  C   UNL     1       8.986   9.992 -12.411  1.00  0.00     0.031 C 
ATOM     69  C   UNL     1       7.621  11.727 -13.533  1.00  0.00     0.031 A 
BRANCH  56  70
ATOM     70  C   UNL     1       2.521  15.152 -12.890  1.00  0.00    -0.014 A 
ATOM     71  C   UNL     1       2.418  16.427 -12.310  1.00  0.00     0.009 A 
ATOM     72  C   UNL     1       1.780  14.872 -14.049  1.00  0.00     0.009 A 
ATOM     73  C   UNL     1       1.569  17.388 -12.862  1.00  0.00     0.001 A 
ATOM     74  C   UNL     1       0.957  15.846 -14.617  1.00  0.00     0.001 A 
ATOM     75  C   UNL     1       0.845  17.099 -14.018  1.00  0.00     0.000 A 
ENDBRANCH  56  70
BRANCH  57  76
ATOM     76  C   UNL     1       8.357   8.259  -8.632  1.00  0.00    -0.014 A 
ATOM     77  C   UNL     1       9.688   8.565  -8.301  1.00  0.00     0.009 A 
ATOM     78  C   UNL     1       7.898   6.947  -8.436  1.00  0.00     0.009 A 
ATOM     79  C   UNL     1      10.548   7.570  -7.828  1.00  0.00     0.001 A 
ATOM     80  C   UNL     1       8.750   5.963  -7.928  1.00  0.00     0.001 A 
ATOM     81  C   UNL     1      10.078   6.272  -7.639  1.00  0.00     0.000 A 
ENDBRANCH  57  76
BRANCH  69  82
ATOM     82  C   UNL     1       8.618  11.727 -14.661  1.00  0.00    -0.014 A 
ATOM     83  C   UNL     1       8.743  10.636 -15.534  1.00  0.00     0.009 A 
ATOM     84  C   UNL     1       9.416  12.863 -14.876  1.00  0.00     0.009 A 
ATOM     85  C   UNL     1       9.675  10.667 -16.575  1.00  0.00     0.001 A 
ATOM     86  C   UNL     1      10.321  12.905 -15.938  1.00  0.00     0.001 A 
ATOM     87  C   UNL     1      10.457  11.803 -16.779  1.00  0.00     0.000 A 
ENDBRANCH  69  82
ENDBRANCH  43  44
ENDBRANCH  36  38
ENDBRANCH  35  36
ENDBRANCH  34  35
ENDBRANCH  33  34
ENDBRANCH  32  33
ENDBRANCH  31  32
ENDBRANCH  30  31
ENDBRANCH  29  30
ENDBRANCH   1  29
TORSDOF 24
