REMARK SMILES Cc1cccc(N2C(=O)/C(=C/c3cccn3-c3cccc(C(=O)OCCOCCOCCOCCOC(=O)c4ccc(-c5c6nc(c(-c7ccccc7)c7ccc([nH]7)c(-c7ccccc7)c7nc(c(-c8ccccc8)c8ccc5[nH]8)C=C7)C=C6)cc4)c3)C(O)=NC2=S)c1C
REMARK SMILES IDX 29 1 28 2 27 3 26 4 25 5 24 6 22 7 23 8 21 9 17 10 18 11
REMARK SMILES IDX 87 12 19 13 20 14 16 15 12 16 13 17 14 18 15 19 11 20 7 21
REMARK SMILES IDX 8 22 91 23 9 24 10 25 90 26 92 27 88 28 6 29 1 30 2 31 3 32
REMARK SMILES IDX 93 33 4 34 94 35 5 36 89 37 30 39 31 40 32 41 33 42 34 43
REMARK SMILES IDX 35 44 36 45 37 46 38 47 39 48 40 49 86 50 41 51 85 52 42 53
REMARK SMILES IDX 43 54 44 55 79 56 45 57 84 58 78 59 80 60 46 61 83 62 77 63
REMARK SMILES IDX 76 64 47 66 69 67 54 68 68 69 55 70 58 71 67 72 81 73 56 74
REMARK SMILES IDX 57 75 66 77 82 78 59 79 48 80 49 81 53 82 50 83 52 84 51 85
REMARK SMILES IDX 70 86 71 87 75 88 72 89 74 90 73 91 60 92 61 93 65 94 62 95
REMARK SMILES IDX 64 96 63 97
REMARK H PARENT 89 38 80 65 58 76
REMARK Flexibility Score: inf
ROOT
ATOM      1  C   UNL     1       3.760  -6.890  -4.802  1.00  0.00     0.188 C 
ENDROOT
BRANCH   1   2
ATOM      2  C   UNL     1       4.132  -5.710  -5.722  1.00  0.00     0.188 C 
BRANCH   2   3
ATOM      3  O   UNL     1       5.005  -4.779  -5.086  1.00  0.00    -0.376 OA
BRANCH   3   4
ATOM      4  C   UNL     1       4.437  -3.520  -4.756  1.00  0.00     0.202 C 
BRANCH   4   5
ATOM      5  C   UNL     1       3.425  -3.546  -3.603  1.00  0.00     0.261 C 
BRANCH   5   6
ATOM      6  O   UNL     1       2.260  -4.351  -3.819  1.00  0.00    -0.460 OA
BRANCH   6   7
ATOM      7  C   UNL     1       1.462  -4.066  -4.875  1.00  0.00     0.338 C 
ATOM      8  O   UNL     1       1.576  -3.115  -5.646  1.00  0.00    -0.246 OA
BRANCH   7   9
ATOM      9  C   UNL     1       0.566  -5.226  -5.091  1.00  0.00     0.062 A 
ATOM     10  C   UNL     1      -0.780  -7.036  -4.181  1.00  0.00     0.046 A 
ATOM     11  C   UNL     1      -0.937  -7.551  -5.477  1.00  0.00     0.026 A 
ATOM     12  C   UNL     1       0.019  -5.900  -3.999  1.00  0.00     0.042 A 
ATOM     13  C   UNL     1      -0.371  -6.885  -6.574  1.00  0.00     0.003 A 
ATOM     14  C   UNL     1       0.359  -5.707  -6.381  1.00  0.00     0.016 A 
BRANCH  10  15
ATOM     15  N   UNL     1      -1.443  -7.654  -3.074  1.00  0.00    -0.317 N 
ATOM     16  C   UNL     1      -1.911  -7.054  -1.896  1.00  0.00     0.047 A 
ATOM     17  C   UNL     1      -2.507  -8.033  -1.119  1.00  0.00     0.028 A 
ATOM     18  C   UNL     1      -2.387  -9.259  -1.801  1.00  0.00     0.020 A 
ATOM     19  C   UNL     1      -1.747  -9.001  -2.993  1.00  0.00     0.092 A 
BRANCH  16  20
ATOM     20  C   UNL     1      -1.854  -5.647  -1.716  1.00  0.00     0.046 C 
ATOM     21  N   UNL     1      -0.650  -2.812   0.205  1.00  0.00    -0.251 N 
ATOM     22  C   UNL     1      -1.167  -3.504  -0.890  1.00  0.00     0.270 C 
ATOM     23  C   UNL     1      -0.218  -3.455   1.381  1.00  0.00     0.210 C 
ATOM     24  O   UNL     1      -1.586  -2.974  -1.921  1.00  0.00    -0.268 OA
ATOM     25  C   UNL     1      -1.159  -4.994  -0.762  1.00  0.00     0.104 C 
ATOM     26  N   UNL     1       0.081  -4.794   1.320  1.00  0.00    -0.184 NA
ATOM     27  S   UNL     1      -0.060  -2.679   2.886  1.00  0.00    -0.038 S 
ATOM     28  C   UNL     1      -0.344  -5.504   0.342  1.00  0.00     0.226 C 
BRANCH  21  29
ATOM     29  C   UNL     1      -0.613  -1.383   0.095  1.00  0.00     0.055 A 
ATOM     30  C   UNL     1       1.852   1.559  -0.042  1.00  0.00     0.044 C 
ATOM     31  C   UNL     1       0.593   0.734  -0.011  1.00  0.00    -0.046 A 
ATOM     32  C   UNL     1      -0.642   1.405  -0.016  1.00  0.00     0.004 A 
ATOM     33  C   UNL     1       0.617  -0.680   0.009  1.00  0.00    -0.024 A 
ATOM     34  C   UNL     1      -1.843   0.702   0.002  1.00  0.00     0.002 A 
ATOM     35  C   UNL     1       1.920  -1.437  -0.103  1.00  0.00     0.047 C 
ATOM     36  C   UNL     1      -1.830  -0.687   0.057  1.00  0.00     0.027 A 
ENDBRANCH  21  29
BRANCH  28  37
ATOM     37  O   UNL     1       0.045  -6.786   0.335  1.00  0.00    -0.493 OA
ATOM     38  H   UNL     1      -0.234  -7.356  -0.355  1.00  0.00     0.295 HD
ENDBRANCH  28  37
ENDBRANCH  16  20
ENDBRANCH  10  15
ENDBRANCH   7   9
ENDBRANCH   6   7
ENDBRANCH   5   6
ENDBRANCH   4   5
ENDBRANCH   3   4
ENDBRANCH   2   3
ENDBRANCH   1   2
BRANCH   1  39
ATOM     39  O   UNL     1       4.271  -6.773  -3.482  1.00  0.00    -0.377 OA
BRANCH  39  40
ATOM     40  C   UNL     1       5.651  -7.076  -3.265  1.00  0.00     0.188 C 
BRANCH  40  41
ATOM     41  C   UNL     1       6.702  -7.020  -4.401  1.00  0.00     0.188 C 
BRANCH  41  42
ATOM     42  O   UNL     1       6.230  -7.421  -5.681  1.00  0.00    -0.376 OA
BRANCH  42  43
ATOM     43  C   UNL     1       6.667  -8.640  -6.247  1.00  0.00     0.202 C 
BRANCH  43  44
ATOM     44  C   UNL     1       6.000  -9.870  -5.628  1.00  0.00     0.261 C 
BRANCH  44  45
ATOM     45  O   UNL     1       6.255 -10.027  -4.237  1.00  0.00    -0.460 OA
BRANCH  45  46
ATOM     46  C   UNL     1       7.560 -10.135  -3.943  1.00  0.00     0.338 C 
ATOM     47  O   UNL     1       8.526 -10.009  -4.692  1.00  0.00    -0.246 OA
BRANCH  46  48
ATOM     48  C   UNL     1       7.736 -10.553  -2.572  1.00  0.00     0.060 A 
ATOM     49  C   UNL     1       8.845 -10.039  -1.897  1.00  0.00     0.016 A 
ATOM     50  C   UNL     1       7.069 -11.716  -2.189  1.00  0.00     0.016 A 
ATOM     51  C   UNL     1       9.408 -10.798  -0.900  1.00  0.00     0.010 A 
ATOM     52  C   UNL     1       7.654 -12.496  -1.223  1.00  0.00     0.010 A 
ATOM     53  C   UNL     1       8.846 -12.051  -0.628  1.00  0.00    -0.014 A 
BRANCH  53  54
ATOM     54  C   UNL     1       9.485 -12.911   0.364  1.00  0.00     0.031 A 
ATOM     55  C   UNL     1       8.873 -12.737   1.742  1.00  0.00     0.074 A 
ATOM     56  C   UNL     1      10.456 -13.738  -0.119  1.00  0.00     0.049 A 
ATOM     57  N   UNL     1       9.235 -13.253   2.871  1.00  0.00    -0.248 NA
ATOM     58  C   UNL     1       7.671 -11.867   1.892  1.00  0.00     0.031 C 
ATOM     59  C   UNL     1      10.925 -13.754  -1.525  1.00  0.00     0.029 A 
ATOM     60  N   UNL     1      11.236 -14.720   0.447  1.00  0.00    -0.354 N 
ATOM     61  C   UNL     1       8.223 -12.951   3.798  1.00  0.00     0.074 A 
ATOM     62  C   UNL     1       7.322 -12.039   3.164  1.00  0.00     0.031 C 
ATOM     63  C   UNL     1      11.933 -14.635  -1.682  1.00  0.00     0.029 A 
ATOM     64  C   UNL     1      12.189 -15.301  -0.420  1.00  0.00     0.049 A 
ATOM     65  H   UNL     1      11.137 -14.998   1.386  1.00  0.00     0.167 HD
ATOM     66  C   UNL     1       8.109 -13.575   5.000  1.00  0.00     0.031 A 
ATOM     67  C   UNL     1      13.136 -16.243  -0.143  1.00  0.00     0.031 A 
ATOM     68  C   UNL     1       9.256 -14.366   5.287  1.00  0.00     0.049 A 
ATOM     69  C   UNL     1      12.854 -16.731   1.216  1.00  0.00     0.074 A 
ATOM     70  C   UNL     1      10.554 -14.043   5.593  1.00  0.00     0.029 A 
ATOM     71  N   UNL     1       9.206 -15.692   4.938  1.00  0.00    -0.354 N 
ATOM     72  N   UNL     1      11.854 -17.497   1.531  1.00  0.00    -0.248 NA
ATOM     73  C   UNL     1      13.702 -16.296   2.329  1.00  0.00     0.031 C 
ATOM     74  C   UNL     1      11.320 -15.080   5.011  1.00  0.00     0.029 A 
ATOM     75  C   UNL     1      10.453 -16.027   4.461  1.00  0.00     0.049 A 
ATOM     76  H   UNL     1       8.427 -16.289   5.015  1.00  0.00     0.167 HD
ATOM     77  C   UNL     1      11.737 -17.300   2.885  1.00  0.00     0.074 A 
ATOM     78  C   UNL     1      13.029 -16.837   3.342  1.00  0.00     0.031 C 
ATOM     79  C   UNL     1      10.521 -17.034   3.426  1.00  0.00     0.031 A 
BRANCH  66  80
ATOM     80  C   UNL     1       6.902 -13.689   5.875  1.00  0.00    -0.014 A 
ATOM     81  C   UNL     1       7.096 -14.096   7.210  1.00  0.00     0.009 A 
ATOM     82  C   UNL     1       5.593 -13.711   5.373  1.00  0.00     0.009 A 
ATOM     83  C   UNL     1       6.043 -14.582   7.986  1.00  0.00     0.001 A 
ATOM     84  C   UNL     1       4.529 -14.166   6.162  1.00  0.00     0.001 A 
ATOM     85  C   UNL     1       4.760 -14.629   7.455  1.00  0.00     0.000 A 
ENDBRANCH  66  80
BRANCH  67  86
ATOM     86  C   UNL     1      14.331 -16.836  -0.837  1.00  0.00    -0.014 A 
ATOM     87  C   UNL     1      14.754 -16.537  -2.134  1.00  0.00     0.009 A 
ATOM     88  C   UNL     1      15.171 -17.716  -0.105  1.00  0.00     0.009 A 
ATOM     89  C   UNL     1      15.976 -17.027  -2.638  1.00  0.00     0.001 A 
ATOM     90  C   UNL     1      16.401 -18.176  -0.583  1.00  0.00     0.001 A 
ATOM     91  C   UNL     1      16.811 -17.820  -1.854  1.00  0.00     0.000 A 
ENDBRANCH  67  86
BRANCH  79  92
ATOM     92  C   UNL     1       9.339 -17.455   2.567  1.00  0.00    -0.014 A 
ATOM     93  C   UNL     1       9.114 -18.807   2.274  1.00  0.00     0.009 A 
ATOM     94  C   UNL     1       8.501 -16.513   1.944  1.00  0.00     0.009 A 
ATOM     95  C   UNL     1       8.102 -19.196   1.385  1.00  0.00     0.001 A 
ATOM     96  C   UNL     1       7.484 -16.896   1.061  1.00  0.00     0.001 A 
ATOM     97  C   UNL     1       7.288 -18.242   0.778  1.00  0.00     0.000 A 
ENDBRANCH  79  92
ENDBRANCH  53  54
ENDBRANCH  46  48
ENDBRANCH  45  46
ENDBRANCH  44  45
ENDBRANCH  43  44
ENDBRANCH  42  43
ENDBRANCH  41  42
ENDBRANCH  40  41
ENDBRANCH  39  40
ENDBRANCH   1  39
TORSDOF 24
