REMARK SMILES O=C(OCCOCCOCCOCCOC(=O)[C@@H](Cc1ccc(O)cc1)Nc1c2ccccc2nc2ccccc12)c1ccc(-c2c3nc(c(-c4ccccc4)c4ccc([nH]4)c(-c4ccccc4)c4nc(c(-c5ccccc5)c5ccc2[nH]5)C=C4)C=C3)cc1
REMARK SMILES IDX 10 1 9 2 8 3 7 4 6 5 5 6 4 7 3 8 2 9 1 10 42 11 43 12 89 13
REMARK SMILES IDX 44 14 88 15 45 16 46 17 47 18 82 19 48 20 87 21 81 22 83 23
REMARK SMILES IDX 49 24 86 25 80 26 79 27 50 29 72 30 57 31 71 32 58 33 61 34
REMARK SMILES IDX 70 35 84 36 59 37 60 38 69 40 85 41 62 42 51 43 52 44 56 45
REMARK SMILES IDX 53 46 55 47 54 48 73 49 74 50 78 51 75 52 77 53 76 54 63 55
REMARK SMILES IDX 64 56 68 57 65 58 67 59 66 60 11 61 12 62 13 63 14 64 15 65
REMARK SMILES IDX 16 66 17 67 18 68 19 69 20 70 21 71 26 72 22 73 25 74 23 75
REMARK SMILES IDX 24 76 27 78 28 80 29 81 41 82 30 83 34 84 36 85 40 86 31 87
REMARK SMILES IDX 33 88 35 89 37 90 39 91 32 92 38 93
REMARK H PARENT 83 28 61 39 24 77 27 79
REMARK Flexibility Score: inf
ROOT
ATOM      1  C   UNL     1       5.622   2.017   2.765  1.00  0.00     0.188 C 
ENDROOT
BRANCH   1   2
ATOM      2  O   UNL     1       4.612   2.716   2.036  1.00  0.00    -0.377 OA
BRANCH   2   3
ATOM      3  C   UNL     1       3.448   1.978   1.640  1.00  0.00     0.188 C 
BRANCH   3   4
ATOM      4  C   UNL     1       3.682   0.569   1.121  1.00  0.00     0.188 C 
BRANCH   4   5
ATOM      5  O   UNL     1       4.779   0.500   0.208  1.00  0.00    -0.376 OA
BRANCH   5   6
ATOM      6  C   UNL     1       4.557   1.081  -1.072  1.00  0.00     0.202 C 
BRANCH   6   7
ATOM      7  C   UNL     1       3.925   0.102  -2.071  1.00  0.00     0.261 C 
BRANCH   7   8
ATOM      8  O   UNL     1       2.647  -0.357  -1.587  1.00  0.00    -0.460 OA
BRANCH   8   9
ATOM      9  C   UNL     1       2.327  -1.675  -1.527  1.00  0.00     0.338 C 
ATOM     10  O   UNL     1       1.305  -2.093  -2.065  1.00  0.00    -0.246 OA
BRANCH   9  11
ATOM     11  C   UNL     1       3.060  -2.547  -0.552  1.00  0.00     0.060 A 
ATOM     12  C   UNL     1       4.381  -2.341  -0.161  1.00  0.00     0.016 A 
ATOM     13  C   UNL     1       2.377  -3.647   0.001  1.00  0.00     0.016 A 
ATOM     14  C   UNL     1       4.992  -3.137   0.796  1.00  0.00     0.010 A 
ATOM     15  C   UNL     1       3.005  -4.500   0.922  1.00  0.00     0.010 A 
ATOM     16  C   UNL     1       4.321  -4.240   1.316  1.00  0.00    -0.014 A 
BRANCH  16  17
ATOM     17  C   UNL     1       5.153  -5.190   2.075  1.00  0.00     0.031 A 
ATOM     18  C   UNL     1       5.946  -6.190   1.284  1.00  0.00     0.074 A 
ATOM     19  C   UNL     1       5.393  -4.984   3.381  1.00  0.00     0.049 A 
ATOM     20  N   UNL     1       6.871  -7.020   1.685  1.00  0.00    -0.248 NA
ATOM     21  C   UNL     1       5.700  -6.214  -0.170  1.00  0.00     0.031 C 
ATOM     22  C   UNL     1       4.806  -3.914   4.190  1.00  0.00     0.029 A 
ATOM     23  N   UNL     1       6.240  -5.631   4.241  1.00  0.00    -0.354 N 
ATOM     24  C   UNL     1       7.333  -7.643   0.533  1.00  0.00     0.074 A 
ATOM     25  C   UNL     1       6.588  -7.104  -0.582  1.00  0.00     0.031 C 
ATOM     26  C   UNL     1       5.325  -3.971   5.429  1.00  0.00     0.029 A 
ATOM     27  C   UNL     1       6.247  -5.101   5.508  1.00  0.00     0.049 A 
ATOM     28  H   UNL     1       6.792  -6.402   3.976  1.00  0.00     0.167 HD
ATOM     29  C   UNL     1       8.289  -8.591   0.416  1.00  0.00     0.031 A 
ATOM     30  C   UNL     1       6.915  -5.506   6.605  1.00  0.00     0.031 A 
ATOM     31  C   UNL     1       8.966  -9.171   1.538  1.00  0.00     0.049 A 
ATOM     32  C   UNL     1       7.834  -6.694   6.480  1.00  0.00     0.074 A 
ATOM     33  C   UNL     1       9.831 -10.249   1.571  1.00  0.00     0.029 A 
ATOM     34  N   UNL     1       8.835  -8.715   2.842  1.00  0.00    -0.354 N 
ATOM     35  N   UNL     1       8.199  -7.347   5.401  1.00  0.00    -0.248 NA
ATOM     36  C   UNL     1       8.422  -7.210   7.723  1.00  0.00     0.031 C 
ATOM     37  C   UNL     1      10.188 -10.472   2.906  1.00  0.00     0.029 A 
ATOM     38  C   UNL     1       9.586  -9.502   3.694  1.00  0.00     0.049 A 
ATOM     39  H   UNL     1       8.288  -7.945   3.119  1.00  0.00     0.167 HD
ATOM     40  C   UNL     1       9.062  -8.344   5.833  1.00  0.00     0.074 A 
ATOM     41  C   UNL     1       9.191  -8.189   7.269  1.00  0.00     0.031 C 
ATOM     42  C   UNL     1       9.685  -9.313   5.117  1.00  0.00     0.031 A 
BRANCH  29  43
ATOM     43  C   UNL     1       8.557  -9.104  -0.967  1.00  0.00    -0.014 A 
ATOM     44  C   UNL     1       9.315  -8.360  -1.884  1.00  0.00     0.009 A 
ATOM     45  C   UNL     1       7.985 -10.317  -1.378  1.00  0.00     0.009 A 
ATOM     46  C   UNL     1       9.467  -8.807  -3.199  1.00  0.00     0.001 A 
ATOM     47  C   UNL     1       8.152 -10.769  -2.687  1.00  0.00     0.001 A 
ATOM     48  C   UNL     1       8.884 -10.010  -3.599  1.00  0.00     0.000 A 
ENDBRANCH  29  43
BRANCH  30  49
ATOM     49  C   UNL     1       6.684  -4.857   7.925  1.00  0.00    -0.014 A 
ATOM     50  C   UNL     1       7.719  -4.203   8.610  1.00  0.00     0.009 A 
ATOM     51  C   UNL     1       5.424  -4.950   8.540  1.00  0.00     0.009 A 
ATOM     52  C   UNL     1       7.505  -3.689   9.894  1.00  0.00     0.001 A 
ATOM     53  C   UNL     1       5.205  -4.410   9.809  1.00  0.00     0.001 A 
ATOM     54  C   UNL     1       6.249  -3.792  10.491  1.00  0.00     0.000 A 
ENDBRANCH  30  49
BRANCH  42  55
ATOM     55  C   UNL     1      10.564 -10.259   5.879  1.00  0.00    -0.014 A 
ATOM     56  C   UNL     1      10.012 -11.268   6.683  1.00  0.00     0.009 A 
ATOM     57  C   UNL     1      11.958 -10.167   5.752  1.00  0.00     0.009 A 
ATOM     58  C   UNL     1      10.845 -12.151   7.370  1.00  0.00     0.001 A 
ATOM     59  C   UNL     1      12.786 -11.068   6.421  1.00  0.00     0.001 A 
ATOM     60  C   UNL     1      12.229 -12.053   7.235  1.00  0.00     0.000 A 
ENDBRANCH  42  55
ENDBRANCH  16  17
ENDBRANCH   9  11
ENDBRANCH   8   9
ENDBRANCH   7   8
ENDBRANCH   6   7
ENDBRANCH   5   6
ENDBRANCH   4   5
ENDBRANCH   3   4
ENDBRANCH   2   3
ENDBRANCH   1   2
BRANCH   1  61
ATOM     61  C   UNL     1       5.231   1.580   4.180  1.00  0.00     0.188 C 
BRANCH  61  62
ATOM     62  O   UNL     1       3.947   0.973   4.171  1.00  0.00    -0.376 OA
BRANCH  62  63
ATOM     63  C   UNL     1       3.101   1.319   5.255  1.00  0.00     0.202 C 
BRANCH  63  64
ATOM     64  C   UNL     1       2.647   2.791   5.382  1.00  0.00     0.261 C 
BRANCH  64  65
ATOM     65  O   UNL     1       2.964   3.662   4.275  1.00  0.00    -0.462 OA
BRANCH  65  66
ATOM     66  C   UNL     1       3.875   4.636   4.535  1.00  0.00     0.328 C 
ATOM     67  O   UNL     1       4.480   4.694   5.605  1.00  0.00    -0.250 OA
BRANCH  66  68
ATOM     68  C   UNL     1       4.144   5.643   3.387  1.00  0.00     0.194 C 
BRANCH  68  69
ATOM     69  C   UNL     1       3.339   5.585   2.072  1.00  0.00     0.072 C 
BRANCH  69  70
ATOM     70  C   UNL     1       1.842   5.797   2.056  1.00  0.00    -0.045 A 
ATOM     71  C   UNL     1       1.301   7.049   1.730  1.00  0.00     0.007 A 
ATOM     72  C   UNL     1       0.967   4.712   2.208  1.00  0.00     0.007 A 
ATOM     73  C   UNL     1      -0.076   7.202   1.536  1.00  0.00     0.046 A 
ATOM     74  C   UNL     1      -0.406   4.863   2.024  1.00  0.00     0.046 A 
ATOM     75  C   UNL     1      -0.917   6.103   1.677  1.00  0.00     0.115 A 
BRANCH  75  76
ATOM     76  O   UNL     1      -2.259   6.194   1.464  1.00  0.00    -0.508 OA
ATOM     77  H   UNL     1      -2.641   7.017   1.228  1.00  0.00     0.293 HD
ENDBRANCH  75  76
ENDBRANCH  69  70
ENDBRANCH  68  69
BRANCH  68  78
ATOM     78  N   UNL     1       4.089   7.041   3.888  1.00  0.00    -0.371 N 
ATOM     79  H   UNL     1       3.274   7.574   3.745  1.00  0.00     0.161 HD
BRANCH  78  80
ATOM     80  C   UNL     1       5.183   7.617   4.564  1.00  0.00     0.054 A 
ATOM     81  C   UNL     1       6.403   7.918   3.889  1.00  0.00     0.024 A 
ATOM     82  C   UNL     1       5.080   7.889   5.961  1.00  0.00     0.024 A 
ATOM     83  C   UNL     1       6.660   7.666   2.516  1.00  0.00     0.012 A 
ATOM     84  C   UNL     1       7.417   8.550   4.639  1.00  0.00     0.073 A 
ATOM     85  C   UNL     1       6.169   8.528   6.582  1.00  0.00     0.073 A 
ATOM     86  C   UNL     1       3.966   7.538   6.769  1.00  0.00     0.012 A 
ATOM     87  C   UNL     1       7.881   7.988   1.922  1.00  0.00     0.001 A 
ATOM     88  C   UNL     1       8.615   8.887   4.022  1.00  0.00     0.029 A 
ATOM     89  N   UNL     1       7.290   8.860   5.933  1.00  0.00    -0.248 NA
ATOM     90  C   UNL     1       6.101   8.826   7.937  1.00  0.00     0.029 A 
ATOM     91  C   UNL     1       3.932   7.817   8.134  1.00  0.00     0.001 A 
ATOM     92  C   UNL     1       8.863   8.606   2.679  1.00  0.00     0.002 A 
ATOM     93  C   UNL     1       5.000   8.477   8.719  1.00  0.00     0.002 A 
ENDBRANCH  78  80
ENDBRANCH  68  78
ENDBRANCH  66  68
ENDBRANCH  65  66
ENDBRANCH  64  65
ENDBRANCH  63  64
ENDBRANCH  62  63
ENDBRANCH  61  62
ENDBRANCH   1  61
TORSDOF 25
