REMARK SMILES Cc1cc(C)c2c(c1)C=C(C(=O)OCCOCCOCCOCCOC(=O)c1ccc(-c3c4nc(c(-c5ccccc5)c5ccc([nH]5)c(-c5ccccc5)c5nc(c(-c6ccccc6)c6ccc3[nH]6)C=C5)C=C4)cc1)[C@@H](C(F)(F)F)O2
REMARK SMILES IDX 20 1 19 2 18 3 17 4 16 5 15 6 14 7 13 8 11 9 12 10 10 11
REMARK SMILES IDX 1 12 2 13 3 14 8 15 4 16 7 17 5 18 6 19 9 20 81 21 76 22
REMARK SMILES IDX 77 23 78 24 79 25 80 26 21 27 22 28 23 29 24 30 25 31 26 32
REMARK SMILES IDX 27 33 28 34 29 35 75 36 30 37 74 38 31 39 32 40 33 41 68 42
REMARK SMILES IDX 34 43 73 44 67 45 69 46 35 47 72 48 66 49 65 50 36 52 58 53
REMARK SMILES IDX 43 54 57 55 44 56 47 57 56 58 70 59 45 60 46 61 55 63 71 64
REMARK SMILES IDX 48 65 37 66 38 67 42 68 39 69 41 70 40 71 59 72 60 73 64 74
REMARK SMILES IDX 61 75 63 76 62 77 49 78 50 79 54 80 51 81 53 82 52 83
REMARK H PARENT 69 51 47 62
REMARK Flexibility Score: inf
ROOT
ATOM      1  C   UNL     1      -5.579  -3.844  -6.856  1.00  0.00     0.188 C 
ENDROOT
BRANCH   1   2
ATOM      2  O   UNL     1      -4.261  -3.684  -6.327  1.00  0.00    -0.377 OA
BRANCH   2   3
ATOM      3  C   UNL     1      -4.025  -2.595  -5.448  1.00  0.00     0.188 C 
BRANCH   3   4
ATOM      4  C   UNL     1      -3.801  -1.257  -6.181  1.00  0.00     0.188 C 
BRANCH   4   5
ATOM      5  O   UNL     1      -4.273  -1.258  -7.516  1.00  0.00    -0.376 OA
BRANCH   5   6
ATOM      6  C   UNL     1      -3.447  -1.645  -8.601  1.00  0.00     0.202 C 
BRANCH   6   7
ATOM      7  C   UNL     1      -2.375  -2.751  -8.539  1.00  0.00     0.261 C 
BRANCH   7   8
ATOM      8  O   UNL     1      -1.778  -3.024  -7.273  1.00  0.00    -0.460 OA
BRANCH   8   9
ATOM      9  C   UNL     1      -0.810  -2.191  -6.852  1.00  0.00     0.338 C 
ATOM     10  O   UNL     1      -0.359  -1.232  -7.452  1.00  0.00    -0.246 OA
BRANCH   9  11
ATOM     11  C   UNL     1      -0.502  -2.538  -5.448  1.00  0.00     0.087 C 
ATOM     12  C   UNL     1       0.895   0.061  -0.054  1.00  0.00     0.044 C 
ATOM     13  C   UNL     1       0.588  -1.060  -1.002  1.00  0.00    -0.050 A 
ATOM     14  C   UNL     1       0.863  -2.385  -0.640  1.00  0.00     0.010 A 
ATOM     15  C   UNL     1       0.113  -0.792  -2.289  1.00  0.00     0.015 A 
ATOM     16  C   UNL     1       0.643  -3.440  -1.540  1.00  0.00    -0.008 A 
ATOM     17  C   UNL     1      -0.075  -1.830  -3.207  1.00  0.00     0.018 A 
ATOM     18  C   UNL     1       0.978  -4.850  -1.142  1.00  0.00     0.048 C 
ATOM     19  C   UNL     1       0.154  -3.154  -2.823  1.00  0.00     0.130 A 
ATOM     20  C   UNL     1      -0.415  -1.520  -4.583  1.00  0.00     0.027 C 
ATOM     21  O   UNL     1      -0.058  -4.218  -3.654  1.00  0.00    -0.475 OA
ATOM     22  C   UNL     1      -0.375  -3.985  -5.051  1.00  0.00     0.316 C 
BRANCH  22  23
ATOM     23  C   UNL     1       0.658  -4.730  -5.905  1.00  0.00     0.430 C 
ATOM     24  F   UNL     1       0.819  -6.008  -5.483  1.00  0.00    -0.167 F 
ATOM     25  F   UNL     1       0.289  -4.797  -7.205  1.00  0.00    -0.167 F 
ATOM     26  F   UNL     1       1.871  -4.133  -5.861  1.00  0.00    -0.167 F 
ENDBRANCH  22  23
ENDBRANCH   9  11
ENDBRANCH   8   9
ENDBRANCH   7   8
ENDBRANCH   6   7
ENDBRANCH   5   6
ENDBRANCH   4   5
ENDBRANCH   3   4
ENDBRANCH   2   3
ENDBRANCH   1   2
BRANCH   1  27
ATOM     27  C   UNL     1      -6.599  -2.678  -6.892  1.00  0.00     0.188 C 
BRANCH  27  28
ATOM     28  O   UNL     1      -6.571  -1.837  -5.747  1.00  0.00    -0.376 OA
BRANCH  28  29
ATOM     29  C   UNL     1      -7.618  -1.946  -4.799  1.00  0.00     0.202 C 
BRANCH  29  30
ATOM     30  C   UNL     1      -7.668  -3.250  -3.991  1.00  0.00     0.261 C 
BRANCH  30  31
ATOM     31  O   UNL     1      -7.740  -4.457  -4.763  1.00  0.00    -0.460 OA
BRANCH  31  32
ATOM     32  C   UNL     1      -8.835  -4.635  -5.530  1.00  0.00     0.338 C 
ATOM     33  O   UNL     1      -9.805  -3.900  -5.618  1.00  0.00    -0.246 OA
BRANCH  32  34
ATOM     34  C   UNL     1      -8.579  -5.792  -6.409  1.00  0.00     0.060 A 
ATOM     35  C   UNL     1      -8.592  -5.610  -7.799  1.00  0.00     0.016 A 
ATOM     36  C   UNL     1      -8.330  -7.051  -5.859  1.00  0.00     0.016 A 
ATOM     37  C   UNL     1      -8.402  -6.700  -8.646  1.00  0.00     0.010 A 
ATOM     38  C   UNL     1      -8.170  -8.147  -6.707  1.00  0.00     0.010 A 
ATOM     39  C   UNL     1      -8.249  -7.981  -8.102  1.00  0.00    -0.014 A 
BRANCH  39  40
ATOM     40  C   UNL     1      -8.443  -9.170  -8.961  1.00  0.00     0.031 A 
ATOM     41  C   UNL     1      -9.819  -9.775  -9.013  1.00  0.00     0.074 A 
ATOM     42  C   UNL     1      -7.442  -9.695  -9.687  1.00  0.00     0.049 A 
ATOM     43  N   UNL     1     -10.225 -10.871  -9.600  1.00  0.00    -0.248 NA
ATOM     44  C   UNL     1     -10.882  -9.040  -8.305  1.00  0.00     0.031 C 
ATOM     45  C   UNL     1      -6.089  -9.153  -9.788  1.00  0.00     0.029 A 
ATOM     46  N   UNL     1      -7.420 -10.815 -10.479  1.00  0.00    -0.354 N 
ATOM     47  C   UNL     1     -11.584 -10.960  -9.325  1.00  0.00     0.074 A 
ATOM     48  C   UNL     1     -11.930  -9.826  -8.498  1.00  0.00     0.031 C 
ATOM     49  C   UNL     1      -5.363  -9.950 -10.593  1.00  0.00     0.029 A 
ATOM     50  C   UNL     1      -6.187 -11.078 -11.023  1.00  0.00     0.049 A 
ATOM     51  H   UNL     1      -8.212 -11.377 -10.641  1.00  0.00     0.167 HD
ATOM     52  C   UNL     1     -12.467 -11.901  -9.729  1.00  0.00     0.031 A 
ATOM     53  C   UNL     1      -5.771 -12.127 -11.760  1.00  0.00     0.031 A 
ATOM     54  C   UNL     1     -12.117 -13.040 -10.532  1.00  0.00     0.049 A 
ATOM     55  C   UNL     1      -6.746 -13.226 -12.096  1.00  0.00     0.074 A 
ATOM     56  C   UNL     1     -12.935 -14.062 -10.979  1.00  0.00     0.029 A 
ATOM     57  N   UNL     1     -10.842 -13.308 -11.005  1.00  0.00    -0.354 N 
ATOM     58  N   UNL     1      -8.024 -13.315 -11.817  1.00  0.00    -0.248 NA
ATOM     59  C   UNL     1      -6.215 -14.371 -12.851  1.00  0.00     0.031 C 
ATOM     60  C   UNL     1     -12.142 -14.981 -11.672  1.00  0.00     0.029 A 
ATOM     61  C   UNL     1     -10.844 -14.495 -11.716  1.00  0.00     0.049 A 
ATOM     62  H   UNL     1     -10.053 -12.739 -10.856  1.00  0.00     0.167 HD
ATOM     63  C   UNL     1      -8.455 -14.511 -12.380  1.00  0.00     0.074 A 
ATOM     64  C   UNL     1      -7.307 -15.100 -13.037  1.00  0.00     0.031 C 
ATOM     65  C   UNL     1      -9.689 -15.074 -12.354  1.00  0.00     0.031 A 
BRANCH  52  66
ATOM     66  C   UNL     1     -13.892 -11.754  -9.274  1.00  0.00    -0.014 A 
ATOM     67  C   UNL     1     -14.723 -10.748  -9.793  1.00  0.00     0.009 A 
ATOM     68  C   UNL     1     -14.422 -12.660  -8.343  1.00  0.00     0.009 A 
ATOM     69  C   UNL     1     -16.050 -10.641  -9.371  1.00  0.00     0.001 A 
ATOM     70  C   UNL     1     -15.757 -12.569  -7.946  1.00  0.00     0.001 A 
ATOM     71  C   UNL     1     -16.568 -11.556  -8.455  1.00  0.00     0.000 A 
ENDBRANCH  52  66
BRANCH  53  72
ATOM     72  C   UNL     1      -4.356 -12.204 -12.214  1.00  0.00    -0.014 A 
ATOM     73  C   UNL     1      -4.038 -12.098 -13.577  1.00  0.00     0.009 A 
ATOM     74  C   UNL     1      -3.316 -12.395 -11.290  1.00  0.00     0.009 A 
ATOM     75  C   UNL     1      -2.712 -12.197 -14.006  1.00  0.00     0.001 A 
ATOM     76  C   UNL     1      -1.988 -12.462 -11.719  1.00  0.00     0.001 A 
ATOM     77  C   UNL     1      -1.688 -12.370 -13.076  1.00  0.00     0.000 A 
ENDBRANCH  53  72
BRANCH  65  78
ATOM     78  C   UNL     1      -9.868 -16.384 -13.072  1.00  0.00    -0.014 A 
ATOM     79  C   UNL     1      -9.293 -17.567 -12.584  1.00  0.00     0.009 A 
ATOM     80  C   UNL     1     -10.664 -16.443 -14.227  1.00  0.00     0.009 A 
ATOM     81  C   UNL     1      -9.478 -18.775 -13.261  1.00  0.00     0.001 A 
ATOM     82  C   UNL     1     -10.877 -17.658 -14.881  1.00  0.00     0.001 A 
ATOM     83  C   UNL     1     -10.274 -18.820 -14.405  1.00  0.00     0.000 A 
ENDBRANCH  65  78
ENDBRANCH  39  40
ENDBRANCH  32  34
ENDBRANCH  31  32
ENDBRANCH  30  31
ENDBRANCH  29  30
ENDBRANCH  28  29
ENDBRANCH  27  28
ENDBRANCH   1  27
TORSDOF 21
