REMARK SMILES C[C@H]1[C@H](C(=O)OCCOCCOCCOCCOC(=O)c2ccc(-c3c4nc(c(-c5ccccc5)c5ccc([nH]5)c(-c5ccccc5)c5nc(c(-c6ccccc6)c6ccc3[nH]6)C=C5)C=C4)cc2)CCN1C(=O)CC[NH2+]C1CC1
REMARK SMILES IDX 10 1 9 2 8 3 7 4 6 5 4 6 5 7 3 8 1 9 2 10 71 11 69 12 70 13
REMARK SMILES IDX 72 14 73 15 74 16 75 17 76 18 77 21 78 22 79 23 11 24 12 25
REMARK SMILES IDX 13 26 14 27 15 28 16 29 17 30 18 31 19 32 20 33 21 34 22 35
REMARK SMILES IDX 68 36 23 37 67 38 24 39 25 40 26 41 61 42 27 43 66 44 60 45
REMARK SMILES IDX 62 46 28 47 65 48 59 49 58 50 29 52 51 53 36 54 50 55 37 56
REMARK SMILES IDX 40 57 49 58 63 59 38 60 39 61 48 63 64 64 41 65 30 66 31 67
REMARK SMILES IDX 35 68 32 69 34 70 33 71 52 72 53 73 57 74 54 75 56 76 55 77
REMARK SMILES IDX 42 78 43 79 47 80 44 81 46 82 45 83
REMARK H PARENT 76 19 76 20 62 51 40 62
REMARK Flexibility Score: inf
ROOT
ATOM      1  C   UNL     1       1.573   3.333   1.581  1.00  0.00     0.188 C 
ENDROOT
BRANCH   1   2
ATOM      2  O   UNL     1       1.006   4.328   2.407  1.00  0.00    -0.376 OA
BRANCH   2   3
ATOM      3  C   UNL     1      -0.141   4.152   3.209  1.00  0.00     0.202 C 
BRANCH   3   4
ATOM      4  C   UNL     1      -1.308   3.186   2.921  1.00  0.00     0.261 C 
BRANCH   4   5
ATOM      5  O   UNL     1      -1.101   2.100   2.004  1.00  0.00    -0.463 OA
BRANCH   5   6
ATOM      6  C   UNL     1      -1.515   2.301   0.732  1.00  0.00     0.311 C 
ATOM      7  O   UNL     1      -2.023   3.345   0.341  1.00  0.00    -0.252 OA
BRANCH   6   8
ATOM      8  C   UNL     1      -1.345   1.097  -0.183  1.00  0.00     0.123 C 
ATOM      9  C   UNL     1       0.848   0.412  -1.165  1.00  0.00     0.032 C 
ATOM     10  C   UNL     1      -0.123   0.170  -0.008  1.00  0.00     0.096 C 
ATOM     11  N   UNL     1      -0.630  -1.197  -0.060  1.00  0.00    -0.339 N 
ATOM     12  C   UNL     1      -2.543   0.154  -0.126  1.00  0.00     0.039 C 
ATOM     13  C   UNL     1      -1.986  -1.195  -0.565  1.00  0.00     0.121 C 
BRANCH  11  14
ATOM     14  C   UNL     1       0.021  -2.380   0.254  1.00  0.00     0.228 C 
ATOM     15  O   UNL     1      -0.467  -3.471  -0.051  1.00  0.00    -0.275 OA
BRANCH  14  16
ATOM     16  C   UNL     1       1.337  -2.343   1.036  1.00  0.00     0.161 C 
BRANCH  16  17
ATOM     17  C   UNL     1       2.592  -2.471   0.161  1.00  0.00     0.270 C 
BRANCH  17  18
ATOM     18  N   UNL     1       3.443  -1.277   0.254  1.00  0.00    -0.343 N 
ATOM     19  H   UNL     1       3.903  -1.287   1.163  1.00  0.00     0.346 HD
ATOM     20  H   UNL     1       2.824  -0.478   0.119  1.00  0.00     0.346 HD
BRANCH  18  21
ATOM     21  C   UNL     1       4.478  -1.168  -0.778  1.00  0.00     0.182 C 
ATOM     22  C   UNL     1       4.163  -1.154  -2.249  1.00  0.00     0.071 C 
ATOM     23  C   UNL     1       4.564   0.118  -1.567  1.00  0.00     0.071 C 
ENDBRANCH  18  21
ENDBRANCH  17  18
ENDBRANCH  16  17
ENDBRANCH  14  16
ENDBRANCH  11  14
ENDBRANCH   6   8
ENDBRANCH   5   6
ENDBRANCH   4   5
ENDBRANCH   3   4
ENDBRANCH   2   3
ENDBRANCH   1   2
BRANCH   1  24
ATOM     24  C   UNL     1       1.770   1.901   2.094  1.00  0.00     0.188 C 
BRANCH  24  25
ATOM     25  O   UNL     1       2.700   1.572   3.094  1.00  0.00    -0.377 OA
BRANCH  25  26
ATOM     26  C   UNL     1       2.510   2.248   4.319  1.00  0.00     0.188 C 
BRANCH  26  27
ATOM     27  C   UNL     1       3.465   3.434   4.410  1.00  0.00     0.188 C 
BRANCH  27  28
ATOM     28  O   UNL     1       4.099   3.706   3.172  1.00  0.00    -0.376 OA
BRANCH  28  29
ATOM     29  C   UNL     1       5.251   2.964   2.781  1.00  0.00     0.202 C 
BRANCH  29  30
ATOM     30  C   UNL     1       5.513   1.462   3.066  1.00  0.00     0.261 C 
BRANCH  30  31
ATOM     31  O   UNL     1       5.034   0.875   4.283  1.00  0.00    -0.460 OA
BRANCH  31  32
ATOM     32  C   UNL     1       5.612   1.231   5.441  1.00  0.00     0.338 C 
ATOM     33  O   UNL     1       6.533   2.014   5.598  1.00  0.00    -0.246 OA
BRANCH  32  34
ATOM     34  C   UNL     1       4.788   0.662   6.533  1.00  0.00     0.060 A 
ATOM     35  C   UNL     1       4.224   1.544   7.464  1.00  0.00     0.016 A 
ATOM     36  C   UNL     1       4.547  -0.713   6.628  1.00  0.00     0.016 A 
ATOM     37  C   UNL     1       3.470   1.050   8.526  1.00  0.00     0.010 A 
ATOM     38  C   UNL     1       3.814  -1.211   7.712  1.00  0.00     0.010 A 
ATOM     39  C   UNL     1       3.318  -0.332   8.691  1.00  0.00    -0.014 A 
BRANCH  39  40
ATOM     40  C   UNL     1       2.890  -0.833  10.020  1.00  0.00     0.031 A 
ATOM     41  C   UNL     1       3.965  -1.208  11.006  1.00  0.00     0.074 A 
ATOM     42  C   UNL     1       1.597  -0.860  10.385  1.00  0.00     0.049 A 
ATOM     43  N   UNL     1       3.854  -1.593  12.252  1.00  0.00    -0.248 NA
ATOM     44  C   UNL     1       5.354  -1.129  10.522  1.00  0.00     0.031 C 
ATOM     45  C   UNL     1       0.468  -0.469   9.543  1.00  0.00     0.029 A 
ATOM     46  N   UNL     1       1.021  -1.222  11.577  1.00  0.00    -0.354 N 
ATOM     47  C   UNL     1       5.155  -1.801  12.695  1.00  0.00     0.074 A 
ATOM     48  C   UNL     1       6.035  -1.540  11.579  1.00  0.00     0.031 C 
ATOM     49  C   UNL     1      -0.669  -0.609  10.249  1.00  0.00     0.029 A 
ATOM     50  C   UNL     1      -0.348  -1.120  11.581  1.00  0.00     0.049 A 
ATOM     51  H   UNL     1       1.541  -1.526  12.356  1.00  0.00     0.167 HD
ATOM     52  C   UNL     1       5.585  -2.166  13.926  1.00  0.00     0.031 A 
ATOM     53  C   UNL     1      -1.238  -1.415  12.549  1.00  0.00     0.031 A 
ATOM     54  C   UNL     1       4.712  -2.448  15.032  1.00  0.00     0.049 A 
ATOM     55  C   UNL     1      -0.740  -1.903  13.886  1.00  0.00     0.074 A 
ATOM     56  C   UNL     1       5.046  -2.824  16.320  1.00  0.00     0.029 A 
ATOM     57  N   UNL     1       3.328  -2.393  14.976  1.00  0.00    -0.354 N 
ATOM     58  N   UNL     1       0.493  -2.069  14.302  1.00  0.00    -0.248 NA
ATOM     59  C   UNL     1      -1.761  -2.228  14.892  1.00  0.00     0.031 C 
ATOM     60  C   UNL     1       3.862  -3.060  17.026  1.00  0.00     0.029 A 
ATOM     61  C   UNL     1       2.792  -2.757  16.199  1.00  0.00     0.049 A 
ATOM     62  H   UNL     1       2.804  -2.135  14.183  1.00  0.00     0.167 HD
ATOM     63  C   UNL     1       0.396  -2.482  15.627  1.00  0.00     0.074 A 
ATOM     64  C   UNL     1      -1.016  -2.523  15.947  1.00  0.00     0.031 C 
ATOM     65  C   UNL     1       1.384  -2.797  16.501  1.00  0.00     0.031 A 
BRANCH  52  66
ATOM     66  C   UNL     1       7.068  -2.323  14.118  1.00  0.00    -0.014 A 
ATOM     67  C   UNL     1       7.930  -1.214  14.114  1.00  0.00     0.009 A 
ATOM     68  C   UNL     1       7.609  -3.602  14.321  1.00  0.00     0.009 A 
ATOM     69  C   UNL     1       9.307  -1.388  14.270  1.00  0.00     0.001 A 
ATOM     70  C   UNL     1       8.982  -3.769  14.511  1.00  0.00     0.001 A 
ATOM     71  C   UNL     1       9.831  -2.664  14.475  1.00  0.00     0.000 A 
ENDBRANCH  52  66
BRANCH  53  72
ATOM     72  C   UNL     1      -2.697  -1.271  12.296  1.00  0.00    -0.014 A 
ATOM     73  C   UNL     1      -3.457  -0.308  12.979  1.00  0.00     0.009 A 
ATOM     74  C   UNL     1      -3.346  -2.127  11.393  1.00  0.00     0.009 A 
ATOM     75  C   UNL     1      -4.839  -0.228  12.785  1.00  0.00     0.001 A 
ATOM     76  C   UNL     1      -4.722  -2.023  11.177  1.00  0.00     0.001 A 
ATOM     77  C   UNL     1      -5.469  -1.082  11.882  1.00  0.00     0.000 A 
ENDBRANCH  53  72
BRANCH  65  78
ATOM     78  C   UNL     1       0.974  -3.166  17.902  1.00  0.00    -0.014 A 
ATOM     79  C   UNL     1       0.298  -4.364  18.181  1.00  0.00     0.009 A 
ATOM     80  C   UNL     1       1.294  -2.305  18.965  1.00  0.00     0.009 A 
ATOM     81  C   UNL     1      -0.091  -4.667  19.488  1.00  0.00     0.001 A 
ATOM     82  C   UNL     1       0.937  -2.629  20.274  1.00  0.00     0.001 A 
ATOM     83  C   UNL     1       0.231  -3.802  20.533  1.00  0.00     0.000 A 
ENDBRANCH  65  78
ENDBRANCH  39  40
ENDBRANCH  32  34
ENDBRANCH  31  32
ENDBRANCH  30  31
ENDBRANCH  29  30
ENDBRANCH  28  29
ENDBRANCH  27  28
ENDBRANCH  26  27
ENDBRANCH  25  26
ENDBRANCH  24  25
ENDBRANCH   1  24
TORSDOF 25
