REMARK SMILES COC(=O)c1c(NC(=O)[C@@H]2[C@H]3CC[C@H](CC3)[C@H]2C(=O)OCCOCCOCCOCCOC(=O)c2ccc(-c3c4nc(c(-c5ccccc5)c5ccc([nH]5)c(-c5ccccc5)c5nc(c(-c6ccccc6)c6ccc3[nH]6)C=C5)C=C4)cc2)sc(C)c1-c1ccc(C)cc1
REMARK SMILES IDX 25 1 24 2 23 3 22 4 21 5 20 6 18 7 19 8 17 9 10 10 11 11
REMARK SMILES IDX 12 12 16 13 14 14 13 15 15 16 8 17 7 18 9 20 6 21 5 22 86 23
REMARK SMILES IDX 83 24 84 25 85 26 3 27 4 28 2 29 1 30 87 31 88 32 93 33
REMARK SMILES IDX 89 34 92 35 90 36 91 37 26 38 27 39 28 40 29 41 30 42 31 43
REMARK SMILES IDX 32 44 33 45 34 46 35 47 36 48 82 49 37 50 81 51 38 52 39 53
REMARK SMILES IDX 40 54 75 55 41 56 80 57 74 58 76 59 42 60 79 61 73 62 72 63
REMARK SMILES IDX 43 65 65 66 50 67 64 68 51 69 54 70 63 71 77 72 52 73 53 74
REMARK SMILES IDX 62 76 78 77 55 78 44 79 45 80 49 81 46 82 48 83 47 84 66 85
REMARK SMILES IDX 67 86 71 87 68 88 70 89 69 90 56 91 57 92 61 93 58 94 60 95
REMARK SMILES IDX 59 96
REMARK H PARENT 7 19 76 64 54 75
REMARK Flexibility Score: inf
ROOT
ATOM      1  C   UNL     1       4.989   6.213  -5.971  1.00  0.00     0.188 C 
ENDROOT
BRANCH   1   2
ATOM      2  C   UNL     1       4.932   7.704  -5.653  1.00  0.00     0.188 C 
BRANCH   2   3
ATOM      3  O   UNL     1       4.948   7.973  -4.264  1.00  0.00    -0.376 OA
BRANCH   3   4
ATOM      4  C   UNL     1       3.728   8.118  -3.537  1.00  0.00     0.202 C 
BRANCH   4   5
ATOM      5  C   UNL     1       2.325   7.514  -3.887  1.00  0.00     0.261 C 
BRANCH   5   6
ATOM      6  O   UNL     1       2.158   6.271  -4.615  1.00  0.00    -0.463 OA
BRANCH   6   7
ATOM      7  C   UNL     1       2.005   6.398  -5.959  1.00  0.00     0.310 C 
ATOM      8  O   UNL     1       1.952   7.502  -6.506  1.00  0.00    -0.252 OA
BRANCH   7   9
ATOM      9  C   UNL     1       1.775   5.123  -6.806  1.00  0.00     0.115 C 
ATOM     10  C   UNL     1       2.302   3.647  -6.483  1.00  0.00     0.096 C 
ATOM     11  C   UNL     1       1.052   2.699  -6.561  1.00  0.00     0.002 C 
ATOM     12  C   UNL     1       0.060   3.133  -5.467  1.00  0.00     0.005 C 
ATOM     13  C   UNL     1       0.298   2.813  -7.918  1.00  0.00     0.005 C 
ATOM     14  C   UNL     1       0.233   5.126  -7.005  1.00  0.00     0.004 C 
ATOM     15  C   UNL     1      -0.456   4.546  -5.756  1.00  0.00     0.005 C 
ATOM     16  C   UNL     1      -0.088   4.261  -8.219  1.00  0.00     0.005 C 
BRANCH  10  17
ATOM     17  C   UNL     1       3.368   3.065  -7.496  1.00  0.00     0.229 C 
ATOM     18  N   UNL     1       4.407   2.166  -7.311  1.00  0.00    -0.317 N 
ATOM     19  H   UNL     1       4.651   1.704  -8.146  1.00  0.00     0.170 HD
ATOM     20  O   UNL     1       3.244   3.404  -8.690  1.00  0.00    -0.274 OA
BRANCH  18  21
ATOM     21  C   UNL     1       5.200   1.750  -6.223  1.00  0.00     0.111 A 
ATOM     22  C   UNL     1       6.960   1.554  -6.143  1.00  0.00     0.102 A 
ATOM     23  C   UNL     1       7.690   1.995  -4.394  1.00  0.00     0.012 A 
ATOM     24  S   UNL     1       4.287   2.134  -4.173  1.00  0.00    -0.122 S 
ATOM     25  C   UNL     1       6.384   2.404  -3.230  1.00  0.00     0.012 A 
ATOM     26  C   UNL     1       6.213   2.958  -1.850  1.00  0.00     0.057 C 
BRANCH  22  27
ATOM     27  C   UNL     1       7.827   1.256  -7.274  1.00  0.00     0.341 C 
ATOM     28  O   UNL     1       7.517   1.483  -8.434  1.00  0.00    -0.246 OA
BRANCH  27  29
ATOM     29  O   UNL     1       8.965   0.651  -6.853  1.00  0.00    -0.465 OA
ATOM     30  C   UNL     1       9.864   0.179  -7.853  1.00  0.00     0.282 C 
ENDBRANCH  27  29
ENDBRANCH  22  27
BRANCH  23  31
ATOM     31  C   UNL     1       9.096   1.796  -4.026  1.00  0.00    -0.016 A 
ATOM     32  C   UNL     1      10.076   2.776  -4.121  1.00  0.00     0.009 A 
ATOM     33  C   UNL     1       9.478   0.524  -3.596  1.00  0.00     0.009 A 
ATOM     34  C   UNL     1      11.366   2.518  -3.617  1.00  0.00     0.004 A 
ATOM     35  C   UNL     1      10.700   0.302  -2.980  1.00  0.00     0.004 A 
ATOM     36  C   UNL     1      11.650   1.313  -2.956  1.00  0.00    -0.051 A 
ATOM     37  C   UNL     1      12.950   1.054  -2.259  1.00  0.00     0.044 C 
ENDBRANCH  23  31
ENDBRANCH  18  21
ENDBRANCH  10  17
ENDBRANCH   7   9
ENDBRANCH   6   7
ENDBRANCH   5   6
ENDBRANCH   4   5
ENDBRANCH   3   4
ENDBRANCH   2   3
ENDBRANCH   1   2
BRANCH   1  38
ATOM     38  O   UNL     1       4.330   5.411  -5.006  1.00  0.00    -0.377 OA
BRANCH  38  39
ATOM     39  C   UNL     1       4.916   5.298  -3.713  1.00  0.00     0.188 C 
BRANCH  39  40
ATOM     40  C   UNL     1       6.433   5.292  -3.730  1.00  0.00     0.188 C 
BRANCH  40  41
ATOM     41  O   UNL     1       7.053   4.213  -4.439  1.00  0.00    -0.376 OA
BRANCH  41  42
ATOM     42  C   UNL     1       6.149   3.058  -5.037  1.00  0.00     0.202 C 
BRANCH  42  43
ATOM     43  C   UNL     1       6.056   0.912  -4.487  1.00  0.00     0.261 C 
BRANCH  43  44
ATOM     44  O   UNL     1       5.757   0.248  -2.975  1.00  0.00    -0.460 OA
BRANCH  44  45
ATOM     45  C   UNL     1       6.579   0.075  -1.898  1.00  0.00     0.338 C 
ATOM     46  O   UNL     1       7.774   0.220  -1.745  1.00  0.00    -0.246 OA
BRANCH  45  47
ATOM     47  C   UNL     1       5.762   0.059  -0.697  1.00  0.00     0.060 A 
ATOM     48  C   UNL     1       6.063   1.002   0.314  1.00  0.00     0.016 A 
ATOM     49  C   UNL     1       4.657  -0.772  -0.644  1.00  0.00     0.016 A 
ATOM     50  C   UNL     1       5.154   1.237   1.309  1.00  0.00     0.010 A 
ATOM     51  C   UNL     1       3.829  -0.657   0.447  1.00  0.00     0.010 A 
ATOM     52  C   UNL     1       4.102   0.332   1.409  1.00  0.00    -0.014 A 
BRANCH  52  53
ATOM     53  C   UNL     1       3.585   0.146   2.752  1.00  0.00     0.031 A 
ATOM     54  C   UNL     1       4.380  -0.779   3.616  1.00  0.00     0.074 A 
ATOM     55  C   UNL     1       2.513   0.841   3.135  1.00  0.00     0.049 A 
ATOM     56  N   UNL     1       4.120  -1.207   4.814  1.00  0.00    -0.248 NA
ATOM     57  C   UNL     1       5.647  -1.295   3.052  1.00  0.00     0.031 C 
ATOM     58  C   UNL     1       1.812   1.844   2.330  1.00  0.00     0.029 A 
ATOM     59  N   UNL     1       1.831   0.796   4.308  1.00  0.00    -0.354 N 
ATOM     60  C   UNL     1       5.176  -2.050   5.133  1.00  0.00     0.074 A 
ATOM     61  C   UNL     1       6.076  -2.091   4.013  1.00  0.00     0.031 C 
ATOM     62  C   UNL     1       0.767   2.305   3.038  1.00  0.00     0.029 A 
ATOM     63  C   UNL     1       0.713   1.584   4.304  1.00  0.00     0.049 A 
ATOM     64  H   UNL     1       2.112   0.254   5.080  1.00  0.00     0.167 HD
ATOM     65  C   UNL     1       5.352  -2.741   6.276  1.00  0.00     0.031 A 
ATOM     66  C   UNL     1      -0.256   1.649   5.229  1.00  0.00     0.031 A 
ATOM     67  C   UNL     1       4.386  -2.698   7.333  1.00  0.00     0.049 A 
ATOM     68  C   UNL     1      -0.095   0.776   6.443  1.00  0.00     0.074 A 
ATOM     69  C   UNL     1       4.386  -3.370   8.536  1.00  0.00     0.029 A 
ATOM     70  N   UNL     1       3.226  -1.931   7.288  1.00  0.00    -0.354 N 
ATOM     71  N   UNL     1       0.880  -0.053   6.746  1.00  0.00    -0.248 NA
ATOM     72  C   UNL     1      -1.158   0.854   7.446  1.00  0.00     0.031 C 
ATOM     73  C   UNL     1       3.188  -3.064   9.188  1.00  0.00     0.029 A 
ATOM     74  C   UNL     1       2.485  -2.131   8.433  1.00  0.00     0.049 A 
ATOM     75  H   UNL     1       2.971  -1.334   6.548  1.00  0.00     0.167 HD
ATOM     76  C   UNL     1       0.570  -0.570   7.994  1.00  0.00     0.074 A 
ATOM     77  C   UNL     1      -0.678   0.059   8.392  1.00  0.00     0.031 C 
ATOM     78  C   UNL     1       1.241  -1.474   8.755  1.00  0.00     0.031 A 
BRANCH  65  79
ATOM     79  C   UNL     1       6.553  -3.637   6.363  1.00  0.00    -0.014 A 
ATOM     80  C   UNL     1       7.862  -3.125   6.391  1.00  0.00     0.009 A 
ATOM     81  C   UNL     1       6.372  -5.028   6.372  1.00  0.00     0.009 A 
ATOM     82  C   UNL     1       8.961  -3.987   6.398  1.00  0.00     0.001 A 
ATOM     83  C   UNL     1       7.471  -5.887   6.415  1.00  0.00     0.001 A 
ATOM     84  C   UNL     1       8.764  -5.367   6.419  1.00  0.00     0.000 A 
ENDBRANCH  65  79
BRANCH  66  85
ATOM     85  C   UNL     1      -1.433   2.524   5.016  1.00  0.00    -0.014 A 
ATOM     86  C   UNL     1      -1.666   3.626   5.850  1.00  0.00     0.009 A 
ATOM     87  C   UNL     1      -2.326   2.274   3.960  1.00  0.00     0.009 A 
ATOM     88  C   UNL     1      -2.785   4.438   5.653  1.00  0.00     0.001 A 
ATOM     89  C   UNL     1      -3.425   3.107   3.744  1.00  0.00     0.001 A 
ATOM     90  C   UNL     1      -3.661   4.180   4.599  1.00  0.00     0.000 A 
ENDBRANCH  66  85
BRANCH  78  91
ATOM     91  C   UNL     1       0.652  -1.772  10.102  1.00  0.00    -0.014 A 
ATOM     92  C   UNL     1      -0.556  -2.470  10.239  1.00  0.00     0.009 A 
ATOM     93  C   UNL     1       1.346  -1.365  11.253  1.00  0.00     0.009 A 
ATOM     94  C   UNL     1      -1.091  -2.698  11.505  1.00  0.00     0.001 A 
ATOM     95  C   UNL     1       0.834  -1.640  12.517  1.00  0.00     0.001 A 
ATOM     96  C   UNL     1      -0.393  -2.289  12.642  1.00  0.00     0.000 A 
ENDBRANCH  78  91
ENDBRANCH  52  53
ENDBRANCH  45  47
ENDBRANCH  44  45
ENDBRANCH  43  44
ENDBRANCH  42  43
ENDBRANCH  41  42
ENDBRANCH  40  41
ENDBRANCH  39  40
ENDBRANCH  38  39
ENDBRANCH   1  38
TORSDOF 25
