REMARK SMILES C[C@@H]1CC[C@H](C)[N@H+]1Cc1cc2c(cc1Cl)C=C(C(=O)OCCOCCOCCOCCOC(=O)c1ccc(-c3c4nc(c(-c5ccccc5)c5ccc([nH]5)c(-c5ccccc5)c5nc(c(-c6ccccc6)c6ccc3[nH]6)C=C5)C=C4)cc1)[C@@H](C(F)(F)F)O2
REMARK SMILES IDX 26 1 25 2 24 3 23 4 22 5 21 6 20 7 18 8 19 9 17 10 9 11
REMARK SMILES IDX 10 12 14 13 11 14 13 15 15 16 12 17 88 18 16 19 83 20 8 21
REMARK SMILES IDX 7 22 6 23 5 24 4 25 3 26 2 27 1 29 84 30 85 31 86 32 87 33
REMARK SMILES IDX 27 34 28 35 29 36 30 37 31 38 32 39 33 40 34 41 35 42 36 43
REMARK SMILES IDX 82 44 37 45 81 46 38 47 39 48 40 49 75 50 41 51 80 52 74 53
REMARK SMILES IDX 76 54 42 55 79 56 73 57 72 58 43 60 65 61 50 62 64 63 51 64
REMARK SMILES IDX 54 65 63 66 77 67 52 68 53 69 62 71 78 72 55 73 44 74 45 75
REMARK SMILES IDX 49 76 46 77 48 78 47 79 66 80 67 81 71 82 68 83 70 84 69 85
REMARK SMILES IDX 56 86 57 87 61 88 58 89 60 90 59 91
REMARK H PARENT 7 28 76 59 54 70
REMARK Flexibility Score: inf
ROOT
ATOM      1  O   UNL     1      -0.198  -1.482  -9.633  1.00  0.00    -0.377 OA
ENDROOT
BRANCH   1   2
ATOM      2  C   UNL     1      -0.803  -0.346  -9.043  1.00  0.00     0.188 C 
BRANCH   2   3
ATOM      3  C   UNL     1      -1.053   0.827 -10.007  1.00  0.00     0.188 C 
BRANCH   3   4
ATOM      4  O   UNL     1      -0.913   0.473 -11.381  1.00  0.00    -0.376 OA
BRANCH   4   5
ATOM      5  C   UNL     1       0.240   0.957 -12.056  1.00  0.00     0.202 C 
BRANCH   5   6
ATOM      6  C   UNL     1       1.567   0.272 -11.693  1.00  0.00     0.261 C 
BRANCH   6   7
ATOM      7  O   UNL     1       1.902   0.320 -10.297  1.00  0.00    -0.460 OA
BRANCH   7   8
ATOM      8  C   UNL     1       2.174   1.539  -9.796  1.00  0.00     0.338 C 
ATOM      9  O   UNL     1       2.268   2.577 -10.428  1.00  0.00    -0.246 OA
BRANCH   8  10
ATOM     10  C   UNL     1       2.168   1.462  -8.321  1.00  0.00     0.087 C 
ATOM     11  C   UNL     1       1.902   2.645  -3.433  1.00  0.00     0.029 A 
ATOM     12  C   UNL     1       2.255   1.472  -4.146  1.00  0.00     0.058 A 
ATOM     13  C   UNL     1       1.442   3.742  -4.182  1.00  0.00     0.050 A 
ATOM     14  C   UNL     1       2.158   1.410  -5.543  1.00  0.00     0.128 A 
ATOM     15  C   UNL     1       1.235   3.635  -5.559  1.00  0.00     0.033 A 
ATOM     16  Cl  UNL     1       1.262   5.337  -3.538  1.00  0.00    -0.084 Cl
ATOM     17  C   UNL     1       1.621   2.486  -6.243  1.00  0.00     0.019 A 
ATOM     18  O   UNL     1       2.619   0.278  -6.159  1.00  0.00    -0.475 OA
ATOM     19  C   UNL     1       1.555   2.468  -7.689  1.00  0.00     0.027 C 
ATOM     20  C   UNL     1       2.817   0.304  -7.609  1.00  0.00     0.316 C 
BRANCH  11  21
ATOM     21  C   UNL     1       2.118   2.691  -1.926  1.00  0.00     0.301 C 
BRANCH  21  22
ATOM     22  N   UNL     1       0.982   2.383  -1.047  1.00  0.00    -0.327 N 
ATOM     23  C   UNL     1       1.056   0.095  -0.122  1.00  0.00     0.075 C 
ATOM     24  C   UNL     1       0.417   1.032  -1.140  1.00  0.00     0.181 C 
ATOM     25  C   UNL     1      -1.077   1.207  -0.868  1.00  0.00     0.071 C 
ATOM     26  C   UNL     1      -1.356   2.603  -1.378  1.00  0.00     0.071 C 
ATOM     27  C   UNL     1      -0.098   3.370  -0.998  1.00  0.00     0.181 C 
ATOM     28  H   UNL     1       1.478   2.435  -0.157  1.00  0.00     0.348 HD
ATOM     29  C   UNL     1      -0.178   3.971   0.406  1.00  0.00     0.075 C 
ENDBRANCH  21  22
ENDBRANCH  11  21
BRANCH  20  30
ATOM     30  C   UNL     1       4.316   0.227  -7.935  1.00  0.00     0.430 C 
ATOM     31  F   UNL     1       4.919  -0.788  -7.273  1.00  0.00    -0.167 F 
ATOM     32  F   UNL     1       4.528   0.009  -9.255  1.00  0.00    -0.167 F 
ATOM     33  F   UNL     1       4.964   1.368  -7.608  1.00  0.00    -0.167 F 
ENDBRANCH  20  30
ENDBRANCH   8  10
ENDBRANCH   7   8
ENDBRANCH   6   7
ENDBRANCH   5   6
ENDBRANCH   4   5
ENDBRANCH   3   4
ENDBRANCH   2   3
ENDBRANCH   1   2
BRANCH   1  34
ATOM     34  C   UNL     1      -0.967  -2.270 -10.543  1.00  0.00     0.188 C 
BRANCH  34  35
ATOM     35  C   UNL     1      -2.409  -1.901 -10.967  1.00  0.00     0.188 C 
BRANCH  35  36
ATOM     36  O   UNL     1      -3.187  -1.290  -9.945  1.00  0.00    -0.376 OA
BRANCH  36  37
ATOM     37  C   UNL     1      -4.253  -2.060  -9.408  1.00  0.00     0.202 C 
BRANCH  37  38
ATOM     38  C   UNL     1      -3.798  -3.138  -8.419  1.00  0.00     0.261 C 
BRANCH  38  39
ATOM     39  O   UNL     1      -2.930  -4.142  -8.968  1.00  0.00    -0.460 OA
BRANCH  39  40
ATOM     40  C   UNL     1      -3.400  -4.899  -9.984  1.00  0.00     0.338 C 
ATOM     41  O   UNL     1      -4.511  -4.867 -10.480  1.00  0.00    -0.246 OA
BRANCH  40  42
ATOM     42  C   UNL     1      -2.246  -5.640 -10.535  1.00  0.00     0.060 A 
ATOM     43  C   UNL     1      -1.425  -6.388  -9.687  1.00  0.00     0.016 A 
ATOM     44  C   UNL     1      -1.944  -5.527 -11.898  1.00  0.00     0.016 A 
ATOM     45  C   UNL     1      -0.312  -7.046 -10.209  1.00  0.00     0.010 A 
ATOM     46  C   UNL     1      -0.822  -6.177 -12.418  1.00  0.00     0.010 A 
ATOM     47  C   UNL     1      -0.012  -6.959 -11.580  1.00  0.00    -0.014 A 
BRANCH  47  48
ATOM     48  C   UNL     1       1.016  -7.856 -12.156  1.00  0.00     0.031 A 
ATOM     49  C   UNL     1       2.410  -7.399 -12.454  1.00  0.00     0.074 A 
ATOM     50  C   UNL     1       0.655  -9.131 -12.397  1.00  0.00     0.049 A 
ATOM     51  N   UNL     1       3.432  -8.114 -12.852  1.00  0.00    -0.248 NA
ATOM     52  C   UNL     1       2.699  -5.968 -12.290  1.00  0.00     0.031 C 
ATOM     53  C   UNL     1      -0.682  -9.677 -12.155  1.00  0.00     0.029 A 
ATOM     54  N   UNL     1       1.371 -10.195 -12.880  1.00  0.00    -0.354 N 
ATOM     55  C   UNL     1       4.495  -7.229 -12.965  1.00  0.00     0.074 A 
ATOM     56  C   UNL     1       3.981  -5.915 -12.636  1.00  0.00     0.031 C 
ATOM     57  C   UNL     1      -0.682 -10.981 -12.463  1.00  0.00     0.029 A 
ATOM     58  C   UNL     1       0.643 -11.356 -12.948  1.00  0.00     0.049 A 
ATOM     59  H   UNL     1       2.316 -10.132 -13.151  1.00  0.00     0.167 HD
ATOM     60  C   UNL     1       5.780  -7.500 -13.299  1.00  0.00     0.031 A 
ATOM     61  C   UNL     1       0.996 -12.592 -13.347  1.00  0.00     0.031 A 
ATOM     62  C   UNL     1       6.271  -8.811 -13.650  1.00  0.00     0.049 A 
ATOM     63  C   UNL     1       2.414 -12.851 -13.765  1.00  0.00     0.074 A 
ATOM     64  C   UNL     1       7.570  -9.186 -13.951  1.00  0.00     0.029 A 
ATOM     65  N   UNL     1       5.491  -9.951 -13.767  1.00  0.00    -0.354 N 
ATOM     66  N   UNL     1       3.429 -12.023 -13.781  1.00  0.00    -0.248 NA
ATOM     67  C   UNL     1       2.740 -14.214 -14.206  1.00  0.00     0.031 C 
ATOM     68  C   UNL     1       7.563 -10.532 -14.325  1.00  0.00     0.029 A 
ATOM     69  C   UNL     1       6.274 -11.018 -14.180  1.00  0.00     0.049 A 
ATOM     70  H   UNL     1       4.525  -9.997 -13.583  1.00  0.00     0.167 HD
ATOM     71  C   UNL     1       4.518 -12.766 -14.215  1.00  0.00     0.074 A 
ATOM     72  C   UNL     1       4.043 -14.117 -14.433  1.00  0.00     0.031 C 
ATOM     73  C   UNL     1       5.795 -12.359 -14.412  1.00  0.00     0.031 A 
BRANCH  60  74
ATOM     74  C   UNL     1       6.774  -6.370 -13.298  1.00  0.00    -0.014 A 
ATOM     75  C   UNL     1       7.376  -5.963 -14.500  1.00  0.00     0.009 A 
ATOM     76  C   UNL     1       7.218  -5.803 -12.093  1.00  0.00     0.009 A 
ATOM     77  C   UNL     1       8.415  -5.030 -14.495  1.00  0.00     0.001 A 
ATOM     78  C   UNL     1       8.239  -4.849 -12.093  1.00  0.00     0.001 A 
ATOM     79  C   UNL     1       8.844  -4.472 -13.292  1.00  0.00     0.000 A 
ENDBRANCH  60  74
BRANCH  61  80
ATOM     80  C   UNL     1      -0.018 -13.677 -13.317  1.00  0.00    -0.014 A 
ATOM     81  C   UNL     1      -1.114 -13.652 -14.197  1.00  0.00     0.009 A 
ATOM     82  C   UNL     1       0.060 -14.698 -12.360  1.00  0.00     0.009 A 
ATOM     83  C   UNL     1      -2.124 -14.611 -14.099  1.00  0.00     0.001 A 
ATOM     84  C   UNL     1      -0.936 -15.674 -12.286  1.00  0.00     0.001 A 
ATOM     85  C   UNL     1      -2.032 -15.623 -13.146  1.00  0.00     0.000 A 
ENDBRANCH  61  80
BRANCH  73  86
ATOM     86  C   UNL     1       6.791 -13.377 -14.897  1.00  0.00    -0.014 A 
ATOM     87  C   UNL     1       7.842 -13.783 -14.058  1.00  0.00     0.009 A 
ATOM     88  C   UNL     1       6.753 -13.855 -16.215  1.00  0.00     0.009 A 
ATOM     89  C   UNL     1       8.845 -14.629 -14.534  1.00  0.00     0.001 A 
ATOM     90  C   UNL     1       7.741 -14.726 -16.680  1.00  0.00     0.001 A 
ATOM     91  C   UNL     1       8.792 -15.102 -15.844  1.00  0.00     0.000 A 
ENDBRANCH  73  86
ENDBRANCH  47  48
ENDBRANCH  40  42
ENDBRANCH  39  40
ENDBRANCH  38  39
ENDBRANCH  37  38
ENDBRANCH  36  37
ENDBRANCH  35  36
ENDBRANCH  34  35
ENDBRANCH   1  34
TORSDOF 23
