REMARK SMILES Cc1cc(NC(=O)CC(C)(C)CC(=O)OCCOCCOCCOCCOC(=O)c2ccc(-c3c4nc(c(-c5ccccc5)c5ccc([nH]5)c(-c5ccccc5)c5nc(c(-c6ccccc6)c6ccc3[nH]6)C=C5)C=C4)cc2)ncc1Br
REMARK SMILES IDX 20 1 19 2 18 3 17 4 16 5 15 6 13 7 14 8 12 9 9 10 10 11
REMARK SMILES IDX 11 12 8 13 6 14 5 15 7 17 4 18 1 19 2 20 3 21 80 22 79 23
REMARK SMILES IDX 81 24 78 25 21 26 22 27 23 28 24 29 25 30 26 31 27 32 28 33
REMARK SMILES IDX 29 34 30 35 31 36 77 37 32 38 76 39 33 40 34 41 35 42 70 43
REMARK SMILES IDX 36 44 75 45 69 46 71 47 37 48 74 49 68 50 67 51 38 53 60 54
REMARK SMILES IDX 45 55 59 56 46 57 49 58 58 59 72 60 47 61 48 62 57 64 73 65
REMARK SMILES IDX 50 66 39 67 40 68 44 69 41 70 43 71 42 72 61 73 62 74 66 75
REMARK SMILES IDX 63 76 65 77 64 78 51 79 52 80 56 81 53 82 55 83 54 84
REMARK H PARENT 5 16 71 52 49 63
REMARK Flexibility Score: inf
ROOT
ATOM      1  C   UNL     1       0.374  -9.416   2.280  1.00  0.00     0.188 C 
ENDROOT
BRANCH   1   2
ATOM      2  C   UNL     1       1.407 -10.087   3.190  1.00  0.00     0.188 C 
BRANCH   2   3
ATOM      3  O   UNL     1       0.913 -11.088   4.074  1.00  0.00    -0.376 OA
BRANCH   3   4
ATOM      4  C   UNL     1       0.010 -10.672   5.103  1.00  0.00     0.202 C 
BRANCH   4   5
ATOM      5  C   UNL     1       0.375  -9.421   5.927  1.00  0.00     0.261 C 
BRANCH   5   6
ATOM      6  O   UNL     1       0.266  -8.191   5.168  1.00  0.00    -0.463 OA
BRANCH   6   7
ATOM      7  C   UNL     1       1.299  -7.323   5.252  1.00  0.00     0.306 C 
ATOM      8  O   UNL     1       2.242  -7.463   6.027  1.00  0.00    -0.252 OA
BRANCH   7   9
ATOM      9  C   UNL     1       1.325  -6.240   4.175  1.00  0.00     0.129 C 
BRANCH   9  10
ATOM     10  C   UNL     1       0.088  -5.411   3.705  1.00  0.00    -0.016 C 
ATOM     11  C   UNL     1       0.471  -3.917   3.827  1.00  0.00     0.012 C 
ATOM     12  C   UNL     1      -1.155  -5.610   4.594  1.00  0.00     0.012 C 
BRANCH  10  13
ATOM     13  C   UNL     1      -0.339  -5.724   2.231  1.00  0.00     0.107 C 
BRANCH  13  14
ATOM     14  C   UNL     1       0.715  -5.576   1.134  1.00  0.00     0.226 C 
ATOM     15  N   UNL     1       0.959  -4.412   0.480  1.00  0.00    -0.311 N 
ATOM     16  H   UNL     1       1.726  -4.437  -0.137  1.00  0.00     0.171 HD
ATOM     17  O   UNL     1       1.438  -6.532   0.826  1.00  0.00    -0.275 OA
BRANCH  15  18
ATOM     18  C   UNL     1       0.299  -3.190   0.541  1.00  0.00     0.132 A 
ATOM     19  C   UNL     1       1.232   0.403  -0.182  1.00  0.00     0.046 C 
ATOM     20  C   UNL     1       0.445  -0.790   0.276  1.00  0.00    -0.032 A 
ATOM     21  C   UNL     1       0.984  -2.072   0.076  1.00  0.00     0.051 A 
ATOM     22  C   UNL     1      -0.816  -0.696   0.870  1.00  0.00     0.039 A 
ATOM     23  C   UNL     1      -1.458  -1.870   1.231  1.00  0.00     0.129 A 
ATOM     24  Br  UNL     1      -1.676   0.947   1.234  1.00  0.00    -0.049 Br
ATOM     25  N   UNL     1      -0.924  -3.103   1.081  1.00  0.00    -0.238 NA
ENDBRANCH  15  18
ENDBRANCH  13  14
ENDBRANCH  10  13
ENDBRANCH   9  10
ENDBRANCH   7   9
ENDBRANCH   6   7
ENDBRANCH   5   6
ENDBRANCH   4   5
ENDBRANCH   3   4
ENDBRANCH   2   3
ENDBRANCH   1   2
BRANCH   1  26
ATOM     26  O   UNL     1      -0.779  -8.983   2.982  1.00  0.00    -0.377 OA
BRANCH  26  27
ATOM     27  C   UNL     1      -2.074  -9.407   2.583  1.00  0.00     0.188 C 
BRANCH  27  28
ATOM     28  C   UNL     1      -2.176 -10.557   1.580  1.00  0.00     0.188 C 
BRANCH  28  29
ATOM     29  O   UNL     1      -1.830 -10.282   0.220  1.00  0.00    -0.376 OA
BRANCH  29  30
ATOM     30  C   UNL     1      -1.927  -8.944  -0.261  1.00  0.00     0.202 C 
BRANCH  30  31
ATOM     31  C   UNL     1      -3.331  -8.502  -0.681  1.00  0.00     0.261 C 
BRANCH  31  32
ATOM     32  O   UNL     1      -4.231  -8.400   0.434  1.00  0.00    -0.460 OA
BRANCH  32  33
ATOM     33  C   UNL     1      -5.059  -9.453   0.622  1.00  0.00     0.338 C 
ATOM     34  O   UNL     1      -5.151 -10.462  -0.058  1.00  0.00    -0.246 OA
BRANCH  33  35
ATOM     35  C   UNL     1      -5.763  -9.273   1.905  1.00  0.00     0.060 A 
ATOM     36  C   UNL     1      -6.426  -8.077   2.185  1.00  0.00     0.016 A 
ATOM     37  C   UNL     1      -5.794 -10.336   2.816  1.00  0.00     0.016 A 
ATOM     38  C   UNL     1      -7.150  -7.959   3.370  1.00  0.00     0.010 A 
ATOM     39  C   UNL     1      -6.516 -10.216   4.004  1.00  0.00     0.010 A 
ATOM     40  C   UNL     1      -7.221  -9.035   4.273  1.00  0.00    -0.014 A 
BRANCH  40  41
ATOM     41  C   UNL     1      -8.184  -8.980   5.396  1.00  0.00     0.031 A 
ATOM     42  C   UNL     1      -7.745  -8.732   6.803  1.00  0.00     0.074 A 
ATOM     43  C   UNL     1      -9.488  -9.156   5.108  1.00  0.00     0.049 A 
ATOM     44  N   UNL     1      -8.486  -8.529   7.862  1.00  0.00    -0.248 NA
ATOM     45  C   UNL     1      -6.298  -8.710   7.061  1.00  0.00     0.031 C 
ATOM     46  C   UNL     1     -10.015  -9.437   3.770  1.00  0.00     0.029 A 
ATOM     47  N   UNL     1     -10.603  -9.105   5.904  1.00  0.00    -0.354 N 
ATOM     48  C   UNL     1      -7.599  -8.331   8.911  1.00  0.00     0.074 A 
ATOM     49  C   UNL     1      -6.265  -8.489   8.370  1.00  0.00     0.031 C 
ATOM     50  C   UNL     1     -11.353  -9.488   3.830  1.00  0.00     0.029 A 
ATOM     51  C   UNL     1     -11.777  -9.280   5.212  1.00  0.00     0.049 A 
ATOM     52  H   UNL     1     -10.566  -8.959   6.877  1.00  0.00     0.167 HD
ATOM     53  C   UNL     1      -7.883  -8.029  10.200  1.00  0.00     0.031 A 
ATOM     54  C   UNL     1     -13.055  -9.261   5.634  1.00  0.00     0.031 A 
ATOM     55  C   UNL     1      -9.221  -7.906  10.725  1.00  0.00     0.049 A 
ATOM     56  C   UNL     1     -13.340  -8.966   7.079  1.00  0.00     0.074 A 
ATOM     57  C   UNL     1      -9.608  -7.561  12.009  1.00  0.00     0.029 A 
ATOM     58  N   UNL     1     -10.384  -8.139  10.007  1.00  0.00    -0.354 N 
ATOM     59  N   UNL     1     -12.495  -8.686   8.041  1.00  0.00    -0.248 NA
ATOM     60  C   UNL     1     -14.749  -8.965   7.494  1.00  0.00     0.031 C 
ATOM     61  C   UNL     1     -10.997  -7.666  12.089  1.00  0.00     0.029 A 
ATOM     62  C   UNL     1     -11.487  -7.986  10.833  1.00  0.00     0.049 A 
ATOM     63  H   UNL     1     -10.422  -8.377   9.052  1.00  0.00     0.167 HD
ATOM     64  C   UNL     1     -13.268  -8.455   9.171  1.00  0.00     0.074 A 
ATOM     65  C   UNL     1     -14.651  -8.606   8.768  1.00  0.00     0.031 C 
ATOM     66  C   UNL     1     -12.862  -8.146  10.427  1.00  0.00     0.031 A 
BRANCH  53  67
ATOM     67  C   UNL     1      -6.737  -7.800  11.150  1.00  0.00    -0.014 A 
ATOM     68  C   UNL     1      -6.548  -8.662  12.243  1.00  0.00     0.009 A 
ATOM     69  C   UNL     1      -5.924  -6.661  11.039  1.00  0.00     0.009 A 
ATOM     70  C   UNL     1      -5.587  -8.377  13.215  1.00  0.00     0.001 A 
ATOM     71  C   UNL     1      -4.942  -6.395  11.996  1.00  0.00     0.001 A 
ATOM     72  C   UNL     1      -4.783  -7.246  13.089  1.00  0.00     0.000 A 
ENDBRANCH  53  67
BRANCH  54  73
ATOM     73  C   UNL     1     -14.146  -9.482   4.648  1.00  0.00    -0.014 A 
ATOM     74  C   UNL     1     -14.291 -10.726   4.010  1.00  0.00     0.009 A 
ATOM     75  C   UNL     1     -14.998  -8.431   4.278  1.00  0.00     0.009 A 
ATOM     76  C   UNL     1     -15.240 -10.902   3.001  1.00  0.00     0.001 A 
ATOM     77  C   UNL     1     -15.971  -8.621   3.293  1.00  0.00     0.001 A 
ATOM     78  C   UNL     1     -16.082  -9.851   2.646  1.00  0.00     0.000 A 
ENDBRANCH  54  73
BRANCH  66  79
ATOM     79  C   UNL     1     -13.919  -7.942  11.481  1.00  0.00    -0.014 A 
ATOM     80  C   UNL     1     -14.083  -6.676  12.068  1.00  0.00     0.009 A 
ATOM     81  C   UNL     1     -14.667  -9.020  11.978  1.00  0.00     0.009 A 
ATOM     82  C   UNL     1     -14.952  -6.499  13.146  1.00  0.00     0.001 A 
ATOM     83  C   UNL     1     -15.564  -8.832  13.032  1.00  0.00     0.001 A 
ATOM     84  C   UNL     1     -15.695  -7.577  13.624  1.00  0.00     0.000 A 
ENDBRANCH  66  79
ENDBRANCH  40  41
ENDBRANCH  33  35
ENDBRANCH  32  33
ENDBRANCH  31  32
ENDBRANCH  30  31
ENDBRANCH  29  30
ENDBRANCH  28  29
ENDBRANCH  27  28
ENDBRANCH  26  27
ENDBRANCH   1  26
TORSDOF 24
