REMARK SMILES CC(C)(C)c1cc2c(cc1Cl)C=C(C(=O)OCCOCCOCCOCCOC(=O)c1ccc(-c3c4nc(c(-c5ccccc5)c5ccc([nH]5)c(-c5ccccc5)c5nc(c(-c6ccccc6)c6ccc3[nH]6)C=C5)C=C4)cc1)[C@@H](C(F)(F)F)O2
REMARK SMILES IDX 23 1 22 2 21 3 20 4 19 5 18 6 17 7 16 8 14 9 15 10 13 11
REMARK SMILES IDX 5 12 6 13 10 14 7 15 9 16 11 17 8 18 84 19 12 20 79 21 2 22
REMARK SMILES IDX 1 23 3 24 4 25 80 26 81 27 82 28 83 29 24 30 25 31 26 32
REMARK SMILES IDX 27 33 28 34 29 35 30 36 31 37 32 38 78 39 33 40 77 41 34 42
REMARK SMILES IDX 35 43 36 44 71 45 37 46 76 47 70 48 72 49 38 50 75 51 69 52
REMARK SMILES IDX 68 53 39 55 61 56 46 57 60 58 47 59 50 60 59 61 73 62 48 63
REMARK SMILES IDX 49 64 58 66 74 67 51 68 40 69 41 70 45 71 42 72 44 73 43 74
REMARK SMILES IDX 62 75 63 76 67 77 64 78 66 79 65 80 52 81 53 82 57 83 54 84
REMARK SMILES IDX 56 85 55 86
REMARK H PARENT 72 54 50 65
REMARK Flexibility Score: inf
ROOT
ATOM      1  C   UNL     1       4.277   8.777  -5.273  1.00  0.00     0.188 C 
ENDROOT
BRANCH   1   2
ATOM      2  O   UNL     1       3.309   7.742  -5.099  1.00  0.00    -0.377 OA
BRANCH   2   3
ATOM      3  C   UNL     1       3.691   6.419  -5.436  1.00  0.00     0.188 C 
BRANCH   3   4
ATOM      4  C   UNL     1       3.622   6.137  -6.948  1.00  0.00     0.188 C 
BRANCH   4   5
ATOM      5  O   UNL     1       3.427   7.314  -7.731  1.00  0.00    -0.376 OA
BRANCH   5   6
ATOM      6  C   UNL     1       2.118   7.541  -8.240  1.00  0.00     0.202 C 
BRANCH   6   7
ATOM      7  C   UNL     1       1.040   7.914  -7.211  1.00  0.00     0.261 C 
BRANCH   7   8
ATOM      8  O   UNL     1       0.825   6.936  -6.182  1.00  0.00    -0.460 OA
BRANCH   8   9
ATOM      9  C   UNL     1       0.347   5.736  -6.560  1.00  0.00     0.338 C 
ATOM     10  O   UNL     1      -0.003   5.407  -7.680  1.00  0.00    -0.246 OA
BRANCH   9  11
ATOM     11  C   UNL     1       0.473   4.814  -5.412  1.00  0.00     0.087 C 
ATOM     12  C   UNL     1       0.962   0.728  -2.481  1.00  0.00    -0.020 A 
ATOM     13  C   UNL     1       0.559   2.078  -2.293  1.00  0.00     0.053 A 
ATOM     14  C   UNL     1       1.595   0.444  -3.708  1.00  0.00     0.045 A 
ATOM     15  C   UNL     1       0.636   3.040  -3.303  1.00  0.00     0.128 A 
ATOM     16  C   UNL     1       1.665   1.414  -4.726  1.00  0.00     0.032 A 
ATOM     17  Cl  UNL     1       2.331  -1.060  -4.134  1.00  0.00    -0.084 Cl
ATOM     18  C   UNL     1       1.130   2.689  -4.548  1.00  0.00     0.019 A 
ATOM     19  O   UNL     1       0.157   4.278  -2.993  1.00  0.00    -0.475 OA
ATOM     20  C   UNL     1       1.012   3.614  -5.660  1.00  0.00     0.027 C 
ATOM     21  C   UNL     1       0.072   5.287  -4.038  1.00  0.00     0.316 C 
BRANCH  12  22
ATOM     22  C   UNL     1       0.549  -0.276  -1.374  1.00  0.00    -0.012 C 
ATOM     23  C   UNL     1       1.117   0.160  -0.003  1.00  0.00     0.016 C 
ATOM     24  C   UNL     1       0.950  -1.754  -1.552  1.00  0.00     0.016 C 
ATOM     25  C   UNL     1      -1.003  -0.273  -1.300  1.00  0.00     0.016 C 
ENDBRANCH  12  22
BRANCH  21  26
ATOM     26  C   UNL     1      -1.349   5.871  -4.003  1.00  0.00     0.430 C 
ATOM     27  F   UNL     1      -1.689   6.255  -2.748  1.00  0.00    -0.167 F 
ATOM     28  F   UNL     1      -1.474   6.965  -4.788  1.00  0.00    -0.167 F 
ATOM     29  F   UNL     1      -2.271   4.971  -4.415  1.00  0.00    -0.167 F 
ENDBRANCH  21  26
ENDBRANCH   9  11
ENDBRANCH   8   9
ENDBRANCH   7   8
ENDBRANCH   6   7
ENDBRANCH   5   6
ENDBRANCH   4   5
ENDBRANCH   3   4
ENDBRANCH   2   3
ENDBRANCH   1   2
BRANCH   1  30
ATOM     30  C   UNL     1       5.508   8.603  -6.192  1.00  0.00     0.188 C 
BRANCH  30  31
ATOM     31  O   UNL     1       6.197   7.367  -6.012  1.00  0.00    -0.376 OA
BRANCH  31  32
ATOM     32  C   UNL     1       7.470   7.432  -5.382  1.00  0.00     0.202 C 
BRANCH  32  33
ATOM     33  C   UNL     1       7.391   7.566  -3.857  1.00  0.00     0.261 C 
BRANCH  33  34
ATOM     34  O   UNL     1       6.773   8.775  -3.389  1.00  0.00    -0.460 OA
BRANCH  34  35
ATOM     35  C   UNL     1       7.335   9.947  -3.756  1.00  0.00     0.338 C 
ATOM     36  O   UNL     1       8.366  10.107  -4.384  1.00  0.00    -0.246 OA
BRANCH  35  37
ATOM     37  C   UNL     1       6.367  11.020  -3.444  1.00  0.00     0.060 A 
ATOM     38  C   UNL     1       5.767  11.089  -2.184  1.00  0.00     0.016 A 
ATOM     39  C   UNL     1       6.037  11.948  -4.440  1.00  0.00     0.016 A 
ATOM     40  C   UNL     1       4.869  12.120  -1.905  1.00  0.00     0.010 A 
ATOM     41  C   UNL     1       5.133  12.976  -4.162  1.00  0.00     0.010 A 
ATOM     42  C   UNL     1       4.571  13.088  -2.882  1.00  0.00    -0.014 A 
BRANCH  42  43
ATOM     43  C   UNL     1       3.884  14.336  -2.476  1.00  0.00     0.031 A 
ATOM     44  C   UNL     1       2.429  14.580  -2.726  1.00  0.00     0.074 A 
ATOM     45  C   UNL     1       4.631  15.270  -1.858  1.00  0.00     0.049 A 
ATOM     46  N   UNL     1       1.690  15.577  -2.309  1.00  0.00    -0.248 NA
ATOM     47  C   UNL     1       1.712  13.595  -3.546  1.00  0.00     0.031 C 
ATOM     48  C   UNL     1       6.067  15.149  -1.594  1.00  0.00     0.029 A 
ATOM     49  N   UNL     1       4.294  16.489  -1.330  1.00  0.00    -0.354 N 
ATOM     50  C   UNL     1       0.413  15.334  -2.795  1.00  0.00     0.074 A 
ATOM     51  C   UNL     1       0.489  14.116  -3.576  1.00  0.00     0.031 C 
ATOM     52  C   UNL     1       6.481  16.234  -0.926  1.00  0.00     0.029 A 
ATOM     53  C   UNL     1       5.349  17.135  -0.734  1.00  0.00     0.049 A 
ATOM     54  H   UNL     1       3.385  16.864  -1.373  1.00  0.00     0.167 HD
ATOM     55  C   UNL     1      -0.713  16.058  -2.590  1.00  0.00     0.031 A 
ATOM     56  C   UNL     1       5.406  18.315  -0.091  1.00  0.00     0.031 A 
ATOM     57  C   UNL     1      -0.768  17.285  -1.831  1.00  0.00     0.049 A 
ATOM     58  C   UNL     1       4.149  19.112   0.091  1.00  0.00     0.074 A 
ATOM     59  C   UNL     1      -1.879  18.052  -1.520  1.00  0.00     0.029 A 
ATOM     60  N   UNL     1       0.328  17.935  -1.285  1.00  0.00    -0.354 N 
ATOM     61  N   UNL     1       2.928  18.817  -0.286  1.00  0.00    -0.248 NA
ATOM     62  C   UNL     1       4.271  20.392   0.800  1.00  0.00     0.031 C 
ATOM     63  C   UNL     1      -1.447  19.200  -0.851  1.00  0.00     0.029 A 
ATOM     64  C   UNL     1      -0.075  19.115  -0.678  1.00  0.00     0.049 A 
ATOM     65  H   UNL     1       1.256  17.607  -1.322  1.00  0.00     0.167 HD
ATOM     66  C   UNL     1       2.134  19.869   0.149  1.00  0.00     0.074 A 
ATOM     67  C   UNL     1       3.007  20.795   0.842  1.00  0.00     0.031 C 
ATOM     68  C   UNL     1       0.801  20.048  -0.015  1.00  0.00     0.031 A 
BRANCH  55  69
ATOM     69  C   UNL     1      -2.003  15.554  -3.179  1.00  0.00    -0.014 A 
ATOM     70  C   UNL     1      -2.650  16.289  -4.186  1.00  0.00     0.009 A 
ATOM     71  C   UNL     1      -2.648  14.429  -2.642  1.00  0.00     0.009 A 
ATOM     72  C   UNL     1      -3.922  15.919  -4.630  1.00  0.00     0.001 A 
ATOM     73  C   UNL     1      -3.909  14.046  -3.106  1.00  0.00     0.001 A 
ATOM     74  C   UNL     1      -4.549  14.797  -4.091  1.00  0.00     0.000 A 
ENDBRANCH  55  69
BRANCH  56  75
ATOM     75  C   UNL     1       6.705  18.772   0.465  1.00  0.00    -0.014 A 
ATOM     76  C   UNL     1       7.753  19.149  -0.391  1.00  0.00     0.009 A 
ATOM     77  C   UNL     1       6.927  18.762   1.849  1.00  0.00     0.009 A 
ATOM     78  C   UNL     1       9.005  19.482   0.128  1.00  0.00     0.001 A 
ATOM     79  C   UNL     1       8.173  19.125   2.366  1.00  0.00     0.001 A 
ATOM     80  C   UNL     1       9.213  19.474   1.506  1.00  0.00     0.000 A 
ENDBRANCH  56  75
BRANCH  68  81
ATOM     81  C   UNL     1       0.193  21.303   0.549  1.00  0.00    -0.014 A 
ATOM     82  C   UNL     1      -0.701  21.228   1.629  1.00  0.00     0.009 A 
ATOM     83  C   UNL     1       0.445  22.554  -0.037  1.00  0.00     0.009 A 
ATOM     84  C   UNL     1      -1.339  22.376   2.102  1.00  0.00     0.001 A 
ATOM     85  C   UNL     1      -0.170  23.705   0.459  1.00  0.00     0.001 A 
ATOM     86  C   UNL     1      -1.069  23.614   1.522  1.00  0.00     0.000 A 
ENDBRANCH  68  81
ENDBRANCH  42  43
ENDBRANCH  35  37
ENDBRANCH  34  35
ENDBRANCH  33  34
ENDBRANCH  32  33
ENDBRANCH  31  32
ENDBRANCH  30  31
ENDBRANCH   1  30
TORSDOF 22
