REMARK SMILES CC(C)[C@@H]1C(=O)Nc2ccccc2N1C(=O)N[C@H](Cc1ccccc1)C(=O)OCCOCCOCCOCCOC(=O)c1ccc(-c2c3nc(c(-c4ccccc4)c4ccc([nH]4)c(-c4ccccc4)c4nc(c(-c5ccccc5)c5ccc2[nH]5)C=C4)C=C3)cc1
REMARK SMILES IDX 33 1 32 2 31 3 30 4 29 5 28 6 26 7 27 8 18 9 17 10 15 11
REMARK SMILES IDX 16 12 14 14 4 15 5 16 6 17 7 18 13 19 8 20 12 22 9 23 11 24
REMARK SMILES IDX 10 25 2 26 1 27 3 28 19 29 20 30 21 31 25 32 22 33 24 34
REMARK SMILES IDX 23 35 34 36 35 37 36 38 37 39 38 40 39 41 40 42 41 43 42 44
REMARK SMILES IDX 43 45 44 46 90 47 45 48 89 49 46 50 47 51 48 52 83 53 49 54
REMARK SMILES IDX 88 55 82 56 84 57 50 58 87 59 81 60 80 61 51 63 73 64 58 65
REMARK SMILES IDX 72 66 59 67 62 68 71 69 85 70 60 71 61 72 70 74 86 75 63 76
REMARK SMILES IDX 52 77 53 78 57 79 54 80 56 81 55 82 74 83 75 84 79 85 76 86
REMARK SMILES IDX 78 87 77 88 64 89 65 90 69 91 66 92 68 93 67 94
REMARK H PARENT 17 13 7 21 84 62 62 73
REMARK Flexibility Score: inf
ROOT
ATOM      1  C   UNL     1      -0.447   1.783   1.830  1.00  0.00     0.188 C 
ENDROOT
BRANCH   1   2
ATOM      2  C   UNL     1      -0.181   1.087   3.171  1.00  0.00     0.188 C 
BRANCH   2   3
ATOM      3  O   UNL     1       1.063   1.498   3.684  1.00  0.00    -0.376 OA
BRANCH   3   4
ATOM      4  C   UNL     1       2.129   0.602   3.864  1.00  0.00     0.202 C 
BRANCH   4   5
ATOM      5  C   UNL     1       2.491  -0.559   2.891  1.00  0.00     0.261 C 
BRANCH   5   6
ATOM      6  O   UNL     1       1.558  -0.963   1.802  1.00  0.00    -0.462 OA
BRANCH   6   7
ATOM      7  C   UNL     1       1.171  -1.432   0.607  1.00  0.00     0.329 C 
ATOM      8  O   UNL     1       0.101  -2.064   0.697  1.00  0.00    -0.250 OA
BRANCH   7   9
ATOM      9  C   UNL     1       1.657  -1.183  -0.947  1.00  0.00     0.198 C 
BRANCH   9  10
ATOM     10  N   UNL     1       3.025  -1.225  -1.798  1.00  0.00    -0.324 N 
ATOM     11  C   UNL     1       4.136  -0.635  -2.346  1.00  0.00     0.323 C 
ATOM     12  O   UNL     1       4.701  -1.363  -3.177  1.00  0.00    -0.248 OA
ATOM     13  H   UNL     1       3.106  -2.169  -2.066  1.00  0.00     0.166 HD
BRANCH  11  14
ATOM     14  N   UNL     1       4.662   0.602  -2.049  1.00  0.00    -0.280 N 
ATOM     15  C   UNL     1       4.210   1.567  -1.060  1.00  0.00     0.184 C 
ATOM     16  C   UNL     1       3.798   2.819  -1.840  1.00  0.00     0.247 C 
ATOM     17  O   UNL     1       2.748   3.436  -1.735  1.00  0.00    -0.272 OA
ATOM     18  N   UNL     1       4.916   3.319  -2.515  1.00  0.00    -0.322 N 
ATOM     19  C   UNL     1       5.963   1.098  -2.462  1.00  0.00     0.070 A 
ATOM     20  C   UNL     1       6.093   2.526  -2.559  1.00  0.00     0.065 A 
ATOM     21  H   UNL     1       4.887   4.202  -2.950  1.00  0.00     0.170 HD
ATOM     22  C   UNL     1       7.104   0.330  -2.233  1.00  0.00     0.028 A 
ATOM     23  C   UNL     1       7.322   3.157  -2.392  1.00  0.00     0.028 A 
ATOM     24  C   UNL     1       8.318   0.981  -1.971  1.00  0.00     0.002 A 
ATOM     25  C   UNL     1       8.423   2.379  -2.034  1.00  0.00     0.002 A 
BRANCH  15  26
ATOM     26  C   UNL     1       3.547   0.906   0.070  1.00  0.00     0.015 C 
ATOM     27  C   UNL     1       4.501  -0.186   0.628  1.00  0.00     0.010 C 
ATOM     28  C   UNL     1       3.021   1.913   1.024  1.00  0.00     0.010 C 
ENDBRANCH  15  26
ENDBRANCH  11  14
ENDBRANCH   9  10
BRANCH   9  29
ATOM     29  C   UNL     1       0.705  -0.092  -1.582  1.00  0.00     0.072 C 
BRANCH  29  30
ATOM     30  C   UNL     1      -0.789  -0.315  -1.788  1.00  0.00    -0.045 A 
ATOM     31  C   UNL     1      -1.595   0.826  -1.981  1.00  0.00     0.004 A 
ATOM     32  C   UNL     1      -1.404  -1.568  -1.893  1.00  0.00     0.004 A 
ATOM     33  C   UNL     1      -2.959   0.719  -2.272  1.00  0.00     0.000 A 
ATOM     34  C   UNL     1      -2.774  -1.675  -2.178  1.00  0.00     0.000 A 
ATOM     35  C   UNL     1      -3.548  -0.535  -2.376  1.00  0.00     0.000 A 
ENDBRANCH  29  30
ENDBRANCH   9  29
ENDBRANCH   7   9
ENDBRANCH   6   7
ENDBRANCH   5   6
ENDBRANCH   4   5
ENDBRANCH   3   4
ENDBRANCH   2   3
ENDBRANCH   1   2
BRANCH   1  36
ATOM     36  O   UNL     1      -0.224   3.185   1.696  1.00  0.00    -0.377 OA
BRANCH  36  37
ATOM     37  C   UNL     1       0.897   3.845   2.273  1.00  0.00     0.188 C 
BRANCH  37  38
ATOM     38  C   UNL     1       0.675   4.485   3.648  1.00  0.00     0.188 C 
BRANCH  38  39
ATOM     39  O   UNL     1      -0.444   5.336   3.846  1.00  0.00    -0.376 OA
BRANCH  39  40
ATOM     40  C   UNL     1      -1.637   4.983   3.164  1.00  0.00     0.202 C 
BRANCH  40  41
ATOM     41  C   UNL     1      -1.790   5.691   1.803  1.00  0.00     0.261 C 
BRANCH  41  42
ATOM     42  O   UNL     1      -0.565   6.154   1.203  1.00  0.00    -0.460 OA
BRANCH  42  43
ATOM     43  C   UNL     1       0.000   7.238   1.790  1.00  0.00     0.338 C 
ATOM     44  O   UNL     1      -0.447   7.923   2.685  1.00  0.00    -0.246 OA
BRANCH  43  45
ATOM     45  C   UNL     1       1.330   7.477   1.188  1.00  0.00     0.060 A 
ATOM     46  C   UNL     1       2.459   7.501   2.017  1.00  0.00     0.016 A 
ATOM     47  C   UNL     1       1.432   7.825  -0.160  1.00  0.00     0.016 A 
ATOM     48  C   UNL     1       3.683   7.948   1.515  1.00  0.00     0.010 A 
ATOM     49  C   UNL     1       2.653   8.289  -0.658  1.00  0.00     0.010 A 
ATOM     50  C   UNL     1       3.767   8.407   0.193  1.00  0.00    -0.014 A 
BRANCH  50  51
ATOM     51  C   UNL     1       4.919   9.246  -0.219  1.00  0.00     0.031 A 
ATOM     52  C   UNL     1       4.754  10.744  -0.178  1.00  0.00     0.074 A 
ATOM     53  C   UNL     1       6.096   8.708  -0.580  1.00  0.00     0.049 A 
ATOM     54  N   UNL     1       5.588  11.685  -0.542  1.00  0.00    -0.248 NA
ATOM     55  C   UNL     1       3.475  11.246   0.353  1.00  0.00     0.031 C 
ATOM     56  C   UNL     1       6.417   7.283  -0.569  1.00  0.00     0.029 A 
ATOM     57  N   UNL     1       7.247   9.312  -1.025  1.00  0.00    -0.354 N 
ATOM     58  C   UNL     1       4.931  12.885  -0.293  1.00  0.00     0.074 A 
ATOM     59  C   UNL     1       3.621  12.555   0.222  1.00  0.00     0.031 C 
ATOM     60  C   UNL     1       7.682   7.121  -0.997  1.00  0.00     0.029 A 
ATOM     61  C   UNL     1       8.238   8.424  -1.361  1.00  0.00     0.049 A 
ATOM     62  H   UNL     1       7.351  10.288  -1.097  1.00  0.00     0.167 HD
ATOM     63  C   UNL     1       5.379  14.151  -0.470  1.00  0.00     0.031 A 
ATOM     64  C   UNL     1       9.443   8.635  -1.924  1.00  0.00     0.031 A 
ATOM     65  C   UNL     1       6.675  14.477  -1.000  1.00  0.00     0.049 A 
ATOM     66  C   UNL     1       9.875  10.046  -2.232  1.00  0.00     0.074 A 
ATOM     67  C   UNL     1       7.226  15.726  -1.226  1.00  0.00     0.029 A 
ATOM     68  N   UNL     1       7.620  13.543  -1.395  1.00  0.00    -0.354 N 
ATOM     69  N   UNL     1       9.247  11.173  -1.994  1.00  0.00    -0.248 NA
ATOM     70  C   UNL     1      11.187  10.214  -2.873  1.00  0.00     0.031 C 
ATOM     71  C   UNL     1       8.479  15.547  -1.820  1.00  0.00     0.029 A 
ATOM     72  C   UNL     1       8.740  14.188  -1.892  1.00  0.00     0.049 A 
ATOM     73  H   UNL     1       7.512  12.567  -1.331  1.00  0.00     0.167 HD
ATOM     74  C   UNL     1      10.104  12.183  -2.417  1.00  0.00     0.074 A 
ATOM     75  C   UNL     1      11.297  11.535  -2.920  1.00  0.00     0.031 C 
ATOM     76  C   UNL     1       9.923  13.527  -2.382  1.00  0.00     0.031 A 
BRANCH  63  77
ATOM     77  C   UNL     1       4.434  15.273  -0.133  1.00  0.00    -0.014 A 
ATOM     78  C   UNL     1       4.068  15.555   1.193  1.00  0.00     0.009 A 
ATOM     79  C   UNL     1       3.913  16.072  -1.163  1.00  0.00     0.009 A 
ATOM     80  C   UNL     1       3.169  16.586   1.476  1.00  0.00     0.001 A 
ATOM     81  C   UNL     1       3.041  17.123  -0.875  1.00  0.00     0.001 A 
ATOM     82  C   UNL     1       2.660  17.372   0.442  1.00  0.00     0.000 A 
ENDBRANCH  63  77
BRANCH  64  83
ATOM     83  C   UNL     1      10.320   7.482  -2.264  1.00  0.00    -0.014 A 
ATOM     84  C   UNL     1      11.537   7.280  -1.596  1.00  0.00     0.009 A 
ATOM     85  C   UNL     1       9.951   6.586  -3.281  1.00  0.00     0.009 A 
ATOM     86  C   UNL     1      12.375   6.221  -1.955  1.00  0.00     0.001 A 
ATOM     87  C   UNL     1      10.775   5.510  -3.616  1.00  0.00     0.001 A 
ATOM     88  C   UNL     1      11.992   5.334  -2.960  1.00  0.00     0.000 A 
ENDBRANCH  64  83
BRANCH  76  89
ATOM     89  C   UNL     1      11.062  14.394  -2.845  1.00  0.00    -0.014 A 
ATOM     90  C   UNL     1      11.420  14.482  -4.199  1.00  0.00     0.009 A 
ATOM     91  C   UNL     1      11.754  15.179  -1.908  1.00  0.00     0.009 A 
ATOM     92  C   UNL     1      12.469  15.313  -4.599  1.00  0.00     0.001 A 
ATOM     93  C   UNL     1      12.778  16.035  -2.314  1.00  0.00     0.001 A 
ATOM     94  C   UNL     1      13.141  16.094  -3.658  1.00  0.00     0.000 A 
ENDBRANCH  76  89
ENDBRANCH  50  51
ENDBRANCH  43  45
ENDBRANCH  42  43
ENDBRANCH  41  42
ENDBRANCH  40  41
ENDBRANCH  39  40
ENDBRANCH  38  39
ENDBRANCH  37  38
ENDBRANCH  36  37
ENDBRANCH   1  36
TORSDOF 25
