REMARK SMILES CC(C)C[C@H](NC(=O)[C@@H](NC(=O)[C@H](C)NC(=O)CNC(=O)OCc1ccccc1)C(C)C)C(=O)OCCOCCOCCOCCOC(=O)c1ccc(-c2c3nc(c(-c4ccccc4)c4ccc([nH]4)c(-c4ccccc4)c4nc(c(-c5ccccc5)c5ccc2[nH]5)C=C4)C=C3)cc1
REMARK SMILES IDX 37 1 36 2 35 3 33 4 34 5 5 6 4 7 2 8 1 9 3 10 6 11 7 12 8 14
REMARK SMILES IDX 9 15 10 16 11 17 12 19 13 20 14 21 15 22 16 23 17 25 18 26
REMARK SMILES IDX 19 27 20 28 21 30 22 31 23 32 24 33 25 34 29 35 26 36 28 37
REMARK SMILES IDX 27 38 30 39 31 40 32 41 38 42 39 43 40 44 41 45 42 46 43 47
REMARK SMILES IDX 44 48 45 49 46 50 47 51 48 52 49 53 50 54 51 55 97 56 52 57
REMARK SMILES IDX 96 58 53 59 54 60 55 61 90 62 56 63 95 64 89 65 91 66 57 67
REMARK SMILES IDX 94 68 88 69 87 70 58 72 80 73 65 74 79 75 66 76 69 77 78 78
REMARK SMILES IDX 92 79 67 80 68 81 77 83 93 84 70 85 59 86 60 87 64 88 61 89
REMARK SMILES IDX 63 90 62 91 81 92 82 93 86 94 83 95 85 96 84 97 71 98 72 99
REMARK SMILES IDX 76 100 73 101 75 102 74 103
REMARK H PARENT 6 13 10 18 15 24 19 29 91 71 69 82
REMARK Flexibility Score: inf
ROOT
ATOM      1  C   UNL     1      -3.680   0.131   0.967  1.00  0.00     0.202 C 
ENDROOT
BRANCH   1   2
ATOM      2  C   UNL     1      -2.532  -0.719   0.057  1.00  0.00     0.261 C 
BRANCH   2   3
ATOM      3  O   UNL     1      -2.622  -2.302  -0.847  1.00  0.00    -0.462 OA
BRANCH   3   4
ATOM      4  C   UNL     1      -3.510  -3.260  -1.683  1.00  0.00     0.328 C 
ATOM      5  O   UNL     1      -3.969  -4.285  -1.151  1.00  0.00    -0.250 OA
BRANCH   4   6
ATOM      6  C   UNL     1      -4.374  -3.033  -3.005  1.00  0.00     0.192 C 
BRANCH   6   7
ATOM      7  C   UNL     1      -4.486  -4.436  -3.714  1.00  0.00     0.040 C 
BRANCH   7   8
ATOM      8  C   UNL     1      -3.316  -4.842  -4.636  1.00  0.00    -0.015 C 
ATOM      9  C   UNL     1      -1.992  -4.176  -4.323  1.00  0.00     0.007 C 
ATOM     10  C   UNL     1      -3.079  -6.349  -4.606  1.00  0.00     0.007 C 
ENDBRANCH   7   8
ENDBRANCH   6   7
BRANCH   6  11
ATOM     11  N   UNL     1      -4.250  -2.030  -4.024  1.00  0.00    -0.341 N 
ATOM     12  C   UNL     1      -3.817  -0.777  -3.762  1.00  0.00     0.243 C 
ATOM     13  H   UNL     1      -4.490  -2.264  -4.950  1.00  0.00     0.164 HD
ATOM     14  O   UNL     1      -3.773   0.068  -4.648  1.00  0.00    -0.273 OA
BRANCH  12  15
ATOM     15  C   UNL     1      -3.150  -0.651  -2.412  1.00  0.00     0.174 C 
BRANCH  15  16
ATOM     16  N   UNL     1      -4.416  -1.185  -1.214  1.00  0.00    -0.342 N 
ATOM     17  C   UNL     1      -4.707  -2.067   0.054  1.00  0.00     0.242 C 
ATOM     18  H   UNL     1      -5.260  -0.743  -1.462  1.00  0.00     0.164 HD
ATOM     19  O   UNL     1      -5.894  -2.046   0.432  1.00  0.00    -0.273 OA
BRANCH  17  20
ATOM     20  C   UNL     1      -3.560  -3.069   1.145  1.00  0.00     0.168 C 
ATOM     21  C   UNL     1      -2.699  -2.439   2.279  1.00  0.00     0.041 C 
BRANCH  20  22
ATOM     22  N   UNL     1      -2.569  -4.154   0.691  1.00  0.00    -0.343 N 
ATOM     23  C   UNL     1      -2.741  -5.487   0.393  1.00  0.00     0.240 C 
ATOM     24  H   UNL     1      -1.642  -3.837   0.597  1.00  0.00     0.164 HD
ATOM     25  O   UNL     1      -1.894  -6.062  -0.298  1.00  0.00    -0.273 OA
BRANCH  23  26
ATOM     26  C   UNL     1      -3.946  -6.225   0.956  1.00  0.00     0.219 C 
BRANCH  26  27
ATOM     27  N   UNL     1      -3.529  -6.430   2.323  1.00  0.00    -0.312 N 
ATOM     28  C   UNL     1      -3.852  -5.533   3.274  1.00  0.00     0.407 C 
ATOM     29  H   UNL     1      -3.005  -7.229   2.560  1.00  0.00     0.167 HD
ATOM     30  O   UNL     1      -3.035  -5.211   4.153  1.00  0.00    -0.225 OA
BRANCH  28  31
ATOM     31  O   UNL     1      -5.119  -5.080   3.162  1.00  0.00    -0.445 OA
BRANCH  31  32
ATOM     32  C   UNL     1      -5.546  -4.116   4.132  1.00  0.00     0.270 C 
BRANCH  32  33
ATOM     33  C   UNL     1      -5.732  -4.705   5.509  1.00  0.00    -0.011 A 
ATOM     34  C   UNL     1      -6.192  -3.890   6.547  1.00  0.00     0.007 A 
ATOM     35  C   UNL     1      -5.348  -6.022   5.807  1.00  0.00     0.007 A 
ATOM     36  C   UNL     1      -6.191  -4.368   7.858  1.00  0.00     0.000 A 
ATOM     37  C   UNL     1      -5.289  -6.476   7.115  1.00  0.00     0.000 A 
ATOM     38  C   UNL     1      -5.707  -5.645   8.143  1.00  0.00     0.000 A 
ENDBRANCH  32  33
ENDBRANCH  31  32
ENDBRANCH  28  31
ENDBRANCH  26  27
ENDBRANCH  23  26
ENDBRANCH  20  22
ENDBRANCH  17  20
ENDBRANCH  15  16
BRANCH  15  39
ATOM     39  C   UNL     1      -1.506  -1.251  -2.650  1.00  0.00     0.015 C 
ATOM     40  C   UNL     1      -0.861  -0.903  -4.008  1.00  0.00     0.010 C 
ATOM     41  C   UNL     1      -0.341  -0.939  -1.653  1.00  0.00     0.010 C 
ENDBRANCH  15  39
ENDBRANCH  12  15
ENDBRANCH   6  11
ENDBRANCH   4   6
ENDBRANCH   3   4
ENDBRANCH   2   3
ENDBRANCH   1   2
BRANCH   1  42
ATOM     42  O   UNL     1      -4.456   1.155   0.324  1.00  0.00    -0.376 OA
BRANCH  42  43
ATOM     43  C   UNL     1      -5.882   1.044   0.173  1.00  0.00     0.188 C 
BRANCH  43  44
ATOM     44  C   UNL     1      -6.329   1.402  -1.263  1.00  0.00     0.188 C 
BRANCH  44  45
ATOM     45  O   UNL     1      -5.260   1.425  -2.200  1.00  0.00    -0.377 OA
BRANCH  45  46
ATOM     46  C   UNL     1      -4.243   2.411  -1.973  1.00  0.00     0.188 C 
BRANCH  46  47
ATOM     47  C   UNL     1      -4.702   3.786  -1.508  1.00  0.00     0.188 C 
BRANCH  47  48
ATOM     48  O   UNL     1      -5.565   4.503  -2.381  1.00  0.00    -0.376 OA
BRANCH  48  49
ATOM     49  C   UNL     1      -5.608   4.109  -3.749  1.00  0.00     0.202 C 
BRANCH  49  50
ATOM     50  C   UNL     1      -4.449   4.597  -4.633  1.00  0.00     0.261 C 
BRANCH  50  51
ATOM     51  O   UNL     1      -3.156   4.027  -4.343  1.00  0.00    -0.460 OA
BRANCH  51  52
ATOM     52  C   UNL     1      -2.368   4.731  -3.499  1.00  0.00     0.338 C 
ATOM     53  O   UNL     1      -2.637   5.784  -2.947  1.00  0.00    -0.246 OA
BRANCH  52  54
ATOM     54  C   UNL     1      -1.095   4.019  -3.245  1.00  0.00     0.060 A 
ATOM     55  C   UNL     1      -0.630   3.907  -1.926  1.00  0.00     0.016 A 
ATOM     56  C   UNL     1      -0.274   3.650  -4.312  1.00  0.00     0.016 A 
ATOM     57  C   UNL     1       0.695   3.537  -1.678  1.00  0.00     0.010 A 
ATOM     58  C   UNL     1       1.053   3.285  -4.062  1.00  0.00     0.010 A 
ATOM     59  C   UNL     1       1.563   3.297  -2.751  1.00  0.00    -0.014 A 
BRANCH  59  60
ATOM     60  C   UNL     1       3.037   3.286  -2.546  1.00  0.00     0.031 A 
ATOM     61  C   UNL     1       3.823   4.525  -2.893  1.00  0.00     0.074 A 
ATOM     62  C   UNL     1       3.678   2.201  -2.078  1.00  0.00     0.049 A 
ATOM     63  N   UNL     1       5.118   4.714  -2.898  1.00  0.00    -0.248 NA
ATOM     64  C   UNL     1       3.042   5.705  -3.300  1.00  0.00     0.031 C 
ATOM     65  C   UNL     1       3.037   0.959  -1.662  1.00  0.00     0.029 A 
ATOM     66  N   UNL     1       5.018   1.967  -1.892  1.00  0.00    -0.354 N 
ATOM     67  C   UNL     1       5.306   6.024  -3.328  1.00  0.00     0.074 A 
ATOM     68  C   UNL     1       3.996   6.573  -3.599  1.00  0.00     0.031 C 
ATOM     69  C   UNL     1       3.983   0.081  -1.288  1.00  0.00     0.029 A 
ATOM     70  C   UNL     1       5.299   0.689  -1.475  1.00  0.00     0.049 A 
ATOM     71  H   UNL     1       5.711   2.650  -2.044  1.00  0.00     0.167 HD
ATOM     72  C   UNL     1       6.465   6.708  -3.482  1.00  0.00     0.031 A 
ATOM     73  C   UNL     1       6.482   0.069  -1.293  1.00  0.00     0.031 A 
ATOM     74  C   UNL     1       7.769   6.158  -3.223  1.00  0.00     0.049 A 
ATOM     75  C   UNL     1       7.760   0.827  -1.540  1.00  0.00     0.074 A 
ATOM     76  C   UNL     1       9.002   6.780  -3.325  1.00  0.00     0.029 A 
ATOM     77  N   UNL     1       8.011   4.854  -2.821  1.00  0.00    -0.354 N 
ATOM     78  N   UNL     1       7.923   2.072  -1.919  1.00  0.00    -0.248 NA
ATOM     79  C   UNL     1       9.016   0.095  -1.325  1.00  0.00     0.031 C 
ATOM     80  C   UNL     1       9.992   5.832  -3.051  1.00  0.00     0.029 A 
ATOM     81  C   UNL     1       9.374   4.642  -2.703  1.00  0.00     0.049 A 
ATOM     82  H   UNL     1       7.316   4.179  -2.646  1.00  0.00     0.167 HD
ATOM     83  C   UNL     1       9.297   2.281  -1.956  1.00  0.00     0.074 A 
ATOM     84  C   UNL     1       9.920   1.040  -1.545  1.00  0.00     0.031 C 
ATOM     85  C   UNL     1       9.982   3.401  -2.295  1.00  0.00     0.031 A 
BRANCH  72  86
ATOM     86  C   UNL     1       6.377   8.121  -3.995  1.00  0.00    -0.014 A 
ATOM     87  C   UNL     1       5.844   9.156  -3.211  1.00  0.00     0.009 A 
ATOM     88  C   UNL     1       6.875   8.427  -5.272  1.00  0.00     0.009 A 
ATOM     89  C   UNL     1       5.780  10.460  -3.709  1.00  0.00     0.001 A 
ATOM     90  C   UNL     1       6.840   9.736  -5.754  1.00  0.00     0.001 A 
ATOM     91  C   UNL     1       6.284  10.750  -4.977  1.00  0.00     0.000 A 
ENDBRANCH  72  86
BRANCH  73  92
ATOM     92  C   UNL     1       6.518  -1.358  -0.874  1.00  0.00    -0.014 A 
ATOM     93  C   UNL     1       6.997  -1.722   0.394  1.00  0.00     0.009 A 
ATOM     94  C   UNL     1       6.088  -2.368  -1.749  1.00  0.00     0.009 A 
ATOM     95  C   UNL     1       7.068  -3.067   0.766  1.00  0.00     0.001 A 
ATOM     96  C   UNL     1       6.128  -3.709  -1.363  1.00  0.00     0.001 A 
ATOM     97  C   UNL     1       6.628  -4.058  -0.110  1.00  0.00     0.000 A 
ENDBRANCH  73  92
BRANCH  85  98
ATOM     98  C   UNL     1      11.483   3.354  -2.193  1.00  0.00    -0.014 A 
ATOM     99  C   UNL     1      12.258   2.596  -3.084  1.00  0.00     0.009 A 
ATOM    100  C   UNL     1      12.133   4.119  -1.211  1.00  0.00     0.009 A 
ATOM    101  C   UNL     1      13.650   2.574  -2.968  1.00  0.00     0.001 A 
ATOM    102  C   UNL     1      13.526   4.123  -1.119  1.00  0.00     0.001 A 
ATOM    103  C   UNL     1      14.282   3.342  -1.990  1.00  0.00     0.000 A 
ENDBRANCH  85  98
ENDBRANCH  59  60
ENDBRANCH  52  54
ENDBRANCH  51  52
ENDBRANCH  50  51
ENDBRANCH  49  50
ENDBRANCH  48  49
ENDBRANCH  47  48
ENDBRANCH  46  47
ENDBRANCH  45  46
ENDBRANCH  44  45
ENDBRANCH  43  44
ENDBRANCH  42  43
ENDBRANCH   1  42
TORSDOF 33
