REMARK SMILES CC(C)Oc1ccc(/C=C(\NC(=O)c2ccccc2)C(=O)OCCOCCOCCOCCOC(=O)c2ccc(-c3c4nc(c(-c5ccccc5)c5ccc([nH]5)c(-c5ccccc5)c5nc(c(-c6ccccc6)c6ccc3[nH]6)C=C5)C=C4)cc2)cc1
REMARK SMILES IDX 27 1 26 2 25 3 24 4 23 5 22 6 20 7 21 8 10 9 9 10 8 11 5 12
REMARK SMILES IDX 6 13 86 14 7 15 85 16 4 17 2 18 1 19 3 20 11 21 12 22 13 24
REMARK SMILES IDX 14 25 15 26 19 27 16 28 18 29 17 30 28 31 29 32 30 33 31 34
REMARK SMILES IDX 32 35 33 36 34 37 35 38 36 39 37 40 38 41 84 42 39 43 83 44
REMARK SMILES IDX 40 45 41 46 42 47 77 48 43 49 82 50 76 51 78 52 44 53 81 54
REMARK SMILES IDX 75 55 74 56 45 58 67 59 52 60 66 61 53 62 56 63 65 64 79 65
REMARK SMILES IDX 54 66 55 67 64 69 80 70 57 71 46 72 47 73 51 74 48 75 50 76
REMARK SMILES IDX 49 77 68 78 69 79 73 80 70 81 72 82 71 83 58 84 59 85 63 86
REMARK SMILES IDX 60 87 62 88 61 89
REMARK H PARENT 11 23 78 57 56 68
REMARK Flexibility Score: inf
ROOT
ATOM      1  C   UNL     1      -4.791  -5.193   5.073  1.00  0.00     0.188 C 
ENDROOT
BRANCH   1   2
ATOM      2  C   UNL     1      -4.431  -4.131   6.135  1.00  0.00     0.188 C 
BRANCH   2   3
ATOM      3  O   UNL     1      -5.145  -4.091   7.370  1.00  0.00    -0.376 OA
BRANCH   3   4
ATOM      4  C   UNL     1      -6.569  -3.957   7.343  1.00  0.00     0.202 C 
BRANCH   4   5
ATOM      5  C   UNL     1      -7.153  -2.855   6.459  1.00  0.00     0.261 C 
BRANCH   5   6
ATOM      6  O   UNL     1      -6.805  -3.079   5.085  1.00  0.00    -0.459 OA
BRANCH   6   7
ATOM      7  C   UNL     1      -6.667  -1.979   4.318  1.00  0.00     0.354 C 
ATOM      8  O   UNL     1      -6.970  -0.839   4.639  1.00  0.00    -0.244 OA
BRANCH   7   9
ATOM      9  C   UNL     1      -5.897  -2.320   3.080  1.00  0.00     0.128 C 
ATOM     10  C   UNL     1      -4.753  -1.603   2.983  1.00  0.00     0.042 C 
BRANCH  10  11
ATOM     11  C   UNL     1      -3.692  -1.570   1.950  1.00  0.00    -0.023 A 
ATOM     12  C   UNL     1      -1.643  -1.111   0.037  1.00  0.00     0.119 A 
ATOM     13  C   UNL     1      -2.919  -1.522  -0.354  1.00  0.00     0.047 A 
ATOM     14  C   UNL     1      -1.383  -0.952   1.391  1.00  0.00     0.047 A 
ATOM     15  C   UNL     1      -3.936  -1.735   0.585  1.00  0.00     0.012 A 
ATOM     16  C   UNL     1      -2.397  -1.185   2.337  1.00  0.00     0.012 A 
BRANCH  12  17
ATOM     17  O   UNL     1      -0.820  -0.774  -0.992  1.00  0.00    -0.491 OA
BRANCH  17  18
ATOM     18  C   UNL     1       0.597  -0.970  -0.958  1.00  0.00     0.167 C 
ATOM     19  C   UNL     1       1.359   0.031  -0.097  1.00  0.00     0.052 C 
ATOM     20  C   UNL     1       0.994  -2.420  -0.710  1.00  0.00     0.052 C 
ENDBRANCH  17  18
ENDBRANCH  12  17
ENDBRANCH  10  11
BRANCH   9  21
ATOM     21  N   UNL     1      -6.247  -3.288   2.167  1.00  0.00    -0.316 N 
ATOM     22  C   UNL     1      -7.281  -4.173   1.988  1.00  0.00     0.255 C 
ATOM     23  H   UNL     1      -5.576  -3.369   1.451  1.00  0.00     0.170 HD
ATOM     24  O   UNL     1      -7.232  -4.910   0.999  1.00  0.00    -0.269 OA
BRANCH  22  25
ATOM     25  C   UNL     1      -8.412  -4.356   2.914  1.00  0.00     0.040 A 
ATOM     26  C   UNL     1      -8.689  -5.671   3.315  1.00  0.00     0.014 A 
ATOM     27  C   UNL     1      -9.242  -3.314   3.330  1.00  0.00     0.014 A 
ATOM     28  C   UNL     1      -9.734  -5.933   4.198  1.00  0.00     0.001 A 
ATOM     29  C   UNL     1     -10.281  -3.580   4.227  1.00  0.00     0.001 A 
ATOM     30  C   UNL     1     -10.520  -4.884   4.667  1.00  0.00     0.000 A 
ENDBRANCH  22  25
ENDBRANCH   9  21
ENDBRANCH   7   9
ENDBRANCH   6   7
ENDBRANCH   5   6
ENDBRANCH   4   5
ENDBRANCH   3   4
ENDBRANCH   2   3
ENDBRANCH   1   2
BRANCH   1  31
ATOM     31  O   UNL     1      -6.080  -5.766   5.231  1.00  0.00    -0.377 OA
BRANCH  31  32
ATOM     32  C   UNL     1      -6.081  -7.115   5.691  1.00  0.00     0.188 C 
BRANCH  32  33
ATOM     33  C   UNL     1      -5.366  -7.353   7.032  1.00  0.00     0.188 C 
BRANCH  33  34
ATOM     34  O   UNL     1      -3.969  -7.071   6.959  1.00  0.00    -0.376 OA
BRANCH  34  35
ATOM     35  C   UNL     1      -3.098  -8.195   6.918  1.00  0.00     0.202 C 
BRANCH  35  36
ATOM     36  C   UNL     1      -3.032  -8.901   5.555  1.00  0.00     0.261 C 
BRANCH  36  37
ATOM     37  O   UNL     1      -4.259  -9.505   5.106  1.00  0.00    -0.460 OA
BRANCH  37  38
ATOM     38  C   UNL     1      -4.823 -10.440   5.898  1.00  0.00     0.338 C 
ATOM     39  O   UNL     1      -4.380 -10.892   6.939  1.00  0.00    -0.246 OA
BRANCH  38  40
ATOM     40  C   UNL     1      -6.184 -10.711   5.392  1.00  0.00     0.060 A 
ATOM     41  C   UNL     1      -7.267 -10.591   6.272  1.00  0.00     0.016 A 
ATOM     42  C   UNL     1      -6.388 -11.113   4.070  1.00  0.00     0.016 A 
ATOM     43  C   UNL     1      -8.553 -10.925   5.845  1.00  0.00     0.010 A 
ATOM     44  C   UNL     1      -7.673 -11.465   3.648  1.00  0.00     0.010 A 
ATOM     45  C   UNL     1      -8.753 -11.412   4.546  1.00  0.00    -0.014 A 
BRANCH  45  46
ATOM     46  C   UNL     1     -10.036 -12.068   4.193  1.00  0.00     0.031 A 
ATOM     47  C   UNL     1     -10.133 -13.563   4.333  1.00  0.00     0.074 A 
ATOM     48  C   UNL     1     -11.100 -11.361   3.775  1.00  0.00     0.049 A 
ATOM     49  N   UNL     1     -11.130 -14.361   4.053  1.00  0.00    -0.248 NA
ATOM     50  C   UNL     1      -8.941 -14.248   4.863  1.00  0.00     0.031 C 
ATOM     51  C   UNL     1     -11.151  -9.908   3.638  1.00  0.00     0.029 A 
ATOM     52  N   UNL     1     -12.347 -11.781   3.382  1.00  0.00    -0.354 N 
ATOM     53  C   UNL     1     -10.687 -15.639   4.369  1.00  0.00     0.074 A 
ATOM     54  C   UNL     1      -9.323 -15.515   4.835  1.00  0.00     0.031 C 
ATOM     55  C   UNL     1     -12.370  -9.555   3.192  1.00  0.00     0.029 A 
ATOM     56  C   UNL     1     -13.170 -10.759   2.977  1.00  0.00     0.049 A 
ATOM     57  H   UNL     1     -12.624 -12.726   3.391  1.00  0.00     0.167 HD
ATOM     58  C   UNL     1     -11.355 -16.813   4.285  1.00  0.00     0.031 A 
ATOM     59  C   UNL     1     -14.417 -10.798   2.469  1.00  0.00     0.031 A 
ATOM     60  C   UNL     1     -12.699 -16.947   3.795  1.00  0.00     0.049 A 
ATOM     61  C   UNL     1     -15.104 -12.129   2.292  1.00  0.00     0.074 A 
ATOM     62  C   UNL     1     -13.459 -18.096   3.662  1.00  0.00     0.029 A 
ATOM     63  N   UNL     1     -13.481 -15.894   3.348  1.00  0.00    -0.354 N 
ATOM     64  N   UNL     1     -14.681 -13.329   2.610  1.00  0.00    -0.248 NA
ATOM     65  C   UNL     1     -16.444 -12.106   1.685  1.00  0.00     0.031 C 
ATOM     66  C   UNL     1     -14.685 -17.743   3.089  1.00  0.00     0.029 A 
ATOM     67  C   UNL     1     -14.708 -16.368   2.918  1.00  0.00     0.049 A 
ATOM     68  H   UNL     1     -13.205 -14.949   3.338  1.00  0.00     0.167 HD
ATOM     69  C   UNL     1     -15.712 -14.197   2.270  1.00  0.00     0.074 A 
ATOM     70  C   UNL     1     -16.785 -13.386   1.734  1.00  0.00     0.031 C 
ATOM     71  C   UNL     1     -15.767 -15.546   2.393  1.00  0.00     0.031 A 
BRANCH  58  72
ATOM     72  C   UNL     1     -10.616 -18.052   4.704  1.00  0.00    -0.014 A 
ATOM     73  C   UNL     1     -10.344 -18.313   6.056  1.00  0.00     0.009 A 
ATOM     74  C   UNL     1     -10.201 -18.978   3.735  1.00  0.00     0.009 A 
ATOM     75  C   UNL     1      -9.641 -19.461   6.426  1.00  0.00     0.001 A 
ATOM     76  C   UNL     1      -9.521 -20.138   4.110  1.00  0.00     0.001 A 
ATOM     77  C   UNL     1      -9.234 -20.374   5.454  1.00  0.00     0.000 A 
ENDBRANCH  58  72
BRANCH  59  78
ATOM     78  C   UNL     1     -15.104  -9.543   2.064  1.00  0.00    -0.014 A 
ATOM     79  C   UNL     1     -16.226  -9.081   2.770  1.00  0.00     0.009 A 
ATOM     80  C   UNL     1     -14.666  -8.822   0.942  1.00  0.00     0.009 A 
ATOM     81  C   UNL     1     -16.910  -7.939   2.345  1.00  0.00     0.001 A 
ATOM     82  C   UNL     1     -15.335  -7.665   0.536  1.00  0.00     0.001 A 
ATOM     83  C   UNL     1     -16.462  -7.231   1.231  1.00  0.00     0.000 A 
ENDBRANCH  59  78
BRANCH  71  84
ATOM     84  C   UNL     1     -17.043 -16.227   1.984  1.00  0.00    -0.014 A 
ATOM     85  C   UNL     1     -17.395 -16.369   0.633  1.00  0.00     0.009 A 
ATOM     86  C   UNL     1     -17.882 -16.775   2.967  1.00  0.00     0.009 A 
ATOM     87  C   UNL     1     -18.579 -17.020   0.278  1.00  0.00     0.001 A 
ATOM     88  C   UNL     1     -19.050 -17.449   2.608  1.00  0.00     0.001 A 
ATOM     89  C   UNL     1     -19.402 -17.563   1.265  1.00  0.00     0.000 A 
ENDBRANCH  71  84
ENDBRANCH  45  46
ENDBRANCH  38  40
ENDBRANCH  37  38
ENDBRANCH  36  37
ENDBRANCH  35  36
ENDBRANCH  34  35
ENDBRANCH  33  34
ENDBRANCH  32  33
ENDBRANCH  31  32
ENDBRANCH   1  31
TORSDOF 25
