REMARK SMILES Cc1ccc2c(c1)OCCN2c1sc(C(=O)OCCOCCOCCOCCOC(=O)c2ccc(-c3c4nc(c(-c5ccccc5)c5ccc([nH]5)c(-c5ccccc5)c5nc(c(-c6ccccc6)c6ccc3[nH]6)C=C5)C=C4)cc2)cc1C
REMARK SMILES IDX 24 1 23 2 22 3 21 4 20 5 19 6 18 7 17 8 15 9 16 10 14 11
REMARK SMILES IDX 12 12 13 13 81 14 80 15 82 16 11 17 1 18 2 19 3 20 7 21 4 22
REMARK SMILES IDX 6 23 5 24 8 25 9 26 10 27 25 28 26 29 27 30 28 31 29 32
REMARK SMILES IDX 30 33 31 34 32 35 33 36 79 37 34 38 78 39 35 40 36 41 37 42
REMARK SMILES IDX 72 43 38 44 77 45 71 46 73 47 39 48 76 49 70 50 69 51 40 53
REMARK SMILES IDX 62 54 47 55 61 56 48 57 51 58 60 59 74 60 49 61 50 62 59 64
REMARK SMILES IDX 75 65 52 66 41 67 42 68 46 69 43 70 45 71 44 72 63 73 64 74
REMARK SMILES IDX 68 75 65 76 67 77 66 78 53 79 54 80 58 81 55 82 57 83 56 84
REMARK H PARENT 73 52 51 63
REMARK Flexibility Score: inf
ROOT
ATOM      1  C   UNL     1       1.480 -11.737   2.129  1.00  0.00     0.188 C 
ENDROOT
BRANCH   1   2
ATOM      2  O   UNL     1       1.270 -10.575   1.333  1.00  0.00    -0.377 OA
BRANCH   2   3
ATOM      3  C   UNL     1       1.329 -10.683  -0.077  1.00  0.00     0.188 C 
BRANCH   3   4
ATOM      4  C   UNL     1       2.678 -11.122  -0.670  1.00  0.00     0.188 C 
BRANCH   4   5
ATOM      5  O   UNL     1       3.638 -11.517   0.308  1.00  0.00    -0.376 OA
BRANCH   5   6
ATOM      6  C   UNL     1       4.746 -10.646   0.494  1.00  0.00     0.202 C 
BRANCH   6   7
ATOM      7  C   UNL     1       4.436  -9.382   1.308  1.00  0.00     0.261 C 
BRANCH   7   8
ATOM      8  O   UNL     1       3.450  -8.523   0.720  1.00  0.00    -0.459 OA
BRANCH   8   9
ATOM      9  C   UNL     1       3.740  -7.999  -0.499  1.00  0.00     0.348 C 
ATOM     10  O   UNL     1       4.824  -8.109  -1.060  1.00  0.00    -0.245 OA
BRANCH   9  11
ATOM     11  C   UNL     1       2.548  -7.452  -1.106  1.00  0.00     0.114 A 
ATOM     12  C   UNL     1       0.537  -6.103  -1.614  1.00  0.00     0.099 A 
ATOM     13  S   UNL     1       1.334  -6.685  -0.195  1.00  0.00    -0.110 S 
ATOM     14  C   UNL     1       0.981  -6.807  -2.731  1.00  0.00    -0.015 A 
ATOM     15  C   UNL     1       2.191  -7.520  -2.435  1.00  0.00     0.033 A 
ATOM     16  C   UNL     1       0.405  -6.771  -4.108  1.00  0.00     0.047 C 
BRANCH  12  17
ATOM     17  N   UNL     1      -0.395  -5.104  -1.562  1.00  0.00    -0.327 N 
ATOM     18  C   UNL     1       0.643   0.363  -0.032  1.00  0.00     0.044 C 
ATOM     19  C   UNL     1       0.370  -1.050  -0.443  1.00  0.00    -0.047 A 
ATOM     20  C   UNL     1       1.274  -2.056  -0.113  1.00  0.00     0.006 A 
ATOM     21  C   UNL     1      -0.801  -1.398  -1.123  1.00  0.00     0.052 A 
ATOM     22  C   UNL     1       1.032  -3.378  -0.492  1.00  0.00     0.030 A 
ATOM     23  C   UNL     1      -1.044  -2.728  -1.492  1.00  0.00     0.143 A 
ATOM     24  C   UNL     1      -0.137  -3.760  -1.171  1.00  0.00     0.085 A 
ATOM     25  O   UNL     1      -2.213  -2.934  -2.194  1.00  0.00    -0.490 OA
ATOM     26  C   UNL     1      -2.200  -4.175  -2.908  1.00  0.00     0.251 C 
ATOM     27  C   UNL     1      -1.771  -5.327  -2.006  1.00  0.00     0.165 C 
ENDBRANCH  12  17
ENDBRANCH   9  11
ENDBRANCH   8   9
ENDBRANCH   7   8
ENDBRANCH   6   7
ENDBRANCH   5   6
ENDBRANCH   4   5
ENDBRANCH   3   4
ENDBRANCH   2   3
ENDBRANCH   1   2
BRANCH   1  28
ATOM     28  C   UNL     1       1.589 -13.156   1.526  1.00  0.00     0.188 C 
BRANCH  28  29
ATOM     29  O   UNL     1       0.892 -13.348   0.301  1.00  0.00    -0.376 OA
BRANCH  29  30
ATOM     30  C   UNL     1      -0.264 -14.172   0.352  1.00  0.00     0.202 C 
BRANCH  30  31
ATOM     31  C   UNL     1      -1.499 -13.451   0.902  1.00  0.00     0.261 C 
BRANCH  31  32
ATOM     32  O   UNL     1      -1.386 -13.025   2.267  1.00  0.00    -0.460 OA
BRANCH  32  33
ATOM     33  C   UNL     1      -1.183 -13.977   3.205  1.00  0.00     0.338 C 
ATOM     34  O   UNL     1      -1.119 -15.181   3.038  1.00  0.00    -0.246 OA
BRANCH  33  35
ATOM     35  C   UNL     1      -0.863 -13.285   4.469  1.00  0.00     0.060 A 
ATOM     36  C   UNL     1      -1.682 -12.252   4.931  1.00  0.00     0.016 A 
ATOM     37  C   UNL     1       0.291 -13.650   5.174  1.00  0.00     0.016 A 
ATOM     38  C   UNL     1      -1.364 -11.603   6.122  1.00  0.00     0.010 A 
ATOM     39  C   UNL     1       0.612 -12.995   6.365  1.00  0.00     0.010 A 
ATOM     40  C   UNL     1      -0.229 -11.986   6.859  1.00  0.00    -0.014 A 
BRANCH  40  41
ATOM     41  C   UNL     1      -0.060 -11.472   8.237  1.00  0.00     0.031 A 
ATOM     42  C   UNL     1       0.872 -10.351   8.568  1.00  0.00     0.074 A 
ATOM     43  C   UNL     1      -0.802 -12.046   9.203  1.00  0.00     0.049 A 
ATOM     44  N   UNL     1       1.010  -9.719   9.707  1.00  0.00    -0.248 NA
ATOM     45  C   UNL     1       1.765  -9.879   7.501  1.00  0.00     0.031 C 
ATOM     46  C   UNL     1      -1.724 -13.165   8.993  1.00  0.00     0.029 A 
ATOM     47  N   UNL     1      -0.915 -11.764  10.539  1.00  0.00    -0.354 N 
ATOM     48  C   UNL     1       1.989  -8.759   9.492  1.00  0.00     0.074 A 
ATOM     49  C   UNL     1       2.442  -8.921   8.125  1.00  0.00     0.031 C 
ATOM     50  C   UNL     1      -2.331 -13.453  10.152  1.00  0.00     0.029 A 
ATOM     51  C   UNL     1      -1.828 -12.557  11.189  1.00  0.00     0.049 A 
ATOM     52  H   UNL     1      -0.392 -11.061  10.989  1.00  0.00     0.167 HD
ATOM     53  C   UNL     1       2.449  -7.825  10.357  1.00  0.00     0.031 A 
ATOM     54  C   UNL     1      -2.233 -12.558  12.472  1.00  0.00     0.031 A 
ATOM     55  C   UNL     1       2.003  -7.688  11.722  1.00  0.00     0.049 A 
ATOM     56  C   UNL     1      -1.685 -11.529  13.416  1.00  0.00     0.074 A 
ATOM     57  C   UNL     1       2.373  -6.731  12.652  1.00  0.00     0.029 A 
ATOM     58  N   UNL     1       1.107  -8.534  12.356  1.00  0.00    -0.354 N 
ATOM     59  N   UNL     1      -0.832 -10.564  13.172  1.00  0.00    -0.248 NA
ATOM     60  C   UNL     1      -2.168 -11.572  14.802  1.00  0.00     0.031 C 
ATOM     61  C   UNL     1       1.757  -7.039  13.867  1.00  0.00     0.029 A 
ATOM     62  C   UNL     1       0.944  -8.145  13.677  1.00  0.00     0.049 A 
ATOM     63  H   UNL     1       0.653  -9.298  11.932  1.00  0.00     0.167 HD
ATOM     64  C   UNL     1      -0.691  -9.873  14.368  1.00  0.00     0.074 A 
ATOM     65  C   UNL     1      -1.559 -10.518  15.331  1.00  0.00     0.031 C 
ATOM     66  C   UNL     1       0.089  -8.798  14.636  1.00  0.00     0.031 A 
BRANCH  53  67
ATOM     67  C   UNL     1       3.489  -6.851   9.872  1.00  0.00    -0.014 A 
ATOM     68  C   UNL     1       4.783  -6.878  10.418  1.00  0.00     0.009 A 
ATOM     69  C   UNL     1       3.150  -5.821   8.982  1.00  0.00     0.009 A 
ATOM     70  C   UNL     1       5.709  -5.884  10.098  1.00  0.00     0.001 A 
ATOM     71  C   UNL     1       4.087  -4.841   8.645  1.00  0.00     0.001 A 
ATOM     72  C   UNL     1       5.361  -4.867   9.211  1.00  0.00     0.000 A 
ENDBRANCH  53  67
BRANCH  54  73
ATOM     73  C   UNL     1      -3.250 -13.549  12.905  1.00  0.00    -0.014 A 
ATOM     74  C   UNL     1      -2.930 -14.915  12.970  1.00  0.00     0.009 A 
ATOM     75  C   UNL     1      -4.564 -13.145  13.182  1.00  0.00     0.009 A 
ATOM     76  C   UNL     1      -3.910 -15.859  13.280  1.00  0.00     0.001 A 
ATOM     77  C   UNL     1      -5.536 -14.089  13.521  1.00  0.00     0.001 A 
ATOM     78  C   UNL     1      -5.211 -15.445  13.559  1.00  0.00     0.000 A 
ENDBRANCH  54  73
BRANCH  66  79
ATOM     79  C   UNL     1       0.052  -8.233  16.029  1.00  0.00    -0.014 A 
ATOM     80  C   UNL     1      -0.503  -6.963  16.253  1.00  0.00     0.009 A 
ATOM     81  C   UNL     1       0.657  -8.909  17.100  1.00  0.00     0.009 A 
ATOM     82  C   UNL     1      -0.436  -6.372  17.516  1.00  0.00     0.001 A 
ATOM     83  C   UNL     1       0.695  -8.328  18.369  1.00  0.00     0.001 A 
ATOM     84  C   UNL     1       0.159  -7.057  18.574  1.00  0.00     0.000 A 
ENDBRANCH  66  79
ENDBRANCH  40  41
ENDBRANCH  33  35
ENDBRANCH  32  33
ENDBRANCH  31  32
ENDBRANCH  30  31
ENDBRANCH  29  30
ENDBRANCH  28  29
ENDBRANCH   1  28
TORSDOF 21
