REMARK SMILES NS(=O)(=O)c1ccc(-n2nc(C(=O)NCCCCCCCCCCC(=O)OCCOCCOCCOCCOC(=O)c3ccc(-c4c5nc(c(-c6ccccc6)c6ccc([nH]6)c(-c6ccccc6)c6nc(c(-c7ccccc7)c7ccc4[nH]7)C=C6)C=C5)cc3)cc2-c2ccccc2)cc1
REMARK SMILES IDX 27 1 25 2 26 3 24 4 23 5 22 6 21 7 20 8 19 9 18 10 17 11
REMARK SMILES IDX 16 12 15 13 14 14 12 15 13 16 11 18 9 19 10 20 91 21 90 22
REMARK SMILES IDX 8 23 5 24 6 25 99 26 7 27 98 28 2 29 3 30 4 31 1 32 92 35
REMARK SMILES IDX 93 36 97 37 94 38 96 39 95 40 28 41 29 42 30 43 31 44 32 45
REMARK SMILES IDX 33 46 34 47 35 48 36 49 37 50 38 51 39 52 40 53 41 54 42 55
REMARK SMILES IDX 43 56 89 57 44 58 88 59 45 60 46 61 47 62 82 63 48 64 87 65
REMARK SMILES IDX 81 66 83 67 49 68 86 69 80 70 79 71 50 73 72 74 57 75 71 76
REMARK SMILES IDX 58 77 61 78 70 79 84 80 59 81 60 82 69 84 85 85 62 86 51 87
REMARK SMILES IDX 52 88 56 89 53 90 55 91 54 92 73 93 74 94 78 95 75 96 77 97
REMARK SMILES IDX 76 98 63 99 64 100 68 101 65 102 67 103 66 104
REMARK H PARENT 14 17 1 33 1 34 83 72 61 83
REMARK Flexibility Score: inf
ROOT
ATOM      1  O   UNL     1       2.290 -10.674 -16.888  1.00  0.00    -0.463 OA
ENDROOT
BRANCH   1   2
ATOM      2  C   UNL     1       1.320  -9.759 -17.089  1.00  0.00     0.305 C 
ATOM      3  O   UNL     1       1.199  -9.097 -18.113  1.00  0.00    -0.252 OA
BRANCH   2   4
ATOM      4  C   UNL     1       0.308  -9.663 -15.955  1.00  0.00     0.123 C 
BRANCH   4   5
ATOM      5  C   UNL     1       0.532 -10.301 -14.580  1.00  0.00     0.012 C 
BRANCH   5   6
ATOM      6  C   UNL     1       1.963 -10.272 -14.050  1.00  0.00     0.001 C 
BRANCH   6   7
ATOM      7  C   UNL     1       2.382  -8.845 -13.723  1.00  0.00     0.000 C 
BRANCH   7   8
ATOM      8  C   UNL     1       1.621  -8.310 -12.509  1.00  0.00     0.000 C 
BRANCH   8   9
ATOM      9  C   UNL     1       1.844  -9.178 -11.265  1.00  0.00     0.000 C 
BRANCH   9  10
ATOM     10  C   UNL     1       3.331  -9.262 -10.899  1.00  0.00     0.000 C 
BRANCH  10  11
ATOM     11  C   UNL     1       3.928  -7.882 -10.587  1.00  0.00     0.002 C 
BRANCH  11  12
ATOM     12  C   UNL     1       3.107  -7.117  -9.548  1.00  0.00     0.021 C 
BRANCH  12  13
ATOM     13  C   UNL     1       3.045  -7.908  -8.249  1.00  0.00     0.116 C 
BRANCH  13  14
ATOM     14  N   UNL     1       4.156  -7.546  -7.414  1.00  0.00    -0.351 N 
ATOM     15  C   UNL     1       4.271  -6.667  -6.370  1.00  0.00     0.271 C 
ATOM     16  O   UNL     1       5.424  -6.444  -5.992  1.00  0.00    -0.267 OA
ATOM     17  H   UNL     1       4.992  -8.019  -7.632  1.00  0.00     0.163 HD
BRANCH  15  18
ATOM     18  C   UNL     1       3.087  -6.081  -5.708  1.00  0.00     0.151 A 
ATOM     19  N   UNL     1       2.031  -5.096  -4.122  1.00  0.00    -0.232 N 
ATOM     20  N   UNL     1       3.259  -5.269  -4.647  1.00  0.00    -0.162 NA
ATOM     21  C   UNL     1       1.036  -5.631  -4.911  1.00  0.00     0.075 A 
ATOM     22  C   UNL     1       1.702  -6.204  -5.968  1.00  0.00     0.065 A 
BRANCH  19  23
ATOM     23  C   UNL     1       1.851  -4.349  -2.946  1.00  0.00     0.065 A 
ATOM     24  C   UNL     1       1.146  -2.685  -0.867  1.00  0.00     0.082 A 
ATOM     25  C   UNL     1       0.630  -3.985  -0.907  1.00  0.00     0.024 A 
ATOM     26  C   UNL     1       2.051  -2.230  -1.835  1.00  0.00     0.024 A 
ATOM     27  C   UNL     1       0.977  -4.820  -1.959  1.00  0.00     0.030 A 
ATOM     28  C   UNL     1       2.432  -3.081  -2.868  1.00  0.00     0.030 A 
BRANCH  24  29
ATOM     29  S   UNL     1       0.588  -1.637   0.437  1.00  0.00     0.238 S 
ATOM     30  O   UNL     1       1.191  -2.077   1.663  1.00  0.00    -0.207 OA
ATOM     31  O   UNL     1      -0.844  -1.455   0.281  1.00  0.00    -0.207 OA
BRANCH  29  32
ATOM     32  N   UNL     1       1.263  -0.138   0.096  1.00  0.00    -0.225 NA
ATOM     33  H   UNL     1       0.984   0.532   0.813  1.00  0.00     0.137 HD
ATOM     34  H   UNL     1       0.935   0.183  -0.815  1.00  0.00     0.137 HD
ENDBRANCH  29  32
ENDBRANCH  24  29
ENDBRANCH  19  23
BRANCH  21  35
ATOM     35  C   UNL     1      -0.405  -5.495  -4.737  1.00  0.00     0.000 A 
ATOM     36  C   UNL     1      -1.002  -4.232  -4.654  1.00  0.00     0.010 A 
ATOM     37  C   UNL     1      -1.210  -6.641  -4.704  1.00  0.00     0.010 A 
ATOM     38  C   UNL     1      -2.383  -4.117  -4.511  1.00  0.00     0.001 A 
ATOM     39  C   UNL     1      -2.592  -6.524  -4.567  1.00  0.00     0.001 A 
ATOM     40  C   UNL     1      -3.177  -5.262  -4.467  1.00  0.00     0.000 A 
ENDBRANCH  21  35
ENDBRANCH  15  18
ENDBRANCH  13  14
ENDBRANCH  12  13
ENDBRANCH  11  12
ENDBRANCH  10  11
ENDBRANCH   9  10
ENDBRANCH   8   9
ENDBRANCH   7   8
ENDBRANCH   6   7
ENDBRANCH   5   6
ENDBRANCH   4   5
ENDBRANCH   2   4
ENDBRANCH   1   2
BRANCH   1  41
ATOM     41  C   UNL     1       3.236 -10.901 -17.939  1.00  0.00     0.261 C 
BRANCH  41  42
ATOM     42  C   UNL     1       3.220 -12.311 -18.554  1.00  0.00     0.202 C 
BRANCH  42  43
ATOM     43  O   UNL     1       2.056 -13.120 -18.600  1.00  0.00    -0.376 OA
BRANCH  43  44
ATOM     44  C   UNL     1       1.086 -13.058 -17.571  1.00  0.00     0.188 C 
BRANCH  44  45
ATOM     45  C   UNL     1       1.502 -13.267 -16.105  1.00  0.00     0.188 C 
BRANCH  45  46
ATOM     46  O   UNL     1       2.872 -13.165 -15.789  1.00  0.00    -0.377 OA
BRANCH  46  47
ATOM     47  C   UNL     1       3.676 -14.325 -15.930  1.00  0.00     0.188 C 
BRANCH  47  48
ATOM     48  C   UNL     1       3.218 -15.508 -16.818  1.00  0.00     0.188 C 
BRANCH  48  49
ATOM     49  O   UNL     1       1.816 -15.652 -17.003  1.00  0.00    -0.376 OA
BRANCH  49  50
ATOM     50  C   UNL     1       1.041 -16.620 -16.314  1.00  0.00     0.202 C 
BRANCH  50  51
ATOM     51  C   UNL     1       0.908 -16.508 -14.793  1.00  0.00     0.261 C 
BRANCH  51  52
ATOM     52  O   UNL     1       2.123 -16.183 -14.148  1.00  0.00    -0.460 OA
BRANCH  52  53
ATOM     53  C   UNL     1       3.061 -17.141 -14.253  1.00  0.00     0.338 C 
ATOM     54  O   UNL     1       2.998 -18.171 -14.901  1.00  0.00    -0.246 OA
BRANCH  53  55
ATOM     55  C   UNL     1       4.160 -16.812 -13.345  1.00  0.00     0.060 A 
ATOM     56  C   UNL     1       5.235 -17.695 -13.405  1.00  0.00     0.016 A 
ATOM     57  C   UNL     1       3.825 -16.086 -12.195  1.00  0.00     0.016 A 
ATOM     58  C   UNL     1       5.716 -18.157 -12.210  1.00  0.00     0.010 A 
ATOM     59  C   UNL     1       4.284 -16.567 -11.004  1.00  0.00     0.010 A 
ATOM     60  C   UNL     1       5.123 -17.677 -11.037  1.00  0.00    -0.014 A 
BRANCH  60  61
ATOM     61  C   UNL     1       5.479 -18.309  -9.796  1.00  0.00     0.031 A 
ATOM     62  C   UNL     1       6.792 -17.832  -9.331  1.00  0.00     0.074 A 
ATOM     63  C   UNL     1       4.643 -19.140  -9.149  1.00  0.00     0.049 A 
ATOM     64  N   UNL     1       7.915 -18.463  -9.392  1.00  0.00    -0.248 NA
ATOM     65  C   UNL     1       6.916 -16.395  -9.025  1.00  0.00     0.031 C 
ATOM     66  C   UNL     1       3.232 -19.430  -9.427  1.00  0.00     0.029 A 
ATOM     67  N   UNL     1       4.869 -19.837  -8.009  1.00  0.00    -0.354 N 
ATOM     68  C   UNL     1       8.850 -17.566  -8.897  1.00  0.00     0.074 A 
ATOM     69  C   UNL     1       8.240 -16.266  -8.966  1.00  0.00     0.031 C 
ATOM     70  C   UNL     1       2.680 -20.030  -8.344  1.00  0.00     0.029 A 
ATOM     71  C   UNL     1       3.724 -20.281  -7.364  1.00  0.00     0.049 A 
ATOM     72  H   UNL     1       5.775 -20.014  -7.666  1.00  0.00     0.167 HD
ATOM     73  C   UNL     1       9.884 -18.002  -8.128  1.00  0.00     0.031 A 
ATOM     74  C   UNL     1       3.658 -20.744  -6.089  1.00  0.00     0.031 A 
ATOM     75  C   UNL     1      10.084 -19.422  -8.282  1.00  0.00     0.049 A 
ATOM     76  C   UNL     1       5.042 -21.077  -5.665  1.00  0.00     0.074 A 
ATOM     77  C   UNL     1      10.394 -20.254  -9.339  1.00  0.00     0.029 A 
ATOM     78  N   UNL     1       9.541 -20.226  -7.305  1.00  0.00    -0.354 N 
ATOM     79  N   UNL     1       5.726 -22.061  -6.176  1.00  0.00    -0.248 NA
ATOM     80  C   UNL     1       5.835 -20.021  -5.051  1.00  0.00     0.031 C 
ATOM     81  C   UNL     1       9.626 -21.435  -9.120  1.00  0.00     0.029 A 
ATOM     82  C   UNL     1       8.947 -21.303  -7.907  1.00  0.00     0.049 A 
ATOM     83  H   UNL     1       9.575 -20.055  -6.336  1.00  0.00     0.167 HD
ATOM     84  C   UNL     1       7.006 -21.551  -6.351  1.00  0.00     0.074 A 
ATOM     85  C   UNL     1       7.036 -20.322  -5.558  1.00  0.00     0.031 C 
ATOM     86  C   UNL     1       7.810 -22.009  -7.356  1.00  0.00     0.031 A 
BRANCH  73  87
ATOM     87  C   UNL     1      10.338 -17.255  -6.894  1.00  0.00    -0.014 A 
ATOM     88  C   UNL     1      11.366 -17.819  -6.124  1.00  0.00     0.009 A 
ATOM     89  C   UNL     1       9.622 -16.193  -6.303  1.00  0.00     0.009 A 
ATOM     90  C   UNL     1      11.594 -17.410  -4.805  1.00  0.00     0.001 A 
ATOM     91  C   UNL     1       9.872 -15.755  -5.003  1.00  0.00     0.001 A 
ATOM     92  C   UNL     1      10.838 -16.387  -4.241  1.00  0.00     0.000 A 
ENDBRANCH  73  87
BRANCH  74  93
ATOM     93  C   UNL     1       2.555 -20.609  -5.109  1.00  0.00    -0.014 A 
ATOM     94  C   UNL     1       2.480 -21.440  -3.979  1.00  0.00     0.009 A 
ATOM     95  C   UNL     1       1.722 -19.476  -5.141  1.00  0.00     0.009 A 
ATOM     96  C   UNL     1       1.621 -21.133  -2.913  1.00  0.00     0.001 A 
ATOM     97  C   UNL     1       0.866 -19.169  -4.077  1.00  0.00     0.001 A 
ATOM     98  C   UNL     1       0.823 -19.992  -2.957  1.00  0.00     0.000 A 
ENDBRANCH  74  93
BRANCH  86  99
ATOM     99  C   UNL     1       7.365 -23.243  -8.105  1.00  0.00    -0.014 A 
ATOM    100  C   UNL     1       6.192 -23.302  -8.882  1.00  0.00     0.009 A 
ATOM    101  C   UNL     1       8.246 -24.332  -8.149  1.00  0.00     0.009 A 
ATOM    102  C   UNL     1       5.905 -24.432  -9.657  1.00  0.00     0.001 A 
ATOM    103  C   UNL     1       7.970 -25.449  -8.939  1.00  0.00     0.001 A 
ATOM    104  C   UNL     1       6.798 -25.502  -9.689  1.00  0.00     0.000 A 
ENDBRANCH  86  99
ENDBRANCH  60  61
ENDBRANCH  53  55
ENDBRANCH  52  53
ENDBRANCH  51  52
ENDBRANCH  50  51
ENDBRANCH  49  50
ENDBRANCH  48  49
ENDBRANCH  47  48
ENDBRANCH  46  47
ENDBRANCH  45  46
ENDBRANCH  44  45
ENDBRANCH  43  44
ENDBRANCH  42  43
ENDBRANCH  41  42
ENDBRANCH   1  41
TORSDOF 35
