REMARK SMILES O=C(OCCOCCOCCOCCOC(=O)C1CC[NH+]([C@H]2CC(=O)N(c3ccc4c(c3)OCCO4)C2=O)CC1)c1ccc(-c2c3nc(c(-c4ccccc4)c4ccc([nH]4)c(-c4ccccc4)c4nc(c(-c5ccccc5)c5ccc2[nH]5)C=C4)C=C3)cc1
REMARK SMILES IDX 9 1 8 2 7 3 6 4 5 5 4 6 3 7 2 8 1 9 41 10 42 11 88 12 43 13
REMARK SMILES IDX 87 14 44 15 45 16 46 17 81 18 47 19 86 20 80 21 82 22 48 23
REMARK SMILES IDX 85 24 79 25 78 26 49 28 71 29 56 30 70 31 57 32 60 33 69 34
REMARK SMILES IDX 83 35 58 36 59 37 68 39 84 40 61 41 50 42 51 43 55 44 52 45
REMARK SMILES IDX 54 46 53 47 72 48 73 49 77 50 74 51 76 52 75 53 62 54 63 55
REMARK SMILES IDX 67 56 64 57 66 58 65 59 10 60 11 61 12 62 13 63 14 64 15 65
REMARK SMILES IDX 16 66 17 67 18 68 19 69 40 70 20 71 39 72 21 73 22 75 23 76
REMARK SMILES IDX 37 77 24 78 26 79 38 80 25 81 27 82 28 83 32 84 29 85 31 86
REMARK SMILES IDX 30 87 33 88 36 89 34 90 35 91
REMARK H PARENT 82 27 60 38 21 74
REMARK Flexibility Score: inf
ROOT
ATOM      1  O   UNL     1       6.985  -0.151 -11.672  1.00  0.00    -0.377 OA
ENDROOT
BRANCH   1   2
ATOM      2  C   UNL     1       7.562   1.023 -12.251  1.00  0.00     0.188 C 
BRANCH   2   3
ATOM      3  C   UNL     1       6.763   2.322 -12.082  1.00  0.00     0.188 C 
BRANCH   3   4
ATOM      4  O   UNL     1       6.532   2.644 -10.713  1.00  0.00    -0.376 OA
BRANCH   4   5
ATOM      5  C   UNL     1       5.222   3.026 -10.304  1.00  0.00     0.202 C 
BRANCH   5   6
ATOM      6  C   UNL     1       4.715   4.345 -10.855  1.00  0.00     0.261 C 
BRANCH   6   7
ATOM      7  O   UNL     1       5.535   4.957 -11.861  1.00  0.00    -0.460 OA
BRANCH   7   8
ATOM      8  C   UNL     1       6.795   5.439 -11.826  1.00  0.00     0.338 C 
ATOM      9  O   UNL     1       7.333   5.725 -12.896  1.00  0.00    -0.246 OA
BRANCH   8  10
ATOM     10  C   UNL     1       7.560   5.731 -10.584  1.00  0.00     0.060 A 
ATOM     11  C   UNL     1       7.572   4.967  -9.419  1.00  0.00     0.016 A 
ATOM     12  C   UNL     1       8.425   6.835 -10.649  1.00  0.00     0.016 A 
ATOM     13  C   UNL     1       8.319   5.324  -8.315  1.00  0.00     0.010 A 
ATOM     14  C   UNL     1       9.211   7.194  -9.555  1.00  0.00     0.010 A 
ATOM     15  C   UNL     1       9.112   6.457  -8.371  1.00  0.00    -0.014 A 
BRANCH  15  16
ATOM     16  C   UNL     1       9.607   6.975  -7.095  1.00  0.00     0.031 A 
ATOM     17  C   UNL     1       8.874   8.145  -6.519  1.00  0.00     0.074 A 
ATOM     18  C   UNL     1      10.547   6.302  -6.415  1.00  0.00     0.049 A 
ATOM     19  N   UNL     1       9.160   8.868  -5.475  1.00  0.00    -0.248 NA
ATOM     20  C   UNL     1       7.639   8.551  -7.218  1.00  0.00     0.031 C 
ATOM     21  C   UNL     1      11.151   5.032  -6.831  1.00  0.00     0.029 A 
ATOM     22  N   UNL     1      11.134   6.576  -5.214  1.00  0.00    -0.354 N 
ATOM     23  C   UNL     1       8.177   9.848  -5.430  1.00  0.00     0.074 A 
ATOM     24  C   UNL     1       7.284   9.629  -6.540  1.00  0.00     0.031 C 
ATOM     25  C   UNL     1      12.024   4.636  -5.890  1.00  0.00     0.029 A 
ATOM     26  C   UNL     1      12.101   5.667  -4.864  1.00  0.00     0.049 A 
ATOM     27  H   UNL     1      10.888   7.348  -4.654  1.00  0.00     0.167 HD
ATOM     28  C   UNL     1       8.061  10.857  -4.538  1.00  0.00     0.031 A 
ATOM     29  C   UNL     1      12.986   5.718  -3.855  1.00  0.00     0.031 A 
ATOM     30  C   UNL     1       8.989  11.031  -3.459  1.00  0.00     0.049 A 
ATOM     31  C   UNL     1      12.926   6.920  -2.953  1.00  0.00     0.074 A 
ATOM     32  C   UNL     1       9.058  12.042  -2.523  1.00  0.00     0.029 A 
ATOM     33  N   UNL     1      10.026  10.146  -3.181  1.00  0.00    -0.354 N 
ATOM     34  N   UNL     1      12.071   7.918  -2.966  1.00  0.00    -0.248 NA
ATOM     35  C   UNL     1      13.954   7.016  -1.913  1.00  0.00     0.031 C 
ATOM     36  C   UNL     1      10.175  11.798  -1.716  1.00  0.00     0.029 A 
ATOM     37  C   UNL     1      10.756  10.596  -2.101  1.00  0.00     0.049 A 
ATOM     38  H   UNL     1      10.211   9.319  -3.682  1.00  0.00     0.167 HD
ATOM     39  C   UNL     1      12.441   8.752  -1.921  1.00  0.00     0.074 A 
ATOM     40  C   UNL     1      13.591   8.129  -1.289  1.00  0.00     0.031 C 
ATOM     41  C   UNL     1      11.890   9.923  -1.514  1.00  0.00     0.031 A 
BRANCH  28  42
ATOM     42  C   UNL     1       6.982  11.869  -4.796  1.00  0.00    -0.014 A 
ATOM     43  C   UNL     1       5.618  11.557  -4.671  1.00  0.00     0.009 A 
ATOM     44  C   UNL     1       7.343  13.145  -5.258  1.00  0.00     0.009 A 
ATOM     45  C   UNL     1       4.642  12.483  -5.052  1.00  0.00     0.001 A 
ATOM     46  C   UNL     1       6.366  14.079  -5.607  1.00  0.00     0.001 A 
ATOM     47  C   UNL     1       5.017  13.742  -5.518  1.00  0.00     0.000 A 
ENDBRANCH  28  42
BRANCH  29  48
ATOM     48  C   UNL     1      14.026   4.665  -3.711  1.00  0.00    -0.014 A 
ATOM     49  C   UNL     1      14.052   3.822  -2.592  1.00  0.00     0.009 A 
ATOM     50  C   UNL     1      15.003   4.491  -4.708  1.00  0.00     0.009 A 
ATOM     51  C   UNL     1      15.044   2.844  -2.464  1.00  0.00     0.001 A 
ATOM     52  C   UNL     1      15.972   3.493  -4.594  1.00  0.00     0.001 A 
ATOM     53  C   UNL     1      15.998   2.676  -3.466  1.00  0.00     0.000 A 
ENDBRANCH  29  48
BRANCH  41  54
ATOM     54  C   UNL     1      12.494  10.562  -0.300  1.00  0.00    -0.014 A 
ATOM     55  C   UNL     1      13.745  11.193  -0.351  1.00  0.00     0.009 A 
ATOM     56  C   UNL     1      11.758  10.587   0.894  1.00  0.00     0.009 A 
ATOM     57  C   UNL     1      14.262  11.812   0.787  1.00  0.00     0.001 A 
ATOM     58  C   UNL     1      12.261  11.238   2.018  1.00  0.00     0.001 A 
ATOM     59  C   UNL     1      13.516  11.842   1.966  1.00  0.00     0.000 A 
ENDBRANCH  41  54
ENDBRANCH  15  16
ENDBRANCH   8  10
ENDBRANCH   7   8
ENDBRANCH   6   7
ENDBRANCH   5   6
ENDBRANCH   4   5
ENDBRANCH   3   4
ENDBRANCH   2   3
ENDBRANCH   1   2
BRANCH   1  60
ATOM     60  C   UNL     1       6.500   0.006 -10.346  1.00  0.00     0.188 C 
BRANCH  60  61
ATOM     61  C   UNL     1       7.503   0.402  -9.233  1.00  0.00     0.188 C 
BRANCH  61  62
ATOM     62  O   UNL     1       8.673   1.105  -9.649  1.00  0.00    -0.376 OA
BRANCH  62  63
ATOM     63  C   UNL     1       9.915   0.455  -9.355  1.00  0.00     0.202 C 
BRANCH  63  64
ATOM     64  C   UNL     1      10.282  -0.710 -10.296  1.00  0.00     0.261 C 
BRANCH  64  65
ATOM     65  O   UNL     1       9.215  -1.660 -10.421  1.00  0.00    -0.463 OA
BRANCH  65  66
ATOM     66  C   UNL     1       9.116  -2.638  -9.488  1.00  0.00     0.309 C 
ATOM     67  O   UNL     1      10.020  -2.998  -8.738  1.00  0.00    -0.252 OA
BRANCH  66  68
ATOM     68  C   UNL     1       7.661  -3.046  -9.363  1.00  0.00     0.110 C 
ATOM     69  C   UNL     1       7.204  -2.867  -7.909  1.00  0.00     0.077 C 
ATOM     70  C   UNL     1       7.273  -4.363 -10.007  1.00  0.00     0.077 C 
ATOM     71  C   UNL     1       7.415  -4.125  -7.085  1.00  0.00     0.263 C 
ATOM     72  C   UNL     1       7.460  -5.534  -9.064  1.00  0.00     0.263 C 
ATOM     73  N   UNL     1       6.899  -5.325  -7.729  1.00  0.00    -0.324 N 
ATOM     74  H   UNL     1       7.272  -6.134  -7.234  1.00  0.00     0.348 HD
BRANCH  73  75
ATOM     75  C   UNL     1       5.466  -5.573  -7.498  1.00  0.00     0.284 C 
ATOM     76  C   UNL     1       4.429  -4.647  -8.116  1.00  0.00     0.176 C 
ATOM     77  C   UNL     1       5.052  -6.957  -7.969  1.00  0.00     0.292 C 
ATOM     78  C   UNL     1       3.662  -5.503  -9.066  1.00  0.00     0.240 C 
ATOM     79  N   UNL     1       4.062  -6.806  -8.912  1.00  0.00    -0.245 N 
ATOM     80  O   UNL     1       5.576  -8.000  -7.593  1.00  0.00    -0.267 OA
ATOM     81  O   UNL     1       2.776  -5.055  -9.777  1.00  0.00    -0.274 OA
BRANCH  79  82
ATOM     82  C   UNL     1       3.481  -7.876  -9.616  1.00  0.00     0.056 A 
ATOM     83  C   UNL     1       3.160  -9.065  -8.949  1.00  0.00     0.031 A 
ATOM     84  C   UNL     1       3.199  -7.751 -10.981  1.00  0.00     0.077 A 
ATOM     85  C   UNL     1       2.523 -10.102  -9.628  1.00  0.00     0.052 A 
ATOM     86  C   UNL     1       2.606  -8.806 -11.667  1.00  0.00     0.163 A 
ATOM     87  C   UNL     1       2.261  -9.978 -10.989  1.00  0.00     0.161 A 
ATOM     88  O   UNL     1       2.409  -8.626 -13.011  1.00  0.00    -0.486 OA
ATOM     89  O   UNL     1       1.653 -11.045 -11.594  1.00  0.00    -0.486 OA
ATOM     90  C   UNL     1       1.489  -9.586 -13.536  1.00  0.00     0.271 C 
ATOM     91  C   UNL     1       1.796 -10.982 -13.016  1.00  0.00     0.271 C 
ENDBRANCH  79  82
ENDBRANCH  73  75
ENDBRANCH  66  68
ENDBRANCH  65  66
ENDBRANCH  64  65
ENDBRANCH  63  64
ENDBRANCH  62  63
ENDBRANCH  61  62
ENDBRANCH  60  61
ENDBRANCH   1  60
TORSDOF 22
