REMARK SMILES O=C(OCCOCCOCCOCCOC(=O)c1ccccc1C(=O)Nc1ccc(N2C(=O)[C@H]3[C@@H]4CC[C@@H](C4)[C@@H]3C2=O)cc1)c1ccc(-c2c3nc(c(-c4ccccc4)c4ccc([nH]4)c(-c4ccccc4)c4nc(c(-c5ccccc5)c5ccc2[nH]5)C=C4)C=C3)cc1
REMARK SMILES IDX 10 1 9 2 8 3 7 4 6 5 5 6 4 7 3 8 2 9 1 10 45 11 46 12 92 13
REMARK SMILES IDX 47 14 91 15 48 16 49 17 50 18 85 19 51 20 90 21 84 22 86 23
REMARK SMILES IDX 52 24 89 25 83 26 82 27 53 29 75 30 60 31 74 32 61 33 64 34
REMARK SMILES IDX 73 35 87 36 62 37 63 38 72 40 88 41 65 42 54 43 55 44 59 45
REMARK SMILES IDX 56 46 58 47 57 48 76 49 77 50 81 51 78 52 80 53 79 54 66 55
REMARK SMILES IDX 67 56 71 57 68 58 70 59 69 60 11 61 12 62 13 63 14 64 15 65
REMARK SMILES IDX 16 66 17 67 18 68 19 69 23 70 20 71 22 72 21 73 24 74 25 75
REMARK SMILES IDX 26 76 27 78 28 79 44 80 29 81 43 82 30 83 31 84 32 85 41 86
REMARK SMILES IDX 33 87 34 88 40 89 42 90 35 91 38 92 36 93 39 94 37 95
REMARK H PARENT 86 28 64 39 26 77
REMARK Flexibility Score: inf
ROOT
ATOM      1  C   UNL     1       2.969  -2.145  -2.507  1.00  0.00     0.188 C 
ENDROOT
BRANCH   1   2
ATOM      2  O   UNL     1       1.622  -2.472  -2.269  1.00  0.00    -0.377 OA
BRANCH   2   3
ATOM      3  C   UNL     1       0.953  -1.561  -1.417  1.00  0.00     0.188 C 
BRANCH   3   4
ATOM      4  C   UNL     1       1.627  -1.355  -0.057  1.00  0.00     0.188 C 
BRANCH   4   5
ATOM      5  O   UNL     1       2.864  -0.655  -0.125  1.00  0.00    -0.376 OA
BRANCH   5   6
ATOM      6  C   UNL     1       4.032  -1.167   0.520  1.00  0.00     0.202 C 
BRANCH   6   7
ATOM      7  C   UNL     1       3.899  -1.295   2.026  1.00  0.00     0.261 C 
BRANCH   7   8
ATOM      8  O   UNL     1       3.503  -0.059   2.648  1.00  0.00    -0.460 OA
BRANCH   8   9
ATOM      9  C   UNL     1       2.304   0.493   2.328  1.00  0.00     0.338 C 
ATOM     10  O   UNL     1       1.202   0.048   2.588  1.00  0.00    -0.246 OA
BRANCH   9  11
ATOM     11  C   UNL     1       2.583   1.859   1.829  1.00  0.00     0.060 A 
ATOM     12  C   UNL     1       3.493   2.072   0.792  1.00  0.00     0.016 A 
ATOM     13  C   UNL     1       2.028   2.950   2.489  1.00  0.00     0.016 A 
ATOM     14  C   UNL     1       3.991   3.328   0.536  1.00  0.00     0.010 A 
ATOM     15  C   UNL     1       2.528   4.231   2.229  1.00  0.00     0.010 A 
ATOM     16  C   UNL     1       3.578   4.403   1.312  1.00  0.00    -0.014 A 
BRANCH  16  17
ATOM     17  C   UNL     1       4.456   5.593   1.312  1.00  0.00     0.031 A 
ATOM     18  C   UNL     1       5.397   5.771   2.474  1.00  0.00     0.074 A 
ATOM     19  C   UNL     1       4.600   6.344   0.206  1.00  0.00     0.049 A 
ATOM     20  N   UNL     1       6.256   6.727   2.708  1.00  0.00    -0.248 NA
ATOM     21  C   UNL     1       5.389   4.709   3.497  1.00  0.00     0.031 C 
ATOM     22  C   UNL     1       3.948   6.086  -1.079  1.00  0.00     0.029 A 
ATOM     23  N   UNL     1       5.418   7.414  -0.042  1.00  0.00    -0.354 N 
ATOM     24  C   UNL     1       6.815   6.432   3.947  1.00  0.00     0.074 A 
ATOM     25  C   UNL     1       6.246   5.181   4.388  1.00  0.00     0.031 C 
ATOM     26  C   UNL     1       4.465   6.914  -2.002  1.00  0.00     0.029 A 
ATOM     27  C   UNL     1       5.399   7.830  -1.352  1.00  0.00     0.049 A 
ATOM     28  H   UNL     1       5.968   7.845   0.652  1.00  0.00     0.167 HD
ATOM     29  C   UNL     1       7.686   7.172   4.672  1.00  0.00     0.031 A 
ATOM     30  C   UNL     1       6.069   8.834  -1.950  1.00  0.00     0.031 A 
ATOM     31  C   UNL     1       8.242   8.415   4.213  1.00  0.00     0.049 A 
ATOM     32  C   UNL     1       6.953   9.706  -1.095  1.00  0.00     0.074 A 
ATOM     33  C   UNL     1       9.033   9.317   4.900  1.00  0.00     0.029 A 
ATOM     34  N   UNL     1       8.063   8.926   2.936  1.00  0.00    -0.354 N 
ATOM     35  N   UNL     1       7.352   9.524   0.142  1.00  0.00    -0.248 NA
ATOM     36  C   UNL     1       7.445  10.947  -1.709  1.00  0.00     0.031 C 
ATOM     37  C   UNL     1       9.265  10.413   4.062  1.00  0.00     0.029 A 
ATOM     38  C   UNL     1       8.697  10.150   2.825  1.00  0.00     0.049 A 
ATOM     39  H   UNL     1       7.559   8.482   2.216  1.00  0.00     0.167 HD
ATOM     40  C   UNL     1       8.135  10.630   0.455  1.00  0.00     0.074 A 
ATOM     41  C   UNL     1       8.195  11.449  -0.739  1.00  0.00     0.031 C 
ATOM     42  C   UNL     1       8.733  10.953   1.629  1.00  0.00     0.031 A 
BRANCH  29  43
ATOM     43  C   UNL     1       7.930   6.736   6.090  1.00  0.00    -0.014 A 
ATOM     44  C   UNL     1       8.664   5.587   6.419  1.00  0.00     0.009 A 
ATOM     45  C   UNL     1       7.349   7.487   7.126  1.00  0.00     0.009 A 
ATOM     46  C   UNL     1       8.762   5.172   7.751  1.00  0.00     0.001 A 
ATOM     47  C   UNL     1       7.480   7.092   8.457  1.00  0.00     0.001 A 
ATOM     48  C   UNL     1       8.172   5.925   8.767  1.00  0.00     0.000 A 
ENDBRANCH  29  43
BRANCH  30  49
ATOM     49  C   UNL     1       5.893   9.119  -3.402  1.00  0.00    -0.014 A 
ATOM     50  C   UNL     1       6.993   9.127  -4.275  1.00  0.00     0.009 A 
ATOM     51  C   UNL     1       4.625   9.432  -3.922  1.00  0.00     0.009 A 
ATOM     52  C   UNL     1       6.830   9.469  -5.621  1.00  0.00     0.001 A 
ATOM     53  C   UNL     1       4.458   9.728  -5.276  1.00  0.00     0.001 A 
ATOM     54  C   UNL     1       5.563   9.762  -6.121  1.00  0.00     0.000 A 
ENDBRANCH  30  49
BRANCH  42  55
ATOM     55  C   UNL     1       9.510  12.241   1.682  1.00  0.00    -0.014 A 
ATOM     56  C   UNL     1       8.866  13.487   1.625  1.00  0.00     0.009 A 
ATOM     57  C   UNL     1      10.902  12.206   1.862  1.00  0.00     0.009 A 
ATOM     58  C   UNL     1       9.604  14.669   1.710  1.00  0.00     0.001 A 
ATOM     59  C   UNL     1      11.633  13.388   1.985  1.00  0.00     0.001 A 
ATOM     60  C   UNL     1      10.984  14.618   1.898  1.00  0.00     0.000 A 
ENDBRANCH  42  55
ENDBRANCH  16  17
ENDBRANCH   9  11
ENDBRANCH   8   9
ENDBRANCH   7   8
ENDBRANCH   6   7
ENDBRANCH   5   6
ENDBRANCH   4   5
ENDBRANCH   3   4
ENDBRANCH   2   3
ENDBRANCH   1   2
BRANCH   1  61
ATOM     61  C   UNL     1       3.301  -0.660  -2.729  1.00  0.00     0.188 C 
BRANCH  61  62
ATOM     62  O   UNL     1       2.289   0.085  -3.470  1.00  0.00    -0.376 OA
BRANCH  62  63
ATOM     63  C   UNL     1       2.492   1.393  -4.107  1.00  0.00     0.202 C 
BRANCH  63  64
ATOM     64  C   UNL     1       3.318   1.658  -5.692  1.00  0.00     0.261 C 
BRANCH  64  65
ATOM     65  O   UNL     1       4.936   0.643  -6.340  1.00  0.00    -0.460 OA
BRANCH  65  66
ATOM     66  C   UNL     1       5.819  -0.462  -6.598  1.00  0.00     0.339 C 
ATOM     67  O   UNL     1       6.961  -0.234  -6.996  1.00  0.00    -0.246 OA
BRANCH  66  68
ATOM     68  C   UNL     1       5.510  -1.922  -6.258  1.00  0.00     0.072 A 
ATOM     69  C   UNL     1       6.403  -2.479  -5.304  1.00  0.00     0.016 A 
ATOM     70  C   UNL     1       4.531  -2.767  -6.846  1.00  0.00     0.054 A 
ATOM     71  C   UNL     1       6.460  -3.854  -5.064  1.00  0.00     0.001 A 
ATOM     72  C   UNL     1       4.651  -4.162  -6.615  1.00  0.00     0.015 A 
ATOM     73  C   UNL     1       5.625  -4.703  -5.772  1.00  0.00     0.001 A 
BRANCH  70  74
ATOM     74  C   UNL     1       3.316  -2.401  -7.687  1.00  0.00     0.256 C 
ATOM     75  O   UNL     1       2.650  -3.298  -8.209  1.00  0.00    -0.269 OA
ATOM     76  N   UNL     1       2.912  -1.103  -7.910  1.00  0.00    -0.322 N 
ATOM     77  H   UNL     1       2.292  -0.930  -8.655  1.00  0.00     0.170 HD
BRANCH  76  78
ATOM     78  C   UNL     1       3.328  -0.031  -7.149  1.00  0.00     0.041 A 
ATOM     79  C   UNL     1       3.639  -0.390  -5.434  1.00  0.00     0.028 A 
ATOM     80  C   UNL     1       4.060   1.429  -7.880  1.00  0.00     0.028 A 
ATOM     81  C   UNL     1       4.777   0.709  -4.483  1.00  0.00     0.029 A 
ATOM     82  C   UNL     1       5.151   2.495  -6.916  1.00  0.00     0.029 A 
ATOM     83  C   UNL     1       5.518   2.143  -5.207  1.00  0.00     0.052 A 
BRANCH  83  84
ATOM     84  N   UNL     1       6.307   2.882  -4.277  1.00  0.00    -0.250 N 
ATOM     85  C   UNL     1       7.046   4.066  -4.446  1.00  0.00     0.237 C 
ATOM     86  C   UNL     1       6.483   2.446  -2.944  1.00  0.00     0.237 C 
ATOM     87  O   UNL     1       7.013   4.901  -5.328  1.00  0.00    -0.274 OA
ATOM     88  C   UNL     1       7.969   4.029  -3.220  1.00  0.00     0.095 C 
ATOM     89  C   UNL     1       6.871   3.673  -2.227  1.00  0.00     0.095 C 
ATOM     90  O   UNL     1       6.472   1.351  -2.408  1.00  0.00    -0.274 OA
ATOM     91  C   UNL     1       8.921   4.807  -2.306  1.00  0.00     0.002 C 
ATOM     92  C   UNL     1       7.497   3.841  -0.859  1.00  0.00     0.002 C 
ATOM     93  C   UNL     1       9.775   3.706  -1.576  1.00  0.00     0.005 C 
ATOM     94  C   UNL     1       8.086   5.239  -1.094  1.00  0.00     0.009 C 
ATOM     95  C   UNL     1       8.749   2.991  -0.670  1.00  0.00     0.005 C 
ENDBRANCH  83  84
ENDBRANCH  76  78
ENDBRANCH  70  74
ENDBRANCH  66  68
ENDBRANCH  65  66
ENDBRANCH  64  65
ENDBRANCH  63  64
ENDBRANCH  62  63
ENDBRANCH  61  62
ENDBRANCH   1  61
TORSDOF 23
