REMARK SMILES O=C(C[N@@H+]1CC[N@H+](Cc2cc(F)ccc2Cl)[C@H]2CS(=O)(=O)C[C@H]21)OCCOCCOCCOCCOC(=O)c1ccc(-c2c3nc(c(-c4ccccc4)c4ccc([nH]4)c(-c4ccccc4)c4nc(c(-c5ccccc5)c5ccc2[nH]5)C=C4)C=C3)cc1
REMARK SMILES IDX 29 1 28 2 27 3 26 4 25 5 24 6 2 7 1 8 3 9 4 10 5 11 23 12
REMARK SMILES IDX 6 14 17 15 22 16 7 17 18 18 19 19 20 21 21 22 8 23 9 24
REMARK SMILES IDX 10 25 15 26 11 27 14 28 16 29 12 30 13 31 30 32 31 33 32 34
REMARK SMILES IDX 33 35 34 36 35 37 36 38 37 39 38 40 39 41 40 42 86 43 41 44
REMARK SMILES IDX 85 45 42 46 43 47 44 48 79 49 45 50 84 51 78 52 80 53 46 54
REMARK SMILES IDX 83 55 77 56 76 57 47 59 69 60 54 61 68 62 55 63 58 64 67 65
REMARK SMILES IDX 81 66 56 67 57 68 66 70 82 71 59 72 48 73 49 74 53 75 50 76
REMARK SMILES IDX 52 77 51 78 70 79 71 80 75 81 72 82 74 83 73 84 60 85 61 86
REMARK SMILES IDX 65 87 62 88 64 89 63 90
REMARK H PARENT 4 13 7 20 80 58 58 69
REMARK Flexibility Score: inf
ROOT
ATOM      1  C   UNL     1       1.827  -0.945   2.109  1.00  0.00     0.188 C 
ENDROOT
BRANCH   1   2
ATOM      2  C   UNL     1       2.520  -1.258   0.791  1.00  0.00     0.188 C 
BRANCH   2   3
ATOM      3  O   UNL     1       3.889  -0.899   0.592  1.00  0.00    -0.376 OA
BRANCH   3   4
ATOM      4  C   UNL     1       4.417   0.363   0.970  1.00  0.00     0.202 C 
BRANCH   4   5
ATOM      5  C   UNL     1       3.882   1.619   0.294  1.00  0.00     0.261 C 
BRANCH   5   6
ATOM      6  O   UNL     1       2.556   1.478  -0.204  1.00  0.00    -0.459 OA
BRANCH   6   7
ATOM      7  C   UNL     1       2.324   1.300  -1.531  1.00  0.00     0.361 C 
ATOM      8  O   UNL     1       1.408   1.926  -2.063  1.00  0.00    -0.245 OA
BRANCH   7   9
ATOM      9  C   UNL     1       3.001   0.126  -2.250  1.00  0.00     0.387 C 
BRANCH   9  10
ATOM     10  N   UNL     1       4.224   0.450  -3.034  1.00  0.00    -0.313 N 
ATOM     11  C   UNL     1       4.203  -0.324  -4.300  1.00  0.00     0.325 C 
ATOM     12  C   UNL     1       5.455   0.059  -2.304  1.00  0.00     0.259 C 
ATOM     13  H   UNL     1       4.231   1.456  -3.201  1.00  0.00     0.349 HD
ATOM     14  C   UNL     1       4.354  -1.849  -4.095  1.00  0.00     0.325 C 
ATOM     15  C   UNL     1       5.779  -1.472  -2.139  1.00  0.00     0.259 C 
ATOM     16  C   UNL     1       6.704   0.727  -2.868  1.00  0.00     0.208 C 
ATOM     17  N   UNL     1       5.578  -2.249  -3.378  1.00  0.00    -0.318 N 
ATOM     18  C   UNL     1       7.216  -1.544  -1.574  1.00  0.00     0.208 C 
ATOM     19  S   UNL     1       7.983   0.043  -1.849  1.00  0.00     0.162 S 
ATOM     20  H   UNL     1       6.370  -1.998  -3.970  1.00  0.00     0.349 HD
ATOM     21  O   UNL     1       7.980   0.769  -0.592  1.00  0.00    -0.228 OA
ATOM     22  O   UNL     1       9.186  -0.116  -2.638  1.00  0.00    -0.228 OA
BRANCH  17  23
ATOM     23  C   UNL     1       5.701  -3.722  -3.224  1.00  0.00     0.301 C 
BRANCH  23  24
ATOM     24  C   UNL     1       4.667  -4.463  -2.386  1.00  0.00     0.028 A 
ATOM     25  C   UNL     1       3.367  -4.653  -2.899  1.00  0.00     0.050 A 
ATOM     26  C   UNL     1       4.957  -5.054  -1.142  1.00  0.00     0.050 A 
ATOM     27  C   UNL     1       2.389  -5.323  -2.168  1.00  0.00     0.123 A 
ATOM     28  C   UNL     1       3.977  -5.778  -0.442  1.00  0.00     0.024 A 
ATOM     29  Cl  UNL     1       6.523  -4.969  -0.418  1.00  0.00    -0.084 Cl
ATOM     30  F   UNL     1       1.151  -5.426  -2.669  1.00  0.00    -0.207 F 
ATOM     31  C   UNL     1       2.682  -5.891  -0.942  1.00  0.00     0.041 A 
ENDBRANCH  23  24
ENDBRANCH  17  23
ENDBRANCH   9  10
ENDBRANCH   7   9
ENDBRANCH   6   7
ENDBRANCH   5   6
ENDBRANCH   4   5
ENDBRANCH   3   4
ENDBRANCH   2   3
ENDBRANCH   1   2
BRANCH   1  32
ATOM     32  O   UNL     1       2.268  -1.729   3.201  1.00  0.00    -0.377 OA
BRANCH  32  33
ATOM     33  C   UNL     1       3.595  -1.479   3.612  1.00  0.00     0.188 C 
BRANCH  33  34
ATOM     34  C   UNL     1       4.670  -2.416   3.024  1.00  0.00     0.188 C 
BRANCH  34  35
ATOM     35  O   UNL     1       4.354  -3.697   2.495  1.00  0.00    -0.376 OA
BRANCH  35  36
ATOM     36  C   UNL     1       3.153  -4.357   2.844  1.00  0.00     0.202 C 
BRANCH  36  37
ATOM     37  C   UNL     1       2.862  -4.715   4.309  1.00  0.00     0.261 C 
BRANCH  37  38
ATOM     38  O   UNL     1       3.283  -3.762   5.288  1.00  0.00    -0.460 OA
BRANCH  38  39
ATOM     39  C   UNL     1       4.527  -3.941   5.790  1.00  0.00     0.338 C 
ATOM     40  O   UNL     1       5.281  -4.876   5.574  1.00  0.00    -0.246 OA
BRANCH  39  41
ATOM     41  C   UNL     1       4.941  -2.701   6.490  1.00  0.00     0.060 A 
ATOM     42  C   UNL     1       6.219  -2.192   6.217  1.00  0.00     0.016 A 
ATOM     43  C   UNL     1       4.074  -2.007   7.344  1.00  0.00     0.016 A 
ATOM     44  C   UNL     1       6.663  -1.036   6.848  1.00  0.00     0.010 A 
ATOM     45  C   UNL     1       4.529  -0.860   8.001  1.00  0.00     0.010 A 
ATOM     46  C   UNL     1       5.849  -0.417   7.803  1.00  0.00    -0.014 A 
BRANCH  46  47
ATOM     47  C   UNL     1       6.513   0.422   8.827  1.00  0.00     0.031 A 
ATOM     48  C   UNL     1       6.957  -0.272  10.089  1.00  0.00     0.074 A 
ATOM     49  C   UNL     1       6.804   1.716   8.617  1.00  0.00     0.049 A 
ATOM     50  N   UNL     1       7.609   0.203  11.118  1.00  0.00    -0.248 NA
ATOM     51  C   UNL     1       6.620  -1.704  10.202  1.00  0.00     0.031 C 
ATOM     52  C   UNL     1       6.487   2.478   7.411  1.00  0.00     0.029 A 
ATOM     53  N   UNL     1       7.455   2.614   9.424  1.00  0.00    -0.354 N 
ATOM     54  C   UNL     1       7.749  -0.867  11.995  1.00  0.00     0.074 A 
ATOM     55  C   UNL     1       7.084  -2.002  11.402  1.00  0.00     0.031 C 
ATOM     56  C   UNL     1       6.953   3.732   7.556  1.00  0.00     0.029 A 
ATOM     57  C   UNL     1       7.575   3.865   8.872  1.00  0.00     0.049 A 
ATOM     58  H   UNL     1       7.803   2.383  10.316  1.00  0.00     0.167 HD
ATOM     59  C   UNL     1       8.384  -0.907  13.188  1.00  0.00     0.031 A 
ATOM     60  C   UNL     1       8.123   4.985   9.381  1.00  0.00     0.031 A 
ATOM     61  C   UNL     1       9.036   0.225  13.783  1.00  0.00     0.049 A 
ATOM     62  C   UNL     1       8.754   4.936  10.750  1.00  0.00     0.074 A 
ATOM     63  C   UNL     1       9.714   0.295  14.985  1.00  0.00     0.029 A 
ATOM     64  N   UNL     1       9.081   1.489  13.216  1.00  0.00    -0.354 N 
ATOM     65  N   UNL     1       8.899   3.917  11.563  1.00  0.00    -0.248 NA
ATOM     66  C   UNL     1       9.315   6.195  11.261  1.00  0.00     0.031 C 
ATOM     67  C   UNL     1      10.115   1.621  15.177  1.00  0.00     0.029 A 
ATOM     68  C   UNL     1       9.753   2.356  14.059  1.00  0.00     0.049 A 
ATOM     69  H   UNL     1       8.693   1.734  12.345  1.00  0.00     0.167 HD
ATOM     70  C   UNL     1       9.602   4.401  12.660  1.00  0.00     0.074 A 
ATOM     71  C   UNL     1       9.864   5.802  12.402  1.00  0.00     0.031 C 
ATOM     72  C   UNL     1      10.004   3.747  13.779  1.00  0.00     0.031 A 
BRANCH  59  73
ATOM     73  C   UNL     1       8.351  -2.208  13.942  1.00  0.00    -0.014 A 
ATOM     74  C   UNL     1       9.054  -3.338  13.495  1.00  0.00     0.009 A 
ATOM     75  C   UNL     1       7.598  -2.300  15.123  1.00  0.00     0.009 A 
ATOM     76  C   UNL     1       8.973  -4.544  14.196  1.00  0.00     0.001 A 
ATOM     77  C   UNL     1       7.547  -3.496  15.840  1.00  0.00     0.001 A 
ATOM     78  C   UNL     1       8.225  -4.620  15.370  1.00  0.00     0.000 A 
ENDBRANCH  59  73
BRANCH  60  79
ATOM     79  C   UNL     1       8.101   6.253   8.604  1.00  0.00    -0.014 A 
ATOM     80  C   UNL     1       9.290   6.824   8.123  1.00  0.00     0.009 A 
ATOM     81  C   UNL     1       6.888   6.921   8.369  1.00  0.00     0.009 A 
ATOM     82  C   UNL     1       9.268   8.050   7.453  1.00  0.00     0.001 A 
ATOM     83  C   UNL     1       6.866   8.131   7.671  1.00  0.00     0.001 A 
ATOM     84  C   UNL     1       8.057   8.700   7.223  1.00  0.00     0.000 A 
ENDBRANCH  60  79
BRANCH  72  85
ATOM     85  C   UNL     1      10.819   4.523  14.777  1.00  0.00    -0.014 A 
ATOM     86  C   UNL     1      10.258   5.550  15.551  1.00  0.00     0.009 A 
ATOM     87  C   UNL     1      12.171   4.193  14.965  1.00  0.00     0.009 A 
ATOM     88  C   UNL     1      11.047   6.262  16.457  1.00  0.00     0.001 A 
ATOM     89  C   UNL     1      12.948   4.881  15.898  1.00  0.00     0.001 A 
ATOM     90  C   UNL     1      12.389   5.924  16.633  1.00  0.00     0.000 A 
ENDBRANCH  72  85
ENDBRANCH  46  47
ENDBRANCH  39  41
ENDBRANCH  38  39
ENDBRANCH  37  38
ENDBRANCH  36  37
ENDBRANCH  35  36
ENDBRANCH  34  35
ENDBRANCH  33  34
ENDBRANCH  32  33
ENDBRANCH   1  32
TORSDOF 23
