REMARK SMILES O=C(OCCOCCOCCOCCOC(=O)[C@@H](CCOCCO)c1cccc(F)c1)c1ccc(-c2c3nc(c(-c4ccccc4)c4ccc([nH]4)c(-c4ccccc4)c4nc(c(-c5ccccc5)c5ccc2[nH]5)C=C4)C=C3)cc1
REMARK SMILES IDX 11 1 10 2 9 3 8 4 7 5 6 6 5 7 4 8 3 9 2 10 1 11 32 12 33 13
REMARK SMILES IDX 79 14 34 15 78 16 35 17 36 18 37 19 72 20 38 21 77 22 71 23
REMARK SMILES IDX 73 24 39 25 76 26 70 27 69 28 40 30 62 31 47 32 61 33 48 34
REMARK SMILES IDX 51 35 60 36 74 37 49 38 50 39 59 41 75 42 52 43 41 44 42 45
REMARK SMILES IDX 46 46 43 47 45 48 44 49 63 50 64 51 68 52 65 53 67 54 66 55
REMARK SMILES IDX 53 56 54 57 58 58 55 59 57 60 56 61 12 62 13 63 14 64 15 65
REMARK SMILES IDX 16 66 17 67 18 68 19 69 20 70 21 71 22 72 23 73 24 74 25 76
REMARK SMILES IDX 26 77 31 78 27 79 29 80 28 81 30 82
REMARK H PARENT 73 29 51 40 24 75
REMARK Flexibility Score: inf
ROOT
ATOM      1  C   UNL     1       5.268   3.405   1.410  1.00  0.00     0.188 C 
ENDROOT
BRANCH   1   2
ATOM      2  C   UNL     1       4.694   3.408  -0.004  1.00  0.00     0.188 C 
BRANCH   2   3
ATOM      3  O   UNL     1       3.303   3.631  -0.174  1.00  0.00    -0.377 OA
BRANCH   3   4
ATOM      4  C   UNL     1       2.403   2.566   0.134  1.00  0.00     0.188 C 
BRANCH   4   5
ATOM      5  C   UNL     1       2.674   1.301  -0.651  1.00  0.00     0.188 C 
BRANCH   5   6
ATOM      6  O   UNL     1       3.930   0.813  -0.206  1.00  0.00    -0.376 OA
BRANCH   6   7
ATOM      7  C   UNL     1       4.698   0.089  -1.150  1.00  0.00     0.202 C 
BRANCH   7   8
ATOM      8  C   UNL     1       4.166  -1.313  -1.434  1.00  0.00     0.261 C 
BRANCH   8   9
ATOM      9  O   UNL     1       2.792  -1.531  -1.053  1.00  0.00    -0.460 OA
BRANCH   9  10
ATOM     10  C   UNL     1       2.249  -1.945   0.118  1.00  0.00     0.338 C 
ATOM     11  O   UNL     1       1.065  -2.279   0.120  1.00  0.00    -0.246 OA
BRANCH  10  12
ATOM     12  C   UNL     1       2.970  -1.993   1.428  1.00  0.00     0.060 A 
ATOM     13  C   UNL     1       4.109  -1.261   1.733  1.00  0.00     0.016 A 
ATOM     14  C   UNL     1       2.411  -2.768   2.460  1.00  0.00     0.016 A 
ATOM     15  C   UNL     1       4.710  -1.299   2.974  1.00  0.00     0.010 A 
ATOM     16  C   UNL     1       3.014  -2.833   3.725  1.00  0.00     0.010 A 
ATOM     17  C   UNL     1       4.189  -2.114   3.965  1.00  0.00    -0.014 A 
BRANCH  17  18
ATOM     18  C   UNL     1       5.087  -2.367   5.100  1.00  0.00     0.031 A 
ATOM     19  C   UNL     1       5.883  -3.637   5.063  1.00  0.00     0.074 A 
ATOM     20  C   UNL     1       5.377  -1.370   5.955  1.00  0.00     0.049 A 
ATOM     21  N   UNL     1       6.752  -4.097   5.919  1.00  0.00    -0.248 NA
ATOM     22  C   UNL     1       5.698  -4.494   3.875  1.00  0.00     0.031 C 
ATOM     23  C   UNL     1       4.808  -0.018   5.904  1.00  0.00     0.029 A 
ATOM     24  N   UNL     1       6.268  -1.316   6.991  1.00  0.00    -0.354 N 
ATOM     25  C   UNL     1       7.188  -5.305   5.390  1.00  0.00     0.074 A 
ATOM     26  C   UNL     1       6.494  -5.514   4.143  1.00  0.00     0.031 C 
ATOM     27  C   UNL     1       5.381   0.735   6.858  1.00  0.00     0.029 A 
ATOM     28  C   UNL     1       6.289  -0.101   7.631  1.00  0.00     0.049 A 
ATOM     29  H   UNL     1       6.839  -2.075   7.252  1.00  0.00     0.167 HD
ATOM     30  C   UNL     1       8.086  -6.167   5.915  1.00  0.00     0.031 A 
ATOM     31  C   UNL     1       6.940   0.261   8.751  1.00  0.00     0.031 A 
ATOM     32  C   UNL     1       8.739  -5.929   7.170  1.00  0.00     0.049 A 
ATOM     33  C   UNL     1       7.804  -0.780   9.410  1.00  0.00     0.074 A 
ATOM     34  C   UNL     1       9.560  -6.765   7.899  1.00  0.00     0.029 A 
ATOM     35  N   UNL     1       8.635  -4.738   7.879  1.00  0.00    -0.354 N 
ATOM     36  N   UNL     1       8.109  -1.986   8.988  1.00  0.00    -0.248 NA
ATOM     37  C   UNL     1       8.398  -0.424  10.703  1.00  0.00     0.031 C 
ATOM     38  C   UNL     1       9.915  -6.094   9.075  1.00  0.00     0.029 A 
ATOM     39  C   UNL     1       9.366  -4.818   9.046  1.00  0.00     0.049 A 
ATOM     40  H   UNL     1       8.116  -3.953   7.590  1.00  0.00     0.167 HD
ATOM     41  C   UNL     1       8.941  -2.530   9.955  1.00  0.00     0.074 A 
ATOM     42  C   UNL     1       9.115  -1.506  10.969  1.00  0.00     0.031 C 
ATOM     43  C   UNL     1       9.505  -3.761  10.016  1.00  0.00     0.031 A 
BRANCH  30  44
ATOM     44  C   UNL     1       8.302  -7.455   5.175  1.00  0.00    -0.014 A 
ATOM     45  C   UNL     1       9.006  -7.500   3.961  1.00  0.00     0.009 A 
ATOM     46  C   UNL     1       7.722  -8.634   5.667  1.00  0.00     0.009 A 
ATOM     47  C   UNL     1       9.089  -8.693   3.236  1.00  0.00     0.001 A 
ATOM     48  C   UNL     1       7.828  -9.829   4.954  1.00  0.00     0.001 A 
ATOM     49  C   UNL     1       8.501  -9.856   3.734  1.00  0.00     0.000 A 
ENDBRANCH  30  44
BRANCH  31  50
ATOM     50  C   UNL     1       6.715   1.598   9.369  1.00  0.00    -0.014 A 
ATOM     51  C   UNL     1       7.765   2.509   9.551  1.00  0.00     0.009 A 
ATOM     52  C   UNL     1       5.434   1.952   9.830  1.00  0.00     0.009 A 
ATOM     53  C   UNL     1       7.545   3.725  10.209  1.00  0.00     0.001 A 
ATOM     54  C   UNL     1       5.209   3.181  10.454  1.00  0.00     0.001 A 
ATOM     55  C   UNL     1       6.268   4.060  10.658  1.00  0.00     0.000 A 
ENDBRANCH  31  50
BRANCH  43  56
ATOM     56  C   UNL     1      10.388  -4.034  11.196  1.00  0.00    -0.014 A 
ATOM     57  C   UNL     1       9.850  -4.231  12.476  1.00  0.00     0.009 A 
ATOM     58  C   UNL     1      11.774  -4.137  11.008  1.00  0.00     0.009 A 
ATOM     59  C   UNL     1      10.693  -4.490  13.556  1.00  0.00     0.001 A 
ATOM     60  C   UNL     1      12.610  -4.430  12.083  1.00  0.00     0.001 A 
ATOM     61  C   UNL     1      12.069  -4.596  13.357  1.00  0.00     0.000 A 
ENDBRANCH  43  56
ENDBRANCH  17  18
ENDBRANCH  10  12
ENDBRANCH   9  10
ENDBRANCH   8   9
ENDBRANCH   7   8
ENDBRANCH   6   7
ENDBRANCH   5   6
ENDBRANCH   4   5
ENDBRANCH   3   4
ENDBRANCH   2   3
ENDBRANCH   1   2
BRANCH   1  62
ATOM     62  O   UNL     1       4.382   3.410   2.507  1.00  0.00    -0.376 OA
BRANCH  62  63
ATOM     63  C   UNL     1       3.451   4.473   2.683  1.00  0.00     0.202 C 
BRANCH  63  64
ATOM     64  C   UNL     1       3.710   5.896   2.155  1.00  0.00     0.261 C 
BRANCH  64  65
ATOM     65  O   UNL     1       3.659   6.059   0.711  1.00  0.00    -0.463 OA
BRANCH  65  66
ATOM     66  C   UNL     1       4.813   6.483   0.117  1.00  0.00     0.313 C 
ATOM     67  O   UNL     1       5.849   6.648   0.736  1.00  0.00    -0.252 OA
BRANCH  66  68
ATOM     68  C   UNL     1       4.733   6.782  -1.410  1.00  0.00     0.131 C 
BRANCH  68  69
ATOM     69  C   UNL     1       3.985   5.811  -2.366  1.00  0.00     0.048 C 
BRANCH  69  70
ATOM     70  C   UNL     1       2.461   5.595  -2.367  1.00  0.00     0.161 C 
BRANCH  70  71
ATOM     71  O   UNL     1       1.626   6.739  -2.357  1.00  0.00    -0.379 OA
BRANCH  71  72
ATOM     72  C   UNL     1       1.394   7.352  -1.092  1.00  0.00     0.188 C 
BRANCH  72  73
ATOM     73  C   UNL     1       0.382   6.658  -0.177  1.00  0.00     0.184 C 
BRANCH  73  74
ATOM     74  O   UNL     1       0.757   5.354   0.245  1.00  0.00    -0.394 OA
ATOM     75  H   UNL     1       0.830   4.772  -0.528  1.00  0.00     0.210 HD
ENDBRANCH  73  74
ENDBRANCH  72  73
ENDBRANCH  71  72
ENDBRANCH  70  71
ENDBRANCH  69  70
ENDBRANCH  68  69
BRANCH  68  76
ATOM     76  C   UNL     1       4.580   8.277  -1.697  1.00  0.00    -0.031 A 
ATOM     77  C   UNL     1       3.812   8.763  -2.768  1.00  0.00     0.005 A 
ATOM     78  C   UNL     1       5.229   9.223  -0.885  1.00  0.00     0.043 A 
ATOM     79  C   UNL     1       3.575  10.127  -2.932  1.00  0.00     0.003 A 
ATOM     80  C   UNL     1       5.001  10.582  -1.063  1.00  0.00     0.123 A 
ATOM     81  C   UNL     1       4.155  11.040  -2.061  1.00  0.00     0.039 A 
ATOM     82  F   UNL     1       5.592  11.459  -0.242  1.00  0.00    -0.207 F 
ENDBRANCH  68  76
ENDBRANCH  66  68
ENDBRANCH  65  66
ENDBRANCH  64  65
ENDBRANCH  63  64
ENDBRANCH  62  63
ENDBRANCH   1  62
TORSDOF 27
