REMARK SMILES O=C(OCCOCCOCCOCCOC(=O)c1nn(-c2ccc(Br)cc2F)cc1CCCO)c1ccc(-c2c3nc(c(-c4ccccc4)c4ccc([nH]4)c(-c4ccccc4)c4nc(c(-c5ccccc5)c5ccc2[nH]5)C=C4)C=C3)cc1
REMARK SMILES IDX 10 1 9 2 8 3 7 4 6 5 5 6 4 7 3 8 2 9 1 10 35 11 36 12 82 13
REMARK SMILES IDX 37 14 81 15 38 16 39 17 40 18 75 19 41 20 80 21 74 22 76 23
REMARK SMILES IDX 42 24 79 25 73 26 72 27 43 29 65 30 50 31 64 32 51 33 54 34
REMARK SMILES IDX 63 35 77 36 52 37 53 38 62 40 78 41 55 42 44 43 45 44 49 45
REMARK SMILES IDX 46 46 48 47 47 48 66 49 67 50 71 51 68 52 70 53 69 54 56 55
REMARK SMILES IDX 57 56 61 57 58 58 60 59 59 60 11 61 12 62 13 63 14 64 15 65
REMARK SMILES IDX 16 66 17 67 18 68 19 69 30 70 20 71 29 72 31 73 32 74 33 75
REMARK SMILES IDX 34 76 21 78 22 79 27 80 23 81 26 82 28 83 24 84 25 85
REMARK H PARENT 76 28 54 39 34 77
REMARK Flexibility Score: inf
ROOT
ATOM      1  C   UNL     1       3.456  -2.120   2.764  1.00  0.00     0.188 C 
ENDROOT
BRANCH   1   2
ATOM      2  O   UNL     1       2.414  -1.298   2.276  1.00  0.00    -0.377 OA
BRANCH   2   3
ATOM      3  C   UNL     1       1.903  -1.477   0.977  1.00  0.00     0.188 C 
BRANCH   3   4
ATOM      4  C   UNL     1       2.814  -1.293  -0.260  1.00  0.00     0.188 C 
BRANCH   4   5
ATOM      5  O   UNL     1       4.105  -0.695  -0.341  1.00  0.00    -0.376 OA
BRANCH   5   6
ATOM      6  C   UNL     1       4.725   0.121   0.632  1.00  0.00     0.202 C 
BRANCH   6   7
ATOM      7  C   UNL     1       4.229   1.546   0.831  1.00  0.00     0.261 C 
BRANCH   7   8
ATOM      8  O   UNL     1       2.829   1.608   1.083  1.00  0.00    -0.460 OA
BRANCH   8   9
ATOM      9  C   UNL     1       1.813   1.699   0.205  1.00  0.00     0.338 C 
ATOM     10  O   UNL     1       0.667   1.740   0.656  1.00  0.00    -0.246 OA
BRANCH   9  11
ATOM     11  C   UNL     1       1.959   1.751  -1.284  1.00  0.00     0.060 A 
ATOM     12  C   UNL     1       3.145   1.789  -2.022  1.00  0.00     0.016 A 
ATOM     13  C   UNL     1       0.742   1.768  -1.993  1.00  0.00     0.016 A 
ATOM     14  C   UNL     1       3.124   2.067  -3.379  1.00  0.00     0.010 A 
ATOM     15  C   UNL     1       0.710   1.992  -3.359  1.00  0.00     0.010 A 
ATOM     16  C   UNL     1       1.903   2.240  -4.022  1.00  0.00    -0.014 A 
BRANCH  16  17
ATOM     17  C   UNL     1       1.933   2.707  -5.395  1.00  0.00     0.031 A 
ATOM     18  C   UNL     1       2.558   1.797  -6.384  1.00  0.00     0.074 A 
ATOM     19  C   UNL     1       1.383   3.885  -5.745  1.00  0.00     0.049 A 
ATOM     20  N   UNL     1       3.585   2.024  -7.135  1.00  0.00    -0.248 NA
ATOM     21  C   UNL     1       2.019   0.434  -6.490  1.00  0.00     0.031 C 
ATOM     22  C   UNL     1       0.528   4.755  -4.931  1.00  0.00     0.029 A 
ATOM     23  N   UNL     1       1.384   4.497  -6.960  1.00  0.00    -0.354 N 
ATOM     24  C   UNL     1       3.728   0.896  -7.939  1.00  0.00     0.074 A 
ATOM     25  C   UNL     1       2.817  -0.093  -7.418  1.00  0.00     0.031 C 
ATOM     26  C   UNL     1      -0.099   5.636  -5.739  1.00  0.00     0.029 A 
ATOM     27  C   UNL     1       0.418   5.482  -7.088  1.00  0.00     0.049 A 
ATOM     28  H   UNL     1       2.012   4.262  -7.681  1.00  0.00     0.167 HD
ATOM     29  C   UNL     1       4.425   0.930  -9.107  1.00  0.00     0.031 A 
ATOM     30  C   UNL     1       0.018   6.078  -8.235  1.00  0.00     0.031 A 
ATOM     31  C   UNL     1       5.329   2.047  -9.168  1.00  0.00     0.049 A 
ATOM     32  C   UNL     1       1.073   5.869  -9.250  1.00  0.00     0.074 A 
ATOM     33  C   UNL     1       6.409   2.468  -8.418  1.00  0.00     0.029 A 
ATOM     34  N   UNL     1       4.960   3.125  -9.935  1.00  0.00    -0.354 N 
ATOM     35  N   UNL     1       2.240   6.444  -9.208  1.00  0.00    -0.248 NA
ATOM     36  C   UNL     1       0.987   4.700 -10.112  1.00  0.00     0.031 C 
ATOM     37  C   UNL     1       6.330   3.891  -8.423  1.00  0.00     0.029 A 
ATOM     38  C   UNL     1       5.237   4.254  -9.212  1.00  0.00     0.049 A 
ATOM     39  H   UNL     1       4.569   3.091 -10.838  1.00  0.00     0.167 HD
ATOM     40  C   UNL     1       3.125   5.482  -9.670  1.00  0.00     0.074 A 
ATOM     41  C   UNL     1       2.287   4.482 -10.326  1.00  0.00     0.031 C 
ATOM     42  C   UNL     1       4.418   5.446  -9.230  1.00  0.00     0.031 A 
BRANCH  29  43
ATOM     43  C   UNL     1       3.988   0.184 -10.344  1.00  0.00    -0.014 A 
ATOM     44  C   UNL     1       4.774   0.279 -11.508  1.00  0.00     0.009 A 
ATOM     45  C   UNL     1       2.698  -0.359 -10.497  1.00  0.00     0.009 A 
ATOM     46  C   UNL     1       4.261  -0.069 -12.764  1.00  0.00     0.001 A 
ATOM     47  C   UNL     1       2.199  -0.749 -11.742  1.00  0.00     0.001 A 
ATOM     48  C   UNL     1       2.970  -0.574 -12.881  1.00  0.00     0.000 A 
ENDBRANCH  29  43
BRANCH  30  49
ATOM     49  C   UNL     1      -1.322   6.593  -8.575  1.00  0.00    -0.014 A 
ATOM     50  C   UNL     1      -1.500   7.466  -9.659  1.00  0.00     0.009 A 
ATOM     51  C   UNL     1      -2.472   6.026  -7.993  1.00  0.00     0.009 A 
ATOM     52  C   UNL     1      -2.779   7.731 -10.164  1.00  0.00     0.001 A 
ATOM     53  C   UNL     1      -3.749   6.297  -8.491  1.00  0.00     0.001 A 
ATOM     54  C   UNL     1      -3.900   7.137  -9.588  1.00  0.00     0.000 A 
ENDBRANCH  30  49
BRANCH  42  55
ATOM     55  C   UNL     1       4.936   6.628  -8.448  1.00  0.00    -0.014 A 
ATOM     56  C   UNL     1       4.356   7.060  -7.242  1.00  0.00     0.009 A 
ATOM     57  C   UNL     1       6.134   7.230  -8.862  1.00  0.00     0.009 A 
ATOM     58  C   UNL     1       4.938   8.090  -6.495  1.00  0.00     0.001 A 
ATOM     59  C   UNL     1       6.728   8.241  -8.104  1.00  0.00     0.001 A 
ATOM     60  C   UNL     1       6.127   8.676  -6.925  1.00  0.00     0.000 A 
ENDBRANCH  42  55
ENDBRANCH  16  17
ENDBRANCH   9  11
ENDBRANCH   8   9
ENDBRANCH   7   8
ENDBRANCH   6   7
ENDBRANCH   5   6
ENDBRANCH   4   5
ENDBRANCH   3   4
ENDBRANCH   2   3
ENDBRANCH   1   2
BRANCH   1  61
ATOM     61  C   UNL     1       4.170  -3.083   1.810  1.00  0.00     0.188 C 
BRANCH  61  62
ATOM     62  O   UNL     1       3.273  -3.905   1.077  1.00  0.00    -0.376 OA
BRANCH  62  63
ATOM     63  C   UNL     1       3.302  -5.288   1.398  1.00  0.00     0.202 C 
BRANCH  63  64
ATOM     64  C   UNL     1       2.673  -5.598   2.758  1.00  0.00     0.261 C 
BRANCH  64  65
ATOM     65  O   UNL     1       3.342  -5.014   3.890  1.00  0.00    -0.458 OA
BRANCH  65  66
ATOM     66  C   UNL     1       4.659  -5.316   4.134  1.00  0.00     0.359 C 
ATOM     67  O   UNL     1       5.315  -6.112   3.508  1.00  0.00    -0.244 OA
BRANCH  66  68
ATOM     68  C   UNL     1       5.171  -4.445   5.208  1.00  0.00     0.173 A 
ATOM     69  N   UNL     1       4.721  -4.650   6.455  1.00  0.00    -0.160 NA
ATOM     70  C   UNL     1       6.061  -3.319   5.161  1.00  0.00     0.006 A 
ATOM     71  N   UNL     1       5.173  -3.610   7.181  1.00  0.00    -0.237 N 
ATOM     72  C   UNL     1       5.933  -2.760   6.422  1.00  0.00     0.119 A 
BRANCH  70  73
ATOM     73  C   UNL     1       6.907  -2.714   4.076  1.00  0.00     0.042 C 
BRANCH  73  74
ATOM     74  C   UNL     1       7.998  -3.624   3.505  1.00  0.00     0.033 C 
BRANCH  74  75
ATOM     75  C   UNL     1       7.658  -4.194   2.134  1.00  0.00     0.156 C 
BRANCH  75  76
ATOM     76  O   UNL     1       7.485  -3.124   1.212  1.00  0.00    -0.396 OA
ATOM     77  H   UNL     1       6.764  -2.549   1.515  1.00  0.00     0.210 HD
ENDBRANCH  75  76
ENDBRANCH  74  75
ENDBRANCH  73  74
ENDBRANCH  70  73
BRANCH  71  78
ATOM     78  C   UNL     1       4.910  -3.546   8.564  1.00  0.00     0.100 A 
ATOM     79  C   UNL     1       4.686  -4.745   9.259  1.00  0.00     0.032 A 
ATOM     80  C   UNL     1       4.906  -2.335   9.253  1.00  0.00     0.149 A 
ATOM     81  C   UNL     1       4.515  -4.724  10.643  1.00  0.00     0.018 A 
ATOM     82  C   UNL     1       4.694  -2.308  10.629  1.00  0.00     0.057 A 
ATOM     83  F   UNL     1       5.048  -1.165   8.613  1.00  0.00    -0.205 F 
ATOM     84  C   UNL     1       4.518  -3.506  11.320  1.00  0.00     0.021 A 
ATOM     85  Br  UNL     1       4.287  -3.483  13.195  1.00  0.00    -0.051 Br
ENDBRANCH  71  78
ENDBRANCH  66  68
ENDBRANCH  65  66
ENDBRANCH  64  65
ENDBRANCH  63  64
ENDBRANCH  62  63
ENDBRANCH  61  62
ENDBRANCH   1  61
TORSDOF 25
