REMARK SMILES CC[C@H](C)c1ccccc1Oc1cccc(F)c1C(=O)OCCOCCOCCOCCOC(=O)c1ccc(-c2c3nc(c(-c4ccccc4)c4ccc([nH]4)c(-c4ccccc4)c4nc(c(-c5ccccc5)c5ccc2[nH]5)C=C4)C=C3)cc1
REMARK SMILES IDX 26 1 25 2 24 3 23 4 22 5 21 6 19 7 20 8 18 9 12 10 13 11
REMARK SMILES IDX 14 12 16 13 15 14 17 15 11 16 10 17 5 18 6 19 7 20 9 21 8 22
REMARK SMILES IDX 3 23 4 24 2 25 1 26 27 27 28 28 29 29 30 30 31 31 32 32
REMARK SMILES IDX 33 33 34 34 35 35 36 36 37 37 83 38 38 39 82 40 39 41 40 42
REMARK SMILES IDX 41 43 76 44 42 45 81 46 75 47 77 48 43 49 80 50 74 51 73 52
REMARK SMILES IDX 44 54 66 55 51 56 65 57 52 58 55 59 64 60 78 61 53 62 54 63
REMARK SMILES IDX 63 65 79 66 56 67 45 68 46 69 50 70 47 71 49 72 48 73 67 74
REMARK SMILES IDX 68 75 72 76 69 77 71 78 70 79 57 80 58 81 62 82 59 83 61 84
REMARK SMILES IDX 60 85
REMARK H PARENT 77 53 55 64
REMARK Flexibility Score: inf
ROOT
ATOM      1  C   UNL     1      -4.018  -0.429  -2.306  1.00  0.00     0.188 C 
ENDROOT
BRANCH   1   2
ATOM      2  C   UNL     1      -3.108   0.023  -1.184  1.00  0.00     0.188 C 
BRANCH   2   3
ATOM      3  O   UNL     1      -3.510   0.931  -0.167  1.00  0.00    -0.376 OA
BRANCH   3   4
ATOM      4  C   UNL     1      -2.507   1.895   0.175  1.00  0.00     0.202 C 
BRANCH   4   5
ATOM      5  C   UNL     1      -1.069   1.374   0.413  1.00  0.00     0.261 C 
BRANCH   5   6
ATOM      6  O   UNL     1      -0.620   0.463  -0.646  1.00  0.00    -0.459 OA
BRANCH   6   7
ATOM      7  C   UNL     1      -0.454  -0.864  -0.517  1.00  0.00     0.345 C 
ATOM      8  O   UNL     1      -0.544  -1.356   0.599  1.00  0.00    -0.246 OA
BRANCH   7   9
ATOM      9  C   UNL     1      -0.245  -1.710  -1.855  1.00  0.00     0.138 A 
ATOM     10  C   UNL     1       0.060  -1.408  -3.279  1.00  0.00     0.144 A 
ATOM     11  C   UNL     1       0.293  -2.473  -4.175  1.00  0.00     0.048 A 
ATOM     12  C   UNL     1       0.258  -3.804  -3.738  1.00  0.00     0.007 A 
ATOM     13  C   UNL     1      -0.305  -3.077  -1.514  1.00  0.00     0.141 A 
ATOM     14  C   UNL     1      -0.048  -4.098  -2.419  1.00  0.00     0.040 A 
ATOM     15  F   UNL     1      -0.636  -3.491  -0.282  1.00  0.00    -0.206 F 
BRANCH  10  16
ATOM     16  O   UNL     1      -0.052  -0.131  -3.866  1.00  0.00    -0.456 OA
BRANCH  16  17
ATOM     17  C   UNL     1       0.883   0.558  -4.780  1.00  0.00     0.130 A 
ATOM     18  C   UNL     1       1.964   1.425  -4.285  1.00  0.00    -0.002 A 
ATOM     19  C   UNL     1       2.172   2.705  -4.873  1.00  0.00     0.008 A 
ATOM     20  C   UNL     1       1.304   3.199  -5.838  1.00  0.00     0.001 A 
ATOM     21  C   UNL     1       0.167   1.037  -5.907  1.00  0.00     0.047 A 
ATOM     22  C   UNL     1       0.339   2.359  -6.380  1.00  0.00     0.004 A 
BRANCH  18  23
ATOM     23  C   UNL     1       2.606   1.290  -2.898  1.00  0.00     0.019 C 
ATOM     24  C   UNL     1       3.292   2.422  -2.105  1.00  0.00     0.013 C 
BRANCH  23  25
ATOM     25  C   UNL     1       1.432   1.053  -2.003  1.00  0.00     0.005 C 
ATOM     26  C   UNL     1       0.228   2.019  -2.334  1.00  0.00     0.004 C 
ENDBRANCH  23  25
ENDBRANCH  18  23
ENDBRANCH  16  17
ENDBRANCH  10  16
ENDBRANCH   7   9
ENDBRANCH   6   7
ENDBRANCH   5   6
ENDBRANCH   4   5
ENDBRANCH   3   4
ENDBRANCH   2   3
ENDBRANCH   1   2
BRANCH   1  27
ATOM     27  O   UNL     1      -4.366   0.553  -3.282  1.00  0.00    -0.377 OA
BRANCH  27  28
ATOM     28  C   UNL     1      -4.589   1.872  -2.794  1.00  0.00     0.188 C 
BRANCH  28  29
ATOM     29  C   UNL     1      -5.721   2.040  -1.762  1.00  0.00     0.188 C 
BRANCH  29  30
ATOM     30  O   UNL     1      -5.981   0.881  -0.994  1.00  0.00    -0.376 OA
BRANCH  30  31
ATOM     31  C   UNL     1      -7.110   0.075  -1.298  1.00  0.00     0.202 C 
BRANCH  31  32
ATOM     32  C   UNL     1      -7.337  -0.475  -2.724  1.00  0.00     0.261 C 
BRANCH  32  33
ATOM     33  O   UNL     1      -7.134   0.435  -3.810  1.00  0.00    -0.460 OA
BRANCH  33  34
ATOM     34  C   UNL     1      -8.017   1.437  -3.938  1.00  0.00     0.338 C 
ATOM     35  O   UNL     1      -9.008   1.645  -3.246  1.00  0.00    -0.246 OA
BRANCH  34  36
ATOM     36  C   UNL     1      -7.476   2.386  -4.927  1.00  0.00     0.060 A 
ATOM     37  C   UNL     1      -7.222   3.705  -4.524  1.00  0.00     0.016 A 
ATOM     38  C   UNL     1      -7.225   1.982  -6.240  1.00  0.00     0.016 A 
ATOM     39  C   UNL     1      -6.744   4.634  -5.441  1.00  0.00     0.010 A 
ATOM     40  C   UNL     1      -6.790   2.926  -7.172  1.00  0.00     0.010 A 
ATOM     41  C   UNL     1      -6.587   4.261  -6.780  1.00  0.00    -0.014 A 
BRANCH  41  42
ATOM     42  C   UNL     1      -6.477   5.321  -7.804  1.00  0.00     0.031 A 
ATOM     43  C   UNL     1      -7.748   5.805  -8.445  1.00  0.00     0.074 A 
ATOM     44  C   UNL     1      -5.294   5.868  -8.129  1.00  0.00     0.049 A 
ATOM     45  N   UNL     1      -7.917   6.686  -9.395  1.00  0.00    -0.248 NA
ATOM     46  C   UNL     1      -9.000   5.212  -7.940  1.00  0.00     0.031 C 
ATOM     47  C   UNL     1      -4.008   5.533  -7.523  1.00  0.00     0.029 A 
ATOM     48  N   UNL     1      -4.993   6.826  -9.062  1.00  0.00    -0.354 N 
ATOM     49  C   UNL     1      -9.289   6.744  -9.608  1.00  0.00     0.074 A 
ATOM     50  C   UNL     1      -9.905   5.795  -8.709  1.00  0.00     0.031 C 
ATOM     51  C   UNL     1      -3.048   6.268  -8.112  1.00  0.00     0.029 A 
ATOM     52  C   UNL     1      -3.650   7.092  -9.159  1.00  0.00     0.049 A 
ATOM     53  H   UNL     1      -5.674   7.281  -9.608  1.00  0.00     0.167 HD
ATOM     54  C   UNL     1      -9.976   7.521 -10.477  1.00  0.00     0.031 A 
ATOM     55  C   UNL     1      -2.987   7.889 -10.019  1.00  0.00     0.031 A 
ATOM     56  C   UNL     1      -9.357   8.445 -11.387  1.00  0.00     0.049 A 
ATOM     57  C   UNL     1      -3.765   8.665 -11.051  1.00  0.00     0.074 A 
ATOM     58  C   UNL     1      -9.960   9.280 -12.310  1.00  0.00     0.029 A 
ATOM     59  N   UNL     1      -7.989   8.646 -11.494  1.00  0.00    -0.354 N 
ATOM     60  N   UNL     1      -5.062   8.726 -11.239  1.00  0.00    -0.248 NA
ATOM     61  C   UNL     1      -2.985   9.489 -11.986  1.00  0.00     0.031 C 
ATOM     62  C   UNL     1      -8.952   9.937 -13.023  1.00  0.00     0.029 A 
ATOM     63  C   UNL     1      -7.726   9.568 -12.492  1.00  0.00     0.049 A 
ATOM     64  H   UNL     1      -7.307   8.198 -10.943  1.00  0.00     0.167 HD
ATOM     65  C   UNL     1      -5.254   9.617 -12.289  1.00  0.00     0.074 A 
ATOM     66  C   UNL     1      -3.941  10.083 -12.686  1.00  0.00     0.031 C 
ATOM     67  C   UNL     1      -6.411  10.018 -12.872  1.00  0.00     0.031 A 
BRANCH  54  68
ATOM     68  C   UNL     1     -11.469   7.358 -10.518  1.00  0.00    -0.014 A 
ATOM     69  C   UNL     1     -12.284   7.787  -9.458  1.00  0.00     0.009 A 
ATOM     70  C   UNL     1     -12.071   6.779 -11.646  1.00  0.00     0.009 A 
ATOM     71  C   UNL     1     -13.668   7.607  -9.514  1.00  0.00     0.001 A 
ATOM     72  C   UNL     1     -13.457   6.630 -11.713  1.00  0.00     0.001 A 
ATOM     73  C   UNL     1     -14.253   7.035 -10.644  1.00  0.00     0.000 A 
ENDBRANCH  54  68
BRANCH  55  74
ATOM     74  C   UNL     1      -1.503   7.972  -9.970  1.00  0.00    -0.014 A 
ATOM     75  C   UNL     1      -0.862   9.163  -9.598  1.00  0.00     0.009 A 
ATOM     76  C   UNL     1      -0.717   6.863 -10.325  1.00  0.00     0.009 A 
ATOM     77  C   UNL     1       0.533   9.251  -9.612  1.00  0.00     0.001 A 
ATOM     78  C   UNL     1       0.676   6.944 -10.307  1.00  0.00     0.001 A 
ATOM     79  C   UNL     1       1.300   8.141  -9.961  1.00  0.00     0.000 A 
ENDBRANCH  55  74
BRANCH  67  80
ATOM     80  C   UNL     1      -6.316  11.043 -13.969  1.00  0.00    -0.014 A 
ATOM     81  C   UNL     1      -5.785  10.725 -15.228  1.00  0.00     0.009 A 
ATOM     82  C   UNL     1      -6.813  12.338 -13.750  1.00  0.00     0.009 A 
ATOM     83  C   UNL     1      -5.720  11.693 -16.232  1.00  0.00     0.001 A 
ATOM     84  C   UNL     1      -6.779  13.294 -14.766  1.00  0.00     0.001 A 
ATOM     85  C   UNL     1      -6.223  12.974 -16.003  1.00  0.00     0.000 A 
ENDBRANCH  67  80
ENDBRANCH  41  42
ENDBRANCH  34  36
ENDBRANCH  33  34
ENDBRANCH  32  33
ENDBRANCH  31  32
ENDBRANCH  30  31
ENDBRANCH  29  30
ENDBRANCH  28  29
ENDBRANCH  27  28
ENDBRANCH   1  27
TORSDOF 24
