REMARK SMILES CCOC(=O)NC(=O)COc1csc(C(=O)OCCOCCOCCOCCOC(=O)c2ccc(-c3c4nc(c(-c5ccccc5)c5ccc([nH]5)c(-c5ccccc5)c5nc(c(-c6ccccc6)c6ccc3[nH]6)C=C5)C=C4)cc2)c1
REMARK SMILES IDX 21 1 20 2 19 3 18 4 17 5 15 6 16 7 14 8 11 9 12 10 80 11
REMARK SMILES IDX 13 12 10 13 9 14 7 15 4 16 5 17 6 18 8 20 3 21 2 22 1 23
REMARK SMILES IDX 22 24 23 25 24 26 25 27 26 28 27 29 28 30 29 31 30 32 31 33
REMARK SMILES IDX 32 34 33 35 79 36 34 37 78 38 35 39 36 40 37 41 72 42 38 43
REMARK SMILES IDX 77 44 71 45 73 46 39 47 76 48 70 49 69 50 40 52 62 53 47 54
REMARK SMILES IDX 61 55 48 56 51 57 60 58 74 59 49 60 50 61 59 63 75 64 52 65
REMARK SMILES IDX 41 66 42 67 46 68 43 69 45 70 44 71 63 72 64 73 68 74 65 75
REMARK SMILES IDX 67 76 66 77 53 78 54 79 58 80 55 81 57 82 56 83
REMARK H PARENT 6 19 73 51 51 62
REMARK Flexibility Score: inf
ROOT
ATOM      1  C   UNL     1      -1.308   4.072   7.794  1.00  0.00     0.188 C 
ENDROOT
BRANCH   1   2
ATOM      2  O   UNL     1      -2.318   5.074   7.706  1.00  0.00    -0.376 OA
BRANCH   2   3
ATOM      3  C   UNL     1      -2.294   5.911   6.560  1.00  0.00     0.202 C 
BRANCH   3   4
ATOM      4  C   UNL     1      -2.752   5.262   5.245  1.00  0.00     0.261 C 
BRANCH   4   5
ATOM      5  O   UNL     1      -2.016   4.098   4.841  1.00  0.00    -0.459 OA
BRANCH   5   6
ATOM      6  C   UNL     1      -0.699   4.254   4.548  1.00  0.00     0.348 C 
ATOM      7  O   UNL     1      -0.127   5.336   4.490  1.00  0.00    -0.245 OA
BRANCH   6   8
ATOM      8  C   UNL     1      -0.090   2.942   4.475  1.00  0.00     0.116 A 
ATOM      9  C   UNL     1       0.218   0.631   4.280  1.00  0.00     0.131 A 
ATOM     10  C   UNL     1       1.405   1.017   4.859  1.00  0.00     0.112 A 
ATOM     11  C   UNL     1      -0.648   1.742   4.073  1.00  0.00     0.074 A 
ATOM     12  S   UNL     1       1.509   2.720   5.043  1.00  0.00    -0.133 S 
BRANCH   9  13
ATOM     13  O   UNL     1      -0.143  -0.606   3.866  1.00  0.00    -0.483 OA
BRANCH  13  14
ATOM     14  C   UNL     1       0.435  -1.720   4.510  1.00  0.00     0.329 C 
BRANCH  14  15
ATOM     15  C   UNL     1       1.942  -2.003   4.473  1.00  0.00     0.267 C 
ATOM     16  C   UNL     1       2.329  -1.777   1.973  1.00  0.00     0.413 C 
ATOM     17  O   UNL     1       3.203  -1.750   1.114  1.00  0.00    -0.224 OA
ATOM     18  N   UNL     1       2.651  -1.979   3.296  1.00  0.00    -0.258 N 
ATOM     19  H   UNL     1       3.612  -2.144   3.430  1.00  0.00     0.176 HD
ATOM     20  O   UNL     1       2.552  -2.280   5.512  1.00  0.00    -0.271 OA
BRANCH  16  21
ATOM     21  O   UNL     1       1.009  -1.627   1.738  1.00  0.00    -0.450 OA
BRANCH  21  22
ATOM     22  C   UNL     1       0.631  -1.339   0.384  1.00  0.00     0.231 C 
ATOM     23  C   UNL     1       0.902   0.114   0.033  1.00  0.00     0.049 C 
ENDBRANCH  21  22
ENDBRANCH  16  21
ENDBRANCH  14  15
ENDBRANCH  13  14
ENDBRANCH   9  13
ENDBRANCH   6   8
ENDBRANCH   5   6
ENDBRANCH   4   5
ENDBRANCH   3   4
ENDBRANCH   2   3
ENDBRANCH   1   2
BRANCH   1  24
ATOM     24  C   UNL     1      -1.858   2.646   7.621  1.00  0.00     0.188 C 
BRANCH  24  25
ATOM     25  O   UNL     1      -3.196   2.572   7.160  1.00  0.00    -0.377 OA
BRANCH  25  26
ATOM     26  C   UNL     1      -4.249   2.995   8.027  1.00  0.00     0.188 C 
BRANCH  26  27
ATOM     27  C   UNL     1      -3.999   3.575   9.440  1.00  0.00     0.188 C 
BRANCH  27  28
ATOM     28  O   UNL     1      -2.868   3.041  10.118  1.00  0.00    -0.376 OA
BRANCH  28  29
ATOM     29  C   UNL     1      -3.131   2.197  11.229  1.00  0.00     0.202 C 
BRANCH  29  30
ATOM     30  C   UNL     1      -3.566   0.783  10.832  1.00  0.00     0.261 C 
BRANCH  30  31
ATOM     31  O   UNL     1      -4.810   0.718  10.117  1.00  0.00    -0.460 OA
BRANCH  31  32
ATOM     32  C   UNL     1      -5.910   1.167  10.761  1.00  0.00     0.338 C 
ATOM     33  O   UNL     1      -5.984   1.584  11.901  1.00  0.00    -0.246 OA
BRANCH  32  34
ATOM     34  C   UNL     1      -7.006   1.236   9.777  1.00  0.00     0.060 A 
ATOM     35  C   UNL     1      -7.658   2.458   9.571  1.00  0.00     0.016 A 
ATOM     36  C   UNL     1      -7.383   0.096   9.065  1.00  0.00     0.016 A 
ATOM     37  C   UNL     1      -8.722   2.533   8.674  1.00  0.00     0.010 A 
ATOM     38  C   UNL     1      -8.458   0.168   8.179  1.00  0.00     0.010 A 
ATOM     39  C   UNL     1      -9.153   1.377   8.007  1.00  0.00    -0.014 A 
BRANCH  39  40
ATOM     40  C   UNL     1     -10.444   1.378   7.284  1.00  0.00     0.031 A 
ATOM     41  C   UNL     1     -11.665   0.879   8.004  1.00  0.00     0.074 A 
ATOM     42  C   UNL     1     -10.535   1.802   6.012  1.00  0.00     0.049 A 
ATOM     43  N   UNL     1     -12.891   0.744   7.568  1.00  0.00    -0.248 NA
ATOM     44  C   UNL     1     -11.473   0.471   9.406  1.00  0.00     0.031 C 
ATOM     45  C   UNL     1      -9.434   2.336   5.215  1.00  0.00     0.029 A 
ATOM     46  N   UNL     1     -11.616   1.836   5.167  1.00  0.00    -0.354 N 
ATOM     47  C   UNL     1     -13.613   0.229   8.637  1.00  0.00     0.074 A 
ATOM     48  C   UNL     1     -12.684   0.047   9.731  1.00  0.00     0.031 C 
ATOM     49  C   UNL     1      -9.894   2.635   3.987  1.00  0.00     0.029 A 
ATOM     50  C   UNL     1     -11.311   2.285   3.906  1.00  0.00     0.049 A 
ATOM     51  H   UNL     1     -12.522   1.564   5.439  1.00  0.00     0.167 HD
ATOM     52  C   UNL     1     -14.932  -0.066   8.705  1.00  0.00     0.031 A 
ATOM     53  C   UNL     1     -12.085   2.382   2.808  1.00  0.00     0.031 A 
ATOM     54  C   UNL     1     -15.851   0.089   7.611  1.00  0.00     0.049 A 
ATOM     55  C   UNL     1     -13.535   1.980   2.883  1.00  0.00     0.074 A 
ATOM     56  C   UNL     1     -17.212  -0.160   7.586  1.00  0.00     0.029 A 
ATOM     57  N   UNL     1     -15.498   0.519   6.341  1.00  0.00    -0.354 N 
ATOM     58  N   UNL     1     -14.218   1.534   3.910  1.00  0.00    -0.248 NA
ATOM     59  C   UNL     1     -14.321   2.103   1.647  1.00  0.00     0.031 C 
ATOM     60  C   UNL     1     -17.671   0.062   6.283  1.00  0.00     0.029 A 
ATOM     61  C   UNL     1     -16.608   0.510   5.514  1.00  0.00     0.049 A 
ATOM     62  H   UNL     1     -14.592   0.790   6.068  1.00  0.00     0.167 HD
ATOM     63  C   UNL     1     -15.517   1.347   3.451  1.00  0.00     0.074 A 
ATOM     64  C   UNL     1     -15.529   1.741   2.057  1.00  0.00     0.031 C 
ATOM     65  C   UNL     1     -16.603   0.896   4.126  1.00  0.00     0.031 A 
BRANCH  52  66
ATOM     66  C   UNL     1     -15.439  -0.632  10.001  1.00  0.00    -0.014 A 
ATOM     67  C   UNL     1     -15.530   0.157  11.159  1.00  0.00     0.009 A 
ATOM     68  C   UNL     1     -15.829  -1.979  10.064  1.00  0.00     0.009 A 
ATOM     69  C   UNL     1     -15.960  -0.404  12.364  1.00  0.00     0.001 A 
ATOM     70  C   UNL     1     -16.286  -2.529  11.262  1.00  0.00     0.001 A 
ATOM     71  C   UNL     1     -16.340  -1.745  12.413  1.00  0.00     0.000 A 
ENDBRANCH  52  66
BRANCH  53  72
ATOM     72  C   UNL     1     -11.498   2.868   1.532  1.00  0.00    -0.014 A 
ATOM     73  C   UNL     1     -11.841   4.127   1.019  1.00  0.00     0.009 A 
ATOM     74  C   UNL     1     -10.589   2.069   0.820  1.00  0.00     0.009 A 
ATOM     75  C   UNL     1     -11.297   4.571  -0.189  1.00  0.00     0.001 A 
ATOM     76  C   UNL     1     -10.027   2.526  -0.373  1.00  0.00     0.001 A 
ATOM     77  C   UNL     1     -10.386   3.773  -0.881  1.00  0.00     0.000 A 
ENDBRANCH  53  72
BRANCH  65  78
ATOM     78  C   UNL     1     -17.905   0.830   3.376  1.00  0.00    -0.014 A 
ATOM     79  C   UNL     1     -18.136  -0.147   2.395  1.00  0.00     0.009 A 
ATOM     80  C   UNL     1     -18.936   1.728   3.696  1.00  0.00     0.009 A 
ATOM     81  C   UNL     1     -19.362  -0.202   1.728  1.00  0.00     0.001 A 
ATOM     82  C   UNL     1     -20.170   1.652   3.049  1.00  0.00     0.001 A 
ATOM     83  C   UNL     1     -20.379   0.693   2.060  1.00  0.00     0.000 A 
ENDBRANCH  65  78
ENDBRANCH  39  40
ENDBRANCH  32  34
ENDBRANCH  31  32
ENDBRANCH  30  31
ENDBRANCH  29  30
ENDBRANCH  28  29
ENDBRANCH  27  28
ENDBRANCH  26  27
ENDBRANCH  25  26
ENDBRANCH  24  25
ENDBRANCH   1  24
TORSDOF 25
