REMARK SMILES Cc1ccc(-c2cc(Cl)cc3c2O[C@@H](C(F)(F)F)C(C(=O)OCCOCCOCCOCCOC(=O)c2ccc(-c4c5nc(c(-c6ccccc6)c6ccc([nH]6)c(-c6ccccc6)c6nc(c(-c7ccccc7)c7ccc4[nH]7)C=C6)C=C5)cc2)=C3)cc1
REMARK SMILES IDX 29 1 28 2 27 3 26 4 25 5 24 6 23 7 22 8 20 9 21 10 19 11
REMARK SMILES IDX 6 12 7 13 12 14 8 15 11 16 13 17 9 18 10 19 85 20 14 21 5 22
REMARK SMILES IDX 1 23 2 24 3 25 87 26 4 27 86 28 15 29 16 30 17 31 18 32
REMARK SMILES IDX 30 33 31 34 32 35 33 36 34 37 35 38 36 39 37 40 38 41 84 42
REMARK SMILES IDX 39 43 83 44 40 45 41 46 42 47 77 48 43 49 82 50 76 51 78 52
REMARK SMILES IDX 44 53 81 54 75 55 74 56 45 58 67 59 52 60 66 61 53 62 56 63
REMARK SMILES IDX 65 64 79 65 54 66 55 67 64 69 80 70 57 71 46 72 47 73 51 74
REMARK SMILES IDX 48 75 50 76 49 77 68 78 69 79 73 80 70 81 72 82 71 83 58 84
REMARK SMILES IDX 59 85 63 86 60 87 62 88 61 89
REMARK H PARENT 78 57 56 68
REMARK Flexibility Score: inf
ROOT
ATOM      1  C   UNL     1      -3.113  -5.394   2.552  1.00  0.00     0.188 C 
ENDROOT
BRANCH   1   2
ATOM      2  O   UNL     1      -4.339  -4.813   2.961  1.00  0.00    -0.377 OA
BRANCH   2   3
ATOM      3  C   UNL     1      -5.179  -4.320   1.929  1.00  0.00     0.188 C 
BRANCH   3   4
ATOM      4  C   UNL     1      -4.594  -3.473   0.798  1.00  0.00     0.188 C 
BRANCH   4   5
ATOM      5  O   UNL     1      -3.586  -2.497   1.017  1.00  0.00    -0.376 OA
BRANCH   5   6
ATOM      6  C   UNL     1      -3.431  -1.768   2.222  1.00  0.00     0.202 C 
BRANCH   6   7
ATOM      7  C   UNL     1      -3.492  -0.189   2.293  1.00  0.00     0.261 C 
BRANCH   7   8
ATOM      8  O   UNL     1      -4.639   0.306   3.029  1.00  0.00    -0.460 OA
BRANCH   8   9
ATOM      9  C   UNL     1      -5.449   1.234   2.453  1.00  0.00     0.338 C 
ATOM     10  O   UNL     1      -5.097   2.263   1.883  1.00  0.00    -0.246 OA
BRANCH   9  11
ATOM     11  C   UNL     1      -6.859   0.656   2.357  1.00  0.00     0.087 C 
ATOM     12  C   UNL     1      -4.668  -0.331  -0.843  1.00  0.00     0.026 A 
ATOM     13  C   UNL     1      -5.031   0.338  -2.033  1.00  0.00     0.033 A 
ATOM     14  C   UNL     1      -5.723  -0.387   0.179  1.00  0.00     0.135 A 
ATOM     15  C   UNL     1      -6.252   0.991  -2.198  1.00  0.00     0.042 A 
ATOM     16  C   UNL     1      -6.853   0.478   0.046  1.00  0.00     0.019 A 
ATOM     17  O   UNL     1      -5.747  -1.171   1.384  1.00  0.00    -0.475 OA
ATOM     18  Cl  UNL     1      -6.566   1.821  -3.668  1.00  0.00    -0.084 Cl
ATOM     19  C   UNL     1      -7.153   1.092  -1.155  1.00  0.00     0.032 A 
ATOM     20  C   UNL     1      -7.603   0.921   1.261  1.00  0.00     0.027 C 
ATOM     21  C   UNL     1      -6.757  -0.836   2.453  1.00  0.00     0.316 C 
BRANCH  12  22
ATOM     22  C   UNL     1      -3.124  -0.522  -0.835  1.00  0.00    -0.015 A 
ATOM     23  C   UNL     1       1.303  -0.626  -1.173  1.00  0.00     0.044 C 
ATOM     24  C   UNL     1      -0.204  -0.595  -1.113  1.00  0.00    -0.051 A 
ATOM     25  C   UNL     1      -0.991  -1.724  -1.327  1.00  0.00     0.004 A 
ATOM     26  C   UNL     1      -0.884   0.582  -0.832  1.00  0.00     0.004 A 
ATOM     27  C   UNL     1      -2.416  -1.677  -1.228  1.00  0.00     0.009 A 
ATOM     28  C   UNL     1      -2.289   0.619  -0.686  1.00  0.00     0.009 A 
ENDBRANCH  12  22
BRANCH  21  29
ATOM     29  C   UNL     1      -6.685  -1.235   3.978  1.00  0.00     0.430 C 
ATOM     30  F   UNL     1      -7.899  -0.933   4.543  1.00  0.00    -0.167 F 
ATOM     31  F   UNL     1      -6.521  -2.558   4.179  1.00  0.00    -0.167 F 
ATOM     32  F   UNL     1      -5.798  -0.588   4.753  1.00  0.00    -0.167 F 
ENDBRANCH  21  29
ENDBRANCH   9  11
ENDBRANCH   8   9
ENDBRANCH   7   8
ENDBRANCH   6   7
ENDBRANCH   5   6
ENDBRANCH   4   5
ENDBRANCH   3   4
ENDBRANCH   2   3
ENDBRANCH   1   2
BRANCH   1  33
ATOM     33  C   UNL     1      -3.179  -6.429   1.464  1.00  0.00     0.188 C 
BRANCH  33  34
ATOM     34  O   UNL     1      -2.834  -5.753   0.265  1.00  0.00    -0.376 OA
BRANCH  34  35
ATOM     35  C   UNL     1      -2.879  -6.539  -0.910  1.00  0.00     0.202 C 
BRANCH  35  36
ATOM     36  C   UNL     1      -1.844  -7.662  -0.855  1.00  0.00     0.261 C 
BRANCH  36  37
ATOM     37  O   UNL     1      -0.556  -7.058  -0.576  1.00  0.00    -0.460 OA
BRANCH  37  38
ATOM     38  C   UNL     1      -0.027  -7.322   0.651  1.00  0.00     0.338 C 
ATOM     39  O   UNL     1      -0.043  -8.414   1.198  1.00  0.00    -0.246 OA
BRANCH  38  40
ATOM     40  C   UNL     1       0.319  -6.049   1.371  1.00  0.00     0.060 A 
ATOM     41  C   UNL     1       0.638  -6.085   2.740  1.00  0.00     0.016 A 
ATOM     42  C   UNL     1       0.047  -4.815   0.787  1.00  0.00     0.016 A 
ATOM     43  C   UNL     1       0.538  -4.925   3.541  1.00  0.00     0.010 A 
ATOM     44  C   UNL     1      -0.090  -3.683   1.592  1.00  0.00     0.010 A 
ATOM     45  C   UNL     1       0.097  -3.721   2.987  1.00  0.00    -0.014 A 
BRANCH  45  46
ATOM     46  C   UNL     1      -0.389  -2.533   3.757  1.00  0.00     0.031 A 
ATOM     47  C   UNL     1       0.057  -1.146   3.343  1.00  0.00     0.074 A 
ATOM     48  C   UNL     1      -1.513  -2.675   4.523  1.00  0.00     0.049 A 
ATOM     49  N   UNL     1      -0.449  -0.037   3.768  1.00  0.00    -0.248 NA
ATOM     50  C   UNL     1       1.111  -0.880   2.367  1.00  0.00     0.031 C 
ATOM     51  C   UNL     1      -2.494  -1.648   4.894  1.00  0.00     0.029 A 
ATOM     52  N   UNL     1      -2.120  -3.821   5.041  1.00  0.00    -0.354 N 
ATOM     53  C   UNL     1      -0.071   1.013   2.942  1.00  0.00     0.074 A 
ATOM     54  C   UNL     1       0.969   0.435   2.130  1.00  0.00     0.031 C 
ATOM     55  C   UNL     1      -3.500  -2.156   5.621  1.00  0.00     0.029 A 
ATOM     56  C   UNL     1      -3.041  -3.441   6.042  1.00  0.00     0.049 A 
ATOM     57  H   UNL     1      -1.937  -4.744   4.754  1.00  0.00     0.167 HD
ATOM     58  C   UNL     1      -0.773   2.198   2.993  1.00  0.00     0.031 A 
ATOM     59  C   UNL     1      -2.783  -3.727   7.346  1.00  0.00     0.031 A 
ATOM     60  C   UNL     1      -1.718   2.204   4.139  1.00  0.00     0.049 A 
ATOM     61  C   UNL     1      -2.389  -2.410   8.044  1.00  0.00     0.074 A 
ATOM     62  C   UNL     1      -3.051   2.517   4.343  1.00  0.00     0.029 A 
ATOM     63  N   UNL     1      -1.304   1.639   5.349  1.00  0.00    -0.354 N 
ATOM     64  N   UNL     1      -1.839  -1.384   7.417  1.00  0.00    -0.248 NA
ATOM     65  C   UNL     1      -2.861  -2.015   9.371  1.00  0.00     0.031 C 
ATOM     66  C   UNL     1      -3.475   1.919   5.569  1.00  0.00     0.029 A 
ATOM     67  C   UNL     1      -2.359   1.384   6.199  1.00  0.00     0.049 A 
ATOM     68  H   UNL     1      -0.364   1.446   5.570  1.00  0.00     0.167 HD
ATOM     69  C   UNL     1      -2.109  -0.218   8.091  1.00  0.00     0.074 A 
ATOM     70  C   UNL     1      -2.651  -0.682   9.361  1.00  0.00     0.031 C 
ATOM     71  C   UNL     1      -2.090   1.064   7.593  1.00  0.00     0.031 A 
BRANCH  58  72
ATOM     72  C   UNL     1      -0.796   3.289   1.894  1.00  0.00    -0.014 A 
ATOM     73  C   UNL     1      -1.845   4.237   1.847  1.00  0.00     0.009 A 
ATOM     74  C   UNL     1       0.112   3.406   0.827  1.00  0.00     0.009 A 
ATOM     75  C   UNL     1      -2.068   5.114   0.767  1.00  0.00     0.001 A 
ATOM     76  C   UNL     1      -0.101   4.281  -0.270  1.00  0.00     0.001 A 
ATOM     77  C   UNL     1      -1.210   5.114  -0.315  1.00  0.00     0.000 A 
ENDBRANCH  58  72
BRANCH  59  78
ATOM     78  C   UNL     1      -2.432  -5.192   7.424  1.00  0.00    -0.014 A 
ATOM     79  C   UNL     1      -3.516  -6.061   7.092  1.00  0.00     0.009 A 
ATOM     80  C   UNL     1      -1.143  -5.645   7.091  1.00  0.00     0.009 A 
ATOM     81  C   UNL     1      -3.343  -7.173   6.250  1.00  0.00     0.001 A 
ATOM     82  C   UNL     1      -0.975  -6.783   6.268  1.00  0.00     0.001 A 
ATOM     83  C   UNL     1      -2.072  -7.506   5.799  1.00  0.00     0.000 A 
ENDBRANCH  59  78
BRANCH  71  84
ATOM     84  C   UNL     1      -1.657   2.269   8.406  1.00  0.00    -0.014 A 
ATOM     85  C   UNL     1      -1.002   2.145   9.627  1.00  0.00     0.009 A 
ATOM     86  C   UNL     1      -1.621   3.550   7.786  1.00  0.00     0.009 A 
ATOM     87  C   UNL     1      -0.329   3.235  10.187  1.00  0.00     0.001 A 
ATOM     88  C   UNL     1      -0.900   4.618   8.308  1.00  0.00     0.001 A 
ATOM     89  C   UNL     1      -0.253   4.457   9.518  1.00  0.00     0.000 A 
ENDBRANCH  71  84
ENDBRANCH  45  46
ENDBRANCH  38  40
ENDBRANCH  37  38
ENDBRANCH  36  37
ENDBRANCH  35  36
ENDBRANCH  34  35
ENDBRANCH  33  34
ENDBRANCH   1  33
TORSDOF 22
