REMARK SMILES [NH3+]CCOCC(=O)N1C[C@@H](C(=O)OCCOCCOCCOCCOC(=O)c2ccc(-c3c4nc(c(-c5ccccc5)c5ccc([nH]5)c(-c5ccccc5)c5nc(c(-c6ccccc6)c6ccc3[nH]6)C=C5)C=C4)cc2)Oc2ccccc21
REMARK SMILES IDX 17 1 16 2 15 3 14 4 13 5 11 6 12 7 10 8 8 9 9 10 82 11 77 12
REMARK SMILES IDX 81 13 76 14 78 15 80 16 79 17 6 18 7 19 5 20 4 21 3 22 2 23
REMARK SMILES IDX 1 24 18 28 19 29 20 30 21 31 22 32 23 33 24 34 25 35 26 36
REMARK SMILES IDX 27 37 28 38 29 39 75 40 30 41 74 42 31 43 32 44 33 45 68 46
REMARK SMILES IDX 34 47 73 48 67 49 69 50 35 51 72 52 66 53 65 54 36 56 58 57
REMARK SMILES IDX 43 58 57 59 44 60 47 61 56 62 70 63 45 64 46 65 55 67 71 68
REMARK SMILES IDX 48 69 37 70 38 71 42 72 39 73 41 74 40 75 59 76 60 77 64 78
REMARK SMILES IDX 61 79 63 80 62 81 49 82 50 83 54 84 51 85 53 86 52 87
REMARK H PARENT 1 25 1 26 1 27 69 55 47 66
REMARK Flexibility Score: inf
ROOT
ATOM      1  C   UNL     1       6.863   3.478   3.514  1.00  0.00     0.188 C 
ENDROOT
BRANCH   1   2
ATOM      2  O   UNL     1       7.198   2.102   3.605  1.00  0.00    -0.376 OA
BRANCH   2   3
ATOM      3  C   UNL     1       6.513   1.157   2.786  1.00  0.00     0.202 C 
BRANCH   3   4
ATOM      4  C   UNL     1       4.994   1.279   2.542  1.00  0.00     0.261 C 
BRANCH   4   5
ATOM      5  O   UNL     1       4.569   2.471   1.838  1.00  0.00    -0.460 OA
BRANCH   5   6
ATOM      6  C   UNL     1       3.654   3.278   2.432  1.00  0.00     0.349 C 
ATOM      7  O   UNL     1       3.109   3.011   3.500  1.00  0.00    -0.248 OA
BRANCH   6   8
ATOM      8  C   UNL     1       3.282   4.559   1.626  1.00  0.00     0.302 C 
ATOM      9  N   UNL     1       2.635   3.467  -0.460  1.00  0.00    -0.303 N 
ATOM     10  C   UNL     1       2.136   4.239   0.686  1.00  0.00     0.183 C 
ATOM     11  C   UNL     1       3.839   4.004  -1.028  1.00  0.00     0.086 A 
ATOM     12  C   UNL     1       4.517   5.019  -0.332  1.00  0.00     0.144 A 
ATOM     13  C   UNL     1       4.326   3.638  -2.289  1.00  0.00     0.030 A 
ATOM     14  O   UNL     1       4.215   5.394   0.956  1.00  0.00    -0.475 OA
ATOM     15  C   UNL     1       5.580   5.715  -0.918  1.00  0.00     0.049 A 
ATOM     16  C   UNL     1       5.418   4.307  -2.859  1.00  0.00     0.002 A 
ATOM     17  C   UNL     1       6.030   5.360  -2.186  1.00  0.00     0.004 A 
BRANCH   9  18
ATOM     18  C   UNL     1       2.009   2.313  -0.920  1.00  0.00     0.253 C 
ATOM     19  O   UNL     1       2.563   1.432  -1.581  1.00  0.00    -0.272 OA
BRANCH  18  20
ATOM     20  C   UNL     1       0.504   2.175  -0.600  1.00  0.00     0.260 C 
BRANCH  20  21
ATOM     21  O   UNL     1       0.027   2.030   0.722  1.00  0.00    -0.366 OA
BRANCH  21  22
ATOM     22  C   UNL     1       0.756   1.137   1.564  1.00  0.00     0.222 C 
BRANCH  22  23
ATOM     23  C   UNL     1       0.417  -0.339   1.345  1.00  0.00     0.287 C 
BRANCH  23  24
ATOM     24  N   UNL     1       1.057  -0.932   0.172  1.00  0.00    -0.356 N 
ATOM     25  H   UNL     1       0.784  -1.912   0.095  1.00  0.00     0.344 HD
ATOM     26  H   UNL     1       2.070  -0.869   0.269  1.00  0.00     0.344 HD
ATOM     27  H   UNL     1       0.763  -0.430  -0.666  1.00  0.00     0.344 HD
ENDBRANCH  23  24
ENDBRANCH  22  23
ENDBRANCH  21  22
ENDBRANCH  20  21
ENDBRANCH  18  20
ENDBRANCH   9  18
ENDBRANCH   6   8
ENDBRANCH   5   6
ENDBRANCH   4   5
ENDBRANCH   3   4
ENDBRANCH   2   3
ENDBRANCH   1   2
BRANCH   1  28
ATOM     28  C   UNL     1       6.872   4.162   2.144  1.00  0.00     0.188 C 
BRANCH  28  29
ATOM     29  O   UNL     1       6.852   3.284   1.040  1.00  0.00    -0.377 OA
BRANCH  29  30
ATOM     30  C   UNL     1       8.072   2.957   0.395  1.00  0.00     0.188 C 
BRANCH  30  31
ATOM     31  C   UNL     1       9.374   3.046   1.203  1.00  0.00     0.188 C 
BRANCH  31  32
ATOM     32  O   UNL     1       9.542   4.267   1.906  1.00  0.00    -0.376 OA
BRANCH  32  33
ATOM     33  C   UNL     1      10.197   5.355   1.269  1.00  0.00     0.202 C 
BRANCH  33  34
ATOM     34  C   UNL     1       9.614   5.929  -0.036  1.00  0.00     0.261 C 
BRANCH  34  35
ATOM     35  O   UNL     1       9.516   5.042  -1.164  1.00  0.00    -0.460 OA
BRANCH  35  36
ATOM     36  C   UNL     1      10.625   4.402  -1.579  1.00  0.00     0.338 C 
ATOM     37  O   UNL     1      11.764   4.563  -1.167  1.00  0.00    -0.246 OA
BRANCH  36  38
ATOM     38  C   UNL     1      10.216   3.311  -2.490  1.00  0.00     0.060 A 
ATOM     39  C   UNL     1      10.524   1.991  -2.136  1.00  0.00     0.016 A 
ATOM     40  C   UNL     1       9.552   3.579  -3.691  1.00  0.00     0.016 A 
ATOM     41  C   UNL     1      10.201   0.940  -2.994  1.00  0.00     0.010 A 
ATOM     42  C   UNL     1       9.253   2.525  -4.563  1.00  0.00     0.010 A 
ATOM     43  C   UNL     1       9.606   1.204  -4.234  1.00  0.00    -0.014 A 
BRANCH  43  44
ATOM     44  C   UNL     1       9.521   0.121  -5.246  1.00  0.00     0.031 A 
ATOM     45  C   UNL     1      10.580   0.044  -6.313  1.00  0.00     0.074 A 
ATOM     46  C   UNL     1       8.550  -0.809  -5.197  1.00  0.00     0.049 A 
ATOM     47  N   UNL     1      10.697  -0.796  -7.310  1.00  0.00    -0.248 NA
ATOM     48  C   UNL     1      11.653   1.050  -6.243  1.00  0.00     0.031 C 
ATOM     49  C   UNL     1       7.503  -0.887  -4.181  1.00  0.00     0.029 A 
ATOM     50  N   UNL     1       8.294  -1.870  -6.030  1.00  0.00    -0.354 N 
ATOM     51  C   UNL     1      11.849  -0.416  -7.989  1.00  0.00     0.074 A 
ATOM     52  C   UNL     1      12.379   0.745  -7.308  1.00  0.00     0.031 C 
ATOM     53  C   UNL     1       6.711  -1.939  -4.455  1.00  0.00     0.029 A 
ATOM     54  C   UNL     1       7.171  -2.582  -5.685  1.00  0.00     0.049 A 
ATOM     55  H   UNL     1       8.861  -2.098  -6.802  1.00  0.00     0.167 HD
ATOM     56  C   UNL     1      12.417  -0.984  -9.079  1.00  0.00     0.031 A 
ATOM     57  C   UNL     1       6.569  -3.615  -6.306  1.00  0.00     0.031 A 
ATOM     58  C   UNL     1      11.882  -2.128  -9.769  1.00  0.00     0.049 A 
ATOM     59  C   UNL     1       7.162  -4.162  -7.579  1.00  0.00     0.074 A 
ATOM     60  C   UNL     1      12.392  -2.783 -10.877  1.00  0.00     0.029 A 
ATOM     61  N   UNL     1      10.708  -2.779  -9.425  1.00  0.00    -0.354 N 
ATOM     62  N   UNL     1       8.263  -3.811  -8.199  1.00  0.00    -0.248 NA
ATOM     63  C   UNL     1       6.426  -5.252  -8.238  1.00  0.00     0.031 C 
ATOM     64  C   UNL     1      11.489  -3.784 -11.246  1.00  0.00     0.029 A 
ATOM     65  C   UNL     1      10.454  -3.801 -10.324  1.00  0.00     0.049 A 
ATOM     66  H   UNL     1      10.139  -2.549  -8.655  1.00  0.00     0.167 HD
ATOM     67  C   UNL     1       8.363  -4.650  -9.303  1.00  0.00     0.074 A 
ATOM     68  C   UNL     1       7.224  -5.543  -9.255  1.00  0.00     0.031 C 
ATOM     69  C   UNL     1       9.312  -4.678 -10.272  1.00  0.00     0.031 A 
BRANCH  56  70
ATOM     70  C   UNL     1      13.663  -0.341  -9.626  1.00  0.00    -0.014 A 
ATOM     71  C   UNL     1      14.886  -0.405  -8.938  1.00  0.00     0.009 A 
ATOM     72  C   UNL     1      13.618   0.311 -10.868  1.00  0.00     0.009 A 
ATOM     73  C   UNL     1      16.027   0.201  -9.468  1.00  0.00     0.001 A 
ATOM     74  C   UNL     1      14.767   0.888 -11.410  1.00  0.00     0.001 A 
ATOM     75  C   UNL     1      15.968   0.842 -10.705  1.00  0.00     0.000 A 
ENDBRANCH  56  70
BRANCH  57  76
ATOM     76  C   UNL     1       5.306  -4.183  -5.760  1.00  0.00    -0.014 A 
ATOM     77  C   UNL     1       5.262  -5.493  -5.259  1.00  0.00     0.009 A 
ATOM     78  C   UNL     1       4.125  -3.422  -5.765  1.00  0.00     0.009 A 
ATOM     79  C   UNL     1       4.059  -6.037  -4.800  1.00  0.00     0.001 A 
ATOM     80  C   UNL     1       2.932  -3.955  -5.274  1.00  0.00     0.001 A 
ATOM     81  C   UNL     1       2.897  -5.266  -4.803  1.00  0.00     0.000 A 
ENDBRANCH  57  76
BRANCH  69  82
ATOM     82  C   UNL     1       9.175  -5.723 -11.347  1.00  0.00    -0.014 A 
ATOM     83  C   UNL     1       8.164  -5.644 -12.318  1.00  0.00     0.009 A 
ATOM     84  C   UNL     1      10.098  -6.779 -11.414  1.00  0.00     0.009 A 
ATOM     85  C   UNL     1       8.059  -6.620 -13.311  1.00  0.00     0.001 A 
ATOM     86  C   UNL     1      10.011  -7.735 -12.427  1.00  0.00     0.001 A 
ATOM     87  C   UNL     1       8.986  -7.661 -13.368  1.00  0.00     0.000 A 
ENDBRANCH  69  82
ENDBRANCH  43  44
ENDBRANCH  36  38
ENDBRANCH  35  36
ENDBRANCH  34  35
ENDBRANCH  33  34
ENDBRANCH  32  33
ENDBRANCH  31  32
ENDBRANCH  30  31
ENDBRANCH  29  30
ENDBRANCH  28  29
ENDBRANCH   1  28
TORSDOF 26
