REMARK SMILES CC(C)(C)C[C@@H](O)[C@@H](F)C(=O)OCCOCCOCCOCCOC(=O)c1ccc(-c2c3nc(c(-c4ccccc4)c4ccc([nH]4)c(-c4ccccc4)c4nc(c(-c5ccccc5)c5ccc2[nH]5)C=C4)C=C3)cc1
REMARK SMILES IDX 17 1 16 2 15 3 14 4 13 5 12 6 10 7 11 8 8 9 9 10 6 11 5 12
REMARK SMILES IDX 2 13 1 14 3 15 4 16 7 17 18 19 19 20 20 21 21 22 22 23 23 24
REMARK SMILES IDX 24 25 25 26 26 27 27 28 28 29 74 30 29 31 73 32 30 33 31 34
REMARK SMILES IDX 32 35 67 36 33 37 72 38 66 39 68 40 34 41 71 42 65 43 64 44
REMARK SMILES IDX 35 46 57 47 42 48 56 49 43 50 46 51 55 52 69 53 44 54 45 55
REMARK SMILES IDX 54 57 70 58 47 59 36 60 37 61 41 62 38 63 40 64 39 65 58 66
REMARK SMILES IDX 59 67 63 68 60 69 62 70 61 71 48 72 49 73 53 74 50 75 52 76
REMARK SMILES IDX 51 77
REMARK H PARENT 7 18 68 45 46 56
REMARK Flexibility Score: inf
ROOT
ATOM      1  C   UNL     1       0.942  -2.506   4.152  1.00  0.00     0.188 C 
ENDROOT
BRANCH   1   2
ATOM      2  C   UNL     1       1.302  -2.850   5.592  1.00  0.00     0.188 C 
BRANCH   2   3
ATOM      3  O   UNL     1       0.286  -3.385   6.397  1.00  0.00    -0.376 OA
BRANCH   3   4
ATOM      4  C   UNL     1      -0.781  -2.572   6.849  1.00  0.00     0.202 C 
BRANCH   4   5
ATOM      5  C   UNL     1      -0.911  -1.041   6.668  1.00  0.00     0.261 C 
BRANCH   5   6
ATOM      6  O   UNL     1      -0.484  -0.415   5.437  1.00  0.00    -0.461 OA
BRANCH   6   7
ATOM      7  C   UNL     1       0.496   0.523   5.554  1.00  0.00     0.343 C 
ATOM      8  O   UNL     1       1.043   0.778   6.628  1.00  0.00    -0.249 OA
BRANCH   7   9
ATOM      9  C   UNL     1       0.858   1.315   4.285  1.00  0.00     0.304 C 
ATOM     10  F   UNL     1       0.395   2.600   4.426  1.00  0.00    -0.232 F 
BRANCH   9  11
ATOM     11  C   UNL     1       0.462   0.816   2.873  1.00  0.00     0.160 C 
BRANCH  11  12
ATOM     12  C   UNL     1       0.666   1.930   1.821  1.00  0.00     0.041 C 
BRANCH  12  13
ATOM     13  C   UNL     1       0.254   1.634   0.341  1.00  0.00    -0.036 C 
ATOM     14  C   UNL     1       0.883   0.366  -0.268  1.00  0.00     0.011 C 
ATOM     15  C   UNL     1       0.727   2.828  -0.516  1.00  0.00     0.011 C 
ATOM     16  C   UNL     1      -1.274   1.518   0.242  1.00  0.00     0.011 C 
ENDBRANCH  12  13
ENDBRANCH  11  12
BRANCH  11  17
ATOM     17  O   UNL     1       1.352  -0.218   2.446  1.00  0.00    -0.389 OA
ATOM     18  H   UNL     1       2.256   0.132   2.402  1.00  0.00     0.211 HD
ENDBRANCH  11  17
ENDBRANCH   9  11
ENDBRANCH   7   9
ENDBRANCH   6   7
ENDBRANCH   5   6
ENDBRANCH   4   5
ENDBRANCH   3   4
ENDBRANCH   2   3
ENDBRANCH   1   2
BRANCH   1  19
ATOM     19  O   UNL     1      -0.414  -2.423   3.741  1.00  0.00    -0.377 OA
BRANCH  19  20
ATOM     20  C   UNL     1      -1.228  -3.592   3.752  1.00  0.00     0.188 C 
BRANCH  20  21
ATOM     21  C   UNL     1      -0.577  -4.975   3.911  1.00  0.00     0.188 C 
BRANCH  21  22
ATOM     22  O   UNL     1       0.742  -5.048   3.405  1.00  0.00    -0.376 OA
BRANCH  22  23
ATOM     23  C   UNL     1       0.942  -5.491   2.072  1.00  0.00     0.202 C 
BRANCH  23  24
ATOM     24  C   UNL     1       0.248  -4.730   0.931  1.00  0.00     0.261 C 
BRANCH  24  25
ATOM     25  O   UNL     1      -1.188  -4.673   0.964  1.00  0.00    -0.460 OA
BRANCH  25  26
ATOM     26  C   UNL     1      -1.876  -5.836   1.000  1.00  0.00     0.338 C 
ATOM     27  O   UNL     1      -1.430  -6.961   0.964  1.00  0.00    -0.246 OA
BRANCH  26  28
ATOM     28  C   UNL     1      -3.289  -5.498   1.276  1.00  0.00     0.060 A 
ATOM     29  C   UNL     1      -3.877  -5.944   2.467  1.00  0.00     0.016 A 
ATOM     30  C   UNL     1      -4.030  -4.753   0.356  1.00  0.00     0.016 A 
ATOM     31  C   UNL     1      -5.221  -5.674   2.727  1.00  0.00     0.010 A 
ATOM     32  C   UNL     1      -5.382  -4.501   0.608  1.00  0.00     0.010 A 
ATOM     33  C   UNL     1      -5.991  -4.990   1.778  1.00  0.00    -0.014 A 
BRANCH  33  34
ATOM     34  C   UNL     1      -7.468  -4.958   1.914  1.00  0.00     0.031 A 
ATOM     35  C   UNL     1      -8.278  -5.955   1.130  1.00  0.00     0.074 A 
ATOM     36  C   UNL     1      -8.079  -4.084   2.732  1.00  0.00     0.049 A 
ATOM     37  N   UNL     1      -9.576  -6.094   1.051  1.00  0.00    -0.248 NA
ATOM     38  C   UNL     1      -7.518  -6.926   0.324  1.00  0.00     0.031 C 
ATOM     39  C   UNL     1      -7.406  -3.109   3.588  1.00  0.00     0.029 A 
ATOM     40  N   UNL     1      -9.415  -3.877   2.971  1.00  0.00    -0.354 N 
ATOM     41  C   UNL     1      -9.788  -7.155   0.179  1.00  0.00     0.074 A 
ATOM     42  C   UNL     1      -8.488  -7.606  -0.267  1.00  0.00     0.031 C 
ATOM     43  C   UNL     1      -8.335  -2.403   4.257  1.00  0.00     0.029 A 
ATOM     44  C   UNL     1      -9.665  -2.849   3.847  1.00  0.00     0.049 A 
ATOM     45  H   UNL     1     -10.127  -4.415   2.554  1.00  0.00     0.167 HD
ATOM     46  C   UNL     1     -10.959  -7.706  -0.216  1.00  0.00     0.031 A 
ATOM     47  C   UNL     1     -10.835  -2.316   4.250  1.00  0.00     0.031 A 
ATOM     48  C   UNL     1     -12.252  -7.247   0.216  1.00  0.00     0.049 A 
ATOM     49  C   UNL     1     -12.127  -2.887   3.723  1.00  0.00     0.074 A 
ATOM     50  C   UNL     1     -13.499  -7.747  -0.114  1.00  0.00     0.029 A 
ATOM     51  N   UNL     1     -12.463  -6.170   1.064  1.00  0.00    -0.354 N 
ATOM     52  N   UNL     1     -12.316  -3.906   2.919  1.00  0.00    -0.248 NA
ATOM     53  C   UNL     1     -13.368  -2.236   4.168  1.00  0.00     0.031 C 
ATOM     54  C   UNL     1     -14.466  -6.930   0.477  1.00  0.00     0.029 A 
ATOM     55  C   UNL     1     -13.821  -5.968   1.239  1.00  0.00     0.049 A 
ATOM     56  H   UNL     1     -11.752  -5.630   1.479  1.00  0.00     0.167 HD
ATOM     57  C   UNL     1     -13.694  -4.039   2.790  1.00  0.00     0.074 A 
ATOM     58  C   UNL     1     -14.292  -3.007   3.611  1.00  0.00     0.031 C 
ATOM     59  C   UNL     1     -14.401  -4.937   2.061  1.00  0.00     0.031 A 
BRANCH  46  60
ATOM     60  C   UNL     1     -10.896  -8.838  -1.204  1.00  0.00    -0.014 A 
ATOM     61  C   UNL     1     -10.398 -10.101  -0.846  1.00  0.00     0.009 A 
ATOM     62  C   UNL     1     -11.372  -8.643  -2.510  1.00  0.00     0.009 A 
ATOM     63  C   UNL     1     -10.345 -11.133  -1.787  1.00  0.00     0.001 A 
ATOM     64  C   UNL     1     -11.349  -9.685  -3.438  1.00  0.00     0.001 A 
ATOM     65  C   UNL     1     -10.826 -10.926  -3.079  1.00  0.00     0.000 A 
ENDBRANCH  46  60
BRANCH  47  66
ATOM     66  C   UNL     1     -10.851  -1.159   5.187  1.00  0.00    -0.014 A 
ATOM     67  C   UNL     1     -11.372  -1.292   6.484  1.00  0.00     0.009 A 
ATOM     68  C   UNL     1     -10.376   0.097   4.776  1.00  0.00     0.009 A 
ATOM     69  C   UNL     1     -11.444  -0.187   7.336  1.00  0.00     0.001 A 
ATOM     70  C   UNL     1     -10.418   1.192   5.642  1.00  0.00     0.001 A 
ATOM     71  C   UNL     1     -10.963   1.052   6.917  1.00  0.00     0.000 A 
ENDBRANCH  47  66
BRANCH  59  72
ATOM     72  C   UNL     1     -15.902  -4.878   2.155  1.00  0.00    -0.014 A 
ATOM     73  C   UNL     1     -16.635  -3.824   1.587  1.00  0.00     0.009 A 
ATOM     74  C   UNL     1     -16.597  -5.925   2.784  1.00  0.00     0.009 A 
ATOM     75  C   UNL     1     -18.028  -3.801   1.682  1.00  0.00     0.001 A 
ATOM     76  C   UNL     1     -17.991  -5.917   2.846  1.00  0.00     0.001 A 
ATOM     77  C   UNL     1     -18.705  -4.850   2.305  1.00  0.00     0.000 A 
ENDBRANCH  59  72
ENDBRANCH  33  34
ENDBRANCH  26  28
ENDBRANCH  25  26
ENDBRANCH  24  25
ENDBRANCH  23  24
ENDBRANCH  22  23
ENDBRANCH  21  22
ENDBRANCH  20  21
ENDBRANCH  19  20
ENDBRANCH   1  19
TORSDOF 24
