REMARK SMILES C[C@@H]([NH3+])CCC(=O)N[C@H]1C=C[C@@H](C(=O)OCCOCCOCCOCCOC(=O)c2ccc(-c3c4nc(c(-c5ccccc5)c5ccc([nH]5)c(-c5ccccc5)c5nc(c(-c6ccccc6)c6ccc3[nH]6)C=C5)C=C4)cc2)C1
REMARK SMILES IDX 19 1 18 2 17 3 16 4 15 5 13 6 14 7 12 8 9 9 10 10 78 11
REMARK SMILES IDX 11 12 8 13 6 14 7 15 5 17 4 18 2 19 1 20 3 21 20 25 21 26
REMARK SMILES IDX 22 27 23 28 24 29 25 30 26 31 27 32 28 33 29 34 30 35 31 36
REMARK SMILES IDX 77 37 32 38 76 39 33 40 34 41 35 42 70 43 36 44 75 45 69 46
REMARK SMILES IDX 71 47 37 48 74 49 68 50 67 51 38 53 60 54 45 55 59 56 46 57
REMARK SMILES IDX 49 58 58 59 72 60 47 61 48 62 57 64 73 65 50 66 39 67 40 68
REMARK SMILES IDX 44 69 41 70 43 71 42 72 61 73 62 74 66 75 63 76 65 77 64 78
REMARK SMILES IDX 51 79 52 80 56 81 53 82 55 83 54 84
REMARK H PARENT 8 16 3 22 3 23 3 24 71 52 49 63
REMARK Flexibility Score: inf
ROOT
ATOM      1  C   UNL     1       0.417  -3.369   2.631  1.00  0.00     0.188 C 
ENDROOT
BRANCH   1   2
ATOM      2  O   UNL     1      -0.743  -3.031   3.350  1.00  0.00    -0.376 OA
BRANCH   2   3
ATOM      3  C   UNL     1      -1.318  -1.742   3.225  1.00  0.00     0.202 C 
BRANCH   3   4
ATOM      4  C   UNL     1      -0.560  -0.498   2.725  1.00  0.00     0.261 C 
BRANCH   4   5
ATOM      5  O   UNL     1       0.410  -0.661   1.651  1.00  0.00    -0.463 OA
BRANCH   5   6
ATOM      6  C   UNL     1       1.517   0.124   1.753  1.00  0.00     0.312 C 
ATOM      7  O   UNL     1       1.856   0.658   2.809  1.00  0.00    -0.252 OA
BRANCH   6   8
ATOM      8  C   UNL     1       2.287   0.421   0.444  1.00  0.00     0.124 C 
ATOM      9  C   UNL     1       1.833   0.786  -1.983  1.00  0.00     0.106 C 
ATOM     10  C   UNL     1       1.702   2.046  -1.213  1.00  0.00    -0.006 C 
ATOM     11  C   UNL     1       2.083  -0.320  -0.904  1.00  0.00     0.048 C 
ATOM     12  C   UNL     1       2.020   1.862   0.076  1.00  0.00    -0.014 C 
BRANCH   9  13
ATOM     13  N   UNL     1       0.971   0.672  -3.187  1.00  0.00    -0.350 N 
ATOM     14  C   UNL     1      -0.245   0.614  -3.769  1.00  0.00     0.220 C 
ATOM     15  O   UNL     1      -0.170   0.606  -5.013  1.00  0.00    -0.275 OA
ATOM     16  H   UNL     1       1.605   0.607  -3.938  1.00  0.00     0.164 HD
BRANCH  14  17
ATOM     17  C   UNL     1      -1.661   0.640  -3.200  1.00  0.00     0.106 C 
BRANCH  17  18
ATOM     18  C   UNL     1      -2.063  -0.456  -2.237  1.00  0.00     0.074 C 
BRANCH  18  19
ATOM     19  C   UNL     1      -1.232  -0.341  -0.996  1.00  0.00     0.178 C 
ATOM     20  C   UNL     1      -1.390   0.990  -0.271  1.00  0.00     0.075 C 
BRANCH  19  21
ATOM     21  N   UNL     1      -1.488  -1.464  -0.131  1.00  0.00    -0.355 N 
ATOM     22  H   UNL     1      -2.464  -1.451   0.164  1.00  0.00     0.344 HD
ATOM     23  H   UNL     1      -0.885  -1.406   0.690  1.00  0.00     0.344 HD
ATOM     24  H   UNL     1      -1.296  -2.331  -0.632  1.00  0.00     0.344 HD
ENDBRANCH  19  21
ENDBRANCH  18  19
ENDBRANCH  17  18
ENDBRANCH  14  17
ENDBRANCH   9  13
ENDBRANCH   6   8
ENDBRANCH   5   6
ENDBRANCH   4   5
ENDBRANCH   3   4
ENDBRANCH   2   3
ENDBRANCH   1   2
BRANCH   1  25
ATOM     25  C   UNL     1       0.294  -3.961   1.218  1.00  0.00     0.188 C 
BRANCH  25  26
ATOM     26  O   UNL     1      -0.920  -3.971   0.486  1.00  0.00    -0.377 OA
BRANCH  26  27
ATOM     27  C   UNL     1      -2.132  -4.389   1.101  1.00  0.00     0.188 C 
BRANCH  27  28
ATOM     28  C   UNL     1      -2.176  -5.746   1.806  1.00  0.00     0.188 C 
BRANCH  28  29
ATOM     29  O   UNL     1      -0.913  -6.377   1.917  1.00  0.00    -0.376 OA
BRANCH  29  30
ATOM     30  C   UNL     1      -0.625  -7.365   0.928  1.00  0.00     0.202 C 
BRANCH  30  31
ATOM     31  C   UNL     1      -0.530  -6.908  -0.543  1.00  0.00     0.261 C 
BRANCH  31  32
ATOM     32  O   UNL     1      -1.727  -6.348  -1.113  1.00  0.00    -0.460 OA
BRANCH  32  33
ATOM     33  C   UNL     1      -2.796  -7.155  -1.209  1.00  0.00     0.338 C 
ATOM     34  O   UNL     1      -2.874  -8.332  -0.866  1.00  0.00    -0.246 OA
BRANCH  33  35
ATOM     35  C   UNL     1      -3.941  -6.362  -1.675  1.00  0.00     0.060 A 
ATOM     36  C   UNL     1      -4.989  -6.101  -0.785  1.00  0.00     0.016 A 
ATOM     37  C   UNL     1      -4.012  -5.936  -3.004  1.00  0.00     0.016 A 
ATOM     38  C   UNL     1      -6.136  -5.449  -1.233  1.00  0.00     0.010 A 
ATOM     39  C   UNL     1      -5.172  -5.302  -3.458  1.00  0.00     0.010 A 
ATOM     40  C   UNL     1      -6.254  -5.093  -2.583  1.00  0.00    -0.014 A 
BRANCH  40  41
ATOM     41  C   UNL     1      -7.583  -4.710  -3.114  1.00  0.00     0.031 A 
ATOM     42  C   UNL     1      -8.429  -5.778  -3.753  1.00  0.00     0.074 A 
ATOM     43  C   UNL     1      -8.050  -3.455  -2.996  1.00  0.00     0.049 A 
ATOM     44  N   UNL     1      -9.612  -5.684  -4.303  1.00  0.00    -0.248 NA
ATOM     45  C   UNL     1      -7.864  -7.139  -3.769  1.00  0.00     0.031 C 
ATOM     46  C   UNL     1      -7.356  -2.349  -2.339  1.00  0.00     0.029 A 
ATOM     47  N   UNL     1      -9.230  -2.905  -3.429  1.00  0.00    -0.354 N 
ATOM     48  C   UNL     1      -9.925  -6.964  -4.742  1.00  0.00     0.074 A 
ATOM     49  C   UNL     1      -8.804  -7.815  -4.413  1.00  0.00     0.031 C 
ATOM     50  C   UNL     1      -8.123  -1.247  -2.420  1.00  0.00     0.029 A 
ATOM     51  C   UNL     1      -9.340  -1.562  -3.166  1.00  0.00     0.049 A 
ATOM     52  H   UNL     1      -9.931  -3.424  -3.886  1.00  0.00     0.167 HD
ATOM     53  C   UNL     1     -11.047  -7.394  -5.366  1.00  0.00     0.031 A 
ATOM     54  C   UNL     1     -10.304  -0.686  -3.511  1.00  0.00     0.031 A 
ATOM     55  C   UNL     1     -12.157  -6.545  -5.705  1.00  0.00     0.049 A 
ATOM     56  C   UNL     1     -11.498  -1.173  -4.293  1.00  0.00     0.074 A 
ATOM     57  C   UNL     1     -13.348  -6.889  -6.320  1.00  0.00     0.029 A 
ATOM     58  N   UNL     1     -12.205  -5.180  -5.471  1.00  0.00    -0.354 N 
ATOM     59  N   UNL     1     -11.801  -2.392  -4.673  1.00  0.00    -0.248 NA
ATOM     60  C   UNL     1     -12.487  -0.160  -4.690  1.00  0.00     0.031 C 
ATOM     61  C   UNL     1     -14.085  -5.719  -6.524  1.00  0.00     0.029 A 
ATOM     62  C   UNL     1     -13.388  -4.659  -5.967  1.00  0.00     0.049 A 
ATOM     63  H   UNL     1     -11.502  -4.658  -5.020  1.00  0.00     0.167 HD
ATOM     64  C   UNL     1     -13.030  -2.296  -5.318  1.00  0.00     0.074 A 
ATOM     65  C   UNL     1     -13.422  -0.903  -5.265  1.00  0.00     0.031 C 
ATOM     66  C   UNL     1     -13.768  -3.272  -5.900  1.00  0.00     0.031 A 
BRANCH  53  67
ATOM     67  C   UNL     1     -11.108  -8.840  -5.773  1.00  0.00    -0.014 A 
ATOM     68  C   UNL     1     -11.243  -9.868  -4.828  1.00  0.00     0.009 A 
ATOM     69  C   UNL     1     -11.069  -9.173  -7.137  1.00  0.00     0.009 A 
ATOM     70  C   UNL     1     -11.308 -11.201  -5.239  1.00  0.00     0.001 A 
ATOM     71  C   UNL     1     -11.165 -10.503  -7.547  1.00  0.00     0.001 A 
ATOM     72  C   UNL     1     -11.276 -11.517  -6.597  1.00  0.00     0.000 A 
ENDBRANCH  53  67
BRANCH  54  73
ATOM     73  C   UNL     1     -10.178   0.755  -3.159  1.00  0.00    -0.014 A 
ATOM     74  C   UNL     1     -11.081   1.360  -2.270  1.00  0.00     0.009 A 
ATOM     75  C   UNL     1      -9.182   1.547  -3.753  1.00  0.00     0.009 A 
ATOM     76  C   UNL     1     -11.013   2.732  -2.015  1.00  0.00     0.001 A 
ATOM     77  C   UNL     1      -9.095   2.912  -3.469  1.00  0.00     0.001 A 
ATOM     78  C   UNL     1     -10.019   3.506  -2.612  1.00  0.00     0.000 A 
ENDBRANCH  54  73
BRANCH  66  79
ATOM     79  C   UNL     1     -15.100  -2.882  -6.482  1.00  0.00    -0.014 A 
ATOM     80  C   UNL     1     -15.195  -2.105  -7.646  1.00  0.00     0.009 A 
ATOM     81  C   UNL     1     -16.280  -3.346  -5.877  1.00  0.00     0.009 A 
ATOM     82  C   UNL     1     -16.446  -1.769  -8.171  1.00  0.00     0.001 A 
ATOM     83  C   UNL     1     -17.527  -3.039  -6.424  1.00  0.00     0.001 A 
ATOM     84  C   UNL     1     -17.609  -2.242  -7.563  1.00  0.00     0.000 A 
ENDBRANCH  66  79
ENDBRANCH  40  41
ENDBRANCH  33  35
ENDBRANCH  32  33
ENDBRANCH  31  32
ENDBRANCH  30  31
ENDBRANCH  29  30
ENDBRANCH  28  29
ENDBRANCH  27  28
ENDBRANCH  26  27
ENDBRANCH  25  26
ENDBRANCH   1  25
TORSDOF 25
