REMARK SMILES Cc1cn(C)c(CC(=O)NCC[NH+]2CCC(C)CC2)c1C(=O)OCCOCCOCCOCCOC(=O)c1ccc(-c2c3nc(c(-c4ccccc4)c4ccc([nH]4)c(-c4ccccc4)c4nc(c(-c5ccccc5)c5ccc2[nH]5)C=C4)C=C3)cc1
REMARK SMILES IDX 27 1 26 2 25 3 24 4 23 5 21 6 22 7 20 8 1 9 2 10 3 11 4 12
REMARK SMILES IDX 6 13 5 14 7 15 8 16 9 17 10 18 11 20 12 21 13 22 14 23 19 24
REMARK SMILES IDX 15 26 18 27 16 28 17 29 28 30 29 31 30 32 31 33 32 34 33 35
REMARK SMILES IDX 34 36 35 37 36 38 37 39 38 40 39 41 85 42 40 43 84 44 41 45
REMARK SMILES IDX 42 46 43 47 78 48 44 49 83 50 77 51 79 52 45 53 82 54 76 55
REMARK SMILES IDX 75 56 46 58 68 59 53 60 67 61 54 62 57 63 66 64 80 65 55 66
REMARK SMILES IDX 56 67 65 69 81 70 58 71 47 72 48 73 52 74 49 75 51 76 50 77
REMARK SMILES IDX 69 78 70 79 74 80 71 81 73 82 72 83 59 84 60 85 64 86 61 87
REMARK SMILES IDX 63 88 62 89
REMARK H PARENT 10 19 13 25 79 57 57 68
REMARK Flexibility Score: inf
ROOT
ATOM      1  C   UNL     1      -0.840   0.572  -4.385  1.00  0.00     0.188 C 
ENDROOT
BRANCH   1   2
ATOM      2  O   UNL     1      -2.045   1.318  -4.482  1.00  0.00    -0.376 OA
BRANCH   2   3
ATOM      3  C   UNL     1      -2.396   2.230  -3.458  1.00  0.00     0.202 C 
BRANCH   3   4
ATOM      4  C   UNL     1      -2.561   1.714  -2.020  1.00  0.00     0.261 C 
BRANCH   4   5
ATOM      5  O   UNL     1      -1.581   0.765  -1.574  1.00  0.00    -0.460 OA
BRANCH   5   6
ATOM      6  C   UNL     1      -1.916  -0.551  -1.700  1.00  0.00     0.340 C 
ATOM      7  O   UNL     1      -3.007  -0.948  -2.106  1.00  0.00    -0.246 OA
BRANCH   6   8
ATOM      8  C   UNL     1      -0.803  -1.468  -1.406  1.00  0.00     0.084 A 
ATOM      9  C   UNL     1       0.677  -0.116   0.313  1.00  0.00     0.047 C 
ATOM     10  C   UNL     1       0.297  -1.310  -0.492  1.00  0.00    -0.019 A 
ATOM     11  C   UNL     1       0.942  -2.531  -0.440  1.00  0.00     0.089 A 
ATOM     12  N   UNL     1       0.318  -3.390  -1.300  1.00  0.00    -0.353 N 
ATOM     13  C   UNL     1      -0.580  -2.687  -2.068  1.00  0.00     0.041 A 
ATOM     14  C   UNL     1       0.577  -4.814  -1.356  1.00  0.00     0.149 C 
BRANCH  13  15
ATOM     15  C   UNL     1      -1.203  -3.227  -3.335  1.00  0.00     0.154 C 
BRANCH  15  16
ATOM     16  C   UNL     1      -0.264  -4.083  -4.192  1.00  0.00     0.226 C 
ATOM     17  O   UNL     1      -0.528  -5.270  -4.407  1.00  0.00    -0.275 OA
ATOM     18  N   UNL     1       0.875  -3.583  -4.758  1.00  0.00    -0.350 N 
ATOM     19  H   UNL     1       1.370  -4.219  -5.323  1.00  0.00     0.163 HD
BRANCH  18  20
ATOM     20  C   UNL     1       1.472  -2.263  -4.659  1.00  0.00     0.177 C 
BRANCH  20  21
ATOM     21  C   UNL     1       2.763  -2.241  -3.813  1.00  0.00     0.283 C 
BRANCH  21  22
ATOM     22  N   UNL     1       3.987  -2.670  -4.532  1.00  0.00    -0.333 N 
ATOM     23  C   UNL     1       4.984  -3.228  -3.600  1.00  0.00     0.262 C 
ATOM     24  C   UNL     1       4.629  -1.589  -5.304  1.00  0.00     0.262 C 
ATOM     25  H   UNL     1       3.671  -3.383  -5.189  1.00  0.00     0.348 HD
ATOM     26  C   UNL     1       5.552  -2.193  -2.627  1.00  0.00     0.065 C 
ATOM     27  C   UNL     1       5.227  -0.464  -4.444  1.00  0.00     0.065 C 
ATOM     28  C   UNL     1       6.178  -1.008  -3.368  1.00  0.00    -0.003 C 
ATOM     29  C   UNL     1       6.581   0.079  -2.375  1.00  0.00     0.008 C 
ENDBRANCH  21  22
ENDBRANCH  20  21
ENDBRANCH  18  20
ENDBRANCH  15  16
ENDBRANCH  13  15
ENDBRANCH   6   8
ENDBRANCH   5   6
ENDBRANCH   4   5
ENDBRANCH   3   4
ENDBRANCH   2   3
ENDBRANCH   1   2
BRANCH   1  30
ATOM     30  C   UNL     1       0.426   1.145  -3.706  1.00  0.00     0.188 C 
BRANCH  30  31
ATOM     31  O   UNL     1       0.343   2.501  -3.307  1.00  0.00    -0.377 OA
BRANCH  31  32
ATOM     32  C   UNL     1       0.868   3.447  -4.231  1.00  0.00     0.188 C 
BRANCH  32  33
ATOM     33  C   UNL     1       0.364   3.401  -5.691  1.00  0.00     0.188 C 
BRANCH  33  34
ATOM     34  O   UNL     1       0.317   2.099  -6.263  1.00  0.00    -0.376 OA
BRANCH  34  35
ATOM     35  C   UNL     1       1.212   1.762  -7.311  1.00  0.00     0.202 C 
BRANCH  35  36
ATOM     36  C   UNL     1       2.530   1.214  -6.781  1.00  0.00     0.261 C 
BRANCH  36  37
ATOM     37  O   UNL     1       3.168   2.076  -5.849  1.00  0.00    -0.460 OA
BRANCH  37  38
ATOM     38  C   UNL     1       3.488   3.291  -6.319  1.00  0.00     0.338 C 
ATOM     39  O   UNL     1       3.216   3.756  -7.424  1.00  0.00    -0.246 OA
BRANCH  38  40
ATOM     40  C   UNL     1       4.381   3.944  -5.368  1.00  0.00     0.060 A 
ATOM     41  C   UNL     1       4.984   5.105  -5.837  1.00  0.00     0.016 A 
ATOM     42  C   UNL     1       4.869   3.237  -4.257  1.00  0.00     0.016 A 
ATOM     43  C   UNL     1       6.261   5.359  -5.417  1.00  0.00     0.010 A 
ATOM     44  C   UNL     1       6.144   3.502  -3.830  1.00  0.00     0.010 A 
ATOM     45  C   UNL     1       6.859   4.476  -4.508  1.00  0.00    -0.014 A 
BRANCH  45  46
ATOM     46  C   UNL     1       8.255   4.690  -4.233  1.00  0.00     0.031 A 
ATOM     47  C   UNL     1       8.469   5.890  -3.421  1.00  0.00     0.074 A 
ATOM     48  C   UNL     1       9.244   3.909  -4.692  1.00  0.00     0.049 A 
ATOM     49  N   UNL     1       8.848   7.046  -3.843  1.00  0.00    -0.248 NA
ATOM     50  C   UNL     1       7.996   5.854  -2.031  1.00  0.00     0.031 C 
ATOM     51  C   UNL     1       9.156   2.555  -5.242  1.00  0.00     0.029 A 
ATOM     52  N   UNL     1      10.579   4.162  -4.673  1.00  0.00    -0.354 N 
ATOM     53  C   UNL     1       8.860   7.848  -2.715  1.00  0.00     0.074 A 
ATOM     54  C   UNL     1       8.144   7.133  -1.689  1.00  0.00     0.031 C 
ATOM     55  C   UNL     1      10.401   2.025  -5.296  1.00  0.00     0.029 A 
ATOM     56  C   UNL     1      11.364   3.056  -4.938  1.00  0.00     0.049 A 
ATOM     57  H   UNL     1      10.954   5.053  -4.487  1.00  0.00     0.167 HD
ATOM     58  C   UNL     1       9.728   8.887  -2.621  1.00  0.00     0.031 A 
ATOM     59  C   UNL     1      12.707   2.990  -4.800  1.00  0.00     0.031 A 
ATOM     60  C   UNL     1      10.294   9.232  -3.900  1.00  0.00     0.049 A 
ATOM     61  C   UNL     1      13.247   4.368  -4.853  1.00  0.00     0.074 A 
ATOM     62  C   UNL     1       9.854   9.842  -5.053  1.00  0.00     0.029 A 
ATOM     63  N   UNL     1      11.450   8.560  -4.208  1.00  0.00    -0.354 N 
ATOM     64  N   UNL     1      13.208   5.111  -5.923  1.00  0.00    -0.248 NA
ATOM     65  C   UNL     1      13.537   5.084  -3.616  1.00  0.00     0.031 C 
ATOM     66  C   UNL     1      10.659   9.314  -6.107  1.00  0.00     0.029 A 
ATOM     67  C   UNL     1      11.572   8.410  -5.564  1.00  0.00     0.049 A 
ATOM     68  H   UNL     1      12.101   8.231  -3.547  1.00  0.00     0.167 HD
ATOM     69  C   UNL     1      13.046   6.402  -5.452  1.00  0.00     0.074 A 
ATOM     70  C   UNL     1      13.431   6.344  -4.049  1.00  0.00     0.031 C 
ATOM     71  C   UNL     1      12.329   7.324  -6.159  1.00  0.00     0.031 A 
BRANCH  58  72
ATOM     72  C   UNL     1      10.448   9.206  -1.336  1.00  0.00    -0.014 A 
ATOM     73  C   UNL     1      11.303  10.318  -1.310  1.00  0.00     0.009 A 
ATOM     74  C   UNL     1      10.556   8.294  -0.265  1.00  0.00     0.009 A 
ATOM     75  C   UNL     1      12.253  10.476  -0.295  1.00  0.00     0.001 A 
ATOM     76  C   UNL     1      11.475   8.469   0.769  1.00  0.00     0.001 A 
ATOM     77  C   UNL     1      12.343   9.548   0.740  1.00  0.00     0.000 A 
ENDBRANCH  58  72
BRANCH  59  78
ATOM     78  C   UNL     1      13.500   1.836  -4.337  1.00  0.00    -0.014 A 
ATOM     79  C   UNL     1      14.876   1.754  -4.587  1.00  0.00     0.009 A 
ATOM     80  C   UNL     1      12.942   0.933  -3.412  1.00  0.00     0.009 A 
ATOM     81  C   UNL     1      15.671   0.821  -3.909  1.00  0.00     0.001 A 
ATOM     82  C   UNL     1      13.734   0.002  -2.736  1.00  0.00     0.001 A 
ATOM     83  C   UNL     1      15.103  -0.044  -2.975  1.00  0.00     0.000 A 
ENDBRANCH  59  78
BRANCH  71  84
ATOM     84  C   UNL     1      12.137   7.070  -7.629  1.00  0.00    -0.014 A 
ATOM     85  C   UNL     1      11.415   5.977  -8.137  1.00  0.00     0.009 A 
ATOM     86  C   UNL     1      12.633   8.023  -8.532  1.00  0.00     0.009 A 
ATOM     87  C   UNL     1      11.224   5.830  -9.515  1.00  0.00     0.001 A 
ATOM     88  C   UNL     1      12.422   7.887  -9.905  1.00  0.00     0.001 A 
ATOM     89  C   UNL     1      11.724   6.788 -10.397  1.00  0.00     0.000 A 
ENDBRANCH  71  84
ENDBRANCH  45  46
ENDBRANCH  38  40
ENDBRANCH  37  38
ENDBRANCH  36  37
ENDBRANCH  35  36
ENDBRANCH  34  35
ENDBRANCH  33  34
ENDBRANCH  32  33
ENDBRANCH  31  32
ENDBRANCH  30  31
ENDBRANCH   1  30
TORSDOF 25
