REMARK SMILES O=C(OCCOCCOCCOCCOC(=O)c1c(-c2ccc(Cl)cc2)noc1CO[C@@H]1CCCCO1)c1ccc(-c2c3nc(c(-c4ccccc4)c4ccc([nH]4)c(-c4ccccc4)c4nc(c(-c5ccccc5)c5ccc2[nH]5)C=C4)C=C3)cc1
REMARK SMILES IDX 10 1 9 2 8 3 7 4 6 5 5 6 4 7 3 8 2 9 1 10 38 11 39 12 85 13
REMARK SMILES IDX 40 14 84 15 41 16 42 17 43 18 78 19 44 20 83 21 77 22 79 23
REMARK SMILES IDX 45 24 82 25 76 26 75 27 46 29 68 30 53 31 67 32 54 33 57 34
REMARK SMILES IDX 66 35 80 36 55 37 56 38 65 40 81 41 58 42 47 43 48 44 52 45
REMARK SMILES IDX 49 46 51 47 50 48 69 49 70 50 74 51 71 52 73 53 72 54 59 55
REMARK SMILES IDX 60 56 64 57 61 58 63 59 62 60 11 61 12 62 13 63 14 64 15 65
REMARK SMILES IDX 16 66 17 67 18 68 19 69 29 70 27 71 28 72 20 73 21 74 26 75
REMARK SMILES IDX 22 76 25 77 23 78 24 79 30 80 31 81 32 82 33 83 37 84 34 85
REMARK SMILES IDX 36 86 35 87
REMARK H PARENT 79 28 57 39
REMARK Flexibility Score: inf
ROOT
ATOM      1  C   UNL     1       3.553  -1.049   3.330  1.00  0.00     0.188 C 
ENDROOT
BRANCH   1   2
ATOM      2  O   UNL     1       2.146  -1.217   3.244  1.00  0.00    -0.377 OA
BRANCH   2   3
ATOM      3  C   UNL     1       1.541  -0.921   1.988  1.00  0.00     0.188 C 
BRANCH   3   4
ATOM      4  C   UNL     1       1.972   0.427   1.414  1.00  0.00     0.188 C 
BRANCH   4   5
ATOM      5  O   UNL     1       3.288   0.247   0.888  1.00  0.00    -0.376 OA
BRANCH   5   6
ATOM      6  C   UNL     1       4.033   1.430   0.641  1.00  0.00     0.202 C 
BRANCH   6   7
ATOM      7  C   UNL     1       3.933   1.889  -0.813  1.00  0.00     0.261 C 
BRANCH   7   8
ATOM      8  O   UNL     1       2.599   1.732  -1.319  1.00  0.00    -0.460 OA
BRANCH   8   9
ATOM      9  C   UNL     1       2.100   0.660  -1.982  1.00  0.00     0.338 C 
ATOM     10  O   UNL     1       0.904   0.644  -2.269  1.00  0.00    -0.246 OA
BRANCH   9  11
ATOM     11  C   UNL     1       2.935  -0.485  -2.453  1.00  0.00     0.060 A 
ATOM     12  C   UNL     1       3.967  -1.086  -1.727  1.00  0.00     0.016 A 
ATOM     13  C   UNL     1       2.566  -1.066  -3.677  1.00  0.00     0.016 A 
ATOM     14  C   UNL     1       4.646  -2.200  -2.212  1.00  0.00     0.010 A 
ATOM     15  C   UNL     1       3.221  -2.202  -4.158  1.00  0.00     0.010 A 
ATOM     16  C   UNL     1       4.272  -2.768  -3.426  1.00  0.00    -0.014 A 
BRANCH  16  17
ATOM     17  C   UNL     1       5.045  -3.905  -3.961  1.00  0.00     0.031 A 
ATOM     18  C   UNL     1       5.970  -3.656  -5.111  1.00  0.00     0.074 A 
ATOM     19  C   UNL     1       4.952  -5.118  -3.387  1.00  0.00     0.049 A 
ATOM     20  N   UNL     1       6.619  -4.513  -5.851  1.00  0.00    -0.248 NA
ATOM     21  C   UNL     1       6.195  -2.246  -5.476  1.00  0.00     0.031 C 
ATOM     22  C   UNL     1       4.169  -5.431  -2.189  1.00  0.00     0.029 A 
ATOM     23  N   UNL     1       5.528  -6.312  -3.730  1.00  0.00    -0.354 N 
ATOM     24  C   UNL     1       7.287  -3.751  -6.800  1.00  0.00     0.074 A 
ATOM     25  C   UNL     1       6.984  -2.363  -6.533  1.00  0.00     0.031 C 
ATOM     26  C   UNL     1       4.322  -6.733  -1.894  1.00  0.00     0.029 A 
ATOM     27  C   UNL     1       5.146  -7.357  -2.923  1.00  0.00     0.049 A 
ATOM     28  H   UNL     1       6.156  -6.413  -4.482  1.00  0.00     0.167 HD
ATOM     29  C   UNL     1       8.065  -4.184  -7.817  1.00  0.00     0.031 A 
ATOM     30  C   UNL     1       5.393  -8.675  -3.043  1.00  0.00     0.031 A 
ATOM     31  C   UNL     1       8.354  -5.570  -8.054  1.00  0.00     0.049 A 
ATOM     32  C   UNL     1       6.191  -9.138  -4.232  1.00  0.00     0.074 A 
ATOM     33  C   UNL     1       9.097  -6.140  -9.070  1.00  0.00     0.029 A 
ATOM     34  N   UNL     1       7.905  -6.606  -7.247  1.00  0.00    -0.354 N 
ATOM     35  N   UNL     1       6.774  -8.422  -5.165  1.00  0.00    -0.248 NA
ATOM     36  C   UNL     1       6.336 -10.589  -4.408  1.00  0.00     0.031 C 
ATOM     37  C   UNL     1       9.059  -7.529  -8.903  1.00  0.00     0.029 A 
ATOM     38  C   UNL     1       8.328  -7.818  -7.759  1.00  0.00     0.049 A 
ATOM     39  H   UNL     1       7.366  -6.495  -6.432  1.00  0.00     0.167 HD
ATOM     40  C   UNL     1       7.349  -9.332  -6.040  1.00  0.00     0.074 A 
ATOM     41  C   UNL     1       7.075 -10.652  -5.507  1.00  0.00     0.031 C 
ATOM     42  C   UNL     1       8.027  -9.106  -7.191  1.00  0.00     0.031 A 
BRANCH  29  43
ATOM     43  C   UNL     1       8.568  -3.152  -8.782  1.00  0.00    -0.014 A 
ATOM     44  C   UNL     1       9.623  -2.288  -8.456  1.00  0.00     0.009 A 
ATOM     45  C   UNL     1       7.952  -3.034 -10.038  1.00  0.00     0.009 A 
ATOM     46  C   UNL     1      10.032  -1.304  -9.361  1.00  0.00     0.001 A 
ATOM     47  C   UNL     1       8.376  -2.064 -10.947  1.00  0.00     0.001 A 
ATOM     48  C   UNL     1       9.410  -1.194 -10.605  1.00  0.00     0.000 A 
ENDBRANCH  29  43
BRANCH  30  49
ATOM     49  C   UNL     1       4.799  -9.650  -2.088  1.00  0.00    -0.014 A 
ATOM     50  C   UNL     1       5.610 -10.428  -1.248  1.00  0.00     0.009 A 
ATOM     51  C   UNL     1       3.407  -9.832  -2.034  1.00  0.00     0.009 A 
ATOM     52  C   UNL     1       5.042 -11.380  -0.395  1.00  0.00     0.001 A 
ATOM     53  C   UNL     1       2.839 -10.761  -1.158  1.00  0.00     0.001 A 
ATOM     54  C   UNL     1       3.658 -11.542  -0.347  1.00  0.00     0.000 A 
ENDBRANCH  30  49
BRANCH  42  55
ATOM     55  C   UNL     1       8.511 -10.312  -7.937  1.00  0.00    -0.014 A 
ATOM     56  C   UNL     1       7.623 -11.081  -8.705  1.00  0.00     0.009 A 
ATOM     57  C   UNL     1       9.873 -10.644  -7.921  1.00  0.00     0.009 A 
ATOM     58  C   UNL     1       8.091 -12.175  -9.431  1.00  0.00     0.001 A 
ATOM     59  C   UNL     1      10.341 -11.725  -8.666  1.00  0.00     0.001 A 
ATOM     60  C   UNL     1       9.450 -12.492  -9.415  1.00  0.00     0.000 A 
ENDBRANCH  42  55
ENDBRANCH  16  17
ENDBRANCH   9  11
ENDBRANCH   8   9
ENDBRANCH   7   8
ENDBRANCH   6   7
ENDBRANCH   5   6
ENDBRANCH   4   5
ENDBRANCH   3   4
ENDBRANCH   2   3
ENDBRANCH   1   2
BRANCH   1  61
ATOM     61  C   UNL     1       4.483  -1.973   2.517  1.00  0.00     0.188 C 
BRANCH  61  62
ATOM     62  O   UNL     1       4.024  -3.238   2.067  1.00  0.00    -0.376 OA
BRANCH  62  63
ATOM     63  C   UNL     1       3.255  -4.054   2.938  1.00  0.00     0.202 C 
BRANCH  63  64
ATOM     64  C   UNL     1       3.933  -4.536   4.226  1.00  0.00     0.261 C 
BRANCH  64  65
ATOM     65  O   UNL     1       4.074  -3.469   5.180  1.00  0.00    -0.459 OA
BRANCH  65  66
ATOM     66  C   UNL     1       5.348  -3.056   5.477  1.00  0.00     0.344 C 
ATOM     67  O   UNL     1       6.353  -3.625   5.122  1.00  0.00    -0.246 OA
BRANCH  66  68
ATOM     68  C   UNL     1       5.327  -1.762   6.139  1.00  0.00     0.133 A 
ATOM     69  C   UNL     1       6.148  -0.619   5.904  1.00  0.00     0.128 A 
ATOM     70  C   UNL     1       4.390  -1.320   7.052  1.00  0.00     0.177 A 
ATOM     71  N   UNL     1       5.744   0.415   6.661  1.00  0.00    -0.079 NA
ATOM     72  O   UNL     1       4.660  -0.033   7.386  1.00  0.00    -0.357 OA
BRANCH  69  73
ATOM     73  C   UNL     1       7.156  -0.425   4.867  1.00  0.00     0.005 A 
ATOM     74  C   UNL     1       6.979   0.606   3.929  1.00  0.00     0.012 A 
ATOM     75  C   UNL     1       8.257  -1.279   4.743  1.00  0.00     0.012 A 
ATOM     76  C   UNL     1       7.873   0.762   2.867  1.00  0.00     0.021 A 
ATOM     77  C   UNL     1       9.155  -1.120   3.682  1.00  0.00     0.021 A 
ATOM     78  C   UNL     1       8.955  -0.106   2.746  1.00  0.00     0.041 A 
ATOM     79  Cl  UNL     1      10.046   0.075   1.428  1.00  0.00    -0.084 Cl
ENDBRANCH  69  73
BRANCH  70  80
ATOM     80  C   UNL     1       3.220  -1.945   7.714  1.00  0.00     0.242 C 
BRANCH  80  81
ATOM     81  O   UNL     1       3.597  -2.562   8.948  1.00  0.00    -0.345 OA
BRANCH  81  82
ATOM     82  C   UNL     1       4.578  -3.591   8.830  1.00  0.00     0.250 C 
ATOM     83  C   UNL     1       4.567  -4.473  10.074  1.00  0.00     0.062 C 
ATOM     84  O   UNL     1       5.895  -3.062   8.665  1.00  0.00    -0.353 OA
ATOM     85  C   UNL     1       5.005  -3.684  11.305  1.00  0.00     0.008 C 
ATOM     86  C   UNL     1       6.262  -2.180   9.729  1.00  0.00     0.163 C 
ATOM     87  C   UNL     1       6.309  -2.934  11.047  1.00  0.00     0.029 C 
ENDBRANCH  81  82
ENDBRANCH  80  81
ENDBRANCH  70  80
ENDBRANCH  66  68
ENDBRANCH  65  66
ENDBRANCH  64  65
ENDBRANCH  63  64
ENDBRANCH  62  63
ENDBRANCH  61  62
ENDBRANCH   1  61
TORSDOF 24
