REMARK SMILES Cc1c(Cl)cc2c(c1C)O[C@H](C(F)(F)F)C(C(=O)OCCOCCOCCOCCOC(=O)c1ccc(-c3c4nc(c(-c5ccccc5)c5ccc([nH]5)c(-c5ccccc5)c5nc(c(-c6ccccc6)c6ccc3[nH]6)C=C5)C=C4)cc1)=C2
REMARK SMILES IDX 26 1 25 2 24 3 23 4 22 5 21 6 20 7 19 8 17 9 18 10 16 11
REMARK SMILES IDX 1 12 2 13 3 14 8 15 4 16 5 17 7 18 9 19 6 20 10 21 82 22
REMARK SMILES IDX 11 23 12 24 13 25 14 26 15 27 27 28 28 29 29 30 30 31 31 32
REMARK SMILES IDX 32 33 33 34 34 35 35 36 81 37 36 38 80 39 37 40 38 41 39 42
REMARK SMILES IDX 74 43 40 44 79 45 73 46 75 47 41 48 78 49 72 50 71 51 42 53
REMARK SMILES IDX 64 54 49 55 63 56 50 57 53 58 62 59 76 60 51 61 52 62 61 64
REMARK SMILES IDX 77 65 54 66 43 67 44 68 48 69 45 70 47 71 46 72 65 73 66 74
REMARK SMILES IDX 70 75 67 76 69 77 68 78 55 79 56 80 60 81 57 82 59 83 58 84
REMARK H PARENT 75 52 53 63
REMARK Flexibility Score: inf
ROOT
ATOM      1  C   UNL     1      -0.437   6.611   7.952  1.00  0.00     0.188 C 
ENDROOT
BRANCH   1   2
ATOM      2  O   UNL     1      -0.781   5.872   6.778  1.00  0.00    -0.377 OA
BRANCH   2   3
ATOM      3  C   UNL     1       0.066   5.982   5.644  1.00  0.00     0.188 C 
BRANCH   3   4
ATOM      4  C   UNL     1      -0.122   7.295   4.860  1.00  0.00     0.188 C 
BRANCH   4   5
ATOM      5  O   UNL     1      -0.804   8.289   5.610  1.00  0.00    -0.376 OA
BRANCH   5   6
ATOM      6  C   UNL     1      -2.191   8.498   5.403  1.00  0.00     0.202 C 
BRANCH   6   7
ATOM      7  C   UNL     1      -3.194   7.333   5.474  1.00  0.00     0.261 C 
BRANCH   7   8
ATOM      8  O   UNL     1      -2.791   6.102   4.867  1.00  0.00    -0.460 OA
BRANCH   8   9
ATOM      9  C   UNL     1      -2.788   6.036   3.524  1.00  0.00     0.338 C 
ATOM     10  O   UNL     1      -3.131   6.911   2.749  1.00  0.00    -0.246 OA
BRANCH   9  11
ATOM     11  C   UNL     1      -2.129   4.769   3.138  1.00  0.00     0.087 C 
ATOM     12  C   UNL     1       1.022  -0.081   0.119  1.00  0.00     0.046 C 
ATOM     13  C   UNL     1       0.515   1.177   0.780  1.00  0.00    -0.026 A 
ATOM     14  C   UNL     1       0.945   2.427   0.282  1.00  0.00     0.045 A 
ATOM     15  C   UNL     1      -0.439   1.161   1.829  1.00  0.00    -0.004 A 
ATOM     16  Cl  UNL     1       2.097   2.554  -1.006  1.00  0.00    -0.084 Cl
ATOM     17  C   UNL     1       0.427   3.624   0.779  1.00  0.00     0.032 A 
ATOM     18  C   UNL     1      -0.929   2.387   2.340  1.00  0.00     0.131 A 
ATOM     19  C   UNL     1      -0.969  -0.113   2.445  1.00  0.00     0.049 C 
ATOM     20  C   UNL     1      -0.538   3.605   1.783  1.00  0.00     0.019 A 
ATOM     21  O   UNL     1      -1.811   2.306   3.384  1.00  0.00    -0.475 OA
ATOM     22  C   UNL     1      -1.192   4.838   2.185  1.00  0.00     0.027 C 
ATOM     23  C   UNL     1      -2.470   3.502   3.878  1.00  0.00     0.316 C 
BRANCH  23  24
ATOM     24  C   UNL     1      -3.980   3.226   3.900  1.00  0.00     0.430 C 
ATOM     25  F   UNL     1      -4.255   2.047   4.511  1.00  0.00    -0.167 F 
ATOM     26  F   UNL     1      -4.665   4.178   4.574  1.00  0.00    -0.167 F 
ATOM     27  F   UNL     1      -4.497   3.165   2.652  1.00  0.00    -0.167 F 
ENDBRANCH  23  24
ENDBRANCH   9  11
ENDBRANCH   8   9
ENDBRANCH   7   8
ENDBRANCH   6   7
ENDBRANCH   5   6
ENDBRANCH   4   5
ENDBRANCH   3   4
ENDBRANCH   2   3
ENDBRANCH   1   2
BRANCH   1  28
ATOM     28  C   UNL     1       0.607   7.757   7.944  1.00  0.00     0.188 C 
BRANCH  28  29
ATOM     29  O   UNL     1       1.719   7.532   7.088  1.00  0.00    -0.376 OA
BRANCH  29  30
ATOM     30  C   UNL     1       2.967   7.234   7.691  1.00  0.00     0.202 C 
BRANCH  30  31
ATOM     31  C   UNL     1       3.069   5.845   8.333  1.00  0.00     0.261 C 
BRANCH  31  32
ATOM     32  O   UNL     1       2.110   5.569   9.366  1.00  0.00    -0.460 OA
BRANCH  32  33
ATOM     33  C   UNL     1       2.151   6.337  10.475  1.00  0.00     0.338 C 
ATOM     34  O   UNL     1       2.941   7.230  10.729  1.00  0.00    -0.246 OA
BRANCH  33  35
ATOM     35  C   UNL     1       0.936   6.041  11.259  1.00  0.00     0.060 A 
ATOM     36  C   UNL     1       0.021   7.071  11.518  1.00  0.00     0.016 A 
ATOM     37  C   UNL     1       0.691   4.743  11.716  1.00  0.00     0.016 A 
ATOM     38  C   UNL     1      -1.130   6.809  12.260  1.00  0.00     0.010 A 
ATOM     39  C   UNL     1      -0.449   4.488  12.480  1.00  0.00     0.010 A 
ATOM     40  C   UNL     1      -1.347   5.526  12.781  1.00  0.00    -0.014 A 
BRANCH  40  41
ATOM     41  C   UNL     1      -2.387   5.325  13.818  1.00  0.00     0.031 A 
ATOM     42  C   UNL     1      -1.970   5.410  15.260  1.00  0.00     0.074 A 
ATOM     43  C   UNL     1      -3.674   5.108  13.496  1.00  0.00     0.049 A 
ATOM     44  N   UNL     1      -2.689   5.258  16.342  1.00  0.00    -0.248 NA
ATOM     45  C   UNL     1      -0.551   5.712  15.516  1.00  0.00     0.031 C 
ATOM     46  C   UNL     1      -4.214   5.063  12.139  1.00  0.00     0.029 A 
ATOM     47  N   UNL     1      -4.764   4.889  14.302  1.00  0.00    -0.354 N 
ATOM     48  C   UNL     1      -1.813   5.452  17.402  1.00  0.00     0.074 A 
ATOM     49  C   UNL     1      -0.504   5.694  16.839  1.00  0.00     0.031 C 
ATOM     50  C   UNL     1      -5.538   4.836  12.207  1.00  0.00     0.029 A 
ATOM     51  C   UNL     1      -5.931   4.686  13.608  1.00  0.00     0.049 A 
ATOM     52  H   UNL     1      -4.713   4.880  15.285  1.00  0.00     0.167 HD
ATOM     53  C   UNL     1      -2.077   5.442  18.729  1.00  0.00     0.031 A 
ATOM     54  C   UNL     1      -7.170   4.398  14.054  1.00  0.00     0.031 A 
ATOM     55  C   UNL     1      -3.372   5.180  19.292  1.00  0.00     0.049 A 
ATOM     56  C   UNL     1      -7.415   4.279  15.537  1.00  0.00     0.074 A 
ATOM     57  C   UNL     1      -3.736   5.142  20.626  1.00  0.00     0.029 A 
ATOM     58  N   UNL     1      -4.512   4.905  18.555  1.00  0.00    -0.354 N 
ATOM     59  N   UNL     1      -6.583   4.477  16.531  1.00  0.00    -0.248 NA
ATOM     60  C   UNL     1      -8.772   3.897  15.959  1.00  0.00     0.031 C 
ATOM     61  C   UNL     1      -5.085   4.784  20.698  1.00  0.00     0.029 A 
ATOM     62  C   UNL     1      -5.575   4.665  19.407  1.00  0.00     0.049 A 
ATOM     63  H   UNL     1      -4.558   4.884  17.571  1.00  0.00     0.167 HD
ATOM     64  C   UNL     1      -7.320   4.271  17.692  1.00  0.00     0.074 A 
ATOM     65  C   UNL     1      -8.670   3.947  17.281  1.00  0.00     0.031 C 
ATOM     66  C   UNL     1      -6.914   4.344  18.983  1.00  0.00     0.031 A 
BRANCH  53  67
ATOM     67  C   UNL     1      -0.932   5.703  19.666  1.00  0.00    -0.014 A 
ATOM     68  C   UNL     1      -0.378   6.986  19.793  1.00  0.00     0.009 A 
ATOM     69  C   UNL     1      -0.439   4.664  20.470  1.00  0.00     0.009 A 
ATOM     70  C   UNL     1       0.663   7.219  20.694  1.00  0.00     0.001 A 
ATOM     71  C   UNL     1       0.583   4.907  21.390  1.00  0.00     0.001 A 
ATOM     72  C   UNL     1       1.137   6.181  21.497  1.00  0.00     0.000 A 
ENDBRANCH  53  67
BRANCH  54  73
ATOM     73  C   UNL     1      -8.282   4.195  13.087  1.00  0.00    -0.014 A 
ATOM     74  C   UNL     1      -9.339   5.115  13.010  1.00  0.00     0.009 A 
ATOM     75  C   UNL     1      -8.299   3.074  12.241  1.00  0.00     0.009 A 
ATOM     76  C   UNL     1     -10.395   4.909  12.119  1.00  0.00     0.001 A 
ATOM     77  C   UNL     1      -9.342   2.886  11.331  1.00  0.00     0.001 A 
ATOM     78  C   UNL     1     -10.392   3.800  11.275  1.00  0.00     0.000 A 
ENDBRANCH  54  73
BRANCH  66  79
ATOM     79  C   UNL     1      -7.935   4.093  20.058  1.00  0.00    -0.014 A 
ATOM     80  C   UNL     1      -8.414   2.800  20.317  1.00  0.00     0.009 A 
ATOM     81  C   UNL     1      -8.349   5.150  20.885  1.00  0.00     0.009 A 
ATOM     82  C   UNL     1      -9.302   2.574  21.371  1.00  0.00     0.001 A 
ATOM     83  C   UNL     1      -9.213   4.916  21.957  1.00  0.00     0.001 A 
ATOM     84  C   UNL     1      -9.693   3.630  22.195  1.00  0.00     0.000 A 
ENDBRANCH  66  79
ENDBRANCH  40  41
ENDBRANCH  33  35
ENDBRANCH  32  33
ENDBRANCH  31  32
ENDBRANCH  30  31
ENDBRANCH  29  30
ENDBRANCH  28  29
ENDBRANCH   1  28
TORSDOF 21
