REMARK SMILES O=C1C[C@H](c2cn[nH]c2C(=O)OCCOCCOCCOCCOC(=O)c2ccc(-c3c4nc(c(-c5ccccc5)c5ccc([nH]5)c(-c5ccccc5)c5nc(c(-c6ccccc6)c6ccc3[nH]6)C=C5)C=C4)cc2)c2c(-c3cccs3)n[nH]c2N1
REMARK SMILES IDX 18 1 17 2 16 3 15 4 14 5 13 6 12 7 10 8 11 9 9 10 5 11 6 12
REMARK SMILES IDX 7 13 8 14 4 16 1 17 2 18 3 19 85 20 84 21 75 23 83 24 76 25
REMARK SMILES IDX 82 26 77 28 78 29 81 30 79 31 80 32 19 33 20 34 21 35 22 36
REMARK SMILES IDX 23 37 24 38 25 39 26 40 27 41 28 42 74 43 29 44 73 45 30 46
REMARK SMILES IDX 31 47 32 48 67 49 33 50 72 51 66 52 68 53 34 54 71 55 65 56
REMARK SMILES IDX 64 57 35 59 57 60 42 61 56 62 43 63 46 64 55 65 69 66 44 67
REMARK SMILES IDX 45 68 54 70 70 71 47 72 36 73 37 74 41 75 38 76 40 77 39 78
REMARK SMILES IDX 58 79 59 80 63 81 60 82 62 83 61 84 48 85 49 86 53 87 50 88
REMARK SMILES IDX 52 89 51 90
REMARK H PARENT 8 15 85 22 83 27 68 58 46 69
REMARK Flexibility Score: inf
ROOT
ATOM      1  O   UNL     1       3.078  -1.929  -2.903  1.00  0.00    -0.377 OA
ENDROOT
BRANCH   1   2
ATOM      2  C   UNL     1       4.013  -0.904  -3.195  1.00  0.00     0.188 C 
BRANCH   2   3
ATOM      3  C   UNL     1       5.166  -1.226  -4.177  1.00  0.00     0.188 C 
BRANCH   3   4
ATOM      4  O   UNL     1       5.838  -2.453  -3.994  1.00  0.00    -0.376 OA
BRANCH   4   5
ATOM      5  C   UNL     1       6.883  -2.662  -3.066  1.00  0.00     0.202 C 
BRANCH   5   6
ATOM      6  C   UNL     1       7.372  -1.631  -2.043  1.00  0.00     0.261 C 
BRANCH   6   7
ATOM      7  O   UNL     1       6.510  -0.522  -1.793  1.00  0.00    -0.459 OA
BRANCH   7   8
ATOM      8  C   UNL     1       6.910   0.668  -2.318  1.00  0.00     0.356 C 
ATOM      9  O   UNL     1       7.906   0.816  -3.003  1.00  0.00    -0.244 OA
BRANCH   8  10
ATOM     10  C   UNL     1       5.893   1.685  -2.171  1.00  0.00     0.147 A 
ATOM     11  C   UNL     1       4.900   2.060  -1.258  1.00  0.00     0.013 A 
ATOM     12  C   UNL     1       4.339   3.228  -1.864  1.00  0.00     0.140 A 
ATOM     13  N   UNL     1       4.857   3.517  -3.051  1.00  0.00    -0.183 NA
ATOM     14  N   UNL     1       5.810   2.597  -3.198  1.00  0.00    -0.271 N 
ATOM     15  H   UNL     1       6.408   2.572  -3.979  1.00  0.00     0.190 HD
BRANCH  11  16
ATOM     16  C   UNL     1       4.446   1.591   0.124  1.00  0.00     0.069 C 
ATOM     17  O   UNL     1       1.147  -0.210   0.024  1.00  0.00    -0.275 OA
ATOM     18  C   UNL     1       2.342   0.002   0.243  1.00  0.00     0.226 C 
ATOM     19  C   UNL     1       2.905   1.422   0.228  1.00  0.00     0.114 C 
ATOM     20  N   UNL     1       3.156  -1.031   0.631  1.00  0.00    -0.311 N 
ATOM     21  C   UNL     1       4.479  -0.794   0.865  1.00  0.00     0.132 A 
ATOM     22  H   UNL     1       2.788  -1.938   0.740  1.00  0.00     0.171 HD
ATOM     23  C   UNL     1       5.127   0.398   0.682  1.00  0.00     0.031 A 
ATOM     24  N   UNL     1       5.412  -1.696   1.270  1.00  0.00    -0.262 N 
ATOM     25  C   UNL     1       6.469   0.134   1.058  1.00  0.00     0.108 A 
ATOM     26  N   UNL     1       6.652  -1.168   1.337  1.00  0.00    -0.173 NA
ATOM     27  H   UNL     1       5.206  -2.633   1.491  1.00  0.00     0.192 HD
BRANCH  25  28
ATOM     28  C   UNL     1       7.596   1.114   0.958  1.00  0.00     0.055 A 
ATOM     29  C   UNL     1       8.794   0.839   0.332  1.00  0.00     0.022 A 
ATOM     30  S   UNL     1       7.509   2.735   1.482  1.00  0.00    -0.142 S 
ATOM     31  C   UNL     1       9.574   2.018   0.144  1.00  0.00     0.012 A 
ATOM     32  C   UNL     1       9.018   3.109   0.775  1.00  0.00     0.065 A 
ENDBRANCH  25  28
ENDBRANCH  11  16
ENDBRANCH   8  10
ENDBRANCH   7   8
ENDBRANCH   6   7
ENDBRANCH   5   6
ENDBRANCH   4   5
ENDBRANCH   3   4
ENDBRANCH   2   3
ENDBRANCH   1   2
BRANCH   1  33
ATOM     33  C   UNL     1       3.630  -3.117  -2.382  1.00  0.00     0.188 C 
BRANCH  33  34
ATOM     34  C   UNL     1       3.660  -4.293  -3.378  1.00  0.00     0.188 C 
BRANCH  34  35
ATOM     35  O   UNL     1       3.302  -4.186  -4.755  1.00  0.00    -0.376 OA
BRANCH  35  36
ATOM     36  C   UNL     1       2.511  -3.145  -5.312  1.00  0.00     0.202 C 
BRANCH  36  37
ATOM     37  C   UNL     1       1.054  -2.930  -4.907  1.00  0.00     0.261 C 
BRANCH  37  38
ATOM     38  O   UNL     1       0.823  -3.144  -3.536  1.00  0.00    -0.460 OA
BRANCH  38  39
ATOM     39  C   UNL     1       0.734  -4.447  -3.216  1.00  0.00     0.338 C 
ATOM     40  O   UNL     1       0.733  -5.399  -3.977  1.00  0.00    -0.246 OA
BRANCH  39  41
ATOM     41  C   UNL     1       0.541  -4.551  -1.756  1.00  0.00     0.060 A 
ATOM     42  C   UNL     1       0.201  -5.844  -1.372  1.00  0.00     0.016 A 
ATOM     43  C   UNL     1       0.035  -3.411  -1.114  1.00  0.00     0.016 A 
ATOM     44  C   UNL     1      -1.018  -5.980  -0.771  1.00  0.00     0.010 A 
ATOM     45  C   UNL     1      -1.184  -3.544  -0.515  1.00  0.00     0.010 A 
ATOM     46  C   UNL     1      -1.744  -4.816  -0.493  1.00  0.00    -0.014 A 
BRANCH  46  47
ATOM     47  C   UNL     1      -3.124  -4.976  -0.129  1.00  0.00     0.031 A 
ATOM     48  C   UNL     1      -3.253  -5.428   1.265  1.00  0.00     0.074 A 
ATOM     49  C   UNL     1      -4.130  -4.679  -0.969  1.00  0.00     0.049 A 
ATOM     50  N   UNL     1      -3.588  -6.601   1.681  1.00  0.00    -0.248 NA
ATOM     51  C   UNL     1      -2.704  -4.539   2.303  1.00  0.00     0.031 C 
ATOM     52  C   UNL     1      -4.094  -3.964  -2.248  1.00  0.00     0.029 A 
ATOM     53  N   UNL     1      -5.454  -4.872  -0.771  1.00  0.00    -0.354 N 
ATOM     54  C   UNL     1      -3.477  -6.536   3.062  1.00  0.00     0.074 A 
ATOM     55  C   UNL     1      -2.717  -5.350   3.358  1.00  0.00     0.031 C 
ATOM     56  C   UNL     1      -5.350  -3.559  -2.559  1.00  0.00     0.029 A 
ATOM     57  C   UNL     1      -6.275  -4.102  -1.577  1.00  0.00     0.049 A 
ATOM     58  H   UNL     1      -5.806  -5.509  -0.107  1.00  0.00     0.167 HD
ATOM     59  C   UNL     1      -4.263  -7.295   3.868  1.00  0.00     0.031 A 
ATOM     60  C   UNL     1      -7.594  -3.869  -1.361  1.00  0.00     0.031 A 
ATOM     61  C   UNL     1      -4.880  -8.375   3.144  1.00  0.00     0.049 A 
ATOM     62  C   UNL     1      -8.072  -4.891  -0.390  1.00  0.00     0.074 A 
ATOM     63  C   UNL     1      -4.407  -9.483   2.469  1.00  0.00     0.029 A 
ATOM     64  N   UNL     1      -6.163  -8.169   2.693  1.00  0.00    -0.354 N 
ATOM     65  N   UNL     1      -8.153  -6.161  -0.672  1.00  0.00    -0.248 NA
ATOM     66  C   UNL     1      -7.973  -4.577   1.030  1.00  0.00     0.031 C 
ATOM     67  C   UNL     1      -5.248  -9.604   1.326  1.00  0.00     0.029 A 
ATOM     68  C   UNL     1      -6.228  -8.611   1.396  1.00  0.00     0.049 A 
ATOM     69  H   UNL     1      -6.903  -7.774   3.209  1.00  0.00     0.167 HD
ATOM     70  C   UNL     1      -7.692  -6.813   0.464  1.00  0.00     0.074 A 
ATOM     71  C   UNL     1      -7.673  -5.789   1.509  1.00  0.00     0.031 C 
ATOM     72  C   UNL     1      -7.087  -8.035   0.384  1.00  0.00     0.031 A 
BRANCH  59  73
ATOM     73  C   UNL     1      -4.805  -6.785   5.176  1.00  0.00    -0.014 A 
ATOM     74  C   UNL     1      -5.592  -7.647   5.953  1.00  0.00     0.009 A 
ATOM     75  C   UNL     1      -4.807  -5.423   5.540  1.00  0.00     0.009 A 
ATOM     76  C   UNL     1      -6.393  -7.157   6.990  1.00  0.00     0.001 A 
ATOM     77  C   UNL     1      -5.571  -4.936   6.600  1.00  0.00     0.001 A 
ATOM     78  C   UNL     1      -6.388  -5.801   7.307  1.00  0.00     0.000 A 
ENDBRANCH  59  73
BRANCH  60  79
ATOM     79  C   UNL     1      -8.350  -2.626  -1.637  1.00  0.00    -0.014 A 
ATOM     80  C   UNL     1      -9.752  -2.627  -1.703  1.00  0.00     0.009 A 
ATOM     81  C   UNL     1      -7.701  -1.378  -1.580  1.00  0.00     0.009 A 
ATOM     82  C   UNL     1     -10.475  -1.424  -1.690  1.00  0.00     0.001 A 
ATOM     83  C   UNL     1      -8.421  -0.179  -1.567  1.00  0.00     0.001 A 
ATOM     84  C   UNL     1      -9.810  -0.202  -1.611  1.00  0.00     0.000 A 
ENDBRANCH  60  79
BRANCH  72  85
ATOM     85  C   UNL     1      -7.101  -8.744  -0.950  1.00  0.00    -0.014 A 
ATOM     86  C   UNL     1      -6.444  -8.247  -2.091  1.00  0.00     0.009 A 
ATOM     87  C   UNL     1      -7.632 -10.041  -1.000  1.00  0.00     0.009 A 
ATOM     88  C   UNL     1      -6.336  -9.025  -3.250  1.00  0.00     0.001 A 
ATOM     89  C   UNL     1      -7.507 -10.823  -2.150  1.00  0.00     0.001 A 
ATOM     90  C   UNL     1      -6.862 -10.315  -3.275  1.00  0.00     0.000 A 
ENDBRANCH  72  85
ENDBRANCH  46  47
ENDBRANCH  39  41
ENDBRANCH  38  39
ENDBRANCH  37  38
ENDBRANCH  36  37
ENDBRANCH  35  36
ENDBRANCH  34  35
ENDBRANCH  33  34
ENDBRANCH   1  33
TORSDOF 22
