REMARK SMILES C[C@H](Cc1ccc2c(c1)OCCCO2)C(=O)OCCOCCOCCOCCOC(=O)c1ccc(-c2c3nc(c(-c4ccccc4)c4ccc([nH]4)c(-c4ccccc4)c4nc(c(-c5ccccc5)c5ccc2[nH]5)C=C4)C=C3)cc1
REMARK SMILES IDX 21 1 20 2 19 3 18 4 17 5 15 6 16 7 2 8 1 9 3 10 4 11 5 12
REMARK SMILES IDX 9 13 6 14 8 15 7 16 10 17 11 18 14 20 13 21 12 22 22 24
REMARK SMILES IDX 23 25 24 26 25 27 26 28 27 29 28 30 29 31 30 32 31 33 32 34
REMARK SMILES IDX 33 35 79 36 34 37 78 38 35 39 36 40 37 41 72 42 38 43 77 44
REMARK SMILES IDX 71 45 73 46 39 47 76 48 70 49 69 50 40 52 62 53 47 54 61 55
REMARK SMILES IDX 48 56 51 57 60 58 74 59 49 60 50 61 59 63 75 64 52 65 41 66
REMARK SMILES IDX 42 67 46 68 43 69 45 70 44 71 63 72 64 73 68 74 65 75 67 76
REMARK SMILES IDX 66 77 53 78 54 79 58 80 55 81 57 82 56 83
REMARK H PARENT 73 51 51 62
REMARK Flexibility Score: 80.00
ROOT
ATOM      1  C   UNL     1      -2.067  -0.651   1.912  1.00  0.00     0.188 C 
ENDROOT
BRANCH   1   2
ATOM      2  O   UNL     1      -3.374  -0.101   1.880  1.00  0.00    -0.376 OA
BRANCH   2   3
ATOM      3  C   UNL     1      -3.741   1.026   1.108  1.00  0.00     0.202 C 
BRANCH   3   4
ATOM      4  C   UNL     1      -2.821   2.224   0.847  1.00  0.00     0.261 C 
BRANCH   4   5
ATOM      5  O   UNL     1      -1.465   1.923   0.487  1.00  0.00    -0.463 OA
BRANCH   5   6
ATOM      6  C   UNL     1      -0.516   2.279   1.384  1.00  0.00     0.309 C 
ATOM      7  O   UNL     1      -0.767   2.777   2.477  1.00  0.00    -0.252 OA
BRANCH   6   8
ATOM      8  C   UNL     1       0.921   2.063   0.924  1.00  0.00     0.100 C 
ATOM      9  C   UNL     1       1.596   3.424   0.777  1.00  0.00     0.020 C 
BRANCH   8  10
ATOM     10  C   UNL     1       1.284   1.099  -0.223  1.00  0.00     0.050 C 
BRANCH  10  11
ATOM     11  C   UNL     1       0.900   1.314  -1.669  1.00  0.00    -0.043 A 
ATOM     12  C   UNL     1       0.062   2.332  -2.124  1.00  0.00     0.008 A 
ATOM     13  C   UNL     1       1.445   0.430  -2.626  1.00  0.00     0.054 A 
ATOM     14  C   UNL     1      -0.230   2.455  -3.488  1.00  0.00     0.051 A 
ATOM     15  C   UNL     1       1.159   0.552  -3.991  1.00  0.00     0.161 A 
ATOM     16  C   UNL     1       0.308   1.567  -4.421  1.00  0.00     0.161 A 
BRANCH  15  17
ATOM     17  O   UNL     1       1.882  -0.253  -4.829  1.00  0.00    -0.490 OA
BRANCH  17  18
ATOM     18  C   UNL     1       1.087  -1.031  -5.721  1.00  0.00     0.233 CG0
ATOM     19  G   UNL     1       0.571  -0.225  -6.901  1.00  0.00     0.000 G0
ENDBRANCH  17  18
ENDBRANCH  15  17
BRANCH  16  20
ATOM     20  O   UNL     1       0.050   1.853  -5.733  1.00  0.00    -0.490 OA
BRANCH  20  21
ATOM     21  C   UNL     1      -0.500   0.748  -6.446  1.00  0.00     0.233 C 
BRANCH  21  22
ATOM     22  C   UNL     1       0.571  -0.225  -6.901  1.00  0.00     0.083 CG0
ATOM     23  G   UNL     1       1.087  -1.031  -5.721  1.00  0.00     0.000 G0
ENDBRANCH  21  22
ENDBRANCH  20  21
ENDBRANCH  16  20
ENDBRANCH  10  11
ENDBRANCH   8  10
ENDBRANCH   6   8
ENDBRANCH   5   6
ENDBRANCH   4   5
ENDBRANCH   3   4
ENDBRANCH   2   3
ENDBRANCH   1   2
BRANCH   1  24
ATOM     24  C   UNL     1      -1.323  -0.990   0.611  1.00  0.00     0.188 C 
BRANCH  24  25
ATOM     25  O   UNL     1      -1.793  -2.020  -0.232  1.00  0.00    -0.377 OA
BRANCH  25  26
ATOM     26  C   UNL     1      -3.099  -1.811  -0.737  1.00  0.00     0.188 C 
BRANCH  26  27
ATOM     27  C   UNL     1      -4.126  -2.598   0.080  1.00  0.00     0.188 C 
BRANCH  27  28
ATOM     28  O   UNL     1      -3.516  -3.349   1.126  1.00  0.00    -0.376 OA
BRANCH  28  29
ATOM     29  C   UNL     1      -3.155  -4.694   0.817  1.00  0.00     0.202 C 
BRANCH  29  30
ATOM     30  C   UNL     1      -2.084  -4.944  -0.264  1.00  0.00     0.261 C 
BRANCH  30  31
ATOM     31  O   UNL     1      -2.395  -4.516  -1.605  1.00  0.00    -0.460 OA
BRANCH  31  32
ATOM     32  C   UNL     1      -3.526  -4.960  -2.190  1.00  0.00     0.338 C 
ATOM     33  O   UNL     1      -4.325  -5.766  -1.748  1.00  0.00    -0.246 OA
BRANCH  32  34
ATOM     34  C   UNL     1      -3.751  -4.126  -3.394  1.00  0.00     0.060 A 
ATOM     35  C   UNL     1      -2.746  -3.957  -4.351  1.00  0.00     0.016 A 
ATOM     36  C   UNL     1      -4.972  -3.451  -3.527  1.00  0.00     0.016 A 
ATOM     37  C   UNL     1      -2.976  -3.137  -5.461  1.00  0.00     0.010 A 
ATOM     38  C   UNL     1      -5.193  -2.616  -4.625  1.00  0.00     0.010 A 
ATOM     39  C   UNL     1      -4.207  -2.474  -5.613  1.00  0.00    -0.014 A 
BRANCH  39  40
ATOM     40  C   UNL     1      -4.551  -1.825  -6.901  1.00  0.00     0.031 A 
ATOM     41  C   UNL     1      -4.465  -0.346  -7.112  1.00  0.00     0.074 A 
ATOM     42  C   UNL     1      -4.999  -2.620  -7.891  1.00  0.00     0.049 A 
ATOM     43  N   UNL     1      -4.647   0.327  -8.221  1.00  0.00    -0.248 NA
ATOM     44  C   UNL     1      -4.127   0.485  -5.950  1.00  0.00     0.031 C 
ATOM     45  C   UNL     1      -5.153  -4.073  -7.787  1.00  0.00     0.029 A 
ATOM     46  N   UNL     1      -5.416  -2.328  -9.164  1.00  0.00    -0.354 N 
ATOM     47  C   UNL     1      -4.420   1.658  -7.902  1.00  0.00     0.074 A 
ATOM     48  C   UNL     1      -4.116   1.702  -6.486  1.00  0.00     0.031 C 
ATOM     49  C   UNL     1      -5.629  -4.545  -8.947  1.00  0.00     0.029 A 
ATOM     50  C   UNL     1      -5.835  -3.430  -9.867  1.00  0.00     0.049 A 
ATOM     51  H   UNL     1      -5.414  -1.417  -9.537  1.00  0.00     0.167 HD
ATOM     52  C   UNL     1      -4.452   2.734  -8.724  1.00  0.00     0.031 A 
ATOM     53  C   UNL     1      -6.337  -3.542 -11.111  1.00  0.00     0.031 A 
ATOM     54  C   UNL     1      -4.812   2.682 -10.119  1.00  0.00     0.049 A 
ATOM     55  C   UNL     1      -6.453  -2.320 -11.972  1.00  0.00     0.074 A 
ATOM     56  C   UNL     1      -4.799   3.712 -11.045  1.00  0.00     0.029 A 
ATOM     57  N   UNL     1      -5.291   1.561 -10.779  1.00  0.00    -0.354 N 
ATOM     58  N   UNL     1      -6.102  -1.088 -11.695  1.00  0.00    -0.248 NA
ATOM     59  C   UNL     1      -7.018  -2.499 -13.316  1.00  0.00     0.031 C 
ATOM     60  C   UNL     1      -5.353   3.237 -12.236  1.00  0.00     0.029 A 
ATOM     61  C   UNL     1      -5.636   1.890 -12.080  1.00  0.00     0.049 A 
ATOM     62  H   UNL     1      -5.373   0.663 -10.382  1.00  0.00     0.167 HD
ATOM     63  C   UNL     1      -6.386  -0.347 -12.834  1.00  0.00     0.074 A 
ATOM     64  C   UNL     1      -6.930  -1.269 -13.810  1.00  0.00     0.031 C 
ATOM     65  C   UNL     1      -6.200   0.978 -13.045  1.00  0.00     0.031 A 
BRANCH  52  66
ATOM     66  C   UNL     1      -4.097   4.080  -8.155  1.00  0.00    -0.014 A 
ATOM     67  C   UNL     1      -5.078   5.082  -8.064  1.00  0.00     0.009 A 
ATOM     68  C   UNL     1      -2.767   4.403  -7.843  1.00  0.00     0.009 A 
ATOM     69  C   UNL     1      -4.732   6.383  -7.691  1.00  0.00     0.001 A 
ATOM     70  C   UNL     1      -2.429   5.700  -7.448  1.00  0.00     0.001 A 
ATOM     71  C   UNL     1      -3.408   6.690  -7.382  1.00  0.00     0.000 A 
ENDBRANCH  52  66
BRANCH  53  72
ATOM     72  C   UNL     1      -6.728  -4.887 -11.602  1.00  0.00    -0.014 A 
ATOM     73  C   UNL     1      -7.845  -5.545 -11.059  1.00  0.00     0.009 A 
ATOM     74  C   UNL     1      -5.928  -5.563 -12.533  1.00  0.00     0.009 A 
ATOM     75  C   UNL     1      -8.131  -6.864 -11.412  1.00  0.00     0.001 A 
ATOM     76  C   UNL     1      -6.232  -6.874 -12.904  1.00  0.00     0.001 A 
ATOM     77  C   UNL     1      -7.325  -7.528 -12.334  1.00  0.00     0.000 A 
ENDBRANCH  53  72
BRANCH  65  78
ATOM     78  C   UNL     1      -6.593   1.545 -14.381  1.00  0.00    -0.014 A 
ATOM     79  C   UNL     1      -5.603   2.010 -15.262  1.00  0.00     0.009 A 
ATOM     80  C   UNL     1      -7.942   1.740 -14.713  1.00  0.00     0.009 A 
ATOM     81  C   UNL     1      -5.954   2.684 -16.432  1.00  0.00     0.001 A 
ATOM     82  C   UNL     1      -8.291   2.390 -15.899  1.00  0.00     0.001 A 
ATOM     83  C   UNL     1      -7.297   2.874 -16.750  1.00  0.00     0.000 A 
ENDBRANCH  65  78
ENDBRANCH  39  40
ENDBRANCH  32  34
ENDBRANCH  31  32
ENDBRANCH  30  31
ENDBRANCH  29  30
ENDBRANCH  28  29
ENDBRANCH  27  28
ENDBRANCH  26  27
ENDBRANCH  25  26
ENDBRANCH  24  25
ENDBRANCH   1  24
TORSDOF 22
