REMARK SMILES CC(C)(Cn1ccnc1C(N)=S)C(=O)OCCOCCOCCOCCOC(=O)c1ccc(-c2c3nc(c(-c4ccccc4)c4ccc([nH]4)c(-c4ccccc4)c4nc(c(-c5ccccc5)c5ccc2[nH]5)C=C4)C=C3)cc1
REMARK SMILES IDX 20 1 19 2 18 3 17 4 16 5 15 6 13 7 14 8 2 9 1 10 3 11 4 12
REMARK SMILES IDX 5 13 6 14 9 15 7 16 8 17 10 18 12 19 11 20 21 23 22 24 23 25
REMARK SMILES IDX 24 26 25 27 26 28 27 29 28 30 29 31 30 32 31 33 77 34 32 35
REMARK SMILES IDX 76 36 33 37 34 38 35 39 70 40 36 41 75 42 69 43 71 44 37 45
REMARK SMILES IDX 74 46 68 47 67 48 38 50 60 51 45 52 59 53 46 54 49 55 58 56
REMARK SMILES IDX 72 57 47 58 48 59 57 61 73 62 50 63 39 64 40 65 44 66 41 67
REMARK SMILES IDX 43 68 42 69 61 70 62 71 66 72 63 73 65 74 64 75 51 76 52 77
REMARK SMILES IDX 56 78 53 79 55 80 54 81
REMARK H PARENT 11 21 11 22 71 49 49 60
REMARK Flexibility Score: inf
ROOT
ATOM      1  C   UNL     1      -0.643  -1.587   3.505  1.00  0.00     0.188 C 
ENDROOT
BRANCH   1   2
ATOM      2  C   UNL     1       0.716  -2.141   3.011  1.00  0.00     0.188 C 
BRANCH   2   3
ATOM      3  O   UNL     1       1.871  -2.076   3.838  1.00  0.00    -0.376 OA
BRANCH   3   4
ATOM      4  C   UNL     1       1.959  -1.073   4.832  1.00  0.00     0.202 C 
BRANCH   4   5
ATOM      5  C   UNL     1       1.869   0.404   4.405  1.00  0.00     0.261 C 
BRANCH   5   6
ATOM      6  O   UNL     1       1.039   0.729   3.268  1.00  0.00    -0.463 OA
BRANCH   6   7
ATOM      7  C   UNL     1       1.653   0.646   2.058  1.00  0.00     0.313 C 
ATOM      8  O   UNL     1       2.818   0.288   1.916  1.00  0.00    -0.252 OA
BRANCH   7   9
ATOM      9  C   UNL     1       0.798   1.165   0.888  1.00  0.00     0.080 C 
ATOM     10  C   UNL     1       1.467   0.712  -0.423  1.00  0.00     0.025 C 
ATOM     11  C   UNL     1       0.963   2.703   0.987  1.00  0.00     0.025 C 
BRANCH   9  12
ATOM     12  C   UNL     1      -0.747   0.900   0.898  1.00  0.00     0.142 C 
BRANCH  12  13
ATOM     13  N   UNL     1      -1.410  -0.343   0.514  1.00  0.00    -0.328 N 
ATOM     14  C   UNL     1      -0.838  -1.485   0.021  1.00  0.00     0.108 A 
ATOM     15  C   UNL     1      -2.791  -0.593   0.589  1.00  0.00     0.167 A 
ATOM     16  C   UNL     1      -1.855  -2.378  -0.188  1.00  0.00     0.131 A 
ATOM     17  N   UNL     1      -3.041  -1.839   0.191  1.00  0.00    -0.235 NA
BRANCH  15  18
ATOM     18  C   UNL     1      -3.927   0.213   1.022  1.00  0.00     0.140 C 
ATOM     19  S   UNL     1      -3.928   1.852   1.282  1.00  0.00    -0.057 S 
BRANCH  18  20
ATOM     20  N   UNL     1      -5.097  -0.486   1.183  1.00  0.00    -0.387 N 
ATOM     21  H   UNL     1      -5.114  -1.459   1.033  1.00  0.00     0.157 HD
ATOM     22  H   UNL     1      -5.920  -0.015   1.449  1.00  0.00     0.157 HD
ENDBRANCH  18  20
ENDBRANCH  15  18
ENDBRANCH  12  13
ENDBRANCH   9  12
ENDBRANCH   7   9
ENDBRANCH   6   7
ENDBRANCH   5   6
ENDBRANCH   4   5
ENDBRANCH   3   4
ENDBRANCH   2   3
ENDBRANCH   1   2
BRANCH   1  23
ATOM     23  O   UNL     1      -0.721  -1.329   4.894  1.00  0.00    -0.377 OA
BRANCH  23  24
ATOM     24  C   UNL     1      -1.332  -2.329   5.688  1.00  0.00     0.188 C 
BRANCH  24  25
ATOM     25  C   UNL     1      -0.920  -3.801   5.461  1.00  0.00     0.188 C 
BRANCH  25  26
ATOM     26  O   UNL     1      -0.723  -4.143   4.096  1.00  0.00    -0.376 OA
BRANCH  26  27
ATOM     27  C   UNL     1      -1.543  -5.079   3.419  1.00  0.00     0.202 C 
BRANCH  27  28
ATOM     28  C   UNL     1      -2.874  -4.547   2.888  1.00  0.00     0.261 C 
BRANCH  28  29
ATOM     29  O   UNL     1      -3.474  -3.610   3.759  1.00  0.00    -0.460 OA
BRANCH  29  30
ATOM     30  C   UNL     1      -3.903  -4.143   4.908  1.00  0.00     0.338 C 
ATOM     31  O   UNL     1      -3.780  -5.309   5.277  1.00  0.00    -0.246 OA
BRANCH  30  32
ATOM     32  C   UNL     1      -4.659  -3.126   5.637  1.00  0.00     0.060 A 
ATOM     33  C   UNL     1      -5.208  -3.586   6.827  1.00  0.00     0.016 A 
ATOM     34  C   UNL     1      -5.202  -2.064   4.893  1.00  0.00     0.016 A 
ATOM     35  C   UNL     1      -6.529  -3.314   7.014  1.00  0.00     0.010 A 
ATOM     36  C   UNL     1      -6.526  -1.791   5.082  1.00  0.00     0.010 A 
ATOM     37  C   UNL     1      -7.185  -2.535   6.051  1.00  0.00    -0.014 A 
BRANCH  37  38
ATOM     38  C   UNL     1      -8.617  -2.522   6.122  1.00  0.00     0.031 A 
ATOM     39  C   UNL     1      -9.101  -1.744   7.271  1.00  0.00     0.074 A 
ATOM     40  C   UNL     1      -9.384  -3.152   5.221  1.00  0.00     0.049 A 
ATOM     41  N   UNL     1      -9.690  -2.187   8.326  1.00  0.00    -0.248 NA
ATOM     42  C   UNL     1      -8.682  -0.335   7.336  1.00  0.00     0.031 C 
ATOM     43  C   UNL     1      -9.025  -3.702   3.913  1.00  0.00     0.029 A 
ATOM     44  N   UNL     1     -10.727  -3.307   5.264  1.00  0.00    -0.354 N 
ATOM     45  C   UNL     1      -9.865  -1.076   9.136  1.00  0.00     0.074 A 
ATOM     46  C   UNL     1      -9.073  -0.016   8.566  1.00  0.00     0.031 C 
ATOM     47  C   UNL     1     -10.159  -3.865   3.189  1.00  0.00     0.029 A 
ATOM     48  C   UNL     1     -11.303  -3.553   4.033  1.00  0.00     0.049 A 
ATOM     49  H   UNL     1     -11.247  -3.250   6.098  1.00  0.00     0.167 HD
ATOM     50  C   UNL     1     -10.837  -1.034  10.083  1.00  0.00     0.031 A 
ATOM     51  C   UNL     1     -12.614  -3.368   3.740  1.00  0.00     0.031 A 
ATOM     52  C   UNL     1     -11.327  -2.345  10.412  1.00  0.00     0.049 A 
ATOM     53  C   UNL     1     -13.355  -3.304   5.031  1.00  0.00     0.074 A 
ATOM     54  C   UNL     1     -10.750  -3.479  10.950  1.00  0.00     0.029 A 
ATOM     55  N   UNL     1     -12.491  -2.761   9.808  1.00  0.00    -0.354 N 
ATOM     56  N   UNL     1     -13.498  -4.326   5.829  1.00  0.00    -0.248 NA
ATOM     57  C   UNL     1     -13.518  -2.000   5.665  1.00  0.00     0.031 C 
ATOM     58  C   UNL     1     -11.337  -4.564  10.237  1.00  0.00     0.029 A 
ATOM     59  C   UNL     1     -12.275  -4.036   9.347  1.00  0.00     0.049 A 
ATOM     60  H   UNL     1     -13.324  -2.243   9.723  1.00  0.00     0.167 HD
ATOM     61  C   UNL     1     -13.347  -3.810   7.110  1.00  0.00     0.074 A 
ATOM     62  C   UNL     1     -13.453  -2.360   6.951  1.00  0.00     0.031 C 
ATOM     63  C   UNL     1     -12.858  -4.571   8.135  1.00  0.00     0.031 A 
BRANCH  50  64
ATOM     64  C   UNL     1     -11.592   0.227  10.390  1.00  0.00    -0.014 A 
ATOM     65  C   UNL     1     -12.539   0.212  11.423  1.00  0.00     0.009 A 
ATOM     66  C   UNL     1     -11.601   1.348   9.533  1.00  0.00     0.009 A 
ATOM     67  C   UNL     1     -13.484   1.236  11.551  1.00  0.00     0.001 A 
ATOM     68  C   UNL     1     -12.511   2.392   9.684  1.00  0.00     0.001 A 
ATOM     69  C   UNL     1     -13.473   2.321  10.678  1.00  0.00     0.000 A 
ENDBRANCH  50  64
BRANCH  51  70
ATOM     70  C   UNL     1     -13.182  -2.882   2.464  1.00  0.00    -0.014 A 
ATOM     71  C   UNL     1     -14.559  -2.967   2.215  1.00  0.00     0.009 A 
ATOM     72  C   UNL     1     -12.407  -2.105   1.580  1.00  0.00     0.009 A 
ATOM     73  C   UNL     1     -15.140  -2.277   1.141  1.00  0.00     0.001 A 
ATOM     74  C   UNL     1     -12.984  -1.423   0.505  1.00  0.00     0.001 A 
ATOM     75  C   UNL     1     -14.355  -1.498   0.294  1.00  0.00     0.000 A 
ENDBRANCH  51  70
BRANCH  63  76
ATOM     76  C   UNL     1     -12.644  -6.046   7.887  1.00  0.00    -0.014 A 
ATOM     77  C   UNL     1     -11.771  -6.533   6.896  1.00  0.00     0.009 A 
ATOM     78  C   UNL     1     -13.193  -6.965   8.794  1.00  0.00     0.009 A 
ATOM     79  C   UNL     1     -11.481  -7.898   6.801  1.00  0.00     0.001 A 
ATOM     80  C   UNL     1     -12.886  -8.325   8.712  1.00  0.00     0.001 A 
ATOM     81  C   UNL     1     -12.034  -8.793   7.713  1.00  0.00     0.000 A 
ENDBRANCH  63  76
ENDBRANCH  37  38
ENDBRANCH  30  32
ENDBRANCH  29  30
ENDBRANCH  28  29
ENDBRANCH  27  28
ENDBRANCH  26  27
ENDBRANCH  25  26
ENDBRANCH  24  25
ENDBRANCH  23  24
ENDBRANCH   1  23
TORSDOF 24
