REMARK SMILES CN(C)S(=O)(=O)c1ccc(-n2c(CCC(=O)OCCOCCOCCOCCOC(=O)c3ccc(-c4c5nc(c(-c6ccccc6)c6ccc([nH]6)c(-c6ccccc6)c6nc(c(-c7ccccc7)c7ccc4[nH]7)C=C6)C=C5)cc3)ccc2-c2ccc(F)cc2)cc1
REMARK SMILES IDX 21 1 20 2 19 3 18 4 17 5 15 6 16 7 14 8 13 9 12 10 11 11
REMARK SMILES IDX 82 12 80 13 81 14 10 15 7 16 8 17 91 18 9 19 90 20 4 21 5 22
REMARK SMILES IDX 6 23 2 24 1 25 3 26 83 27 84 28 89 29 85 30 88 31 86 32
REMARK SMILES IDX 87 33 22 34 23 35 24 36 25 37 26 38 27 39 28 40 29 41 30 42
REMARK SMILES IDX 31 43 32 44 33 45 79 46 34 47 78 48 35 49 36 50 37 51 72 52
REMARK SMILES IDX 38 53 77 54 71 55 73 56 39 57 76 58 70 59 69 60 40 62 62 63
REMARK SMILES IDX 47 64 61 65 48 66 51 67 60 68 74 69 49 70 50 71 59 73 75 74
REMARK SMILES IDX 52 75 41 76 42 77 46 78 43 79 45 80 44 81 63 82 64 83 68 84
REMARK SMILES IDX 65 85 67 86 66 87 53 88 54 89 58 90 55 91 57 92 56 93
REMARK H PARENT 73 61 51 72
REMARK Flexibility Score: inf
ROOT
ATOM      1  C   UNL     1      -1.655   2.640  -3.818  1.00  0.00     0.188 C 
ENDROOT
BRANCH   1   2
ATOM      2  O   UNL     1      -0.245   2.354  -4.368  1.00  0.00    -0.376 OA
BRANCH   2   3
ATOM      3  C   UNL     1       1.000   1.112  -5.311  1.00  0.00     0.202 C 
BRANCH   3   4
ATOM      4  C   UNL     1       0.722  -0.115  -6.503  1.00  0.00     0.261 C 
BRANCH   4   5
ATOM      5  O   UNL     1      -0.229   0.131  -7.583  1.00  0.00    -0.463 OA
BRANCH   5   6
ATOM      6  C   UNL     1      -1.300  -0.710  -7.659  1.00  0.00     0.306 C 
ATOM      7  O   UNL     1      -1.273  -1.876  -7.275  1.00  0.00    -0.252 OA
BRANCH   6   8
ATOM      8  C   UNL     1      -2.599  -0.064  -8.156  1.00  0.00     0.129 C 
BRANCH   8   9
ATOM      9  C   UNL     1      -2.965   1.384  -7.791  1.00  0.00     0.066 C 
BRANCH   9  10
ATOM     10  C   UNL     1      -1.996   2.396  -8.283  1.00  0.00     0.024 A 
ATOM     11  N   UNL     1      -0.845   2.802  -7.611  1.00  0.00    -0.314 N 
ATOM     12  C   UNL     1      -0.106   3.598  -8.515  1.00  0.00     0.053 A 
ATOM     13  C   UNL     1      -2.099   3.123  -9.454  1.00  0.00     0.024 A 
ATOM     14  C   UNL     1      -0.925   3.872  -9.597  1.00  0.00     0.029 A 
BRANCH  11  15
ATOM     15  C   UNL     1      -0.438   2.421  -6.283  1.00  0.00     0.046 A 
ATOM     16  C   UNL     1       0.906   1.529  -3.048  1.00  0.00     0.082 A 
ATOM     17  C   UNL     1       1.557   2.930  -3.945  1.00  0.00     0.024 A 
ATOM     18  C   UNL     1      -0.386   0.499  -3.755  1.00  0.00     0.024 A 
ATOM     19  C   UNL     1       0.870   3.405  -5.526  1.00  0.00     0.028 A 
ATOM     20  C   UNL     1      -1.103   0.967  -5.368  1.00  0.00     0.028 A 
BRANCH  16  21
ATOM     21  S   UNL     1       1.406   1.447  -1.361  1.00  0.00     0.242 S 
ATOM     22  O   UNL     1       0.980   2.707  -0.738  1.00  0.00    -0.207 OA
ATOM     23  O   UNL     1       2.771   1.048  -1.370  1.00  0.00    -0.207 OA
BRANCH  21  24
ATOM     24  N   UNL     1       0.471   0.209  -0.642  1.00  0.00    -0.204 NA
ATOM     25  C   UNL     1       1.077  -0.276   0.627  1.00  0.00     0.124 C 
ATOM     26  C   UNL     1      -0.964   0.514  -0.432  1.00  0.00     0.124 C 
ENDBRANCH  21  24
ENDBRANCH  16  21
ENDBRANCH  11  15
BRANCH  12  27
ATOM     27  C   UNL     1       1.311   3.981  -8.419  1.00  0.00    -0.001 A 
ATOM     28  C   UNL     1       1.684   5.336  -8.432  1.00  0.00     0.013 A 
ATOM     29  C   UNL     1       2.313   3.003  -8.316  1.00  0.00     0.013 A 
ATOM     30  C   UNL     1       3.023   5.702  -8.265  1.00  0.00     0.040 A 
ATOM     31  C   UNL     1       3.649   3.370  -8.131  1.00  0.00     0.040 A 
ATOM     32  C   UNL     1       3.990   4.716  -8.100  1.00  0.00     0.123 A 
ATOM     33  F   UNL     1       5.267   5.069  -7.905  1.00  0.00    -0.207 F 
ENDBRANCH  12  27
ENDBRANCH   9  10
ENDBRANCH   8   9
ENDBRANCH   6   8
ENDBRANCH   5   6
ENDBRANCH   4   5
ENDBRANCH   3   4
ENDBRANCH   2   3
ENDBRANCH   1   2
BRANCH   1  34
ATOM     34  C   UNL     1      -2.208   3.948  -4.399  1.00  0.00     0.188 C 
BRANCH  34  35
ATOM     35  O   UNL     1      -1.558   5.166  -4.048  1.00  0.00    -0.377 OA
BRANCH  35  36
ATOM     36  C   UNL     1      -0.677   5.175  -2.939  1.00  0.00     0.188 C 
BRANCH  36  37
ATOM     37  C   UNL     1      -1.140   5.890  -1.667  1.00  0.00     0.188 C 
BRANCH  37  38
ATOM     38  O   UNL     1      -2.464   5.775  -1.171  1.00  0.00    -0.376 OA
BRANCH  38  39
ATOM     39  C   UNL     1      -3.601   5.898  -2.008  1.00  0.00     0.202 C 
BRANCH  39  40
ATOM     40  C   UNL     1      -3.851   7.144  -2.858  1.00  0.00     0.261 C 
BRANCH  40  41
ATOM     41  O   UNL     1      -2.843   7.412  -3.821  1.00  0.00    -0.460 OA
BRANCH  41  42
ATOM     42  C   UNL     1      -1.928   8.290  -3.378  1.00  0.00     0.338 C 
ATOM     43  O   UNL     1      -1.873   8.817  -2.276  1.00  0.00    -0.246 OA
BRANCH  42  44
ATOM     44  C   UNL     1      -1.065   8.728  -4.480  1.00  0.00     0.060 A 
ATOM     45  C   UNL     1       0.154   9.257  -4.039  1.00  0.00     0.016 A 
ATOM     46  C   UNL     1      -1.817   9.329  -5.494  1.00  0.00     0.016 A 
ATOM     47  C   UNL     1       0.427  10.568  -4.354  1.00  0.00     0.010 A 
ATOM     48  C   UNL     1      -1.589  10.661  -5.745  1.00  0.00     0.010 A 
ATOM     49  C   UNL     1      -0.500  11.284  -5.126  1.00  0.00    -0.014 A 
BRANCH  49  50
ATOM     50  C   UNL     1      -0.172  12.675  -5.441  1.00  0.00     0.031 A 
ATOM     51  C   UNL     1       0.750  12.693  -6.654  1.00  0.00     0.074 A 
ATOM     52  C   UNL     1      -0.608  13.635  -4.569  1.00  0.00     0.049 A 
ATOM     53  N   UNL     1       1.776  13.443  -6.879  1.00  0.00    -0.248 NA
ATOM     54  C   UNL     1       0.602  11.646  -7.707  1.00  0.00     0.031 C 
ATOM     55  C   UNL     1      -1.552  13.406  -3.447  1.00  0.00     0.029 A 
ATOM     56  N   UNL     1      -0.349  14.983  -4.427  1.00  0.00    -0.354 N 
ATOM     57  C   UNL     1       2.280  13.090  -8.144  1.00  0.00     0.074 A 
ATOM     58  C   UNL     1       1.616  11.889  -8.535  1.00  0.00     0.031 C 
ATOM     59  C   UNL     1      -1.720  14.533  -2.716  1.00  0.00     0.029 A 
ATOM     60  C   UNL     1      -0.910  15.599  -3.276  1.00  0.00     0.049 A 
ATOM     61  H   UNL     1       0.189  15.485  -5.082  1.00  0.00     0.167 HD
ATOM     62  C   UNL     1       3.082  13.919  -8.867  1.00  0.00     0.031 A 
ATOM     63  C   UNL     1      -0.689  16.858  -2.781  1.00  0.00     0.031 A 
ATOM     64  C   UNL     1       3.402  15.077  -8.101  1.00  0.00     0.049 A 
ATOM     65  C   UNL     1       0.185  17.520  -3.759  1.00  0.00     0.074 A 
ATOM     66  C   UNL     1       4.143  15.256  -6.961  1.00  0.00     0.029 A 
ATOM     67  N   UNL     1       2.546  16.142  -8.258  1.00  0.00    -0.354 N 
ATOM     68  N   UNL     1      -0.195  17.977  -4.912  1.00  0.00    -0.248 NA
ATOM     69  C   UNL     1       1.620  17.626  -3.460  1.00  0.00     0.031 C 
ATOM     70  C   UNL     1       3.359  16.160  -6.211  1.00  0.00     0.029 A 
ATOM     71  C   UNL     1       2.331  16.669  -7.013  1.00  0.00     0.049 A 
ATOM     72  H   UNL     1       2.162  16.464  -9.105  1.00  0.00     0.167 HD
ATOM     73  C   UNL     1       0.994  18.035  -5.595  1.00  0.00     0.074 A 
ATOM     74  C   UNL     1       2.038  18.165  -4.602  1.00  0.00     0.031 C 
ATOM     75  C   UNL     1       1.105  17.394  -6.787  1.00  0.00     0.031 A 
BRANCH  62  76
ATOM     76  C   UNL     1       3.332  13.955 -10.345  1.00  0.00    -0.014 A 
ATOM     77  C   UNL     1       4.281  14.895 -10.809  1.00  0.00     0.009 A 
ATOM     78  C   UNL     1       2.475  13.385 -11.292  1.00  0.00     0.009 A 
ATOM     79  C   UNL     1       4.276  15.348 -12.128  1.00  0.00     0.001 A 
ATOM     80  C   UNL     1       2.500  13.807 -12.627  1.00  0.00     0.001 A 
ATOM     81  C   UNL     1       3.370  14.815 -13.033  1.00  0.00     0.000 A 
ENDBRANCH  62  76
BRANCH  63  82
ATOM     82  C   UNL     1      -1.001  17.684  -1.552  1.00  0.00    -0.014 A 
ATOM     83  C   UNL     1      -1.970  17.409  -0.587  1.00  0.00     0.009 A 
ATOM     84  C   UNL     1      -0.240  18.869  -1.322  1.00  0.00     0.009 A 
ATOM     85  C   UNL     1      -2.106  18.226   0.562  1.00  0.00     0.001 A 
ATOM     86  C   UNL     1      -0.339  19.656  -0.172  1.00  0.00     0.001 A 
ATOM     87  C   UNL     1      -1.275  19.326   0.784  1.00  0.00     0.000 A 
ENDBRANCH  63  82
BRANCH  75  88
ATOM     88  C   UNL     1      -0.206  17.167  -7.524  1.00  0.00    -0.014 A 
ATOM     89  C   UNL     1      -1.000  18.267  -7.886  1.00  0.00     0.009 A 
ATOM     90  C   UNL     1      -0.742  15.888  -7.759  1.00  0.00     0.009 A 
ATOM     91  C   UNL     1      -2.280  18.099  -8.434  1.00  0.00     0.001 A 
ATOM     92  C   UNL     1      -2.025  15.714  -8.303  1.00  0.00     0.001 A 
ATOM     93  C   UNL     1      -2.795  16.823  -8.639  1.00  0.00     0.000 A 
ENDBRANCH  75  88
ENDBRANCH  49  50
ENDBRANCH  42  44
ENDBRANCH  41  42
ENDBRANCH  40  41
ENDBRANCH  39  40
ENDBRANCH  38  39
ENDBRANCH  37  38
ENDBRANCH  36  37
ENDBRANCH  35  36
ENDBRANCH  34  35
ENDBRANCH   1  34
TORSDOF 26
