REMARK SMILES O=C(OCCOCCOCCOCCOC(=O)c1cc(N2CCN(c3ccc(F)cc3)CC2)ccc1NC(=O)C1CCCC1)c1ccc(-c2c3nc(c(-c4ccccc4)c4ccc([nH]4)c(-c4ccccc4)c4nc(c(-c5ccccc5)c5ccc2[nH]5)C=C4)C=C3)cc1
REMARK SMILES IDX 9 1 8 2 7 3 6 4 5 5 4 6 3 7 2 8 1 9 45 10 46 11 92 12 47 13
REMARK SMILES IDX 91 14 48 15 49 16 50 17 85 18 51 19 90 20 84 21 86 22 52 23
REMARK SMILES IDX 89 24 83 25 82 26 53 28 75 29 60 30 74 31 61 32 64 33 73 34
REMARK SMILES IDX 87 35 62 36 63 37 72 39 88 40 65 41 54 42 55 43 59 44 56 45
REMARK SMILES IDX 58 46 57 47 76 48 77 49 81 50 78 51 80 52 79 53 66 54 67 55
REMARK SMILES IDX 71 56 68 57 70 58 69 59 10 60 11 61 12 62 13 63 14 64 15 65
REMARK SMILES IDX 16 66 17 67 18 68 19 69 36 70 20 71 35 72 34 73 37 74 38 75
REMARK SMILES IDX 39 77 40 78 41 79 44 80 42 81 43 82 21 83 22 84 33 85 23 86
REMARK SMILES IDX 32 87 24 88 25 89 26 90 31 91 27 92 30 93 28 94 29 95
REMARK H PARENT 86 27 64 38 37 76
REMARK Flexibility Score: inf
ROOT
ATOM      1  O   UNL     1       2.628  -1.024   3.818  1.00  0.00    -0.377 OA
ENDROOT
BRANCH   1   2
ATOM      2  C   UNL     1       1.820  -0.921   2.642  1.00  0.00     0.188 C 
BRANCH   2   3
ATOM      3  C   UNL     1       2.217   0.210   1.689  1.00  0.00     0.188 C 
BRANCH   3   4
ATOM      4  O   UNL     1       3.486  -0.083   1.103  1.00  0.00    -0.376 OA
BRANCH   4   5
ATOM      5  C   UNL     1       4.341   1.033   0.871  1.00  0.00     0.202 C 
BRANCH   5   6
ATOM      6  C   UNL     1       4.074   1.750  -0.449  1.00  0.00     0.261 C 
BRANCH   6   7
ATOM      7  O   UNL     1       2.708   1.635  -0.868  1.00  0.00    -0.460 OA
BRANCH   7   8
ATOM      8  C   UNL     1       2.176   0.687  -1.678  1.00  0.00     0.338 C 
ATOM      9  O   UNL     1       0.989   0.779  -1.988  1.00  0.00    -0.246 OA
BRANCH   8  10
ATOM     10  C   UNL     1       2.952  -0.454  -2.256  1.00  0.00     0.060 A 
ATOM     11  C   UNL     1       3.997  -1.127  -1.621  1.00  0.00     0.016 A 
ATOM     12  C   UNL     1       2.507  -0.956  -3.490  1.00  0.00     0.016 A 
ATOM     13  C   UNL     1       4.608  -2.236  -2.187  1.00  0.00     0.010 A 
ATOM     14  C   UNL     1       3.095  -2.090  -4.059  1.00  0.00     0.010 A 
ATOM     15  C   UNL     1       4.155  -2.728  -3.405  1.00  0.00    -0.014 A 
BRANCH  15  16
ATOM     16  C   UNL     1       4.883  -3.851  -4.016  1.00  0.00     0.031 A 
ATOM     17  C   UNL     1       5.793  -3.553  -5.164  1.00  0.00     0.074 A 
ATOM     18  C   UNL     1       4.796  -5.080  -3.477  1.00  0.00     0.049 A 
ATOM     19  N   UNL     1       6.446  -4.377  -5.935  1.00  0.00    -0.248 NA
ATOM     20  C   UNL     1       6.006  -2.128  -5.481  1.00  0.00     0.031 C 
ATOM     21  C   UNL     1       4.041  -5.425  -2.268  1.00  0.00     0.029 A 
ATOM     22  N   UNL     1       5.361  -6.266  -3.864  1.00  0.00    -0.354 N 
ATOM     23  C   UNL     1       7.105  -3.576  -6.857  1.00  0.00     0.074 A 
ATOM     24  C   UNL     1       6.794  -2.201  -6.543  1.00  0.00     0.031 C 
ATOM     25  C   UNL     1       4.194  -6.736  -2.014  1.00  0.00     0.029 A 
ATOM     26  C   UNL     1       4.985  -7.332  -3.083  1.00  0.00     0.049 A 
ATOM     27  H   UNL     1       5.977  -6.346  -4.628  1.00  0.00     0.167 HD
ATOM     28  C   UNL     1       7.882  -3.970  -7.891  1.00  0.00     0.031 A 
ATOM     29  C   UNL     1       5.209  -8.648  -3.260  1.00  0.00     0.031 A 
ATOM     30  C   UNL     1       8.167  -5.348  -8.172  1.00  0.00     0.049 A 
ATOM     31  C   UNL     1       5.984  -9.064  -4.482  1.00  0.00     0.074 A 
ATOM     32  C   UNL     1       8.908  -5.885  -9.207  1.00  0.00     0.029 A 
ATOM     33  N   UNL     1       7.711  -6.410  -7.402  1.00  0.00    -0.354 N 
ATOM     34  N   UNL     1       6.571  -8.310  -5.383  1.00  0.00    -0.248 NA
ATOM     35  C   UNL     1       6.104 -10.506  -4.731  1.00  0.00     0.031 C 
ATOM     36  C   UNL     1       8.849  -7.278  -9.096  1.00  0.00     0.029 A 
ATOM     37  C   UNL     1       8.120  -7.605  -7.962  1.00  0.00     0.049 A 
ATOM     38  H   UNL     1       7.177  -6.324  -6.580  1.00  0.00     0.167 HD
ATOM     39  C   UNL     1       7.130  -9.184  -6.304  1.00  0.00     0.074 A 
ATOM     40  C   UNL     1       6.842 -10.524  -5.832  1.00  0.00     0.031 C 
ATOM     41  C   UNL     1       7.807  -8.913  -7.447  1.00  0.00     0.031 A 
BRANCH  28  42
ATOM     42  C   UNL     1       8.376  -2.909  -8.827  1.00  0.00    -0.014 A 
ATOM     43  C   UNL     1       9.412  -2.031  -8.476  1.00  0.00     0.009 A 
ATOM     44  C   UNL     1       7.777  -2.784 -10.091  1.00  0.00     0.009 A 
ATOM     45  C   UNL     1       9.822  -1.034  -9.366  1.00  0.00     0.001 A 
ATOM     46  C   UNL     1       8.202  -1.801 -10.985  1.00  0.00     0.001 A 
ATOM     47  C   UNL     1       9.219  -0.922 -10.619  1.00  0.00     0.000 A 
ENDBRANCH  28  42
BRANCH  29  48
ATOM     48  C   UNL     1       4.605  -9.657  -2.346  1.00  0.00    -0.014 A 
ATOM     49  C   UNL     1       5.405 -10.524  -1.587  1.00  0.00     0.009 A 
ATOM     50  C   UNL     1       3.208  -9.791  -2.265  1.00  0.00     0.009 A 
ATOM     51  C   UNL     1       4.821 -11.519  -0.795  1.00  0.00     0.001 A 
ATOM     52  C   UNL     1       2.626 -10.762  -1.446  1.00  0.00     0.001 A 
ATOM     53  C   UNL     1       3.434 -11.634  -0.722  1.00  0.00     0.000 A 
ENDBRANCH  29  48
BRANCH  41  54
ATOM     54  C   UNL     1       8.284 -10.089  -8.244  1.00  0.00    -0.014 A 
ATOM     55  C   UNL     1       7.387 -10.847  -9.012  1.00  0.00     0.009 A 
ATOM     56  C   UNL     1       9.652 -10.394  -8.280  1.00  0.00     0.009 A 
ATOM     57  C   UNL     1       7.854 -11.907  -9.788  1.00  0.00     0.001 A 
ATOM     58  C   UNL     1      10.118 -11.435  -9.080  1.00  0.00     0.001 A 
ATOM     59  C   UNL     1       9.219 -12.194  -9.828  1.00  0.00     0.000 A 
ENDBRANCH  41  54
ENDBRANCH  15  16
ENDBRANCH   8  10
ENDBRANCH   7   8
ENDBRANCH   6   7
ENDBRANCH   5   6
ENDBRANCH   4   5
ENDBRANCH   3   4
ENDBRANCH   2   3
ENDBRANCH   1   2
BRANCH   1  60
ATOM     60  C   UNL     1       4.037  -0.993   3.617  1.00  0.00     0.188 C 
BRANCH  60  61
ATOM     61  C   UNL     1       4.692  -2.131   2.807  1.00  0.00     0.188 C 
BRANCH  61  62
ATOM     62  O   UNL     1       3.769  -3.031   2.207  1.00  0.00    -0.376 OA
BRANCH  62  63
ATOM     63  C   UNL     1       3.752  -4.345   2.757  1.00  0.00     0.202 C 
BRANCH  63  64
ATOM     64  C   UNL     1       3.130  -4.474   4.155  1.00  0.00     0.261 C 
BRANCH  64  65
ATOM     65  O   UNL     1       3.667  -3.579   5.144  1.00  0.00    -0.460 OA
BRANCH  65  66
ATOM     66  C   UNL     1       4.899  -3.802   5.657  1.00  0.00     0.340 C 
ATOM     67  O   UNL     1       5.622  -4.754   5.416  1.00  0.00    -0.246 OA
BRANCH  66  68
ATOM     68  C   UNL     1       5.313  -2.554   6.364  1.00  0.00     0.085 A 
ATOM     69  C   UNL     1       6.611  -2.075   6.101  1.00  0.00     0.043 A 
ATOM     70  C   UNL     1       4.420  -1.779   7.129  1.00  0.00     0.055 A 
ATOM     71  C   UNL     1       7.005  -0.783   6.484  1.00  0.00     0.038 A 
ATOM     72  C   UNL     1       4.817  -0.496   7.509  1.00  0.00     0.029 A 
ATOM     73  C   UNL     1       6.085  -0.001   7.181  1.00  0.00     0.028 A 
BRANCH  70  74
ATOM     74  N   UNL     1       3.119  -2.244   7.381  1.00  0.00    -0.325 N 
ATOM     75  C   UNL     1       2.279  -2.155   8.445  1.00  0.00     0.227 C 
ATOM     76  H   UNL     1       2.733  -2.742   6.624  1.00  0.00     0.169 HD
ATOM     77  O   UNL     1       1.114  -2.537   8.272  1.00  0.00    -0.274 OA
BRANCH  75  78
ATOM     78  C   UNL     1       2.694  -1.678   9.833  1.00  0.00     0.079 C 
ATOM     79  C   UNL     1       4.089  -2.046  10.326  1.00  0.00     0.013 C 
ATOM     80  C   UNL     1       2.488  -0.185  10.044  1.00  0.00     0.013 C 
ATOM     81  C   UNL     1       4.633  -0.831  11.059  1.00  0.00     0.001 C 
ATOM     82  C   UNL     1       3.724   0.349  10.752  1.00  0.00     0.001 C 
ENDBRANCH  75  78
ENDBRANCH  70  74
BRANCH  71  83
ATOM     83  N   UNL     1       8.265  -0.327   6.152  1.00  0.00    -0.368 N 
ATOM     84  C   UNL     1       8.489   0.978   5.491  1.00  0.00     0.138 C 
ATOM     85  C   UNL     1       9.386  -0.823   6.970  1.00  0.00     0.138 C 
ATOM     86  C   UNL     1       9.072   2.062   6.438  1.00  0.00     0.138 C 
ATOM     87  C   UNL     1       9.864   0.263   7.958  1.00  0.00     0.138 C 
ATOM     88  N   UNL     1      10.171   1.521   7.258  1.00  0.00    -0.368 N 
BRANCH  88  89
ATOM     89  C   UNL     1      11.472   1.933   7.050  1.00  0.00     0.037 A 
ATOM     90  C   UNL     1      11.816   3.289   7.173  1.00  0.00     0.029 A 
ATOM     91  C   UNL     1      12.503   1.029   6.750  1.00  0.00     0.029 A 
ATOM     92  C   UNL     1      13.139   3.722   7.031  1.00  0.00     0.041 A 
ATOM     93  C   UNL     1      13.825   1.455   6.588  1.00  0.00     0.041 A 
ATOM     94  C   UNL     1      14.132   2.798   6.739  1.00  0.00     0.123 A 
ATOM     95  F   UNL     1      15.401   3.206   6.607  1.00  0.00    -0.207 F 
ENDBRANCH  88  89
ENDBRANCH  71  83
ENDBRANCH  66  68
ENDBRANCH  65  66
ENDBRANCH  64  65
ENDBRANCH  63  64
ENDBRANCH  62  63
ENDBRANCH  61  62
ENDBRANCH  60  61
ENDBRANCH   1  60
TORSDOF 24
