REMARK SMILES Cc1cc(C)c(C(=O)N[C@H](C(=O)OCCOCCOCCOCCOC(=O)c2ccc(-c3c4nc(c(-c5ccccc5)c5ccc([nH]5)c(-c5ccccc5)c5nc(c(-c6ccccc6)c6ccc3[nH]6)C=C5)C=C4)cc2)C(C)C)c(=O)[nH]1
REMARK SMILES IDX 19 1 18 2 17 3 16 4 15 5 14 6 13 7 11 8 12 9 10 10 9 11 7 12
REMARK SMILES IDX 8 13 6 15 1 16 2 17 3 18 81 19 4 20 79 21 5 23 80 24 76 25
REMARK SMILES IDX 77 26 78 27 20 28 21 29 22 30 23 31 24 32 25 33 26 34 27 35
REMARK SMILES IDX 28 36 29 37 75 38 30 39 74 40 31 41 32 42 33 43 68 44 34 45
REMARK SMILES IDX 73 46 67 47 69 48 35 49 72 50 66 51 65 52 36 54 58 55 43 56
REMARK SMILES IDX 57 57 44 58 47 59 56 60 70 61 45 62 46 63 55 65 71 66 48 67
REMARK SMILES IDX 37 68 38 69 42 70 39 71 41 72 40 73 59 74 60 75 64 76 61 77
REMARK SMILES IDX 63 78 62 79 49 80 50 81 54 82 51 83 53 84 52 85
REMARK H PARENT 9 14 81 22 69 53 47 64
REMARK Flexibility Score: inf
ROOT
ATOM      1  O   UNL     1       1.049  -5.448  -5.564  1.00  0.00    -0.377 OA
ENDROOT
BRANCH   1   2
ATOM      2  C   UNL     1       1.078  -4.369  -4.659  1.00  0.00     0.188 C 
BRANCH   2   3
ATOM      3  C   UNL     1       1.149  -4.718  -3.169  1.00  0.00     0.188 C 
BRANCH   3   4
ATOM      4  O   UNL     1       1.242  -6.072  -2.757  1.00  0.00    -0.376 OA
BRANCH   4   5
ATOM      5  C   UNL     1       0.558  -7.088  -3.477  1.00  0.00     0.202 C 
BRANCH   5   6
ATOM      6  C   UNL     1      -0.940  -6.946  -3.825  1.00  0.00     0.261 C 
BRANCH   6   7
ATOM      7  O   UNL     1      -1.354  -5.725  -4.490  1.00  0.00    -0.462 OA
BRANCH   7   8
ATOM      8  C   UNL     1      -2.086  -4.870  -3.735  1.00  0.00     0.328 C 
ATOM      9  O   UNL     1      -2.471  -5.157  -2.603  1.00  0.00    -0.250 OA
BRANCH   8  10
ATOM     10  C   UNL     1      -2.418  -3.480  -4.380  1.00  0.00     0.195 C 
BRANCH  10  11
ATOM     11  N   UNL     1      -1.718  -2.932  -5.578  1.00  0.00    -0.338 N 
ATOM     12  C   UNL     1      -0.939  -1.821  -5.828  1.00  0.00     0.257 C 
ATOM     13  O   UNL     1      -0.908  -1.490  -7.019  1.00  0.00    -0.269 OA
ATOM     14  H   UNL     1      -1.839  -3.495  -6.377  1.00  0.00     0.164 HD
BRANCH  12  15
ATOM     15  C   UNL     1      -0.035  -1.115  -4.828  1.00  0.00     0.107 A 
ATOM     16  C   UNL     1       3.003  -0.004  -1.899  1.00  0.00     0.064 C 
ATOM     17  C   UNL     1       1.969  -0.328  -2.933  1.00  0.00     0.015 A 
ATOM     18  C   UNL     1       2.093  -0.015  -4.228  1.00  0.00     0.025 A 
ATOM     19  N   UNL     1       0.791  -0.884  -2.520  1.00  0.00    -0.326 N 
ATOM     20  C   UNL     1       1.089  -0.437  -5.217  1.00  0.00    -0.031 A 
ATOM     21  C   UNL     1      -0.287  -1.076  -3.348  1.00  0.00     0.261 A 
ATOM     22  H   UNL     1       0.712  -1.161  -1.579  1.00  0.00     0.169 HD
ATOM     23  C   UNL     1       1.553  -0.075  -6.610  1.00  0.00     0.045 C 
ATOM     24  O   UNL     1      -1.404  -1.128  -2.846  1.00  0.00    -0.269 OA
ENDBRANCH  12  15
ENDBRANCH  10  11
BRANCH  10  25
ATOM     25  C   UNL     1      -3.957  -3.372  -4.614  1.00  0.00     0.017 C 
ATOM     26  C   UNL     1      -4.744  -3.552  -3.309  1.00  0.00     0.010 C 
ATOM     27  C   UNL     1      -4.353  -2.020  -5.228  1.00  0.00     0.010 C 
ENDBRANCH  10  25
ENDBRANCH   8  10
ENDBRANCH   7   8
ENDBRANCH   6   7
ENDBRANCH   5   6
ENDBRANCH   4   5
ENDBRANCH   3   4
ENDBRANCH   2   3
ENDBRANCH   1   2
BRANCH   1  28
ATOM     28  C   UNL     1       2.268  -5.839  -6.163  1.00  0.00     0.188 C 
BRANCH  28  29
ATOM     29  C   UNL     1       3.560  -5.610  -5.366  1.00  0.00     0.188 C 
BRANCH  29  30
ATOM     30  O   UNL     1       3.724  -4.291  -4.861  1.00  0.00    -0.376 OA
BRANCH  30  31
ATOM     31  C   UNL     1       4.369  -3.316  -5.672  1.00  0.00     0.202 C 
BRANCH  31  32
ATOM     32  C   UNL     1       3.684  -2.895  -6.983  1.00  0.00     0.261 C 
BRANCH  32  33
ATOM     33  O   UNL     1       3.588  -3.877  -8.019  1.00  0.00    -0.460 OA
BRANCH  33  34
ATOM     34  C   UNL     1       4.688  -4.576  -8.364  1.00  0.00     0.338 C 
ATOM     35  O   UNL     1       5.827  -4.406  -8.001  1.00  0.00    -0.246 OA
BRANCH  34  36
ATOM     36  C   UNL     1       4.188  -5.763  -9.085  1.00  0.00     0.060 A 
ATOM     37  C   UNL     1       4.456  -7.026  -8.544  1.00  0.00     0.016 A 
ATOM     38  C   UNL     1       3.404  -5.623 -10.234  1.00  0.00     0.016 A 
ATOM     39  C   UNL     1       3.957  -8.162  -9.167  1.00  0.00     0.010 A 
ATOM     40  C   UNL     1       2.938  -6.765 -10.883  1.00  0.00     0.010 A 
ATOM     41  C   UNL     1       3.249  -8.034 -10.368  1.00  0.00    -0.014 A 
BRANCH  41  42
ATOM     42  C   UNL     1       3.097  -9.233 -11.214  1.00  0.00     0.031 A 
ATOM     43  C   UNL     1       4.185  -9.509 -12.212  1.00  0.00     0.074 A 
ATOM     44  C   UNL     1       2.074 -10.084 -11.045  1.00  0.00     0.049 A 
ATOM     45  N   UNL     1       4.317 -10.510 -13.039  1.00  0.00    -0.248 NA
ATOM     46  C   UNL     1       5.280  -8.523 -12.276  1.00  0.00     0.031 C 
ATOM     47  C   UNL     1       1.009  -9.942 -10.055  1.00  0.00     0.029 A 
ATOM     48  N   UNL     1       1.779 -11.251 -11.700  1.00  0.00    -0.354 N 
ATOM     49  C   UNL     1       5.507 -10.276 -13.715  1.00  0.00     0.074 A 
ATOM     50  C   UNL     1       6.042  -9.025 -13.233  1.00  0.00     0.031 C 
ATOM     51  C   UNL     1       0.176 -10.992 -10.163  1.00  0.00     0.029 A 
ATOM     52  C   UNL     1       0.634 -11.857 -11.249  1.00  0.00     0.049 A 
ATOM     53  H   UNL     1       2.335 -11.618 -12.424  1.00  0.00     0.167 HD
ATOM     54  C   UNL     1       6.108 -11.046 -14.650  1.00  0.00     0.031 A 
ATOM     55  C   UNL     1       0.025 -12.980 -11.677  1.00  0.00     0.031 A 
ATOM     56  C   UNL     1       5.550 -12.273 -15.144  1.00  0.00     0.049 A 
ATOM     57  C   UNL     1       0.653 -13.764 -12.799  1.00  0.00     0.074 A 
ATOM     58  C   UNL     1       6.062 -13.128 -16.101  1.00  0.00     0.029 A 
ATOM     59  N   UNL     1       4.342 -12.811 -14.723  1.00  0.00    -0.354 N 
ATOM     60  N   UNL     1       1.784 -13.544 -13.428  1.00  0.00    -0.248 NA
ATOM     61  C   UNL     1      -0.074 -14.951 -13.267  1.00  0.00     0.031 C 
ATOM     62  C   UNL     1       5.130 -14.149 -16.308  1.00  0.00     0.029 A 
ATOM     63  C   UNL     1       4.073 -13.970 -15.428  1.00  0.00     0.049 A 
ATOM     64  H   UNL     1       3.763 -12.425 -14.026  1.00  0.00     0.167 HD
ATOM     65  C   UNL     1       1.914 -14.574 -14.352  1.00  0.00     0.074 A 
ATOM     66  C   UNL     1       0.754 -15.428 -14.188  1.00  0.00     0.031 C 
ATOM     67  C   UNL     1       2.904 -14.795 -15.253  1.00  0.00     0.031 A 
BRANCH  54  68
ATOM     68  C   UNL     1       7.405 -10.550 -15.223  1.00  0.00    -0.014 A 
ATOM     69  C   UNL     1       8.579 -10.517 -14.453  1.00  0.00     0.009 A 
ATOM     70  C   UNL     1       7.455 -10.118 -16.557  1.00  0.00     0.009 A 
ATOM     71  C   UNL     1       9.770 -10.032 -15.000  1.00  0.00     0.001 A 
ATOM     72  C   UNL     1       8.654  -9.664 -17.110  1.00  0.00     0.001 A 
ATOM     73  C   UNL     1       9.807  -9.613 -16.329  1.00  0.00     0.000 A 
ENDBRANCH  54  68
BRANCH  55  74
ATOM     74  C   UNL     1      -1.242 -13.417 -11.037  1.00  0.00    -0.014 A 
ATOM     75  C   UNL     1      -1.279 -14.564 -10.230  1.00  0.00     0.009 A 
ATOM     76  C   UNL     1      -2.417 -12.664 -11.195  1.00  0.00     0.009 A 
ATOM     77  C   UNL     1      -2.465 -14.947  -9.597  1.00  0.00     0.001 A 
ATOM     78  C   UNL     1      -3.594 -13.033 -10.539  1.00  0.00     0.001 A 
ATOM     79  C   UNL     1      -3.618 -14.175  -9.743  1.00  0.00     0.000 A 
ENDBRANCH  55  74
BRANCH  67  80
ATOM     80  C   UNL     1       2.788 -16.010 -16.131  1.00  0.00    -0.014 A 
ATOM     81  C   UNL     1       1.851 -16.065 -17.173  1.00  0.00     0.009 A 
ATOM     82  C   UNL     1       3.694 -17.071 -15.971  1.00  0.00     0.009 A 
ATOM     83  C   UNL     1       1.810 -17.170 -18.026  1.00  0.00     0.001 A 
ATOM     84  C   UNL     1       3.673 -18.158 -16.846  1.00  0.00     0.001 A 
ATOM     85  C   UNL     1       2.727 -18.209 -17.868  1.00  0.00     0.000 A 
ENDBRANCH  67  80
ENDBRANCH  41  42
ENDBRANCH  34  36
ENDBRANCH  33  34
ENDBRANCH  32  33
ENDBRANCH  31  32
ENDBRANCH  30  31
ENDBRANCH  29  30
ENDBRANCH  28  29
ENDBRANCH   1  28
TORSDOF 23
