REMARK SMILES Cc1cccc(OCC(=O)Nc2cc(C(=O)OCCOCCOCCOCCOC(=O)c3ccc(-c4c5nc(c(-c6ccccc6)c6ccc([nH]6)c(-c6ccccc6)c6nc(c(-c7ccccc7)c7ccc4[nH]7)C=C6)C=C5)cc3)c(Cl)cc2Cl)c1
REMARK SMILES IDX 22 1 21 2 20 3 19 4 18 5 17 6 15 7 16 8 14 9 12 10 13 11
REMARK SMILES IDX 83 12 82 13 84 14 80 15 81 16 11 17 9 18 10 19 8 21 7 22
REMARK SMILES IDX 6 23 1 24 2 25 3 26 85 27 4 28 5 29 23 30 24 31 25 32 26 33
REMARK SMILES IDX 27 34 28 35 29 36 30 37 31 38 32 39 33 40 79 41 34 42 78 43
REMARK SMILES IDX 35 44 36 45 37 46 72 47 38 48 77 49 71 50 73 51 39 52 76 53
REMARK SMILES IDX 70 54 69 55 40 57 62 58 47 59 61 60 48 61 51 62 60 63 74 64
REMARK SMILES IDX 49 65 50 66 59 68 75 69 52 70 41 71 42 72 46 73 43 74 45 75
REMARK SMILES IDX 44 76 63 77 64 78 68 79 65 80 67 81 66 82 53 83 54 84 58 85
REMARK SMILES IDX 55 86 57 87 56 88
REMARK H PARENT 11 20 73 56 51 67
REMARK Flexibility Score: inf
ROOT
ATOM      1  C   UNL     1      -3.587  -0.628   3.580  1.00  0.00     0.188 C 
ENDROOT
BRANCH   1   2
ATOM      2  C   UNL     1      -4.753  -1.067   2.649  1.00  0.00     0.188 C 
BRANCH   2   3
ATOM      3  O   UNL     1      -4.604  -1.547   1.135  1.00  0.00    -0.376 OA
BRANCH   3   4
ATOM      4  C   UNL     1      -5.262  -0.973  -0.335  1.00  0.00     0.202 C 
BRANCH   4   5
ATOM      5  C   UNL     1      -6.295   0.460  -0.931  1.00  0.00     0.261 C 
BRANCH   5   6
ATOM      6  O   UNL     1      -6.837   2.014  -0.077  1.00  0.00    -0.460 OA
BRANCH   6   7
ATOM      7  C   UNL     1      -6.946   2.769   1.344  1.00  0.00     0.339 C 
ATOM      8  O   UNL     1      -8.067   2.757   1.863  1.00  0.00    -0.246 OA
BRANCH   7   9
ATOM      9  C   UNL     1      -5.758   3.668   2.270  1.00  0.00     0.080 A 
ATOM     10  C   UNL     1      -3.315   4.424   2.847  1.00  0.00     0.061 A 
ATOM     11  C   UNL     1      -4.285   3.553   2.315  1.00  0.00     0.045 A 
ATOM     12  C   UNL     1      -3.850   5.307   3.770  1.00  0.00     0.066 A 
ATOM     13  C   UNL     1      -5.242   5.365   3.982  1.00  0.00     0.044 A 
ATOM     14  Cl  UNL     1      -2.818   6.270   4.771  1.00  0.00    -0.082 Cl
ATOM     15  C   UNL     1      -6.182   4.604   3.221  1.00  0.00     0.057 A 
ATOM     16  Cl  UNL     1      -7.828   4.878   3.673  1.00  0.00    -0.083 Cl
BRANCH  10  17
ATOM     17  N   UNL     1      -1.885   4.272   2.746  1.00  0.00    -0.322 N 
ATOM     18  C   UNL     1      -0.898   3.737   1.935  1.00  0.00     0.262 C 
ATOM     19  O   UNL     1       0.103   3.329   2.549  1.00  0.00    -0.271 OA
ATOM     20  H   UNL     1      -1.462   4.696   3.528  1.00  0.00     0.170 HD
BRANCH  18  21
ATOM     21  C   UNL     1      -0.746   3.962   0.383  1.00  0.00     0.329 C 
BRANCH  21  22
ATOM     22  O   UNL     1      -0.536   2.997  -0.645  1.00  0.00    -0.484 OA
BRANCH  22  23
ATOM     23  C   UNL     1       0.481   2.087  -0.729  1.00  0.00     0.120 A 
ATOM     24  C   UNL     1       3.466   0.430   0.970  1.00  0.00     0.044 C 
ATOM     25  C   UNL     1       2.344   0.709   0.014  1.00  0.00    -0.047 A 
ATOM     26  C   UNL     1       2.103  -0.219  -1.007  1.00  0.00     0.003 A 
ATOM     27  C   UNL     1       1.511   1.849   0.166  1.00  0.00     0.049 A 
ATOM     28  C   UNL     1       1.156   0.070  -1.970  1.00  0.00     0.004 A 
ATOM     29  C   UNL     1       0.407   1.244  -1.850  1.00  0.00     0.046 A 
ENDBRANCH  22  23
ENDBRANCH  21  22
ENDBRANCH  18  21
ENDBRANCH  10  17
ENDBRANCH   7   9
ENDBRANCH   6   7
ENDBRANCH   5   6
ENDBRANCH   4   5
ENDBRANCH   3   4
ENDBRANCH   2   3
ENDBRANCH   1   2
BRANCH   1  30
ATOM     30  O   UNL     1      -2.626  -1.546   4.038  1.00  0.00    -0.377 OA
BRANCH  30  31
ATOM     31  C   UNL     1      -2.792  -2.907   3.723  1.00  0.00     0.188 C 
BRANCH  31  32
ATOM     32  C   UNL     1      -4.119  -3.602   4.014  1.00  0.00     0.188 C 
BRANCH  32  33
ATOM     33  O   UNL     1      -4.886  -2.974   5.033  1.00  0.00    -0.376 OA
BRANCH  33  34
ATOM     34  C   UNL     1      -5.531  -3.789   6.007  1.00  0.00     0.202 C 
BRANCH  34  35
ATOM     35  C   UNL     1      -5.917  -5.230   5.630  1.00  0.00     0.261 C 
BRANCH  35  36
ATOM     36  O   UNL     1      -7.039  -5.206   4.723  1.00  0.00    -0.460 OA
BRANCH  36  37
ATOM     37  C   UNL     1      -6.770  -5.295   3.410  1.00  0.00     0.338 C 
ATOM     38  O   UNL     1      -5.962  -6.093   2.891  1.00  0.00    -0.246 OA
BRANCH  37  39
ATOM     39  C   UNL     1      -7.326  -4.102   2.713  1.00  0.00     0.060 A 
ATOM     40  C   UNL     1      -7.069  -3.886   1.369  1.00  0.00     0.016 A 
ATOM     41  C   UNL     1      -7.843  -3.033   3.459  1.00  0.00     0.016 A 
ATOM     42  C   UNL     1      -7.156  -2.573   0.872  1.00  0.00     0.010 A 
ATOM     43  C   UNL     1      -7.708  -1.710   3.000  1.00  0.00     0.010 A 
ATOM     44  C   UNL     1      -7.173  -1.440   1.735  1.00  0.00    -0.014 A 
BRANCH  44  45
ATOM     45  C   UNL     1      -6.742   0.136   1.314  1.00  0.00     0.031 A 
ATOM     46  C   UNL     1      -8.384   0.460   0.714  1.00  0.00     0.074 A 
ATOM     47  C   UNL     1      -5.266   0.925   1.050  1.00  0.00     0.049 A 
ATOM     48  N   UNL     1      -8.678   0.943  -0.471  1.00  0.00    -0.248 NA
ATOM     49  C   UNL     1      -9.659  -0.035   1.289  1.00  0.00     0.031 C 
ATOM     50  C   UNL     1      -4.790   2.325   0.209  1.00  0.00     0.029 A 
ATOM     51  N   UNL     1      -3.788   0.529   0.977  1.00  0.00    -0.354 N 
ATOM     52  C   UNL     1      -9.934   1.412  -0.457  1.00  0.00     0.074 A 
ATOM     53  C   UNL     1     -10.575   0.515   0.470  1.00  0.00     0.031 C 
ATOM     54  C   UNL     1      -3.519   2.450  -0.144  1.00  0.00     0.029 A 
ATOM     55  C   UNL     1      -3.045   1.144  -0.082  1.00  0.00     0.049 A 
ATOM     56  H   UNL     1      -3.379  -0.102   1.611  1.00  0.00     0.167 HD
ATOM     57  C   UNL     1     -10.201   2.635  -1.010  1.00  0.00     0.031 A 
ATOM     58  C   UNL     1      -2.579   0.593  -1.248  1.00  0.00     0.031 A 
ATOM     59  C   UNL     1      -8.984   3.379  -1.505  1.00  0.00     0.049 A 
ATOM     60  C   UNL     1      -3.256   1.327  -2.492  1.00  0.00     0.074 A 
ATOM     61  C   UNL     1      -8.330   4.512  -1.024  1.00  0.00     0.029 A 
ATOM     62  N   UNL     1      -8.083   2.843  -2.458  1.00  0.00    -0.354 N 
ATOM     63  N   UNL     1      -4.427   1.936  -2.429  1.00  0.00    -0.248 NA
ATOM     64  C   UNL     1      -2.662   1.576  -3.795  1.00  0.00     0.031 C 
ATOM     65  C   UNL     1      -7.059   4.643  -1.670  1.00  0.00     0.029 A 
ATOM     66  C   UNL     1      -6.889   3.593  -2.569  1.00  0.00     0.049 A 
ATOM     67  H   UNL     1      -8.269   2.034  -2.987  1.00  0.00     0.167 HD
ATOM     68  C   UNL     1      -4.742   2.670  -3.542  1.00  0.00     0.074 A 
ATOM     69  C   UNL     1      -3.555   2.418  -4.360  1.00  0.00     0.031 C 
ATOM     70  C   UNL     1      -5.911   3.408  -3.695  1.00  0.00     0.031 A 
BRANCH  57  71
ATOM     71  C   UNL     1     -11.538   3.266  -0.655  1.00  0.00    -0.014 A 
ATOM     72  C   UNL     1     -11.670   4.642  -0.417  1.00  0.00     0.009 A 
ATOM     73  C   UNL     1     -12.709   2.498  -0.472  1.00  0.00     0.009 A 
ATOM     74  C   UNL     1     -12.855   5.194   0.098  1.00  0.00     0.001 A 
ATOM     75  C   UNL     1     -13.876   3.030   0.093  1.00  0.00     0.001 A 
ATOM     76  C   UNL     1     -13.945   4.381   0.390  1.00  0.00     0.000 A 
ENDBRANCH  57  71
BRANCH  58  77
ATOM     77  C   UNL     1      -2.042  -0.805  -1.106  1.00  0.00    -0.014 A 
ATOM     78  C   UNL     1      -1.265  -1.093   0.050  1.00  0.00     0.009 A 
ATOM     79  C   UNL     1      -2.474  -1.895  -1.869  1.00  0.00     0.009 A 
ATOM     80  C   UNL     1      -1.058  -2.395   0.504  1.00  0.00     0.001 A 
ATOM     81  C   UNL     1      -2.298  -3.206  -1.387  1.00  0.00     0.001 A 
ATOM     82  C   UNL     1      -1.621  -3.453  -0.191  1.00  0.00     0.000 A 
ENDBRANCH  58  77
BRANCH  70  83
ATOM     83  C   UNL     1      -6.326   4.144  -4.978  1.00  0.00    -0.014 A 
ATOM     84  C   UNL     1      -5.549   4.303  -6.126  1.00  0.00     0.009 A 
ATOM     85  C   UNL     1      -7.628   4.705  -5.056  1.00  0.00     0.009 A 
ATOM     86  C   UNL     1      -6.061   4.878  -7.300  1.00  0.00     0.001 A 
ATOM     87  C   UNL     1      -8.148   5.282  -6.215  1.00  0.00     0.001 A 
ATOM     88  C   UNL     1      -7.367   5.345  -7.353  1.00  0.00     0.000 A 
ENDBRANCH  70  83
ENDBRANCH  44  45
ENDBRANCH  37  39
ENDBRANCH  36  37
ENDBRANCH  35  36
ENDBRANCH  34  35
ENDBRANCH  33  34
ENDBRANCH  32  33
ENDBRANCH  31  32
ENDBRANCH  30  31
ENDBRANCH   1  30
TORSDOF 24
