REMARK SMILES CCOC(=O)c1ccc(NC(=O)[C@H]2CC(C)=C(C)C[C@@H]2C(=O)OCCOCCOCCOCCOC(=O)c2ccc(-c3c4nc(c(-c5ccccc5)c5ccc([nH]5)c(-c5ccccc5)c5nc(c(-c6ccccc6)c6ccc3[nH]6)C=C5)C=C4)cc2)cc1
REMARK SMILES IDX 27 1 26 2 25 3 24 4 23 5 21 6 22 7 20 8 13 9 14 10 15 11
REMARK SMILES IDX 19 12 16 13 17 14 18 15 11 16 10 17 12 19 9 20 6 21 7 22
REMARK SMILES IDX 87 23 8 24 86 25 4 26 5 27 3 28 2 29 1 30 28 31 29 32 30 33
REMARK SMILES IDX 31 34 32 35 33 36 34 37 35 38 36 39 37 40 38 41 39 42 85 43
REMARK SMILES IDX 40 44 84 45 41 46 42 47 43 48 78 49 44 50 83 51 77 52 79 53
REMARK SMILES IDX 45 54 82 55 76 56 75 57 46 59 68 60 53 61 67 62 54 63 57 64
REMARK SMILES IDX 66 65 80 66 55 67 56 68 65 70 81 71 58 72 47 73 48 74 52 75
REMARK SMILES IDX 49 76 51 77 50 78 69 79 70 80 74 81 71 82 73 83 72 84 59 85
REMARK SMILES IDX 60 86 64 87 61 88 63 89 62 90
REMARK H PARENT 10 18 79 58 57 69
REMARK Flexibility Score: inf
ROOT
ATOM      1  C   UNL     1       8.760   5.287  -6.816  1.00  0.00     0.188 C 
ENDROOT
BRANCH   1   2
ATOM      2  O   UNL     1       9.434   6.243  -7.623  1.00  0.00    -0.376 OA
BRANCH   2   3
ATOM      3  C   UNL     1       9.173   7.629  -7.433  1.00  0.00     0.202 C 
BRANCH   3   4
ATOM      4  C   UNL     1       7.724   8.141  -7.325  1.00  0.00     0.261 C 
BRANCH   4   5
ATOM      5  O   UNL     1       6.928   7.521  -6.295  1.00  0.00    -0.463 OA
BRANCH   5   6
ATOM      6  C   UNL     1       5.783   6.888  -6.652  1.00  0.00     0.310 C 
ATOM      7  O   UNL     1       5.371   6.818  -7.806  1.00  0.00    -0.252 OA
BRANCH   6   8
ATOM      8  C   UNL     1       5.081   6.140  -5.498  1.00  0.00     0.116 C 
ATOM      9  C   UNL     1       5.465   6.607  -4.077  1.00  0.00     0.097 C 
ATOM     10  C   UNL     1       5.918   5.562  -3.038  1.00  0.00     0.045 C 
ATOM     11  C   UNL     1       5.889   4.100  -3.430  1.00  0.00    -0.074 C 
ATOM     12  C   UNL     1       5.178   4.627  -5.785  1.00  0.00     0.046 C 
ATOM     13  C   UNL     1       6.230   3.158  -2.295  1.00  0.00     0.039 C 
ATOM     14  C   UNL     1       5.569   3.684  -4.673  1.00  0.00    -0.073 C 
ATOM     15  C   UNL     1       5.587   2.229  -5.082  1.00  0.00     0.039 C 
BRANCH   9  16
ATOM     16  C   UNL     1       4.426   7.637  -3.618  1.00  0.00     0.228 C 
ATOM     17  N   UNL     1       3.356   7.399  -2.815  1.00  0.00    -0.326 N 
ATOM     18  H   UNL     1       2.851   8.214  -2.588  1.00  0.00     0.169 HD
ATOM     19  O   UNL     1       4.553   8.807  -4.008  1.00  0.00    -0.274 OA
BRANCH  17  20
ATOM     20  C   UNL     1       2.821   6.240  -2.245  1.00  0.00     0.041 A 
ATOM     21  C   UNL     1       2.119   3.969  -0.805  1.00  0.00     0.060 A 
ATOM     22  C   UNL     1       2.563   3.840  -2.119  1.00  0.00     0.018 A 
ATOM     23  C   UNL     1       1.908   5.227  -0.242  1.00  0.00     0.018 A 
ATOM     24  C   UNL     1       2.877   4.988  -2.847  1.00  0.00     0.027 A 
ATOM     25  C   UNL     1       2.245   6.366  -0.975  1.00  0.00     0.027 A 
BRANCH  21  26
ATOM     26  C   UNL     1       1.981   2.768   0.022  1.00  0.00     0.338 C 
ATOM     27  O   UNL     1       2.921   2.220   0.569  1.00  0.00    -0.246 OA
BRANCH  26  28
ATOM     28  O   UNL     1       0.681   2.402   0.026  1.00  0.00    -0.462 OA
BRANCH  28  29
ATOM     29  C   UNL     1       0.390   1.218   0.781  1.00  0.00     0.230 C 
ATOM     30  C   UNL     1       0.794  -0.028   0.011  1.00  0.00     0.049 C 
ENDBRANCH  28  29
ENDBRANCH  26  28
ENDBRANCH  21  26
ENDBRANCH  17  20
ENDBRANCH   9  16
ENDBRANCH   6   8
ENDBRANCH   5   6
ENDBRANCH   4   5
ENDBRANCH   3   4
ENDBRANCH   2   3
ENDBRANCH   1   2
BRANCH   1  31
ATOM     31  C   UNL     1       8.646   5.511  -5.299  1.00  0.00     0.188 C 
BRANCH  31  32
ATOM     32  O   UNL     1       9.139   6.749  -4.830  1.00  0.00    -0.377 OA
BRANCH  32  33
ATOM     33  C   UNL     1      10.463   6.750  -4.322  1.00  0.00     0.188 C 
BRANCH  33  34
ATOM     34  C   UNL     1      11.493   5.835  -5.008  1.00  0.00     0.188 C 
BRANCH  34  35
ATOM     35  O   UNL     1      11.073   4.480  -5.120  1.00  0.00    -0.376 OA
BRANCH  35  36
ATOM     36  C   UNL     1      11.503   3.539  -4.148  1.00  0.00     0.202 C 
BRANCH  36  37
ATOM     37  C   UNL     1      10.964   3.682  -2.714  1.00  0.00     0.261 C 
BRANCH  37  38
ATOM     38  O   UNL     1      11.225   4.925  -2.045  1.00  0.00    -0.460 OA
BRANCH  38  39
ATOM     39  C   UNL     1      12.513   5.314  -1.917  1.00  0.00     0.338 C 
ATOM     40  O   UNL     1      13.502   4.702  -2.245  1.00  0.00    -0.246 OA
BRANCH  39  41
ATOM     41  C   UNL     1      12.508   6.729  -1.478  1.00  0.00     0.060 A 
ATOM     42  C   UNL     1      13.146   7.684  -2.281  1.00  0.00     0.016 A 
ATOM     43  C   UNL     1      11.889   7.107  -0.285  1.00  0.00     0.016 A 
ATOM     44  C   UNL     1      13.214   9.013  -1.865  1.00  0.00     0.010 A 
ATOM     45  C   UNL     1      11.977   8.434   0.143  1.00  0.00     0.010 A 
ATOM     46  C   UNL     1      12.681   9.381  -0.624  1.00  0.00    -0.014 A 
BRANCH  46  47
ATOM     47  C   UNL     1      13.074  10.678  -0.023  1.00  0.00     0.031 A 
ATOM     48  C   UNL     1      14.219  10.683   0.955  1.00  0.00     0.074 A 
ATOM     49  C   UNL     1      12.465  11.828  -0.358  1.00  0.00     0.049 A 
ATOM     50  N   UNL     1      14.743  11.681   1.619  1.00  0.00    -0.248 NA
ATOM     51  C   UNL     1      14.857   9.382   1.219  1.00  0.00     0.031 C 
ATOM     52  C   UNL     1      11.387  11.966  -1.334  1.00  0.00     0.029 A 
ATOM     53  N   UNL     1      12.680  13.106   0.095  1.00  0.00    -0.354 N 
ATOM     54  C   UNL     1      15.757  11.125   2.390  1.00  0.00     0.074 A 
ATOM     55  C   UNL     1      15.757   9.702   2.135  1.00  0.00     0.031 C 
ATOM     56  C   UNL     1      11.036  13.263  -1.411  1.00  0.00     0.029 A 
ATOM     57  C   UNL     1      11.838  14.036  -0.465  1.00  0.00     0.049 A 
ATOM     58  H   UNL     1      13.371  13.334   0.757  1.00  0.00     0.167 HD
ATOM     59  C   UNL     1      16.615  11.742   3.236  1.00  0.00     0.031 A 
ATOM     60  C   UNL     1      11.723  15.357  -0.225  1.00  0.00     0.031 A 
ATOM     61  C   UNL     1      16.607  13.156   3.501  1.00  0.00     0.049 A 
ATOM     62  C   UNL     1      12.631  16.007   0.787  1.00  0.00     0.074 A 
ATOM     63  C   UNL     1      17.449  13.883   4.322  1.00  0.00     0.029 A 
ATOM     64  N   UNL     1      15.701  14.053   2.958  1.00  0.00    -0.354 N 
ATOM     65  N   UNL     1      13.607  15.479   1.488  1.00  0.00    -0.248 NA
ATOM     66  C   UNL     1      12.424  17.442   1.034  1.00  0.00     0.031 C 
ATOM     67  C   UNL     1      17.006  15.210   4.333  1.00  0.00     0.029 A 
ATOM     68  C   UNL     1      15.939  15.322   3.457  1.00  0.00     0.049 A 
ATOM     69  H   UNL     1      14.993  13.822   2.314  1.00  0.00     0.167 HD
ATOM     70  C   UNL     1      14.155  16.524   2.224  1.00  0.00     0.074 A 
ATOM     71  C   UNL     1      13.408  17.716   1.878  1.00  0.00     0.031 C 
ATOM     72  C   UNL     1      15.189  16.501   3.102  1.00  0.00     0.031 A 
BRANCH  59  73
ATOM     73  C   UNL     1      17.595  10.876   3.979  1.00  0.00    -0.014 A 
ATOM     74  C   UNL     1      18.653  10.226   3.324  1.00  0.00     0.009 A 
ATOM     75  C   UNL     1      17.459  10.716   5.367  1.00  0.00     0.009 A 
ATOM     76  C   UNL     1      19.526   9.400   4.036  1.00  0.00     0.001 A 
ATOM     77  C   UNL     1      18.353   9.919   6.082  1.00  0.00     0.001 A 
ATOM     78  C   UNL     1      19.378   9.251   5.415  1.00  0.00     0.000 A 
ENDBRANCH  59  73
BRANCH  60  79
ATOM     79  C   UNL     1      10.707  16.165  -0.952  1.00  0.00    -0.014 A 
ATOM     80  C   UNL     1      11.101  17.148  -1.873  1.00  0.00     0.009 A 
ATOM     81  C   UNL     1       9.337  15.980  -0.706  1.00  0.00     0.009 A 
ATOM     82  C   UNL     1      10.148  17.945  -2.511  1.00  0.00     0.001 A 
ATOM     83  C   UNL     1       8.385  16.757  -1.370  1.00  0.00     0.001 A 
ATOM     84  C   UNL     1       8.791  17.746  -2.263  1.00  0.00     0.000 A 
ENDBRANCH  60  79
BRANCH  72  85
ATOM     85  C   UNL     1      15.613  17.811   3.710  1.00  0.00    -0.014 A 
ATOM     86  C   UNL     1      14.813  18.485   4.646  1.00  0.00     0.009 A 
ATOM     87  C   UNL     1      16.860  18.358   3.365  1.00  0.00     0.009 A 
ATOM     88  C   UNL     1      15.236  19.699   5.192  1.00  0.00     0.001 A 
ATOM     89  C   UNL     1      17.296  19.552   3.940  1.00  0.00     0.001 A 
ATOM     90  C   UNL     1      16.479  20.228   4.843  1.00  0.00     0.000 A 
ENDBRANCH  72  85
ENDBRANCH  46  47
ENDBRANCH  39  41
ENDBRANCH  38  39
ENDBRANCH  37  38
ENDBRANCH  36  37
ENDBRANCH  35  36
ENDBRANCH  34  35
ENDBRANCH  33  34
ENDBRANCH  32  33
ENDBRANCH  31  32
ENDBRANCH   1  31
TORSDOF 25
