REMARK SMILES Cc1cc(C(=O)OCCOCCOCCOCCOC(=O)c2ccc(-c3c4nc(c(-c5ccccc5)c5ccc([nH]5)c(-c5ccccc5)c5nc(c(-c6ccccc6)c6ccc3[nH]6)C=C5)C=C4)cc2)ccc1NS(=O)(=O)c1ccc(C#N)cc1C
REMARK SMILES IDX 12 1 11 2 10 3 9 4 8 5 7 6 5 7 6 8 4 9 1 10 2 11 3 12 72 13
REMARK SMILES IDX 71 14 70 15 73 16 74 18 75 19 76 20 77 21 78 22 84 23 79 24
REMARK SMILES IDX 83 25 85 26 80 27 81 28 82 29 13 30 14 31 15 32 16 33 17 34
REMARK SMILES IDX 18 35 19 36 20 37 21 38 22 39 23 40 69 41 24 42 68 43 25 44
REMARK SMILES IDX 26 45 27 46 62 47 28 48 67 49 61 50 63 51 29 52 66 53 60 54
REMARK SMILES IDX 59 55 30 57 52 58 37 59 51 60 38 61 41 62 50 63 64 64 39 65
REMARK SMILES IDX 40 66 49 68 65 69 42 70 31 71 32 72 36 73 33 74 35 75 34 76
REMARK SMILES IDX 53 77 54 78 58 79 55 80 57 81 56 82 43 83 44 84 48 85 45 86
REMARK SMILES IDX 47 87 46 88
REMARK H PARENT 73 17 63 56 41 67
REMARK Flexibility Score: inf
ROOT
ATOM      1  C   UNL     1      -0.608  -1.501  -2.877  1.00  0.00     0.188 C 
ENDROOT
BRANCH   1   2
ATOM      2  C   UNL     1       0.216  -2.452  -1.988  1.00  0.00     0.188 C 
BRANCH   2   3
ATOM      3  O   UNL     1      -0.062  -3.838  -1.902  1.00  0.00    -0.376 OA
BRANCH   3   4
ATOM      4  C   UNL     1      -0.977  -4.227  -0.891  1.00  0.00     0.202 C 
BRANCH   4   5
ATOM      5  C   UNL     1      -0.642  -4.040   0.576  1.00  0.00     0.261 C 
BRANCH   5   6
ATOM      6  O   UNL     1      -0.748  -2.686   0.949  1.00  0.00    -0.460 OA
BRANCH   6   7
ATOM      7  C   UNL     1       0.340  -2.201   1.556  1.00  0.00     0.338 C 
ATOM      8  O   UNL     1       1.233  -2.813   2.112  1.00  0.00    -0.246 OA
BRANCH   7   9
ATOM      9  C   UNL     1       0.449  -0.820   1.073  1.00  0.00     0.060 A 
ATOM     10  C   UNL     1       3.437   1.060  -0.121  1.00  0.00     0.046 C 
ATOM     11  C   UNL     1       2.000   0.846   0.258  1.00  0.00    -0.026 A 
ATOM     12  C   UNL     1       1.748  -0.356   0.923  1.00  0.00     0.021 A 
ATOM     13  C   UNL     1       0.908   1.594  -0.208  1.00  0.00     0.052 A 
ATOM     14  C   UNL     1      -0.318   0.969  -0.318  1.00  0.00     0.028 A 
ATOM     15  C   UNL     1      -0.595  -0.172   0.412  1.00  0.00     0.018 A 
BRANCH  13  16
ATOM     16  N   UNL     1       0.987   2.937  -0.675  1.00  0.00    -0.279 N 
ATOM     17  H   UNL     1       1.523   3.142  -1.475  1.00  0.00     0.180 HD
BRANCH  16  18
ATOM     18  S   UNL     1       0.156   4.212   0.145  1.00  0.00     0.262 S 
ATOM     19  O   UNL     1       0.563   4.194   1.533  1.00  0.00    -0.201 OA
ATOM     20  O   UNL     1       0.498   5.338  -0.704  1.00  0.00    -0.201 OA
BRANCH  18  21
ATOM     21  C   UNL     1      -1.656   4.083   0.130  1.00  0.00     0.090 A 
ATOM     22  C   UNL     1      -2.295   2.909   0.541  1.00  0.00     0.024 A 
ATOM     23  C   UNL     1      -2.493   5.181  -0.158  1.00  0.00    -0.029 A 
ATOM     24  C   UNL     1      -3.662   2.681   0.324  1.00  0.00     0.021 A 
ATOM     25  C   UNL     1      -3.889   4.972  -0.317  1.00  0.00     0.024 A 
ATOM     26  C   UNL     1      -2.060   6.622  -0.117  1.00  0.00     0.046 C 
ATOM     27  C   UNL     1      -4.466   3.712  -0.142  1.00  0.00     0.052 A 
BRANCH  27  28
ATOM     28  C   UNL     1      -5.861   3.502  -0.347  1.00  0.00     0.099 C 
ATOM     29  N   UNL     1      -7.006   3.305  -0.513  1.00  0.00    -0.192 NA
ENDBRANCH  27  28
ENDBRANCH  18  21
ENDBRANCH  16  18
ENDBRANCH  13  16
ENDBRANCH   7   9
ENDBRANCH   6   7
ENDBRANCH   5   6
ENDBRANCH   4   5
ENDBRANCH   3   4
ENDBRANCH   2   3
ENDBRANCH   1   2
BRANCH   1  30
ATOM     30  O   UNL     1      -1.934  -1.149  -2.508  1.00  0.00    -0.377 OA
BRANCH  30  31
ATOM     31  C   UNL     1      -2.991  -1.993  -2.943  1.00  0.00     0.188 C 
BRANCH  31  32
ATOM     32  C   UNL     1      -2.889  -2.660  -4.304  1.00  0.00     0.188 C 
BRANCH  32  33
ATOM     33  O   UNL     1      -1.877  -3.662  -4.268  1.00  0.00    -0.376 OA
BRANCH  33  34
ATOM     34  C   UNL     1      -1.156  -3.868  -5.480  1.00  0.00     0.202 C 
BRANCH  34  35
ATOM     35  C   UNL     1      -2.049  -4.135  -6.697  1.00  0.00     0.261 C 
BRANCH  35  36
ATOM     36  O   UNL     1      -2.763  -5.376  -6.500  1.00  0.00    -0.460 OA
BRANCH  36  37
ATOM     37  C   UNL     1      -4.072  -5.264  -6.139  1.00  0.00     0.338 C 
ATOM     38  O   UNL     1      -4.896  -4.550  -6.689  1.00  0.00    -0.246 OA
BRANCH  37  39
ATOM     39  C   UNL     1      -4.289  -5.873  -4.787  1.00  0.00     0.060 A 
ATOM     40  C   UNL     1      -5.508  -5.702  -4.108  1.00  0.00     0.016 A 
ATOM     41  C   UNL     1      -3.172  -6.231  -4.059  1.00  0.00     0.016 A 
ATOM     42  C   UNL     1      -5.539  -5.641  -2.697  1.00  0.00     0.010 A 
ATOM     43  C   UNL     1      -3.199  -6.042  -2.692  1.00  0.00     0.010 A 
ATOM     44  C   UNL     1      -4.350  -5.671  -1.981  1.00  0.00    -0.014 A 
BRANCH  44  45
ATOM     45  C   UNL     1      -4.153  -5.263  -0.556  1.00  0.00     0.031 A 
ATOM     46  C   UNL     1      -3.398  -6.227   0.340  1.00  0.00     0.074 A 
ATOM     47  C   UNL     1      -4.308  -3.942  -0.228  1.00  0.00     0.049 A 
ATOM     48  N   UNL     1      -3.059  -6.022   1.567  1.00  0.00    -0.248 NA
ATOM     49  C   UNL     1      -2.870  -7.519  -0.122  1.00  0.00     0.031 C 
ATOM     50  C   UNL     1      -3.689  -3.168   0.865  1.00  0.00     0.029 A 
ATOM     51  N   UNL     1      -5.003  -2.927  -0.863  1.00  0.00    -0.354 N 
ATOM     52  C   UNL     1      -1.987  -6.860   1.882  1.00  0.00     0.074 A 
ATOM     53  C   UNL     1      -1.974  -7.834   0.824  1.00  0.00     0.031 C 
ATOM     54  C   UNL     1      -4.118  -1.890   0.885  1.00  0.00     0.029 A 
ATOM     55  C   UNL     1      -5.253  -1.856   0.004  1.00  0.00     0.049 A 
ATOM     56  H   UNL     1      -5.286  -2.954  -1.806  1.00  0.00     0.167 HD
ATOM     57  C   UNL     1      -1.139  -6.523   2.911  1.00  0.00     0.031 A 
ATOM     58  C   UNL     1      -6.519  -1.635   0.481  1.00  0.00     0.031 A 
ATOM     59  C   UNL     1      -1.625  -5.316   3.615  1.00  0.00     0.049 A 
ATOM     60  C   UNL     1      -6.568  -2.148   1.945  1.00  0.00     0.074 A 
ATOM     61  C   UNL     1      -1.069  -4.101   3.972  1.00  0.00     0.029 A 
ATOM     62  N   UNL     1      -2.988  -5.188   3.873  1.00  0.00    -0.354 N 
ATOM     63  N   UNL     1      -5.848  -3.160   2.398  1.00  0.00    -0.248 NA
ATOM     64  C   UNL     1      -7.132  -1.360   3.047  1.00  0.00     0.031 C 
ATOM     65  C   UNL     1      -2.141  -3.188   4.223  1.00  0.00     0.029 A 
ATOM     66  C   UNL     1      -3.345  -3.880   4.122  1.00  0.00     0.049 A 
ATOM     67  H   UNL     1      -3.621  -5.942   3.878  1.00  0.00     0.167 HD
ATOM     68  C   UNL     1      -5.666  -3.027   3.756  1.00  0.00     0.074 A 
ATOM     69  C   UNL     1      -6.554  -1.931   4.121  1.00  0.00     0.031 C 
ATOM     70  C   UNL     1      -4.704  -3.589   4.561  1.00  0.00     0.031 A 
BRANCH  57  71
ATOM     71  C   UNL     1       0.251  -7.117   3.207  1.00  0.00    -0.014 A 
ATOM     72  C   UNL     1       0.969  -6.658   4.337  1.00  0.00     0.009 A 
ATOM     73  C   UNL     1       0.947  -8.053   2.417  1.00  0.00     0.009 A 
ATOM     74  C   UNL     1       2.276  -7.076   4.650  1.00  0.00     0.001 A 
ATOM     75  C   UNL     1       2.248  -8.505   2.742  1.00  0.00     0.001 A 
ATOM     76  C   UNL     1       2.916  -8.011   3.856  1.00  0.00     0.000 A 
ENDBRANCH  57  71
BRANCH  58  77
ATOM     77  C   UNL     1      -7.476  -1.677  -0.687  1.00  0.00    -0.014 A 
ATOM     78  C   UNL     1      -7.278  -0.620  -1.621  1.00  0.00     0.009 A 
ATOM     79  C   UNL     1      -7.913  -2.907  -1.205  1.00  0.00     0.009 A 
ATOM     80  C   UNL     1      -7.183  -0.875  -2.999  1.00  0.00     0.001 A 
ATOM     81  C   UNL     1      -7.872  -3.137  -2.598  1.00  0.00     0.001 A 
ATOM     82  C   UNL     1      -7.420  -2.155  -3.481  1.00  0.00     0.000 A 
ENDBRANCH  58  77
BRANCH  70  83
ATOM     83  C   UNL     1      -5.039  -4.066   5.958  1.00  0.00    -0.014 A 
ATOM     84  C   UNL     1      -6.352  -4.139   6.428  1.00  0.00     0.009 A 
ATOM     85  C   UNL     1      -4.040  -4.694   6.745  1.00  0.00     0.009 A 
ATOM     86  C   UNL     1      -6.649  -4.771   7.636  1.00  0.00     0.001 A 
ATOM     87  C   UNL     1      -4.343  -5.383   7.917  1.00  0.00     0.001 A 
ATOM     88  C   UNL     1      -5.650  -5.405   8.370  1.00  0.00     0.000 A 
ENDBRANCH  70  83
ENDBRANCH  44  45
ENDBRANCH  37  39
ENDBRANCH  36  37
ENDBRANCH  35  36
ENDBRANCH  34  35
ENDBRANCH  33  34
ENDBRANCH  32  33
ENDBRANCH  31  32
ENDBRANCH  30  31
ENDBRANCH   1  30
TORSDOF 24
