REMARK SMILES O=C(OCCOCCOCCOCCOC(=O)[C@H]1C[N@H+](Cc2ccc(Cl)c(Cl)c2)CC12CCCCC2)c1ccc(-c2c3nc(c(-c4ccccc4)c4ccc([nH]4)c(-c4ccccc4)c4nc(c(-c5ccccc5)c5ccc2[nH]5)C=C4)C=C3)cc1
REMARK SMILES IDX 9 1 8 2 7 3 6 4 5 5 4 6 3 7 2 8 1 9 37 10 38 11 84 12 39 13
REMARK SMILES IDX 83 14 40 15 41 16 42 17 77 18 43 19 82 20 76 21 78 22 44 23
REMARK SMILES IDX 81 24 75 25 74 26 45 28 67 29 52 30 66 31 53 32 56 33 65 34
REMARK SMILES IDX 79 35 54 36 55 37 64 39 80 40 57 41 46 42 47 43 51 44 48 45
REMARK SMILES IDX 50 46 49 47 68 48 69 49 73 50 70 51 72 52 71 53 58 54 59 55
REMARK SMILES IDX 63 56 60 57 62 58 61 59 10 60 11 61 12 62 13 63 14 64 15 65
REMARK SMILES IDX 16 66 17 67 18 68 19 69 31 70 20 71 30 72 32 73 36 74 33 76
REMARK SMILES IDX 35 77 34 78 21 79 22 80 23 81 29 82 24 83 27 84 25 85 28 86
REMARK SMILES IDX 26 87
REMARK H PARENT 78 27 56 38 20 75
REMARK Flexibility Score: inf
ROOT
ATOM      1  O   UNL     1       1.829  -3.281   1.277  1.00  0.00    -0.377 OA
ENDROOT
BRANCH   1   2
ATOM      2  C   UNL     1       1.197  -2.270   0.505  1.00  0.00     0.188 C 
BRANCH   2   3
ATOM      3  C   UNL     1       1.667  -0.855   0.841  1.00  0.00     0.188 C 
BRANCH   3   4
ATOM      4  O   UNL     1       3.007  -0.700   0.372  1.00  0.00    -0.376 OA
BRANCH   4   5
ATOM      5  C   UNL     1       3.872   0.110   1.169  1.00  0.00     0.202 C 
BRANCH   5   6
ATOM      6  C   UNL     1       3.891   1.572   0.733  1.00  0.00     0.261 C 
BRANCH   6   7
ATOM      7  O   UNL     1       2.593   2.010   0.311  1.00  0.00    -0.460 OA
BRANCH   7   8
ATOM      8  C   UNL     1       2.029   1.829  -0.910  1.00  0.00     0.338 C 
ATOM      9  O   UNL     1       0.853   2.156  -1.066  1.00  0.00    -0.246 OA
BRANCH   8  10
ATOM     10  C   UNL     1       2.760   1.286  -2.100  1.00  0.00     0.060 A 
ATOM     11  C   UNL     1       3.854   0.418  -2.064  1.00  0.00     0.016 A 
ATOM     12  C   UNL     1       2.264   1.656  -3.361  1.00  0.00     0.016 A 
ATOM     13  C   UNL     1       4.480  -0.025  -3.208  1.00  0.00     0.010 A 
ATOM     14  C   UNL     1       2.883   1.212  -4.531  1.00  0.00     0.010 A 
ATOM     15  C   UNL     1       4.013   0.394  -4.442  1.00  0.00    -0.014 A 
BRANCH  15  16
ATOM     16  C   UNL     1       4.900   0.153  -5.581  1.00  0.00     0.031 A 
ATOM     17  C   UNL     1       5.728   1.308  -6.046  1.00  0.00     0.074 A 
ATOM     18  C   UNL     1       5.094  -1.100  -6.021  1.00  0.00     0.049 A 
ATOM     19  N   UNL     1       6.498   1.407  -7.090  1.00  0.00    -0.248 NA
ATOM     20  C   UNL     1       5.691   2.522  -5.205  1.00  0.00     0.031 C 
ATOM     21  C   UNL     1       4.489  -2.307  -5.445  1.00  0.00     0.029 A 
ATOM     22  N   UNL     1       5.887  -1.571  -7.026  1.00  0.00    -0.354 N 
ATOM     23  C   UNL     1       6.985   2.707  -7.066  1.00  0.00     0.074 A 
ATOM     24  C   UNL     1       6.441   3.359  -5.900  1.00  0.00     0.031 C 
ATOM     25  C   UNL     1       4.945  -3.382  -6.106  1.00  0.00     0.029 A 
ATOM     26  C   UNL     1       5.789  -2.929  -7.202  1.00  0.00     0.049 A 
ATOM     27  H   UNL     1       6.471  -0.996  -7.570  1.00  0.00     0.167 HD
ATOM     28  C   UNL     1       7.800   3.296  -7.968  1.00  0.00     0.031 A 
ATOM     29  C   UNL     1       6.284  -3.692  -8.192  1.00  0.00     0.031 A 
ATOM     30  C   UNL     1       8.302   2.593  -9.113  1.00  0.00     0.049 A 
ATOM     31  C   UNL     1       7.062  -2.986  -9.268  1.00  0.00     0.074 A 
ATOM     32  C   UNL     1       9.051   3.067 -10.170  1.00  0.00     0.029 A 
ATOM     33  N   UNL     1       8.094   1.235  -9.336  1.00  0.00    -0.354 N 
ATOM     34  N   UNL     1       7.417  -1.722  -9.336  1.00  0.00    -0.248 NA
ATOM     35  C   UNL     1       7.486  -3.795 -10.414  1.00  0.00     0.031 C 
ATOM     36  C   UNL     1       9.249   2.006 -11.060  1.00  0.00     0.029 A 
ATOM     37  C   UNL     1       8.684   0.855 -10.524  1.00  0.00     0.049 A 
ATOM     38  H   UNL     1       7.598   0.634  -8.735  1.00  0.00     0.167 HD
ATOM     39  C   UNL     1       8.125  -1.586 -10.519  1.00  0.00     0.074 A 
ATOM     40  C   UNL     1       8.164  -2.906 -11.125  1.00  0.00     0.031 C 
ATOM     41  C   UNL     1       8.691  -0.481 -11.066  1.00  0.00     0.031 A 
BRANCH  28  42
ATOM     42  C   UNL     1       8.065   4.763  -7.789  1.00  0.00    -0.014 A 
ATOM     43  C   UNL     1       8.860   5.255  -6.741  1.00  0.00     0.009 A 
ATOM     44  C   UNL     1       7.442   5.678  -8.652  1.00  0.00     0.009 A 
ATOM     45  C   UNL     1       8.986   6.632  -6.536  1.00  0.00     0.001 A 
ATOM     46  C   UNL     1       7.593   7.053  -8.462  1.00  0.00     0.001 A 
ATOM     47  C   UNL     1       8.354   7.529  -7.397  1.00  0.00     0.000 A 
ENDBRANCH  28  42
BRANCH  29  48
ATOM     48  C   UNL     1       5.979  -5.146  -8.259  1.00  0.00    -0.014 A 
ATOM     49  C   UNL     1       7.001  -6.103  -8.181  1.00  0.00     0.009 A 
ATOM     50  C   UNL     1       4.654  -5.591  -8.418  1.00  0.00     0.009 A 
ATOM     51  C   UNL     1       6.707  -7.466  -8.288  1.00  0.00     0.001 A 
ATOM     52  C   UNL     1       4.359  -6.954  -8.491  1.00  0.00     0.001 A 
ATOM     53  C   UNL     1       5.388  -7.891  -8.438  1.00  0.00     0.000 A 
ENDBRANCH  29  48
BRANCH  41  54
ATOM     54  C   UNL     1       9.438  -0.681 -12.350  1.00  0.00    -0.014 A 
ATOM     55  C   UNL     1       8.765  -0.911 -13.558  1.00  0.00     0.009 A 
ATOM     56  C   UNL     1      10.838  -0.578 -12.348  1.00  0.00     0.009 A 
ATOM     57  C   UNL     1       9.487  -1.065 -14.741  1.00  0.00     0.001 A 
ATOM     58  C   UNL     1      11.553  -0.695 -13.537  1.00  0.00     0.001 A 
ATOM     59  C   UNL     1      10.877  -0.949 -14.730  1.00  0.00     0.000 A 
ENDBRANCH  41  54
ENDBRANCH  15  16
ENDBRANCH   8  10
ENDBRANCH   7   8
ENDBRANCH   6   7
ENDBRANCH   5   6
ENDBRANCH   4   5
ENDBRANCH   3   4
ENDBRANCH   2   3
ENDBRANCH   1   2
BRANCH   1  60
ATOM     60  C   UNL     1       3.241  -3.223   1.329  1.00  0.00     0.188 C 
BRANCH  60  61
ATOM     61  C   UNL     1       4.082  -3.482   0.058  1.00  0.00     0.188 C 
BRANCH  61  62
ATOM     62  O   UNL     1       3.634  -4.350  -0.963  1.00  0.00    -0.376 OA
BRANCH  62  63
ATOM     63  C   UNL     1       2.778  -5.417  -0.612  1.00  0.00     0.202 C 
BRANCH  63  64
ATOM     64  C   UNL     1       3.275  -6.476   0.390  1.00  0.00     0.261 C 
BRANCH  64  65
ATOM     65  O   UNL     1       3.740  -5.994   1.669  1.00  0.00    -0.463 OA
BRANCH  65  66
ATOM     66  C   UNL     1       5.081  -5.816   1.892  1.00  0.00     0.315 C 
ATOM     67  O   UNL     1       5.964  -6.100   1.091  1.00  0.00    -0.252 OA
BRANCH  66  68
ATOM     68  C   UNL     1       5.307  -5.254   3.303  1.00  0.00     0.166 C 
ATOM     69  C   UNL     1       5.991  -6.378   4.083  1.00  0.00     0.278 C 
ATOM     70  C   UNL     1       6.133  -3.936   3.622  1.00  0.00     0.038 C 
ATOM     71  N   UNL     1       6.728  -5.736   5.153  1.00  0.00    -0.330 N 
ATOM     72  C   UNL     1       7.204  -4.465   4.618  1.00  0.00     0.270 C 
ATOM     73  C   UNL     1       6.792  -3.184   2.441  1.00  0.00     0.014 C 
ATOM     74  C   UNL     1       5.228  -2.862   4.295  1.00  0.00     0.014 C 
ATOM     75  H   UNL     1       7.543  -6.291   5.416  1.00  0.00     0.348 HD
ATOM     76  C   UNL     1       7.543  -1.900   2.850  1.00  0.00     0.001 C 
ATOM     77  C   UNL     1       5.962  -1.623   4.805  1.00  0.00     0.001 C 
ATOM     78  C   UNL     1       6.693  -0.929   3.671  1.00  0.00     0.000 C 
BRANCH  71  79
ATOM     79  C   UNL     1       6.175  -5.804   6.507  1.00  0.00     0.299 C 
BRANCH  79  80
ATOM     80  C   UNL     1       4.916  -5.021   6.823  1.00  0.00     0.008 A 
ATOM     81  C   UNL     1       3.661  -5.410   6.327  1.00  0.00     0.011 A 
ATOM     82  C   UNL     1       4.995  -3.836   7.580  1.00  0.00     0.031 A 
ATOM     83  C   UNL     1       2.549  -4.569   6.455  1.00  0.00     0.022 A 
ATOM     84  C   UNL     1       3.878  -3.001   7.728  1.00  0.00     0.060 A 
ATOM     85  C   UNL     1       2.661  -3.352   7.133  1.00  0.00     0.059 A 
ATOM     86  Cl  UNL     1       4.096  -1.512   8.576  1.00  0.00    -0.083 Cl
ATOM     87  Cl  UNL     1       1.288  -2.303   7.137  1.00  0.00    -0.083 Cl
ENDBRANCH  79  80
ENDBRANCH  71  79
ENDBRANCH  66  68
ENDBRANCH  65  66
ENDBRANCH  64  65
ENDBRANCH  63  64
ENDBRANCH  62  63
ENDBRANCH  61  62
ENDBRANCH  60  61
ENDBRANCH   1  60
TORSDOF 22
