REMARK SMILES O=C(OCCOCCOCCOCCOC(=O)C1(NC(=O)c2nc(C3CC3)n[nH]2)CCCCC1)c1ccc(-c2c3nc(c(-c4ccccc4)c4ccc([nH]4)c(-c4ccccc4)c4nc(c(-c5ccccc5)c5ccc2[nH]5)C=C4)C=C3)cc1
REMARK SMILES IDX 10 1 9 2 8 3 7 4 6 5 5 6 4 7 3 8 2 9 1 10 35 11 36 12 82 13
REMARK SMILES IDX 37 14 81 15 38 16 39 17 40 18 75 19 41 20 80 21 74 22 76 23
REMARK SMILES IDX 42 24 79 25 73 26 72 27 43 29 65 30 50 31 64 32 51 33 54 34
REMARK SMILES IDX 63 35 77 36 52 37 53 38 62 40 78 41 55 42 44 43 45 44 49 45
REMARK SMILES IDX 46 46 48 47 47 48 66 49 67 50 71 51 68 52 70 53 69 54 56 55
REMARK SMILES IDX 57 56 61 57 58 58 60 59 59 60 11 61 12 62 13 63 14 64 15 65
REMARK SMILES IDX 16 66 17 67 18 68 30 69 34 70 31 71 33 72 32 73 19 74 20 75
REMARK SMILES IDX 21 77 22 78 23 79 29 80 24 81 28 82 25 84 26 85 27 86
REMARK H PARENT 76 28 54 39 19 76 29 83
REMARK Flexibility Score: inf
ROOT
ATOM      1  C   UNL     1       2.828   2.480   2.673  1.00  0.00     0.188 C 
ENDROOT
BRANCH   1   2
ATOM      2  O   UNL     1       1.612   2.504   1.946  1.00  0.00    -0.377 OA
BRANCH   2   3
ATOM      3  C   UNL     1       1.211   1.179   1.611  1.00  0.00     0.188 C 
BRANCH   3   4
ATOM      4  C   UNL     1       1.828   0.762   0.283  1.00  0.00     0.188 C 
BRANCH   4   5
ATOM      5  O   UNL     1       3.254   0.617   0.373  1.00  0.00    -0.376 OA
BRANCH   5   6
ATOM      6  C   UNL     1       3.998   1.494  -0.479  1.00  0.00     0.202 C 
BRANCH   6   7
ATOM      7  C   UNL     1       4.220   0.933  -1.891  1.00  0.00     0.261 C 
BRANCH   7   8
ATOM      8  O   UNL     1       3.028   0.360  -2.451  1.00  0.00    -0.460 OA
BRANCH   8   9
ATOM      9  C   UNL     1       2.467  -0.845  -2.188  1.00  0.00     0.338 C 
ATOM     10  O   UNL     1       1.323  -1.042  -2.600  1.00  0.00    -0.246 OA
BRANCH   9  11
ATOM     11  C   UNL     1       3.140  -1.971  -1.450  1.00  0.00     0.060 A 
ATOM     12  C   UNL     1       4.287  -1.886  -0.653  1.00  0.00     0.016 A 
ATOM     13  C   UNL     1       2.522  -3.232  -1.562  1.00  0.00     0.016 A 
ATOM     14  C   UNL     1       4.864  -3.014  -0.078  1.00  0.00     0.010 A 
ATOM     15  C   UNL     1       3.088  -4.372  -0.987  1.00  0.00     0.010 A 
ATOM     16  C   UNL     1       4.297  -4.266  -0.294  1.00  0.00    -0.014 A 
BRANCH  16  17
ATOM     17  C   UNL     1       5.118  -5.457  -0.019  1.00  0.00     0.031 A 
ATOM     18  C   UNL     1       5.871  -6.046  -1.170  1.00  0.00     0.074 A 
ATOM     19  C   UNL     1       5.278  -5.916   1.231  1.00  0.00     0.049 A 
ATOM     20  N   UNL     1       6.623  -7.111  -1.208  1.00  0.00    -0.248 NA
ATOM     21  C   UNL     1       5.777  -5.324  -2.453  1.00  0.00     0.031 C 
ATOM     22  C   UNL     1       4.704  -5.300   2.420  1.00  0.00     0.029 A 
ATOM     23  N   UNL     1       5.986  -6.980   1.715  1.00  0.00    -0.354 N 
ATOM     24  C   UNL     1       7.068  -7.201  -2.519  1.00  0.00     0.074 A 
ATOM     25  C   UNL     1       6.503  -6.091  -3.249  1.00  0.00     0.031 C 
ATOM     26  C   UNL     1       5.080  -5.992   3.506  1.00  0.00     0.029 A 
ATOM     27  C   UNL     1       5.879  -7.131   3.077  1.00  0.00     0.049 A 
ATOM     28  H   UNL     1       6.519  -7.580   1.145  1.00  0.00     0.167 HD
ATOM     29  C   UNL     1       7.870  -8.143  -3.061  1.00  0.00     0.031 A 
ATOM     30  C   UNL     1       6.354  -8.106   3.873  1.00  0.00     0.031 A 
ATOM     31  C   UNL     1       8.389  -9.252  -2.312  1.00  0.00     0.049 A 
ATOM     32  C   UNL     1       7.141  -9.210   3.223  1.00  0.00     0.074 A 
ATOM     33  C   UNL     1       9.147 -10.318  -2.754  1.00  0.00     0.029 A 
ATOM     34  N   UNL     1       8.190  -9.431  -0.949  1.00  0.00    -0.354 N 
ATOM     35  N   UNL     1       7.506  -9.333   1.967  1.00  0.00    -0.248 NA
ATOM     36  C   UNL     1       7.574 -10.312   4.089  1.00  0.00     0.031 C 
ATOM     37  C   UNL     1       9.360 -11.172  -1.667  1.00  0.00     0.029 A 
ATOM     38  C   UNL     1       8.792 -10.604  -0.535  1.00  0.00     0.049 A 
ATOM     39  H   UNL     1       7.693  -8.814  -0.364  1.00  0.00     0.167 HD
ATOM     40  C   UNL     1       8.227 -10.515   1.894  1.00  0.00     0.074 A 
ATOM     41  C   UNL     1       8.266 -11.059   3.239  1.00  0.00     0.031 C 
ATOM     42  C   UNL     1       8.803 -11.104   0.817  1.00  0.00     0.031 A 
BRANCH  29  43
ATOM     43  C   UNL     1       8.127  -8.044  -4.537  1.00  0.00    -0.014 A 
ATOM     44  C   UNL     1       8.937  -7.034  -5.079  1.00  0.00     0.009 A 
ATOM     45  C   UNL     1       7.495  -8.948  -5.405  1.00  0.00     0.009 A 
ATOM     46  C   UNL     1       9.073  -6.906  -6.464  1.00  0.00     0.001 A 
ATOM     47  C   UNL     1       7.656  -8.835  -6.786  1.00  0.00     0.001 A 
ATOM     48  C   UNL     1       8.435  -7.807  -7.315  1.00  0.00     0.000 A 
ENDBRANCH  29  43
BRANCH  30  49
ATOM     49  C   UNL     1       6.052  -8.115   5.330  1.00  0.00    -0.014 A 
ATOM     50  C   UNL     1       7.074  -7.987   6.283  1.00  0.00     0.009 A 
ATOM     51  C   UNL     1       4.730  -8.271   5.780  1.00  0.00     0.009 A 
ATOM     52  C   UNL     1       6.782  -8.043   7.650  1.00  0.00     0.001 A 
ATOM     53  C   UNL     1       4.436  -8.295   7.146  1.00  0.00     0.001 A 
ATOM     54  C   UNL     1       5.464  -8.194   8.080  1.00  0.00     0.000 A 
ENDBRANCH  30  49
BRANCH  42  55
ATOM     55  C   UNL     1       9.551 -12.380   1.067  1.00  0.00    -0.014 A 
ATOM     56  C   UNL     1       8.876 -13.579   1.337  1.00  0.00     0.009 A 
ATOM     57  C   UNL     1      10.951 -12.385   0.974  1.00  0.00     0.009 A 
ATOM     58  C   UNL     1       9.595 -14.757   1.540  1.00  0.00     0.001 A 
ATOM     59  C   UNL     1      11.664 -13.570   1.145  1.00  0.00     0.001 A 
ATOM     60  C   UNL     1      10.986 -14.753   1.437  1.00  0.00     0.000 A 
ENDBRANCH  42  55
ENDBRANCH  16  17
ENDBRANCH   9  11
ENDBRANCH   8   9
ENDBRANCH   7   8
ENDBRANCH   6   7
ENDBRANCH   5   6
ENDBRANCH   4   5
ENDBRANCH   3   4
ENDBRANCH   2   3
ENDBRANCH   1   2
BRANCH   1  61
ATOM     61  C   UNL     1       2.581   2.421   4.172  1.00  0.00     0.188 C 
BRANCH  61  62
ATOM     62  O   UNL     1       1.988   1.250   4.696  1.00  0.00    -0.376 OA
BRANCH  62  63
ATOM     63  C   UNL     1       1.695   1.324   6.096  1.00  0.00     0.202 C 
BRANCH  63  64
ATOM     64  C   UNL     1       2.860   1.534   7.092  1.00  0.00     0.261 C 
BRANCH  64  65
ATOM     65  O   UNL     1       3.701   2.641   6.730  1.00  0.00    -0.461 OA
BRANCH  65  66
ATOM     66  C   UNL     1       5.003   2.355   6.432  1.00  0.00     0.331 C 
ATOM     67  O   UNL     1       5.601   1.349   6.805  1.00  0.00    -0.249 OA
BRANCH  66  68
ATOM     68  C   UNL     1       5.657   3.466   5.544  1.00  0.00     0.138 C 
ATOM     69  C   UNL     1       4.666   4.598   5.109  1.00  0.00     0.040 C 
ATOM     70  C   UNL     1       6.755   4.086   6.461  1.00  0.00     0.040 C 
ATOM     71  C   UNL     1       5.260   5.946   4.722  1.00  0.00     0.003 C 
ATOM     72  C   UNL     1       7.292   5.452   6.023  1.00  0.00     0.003 C 
ATOM     73  C   UNL     1       6.173   6.458   5.809  1.00  0.00     0.000 C 
BRANCH  68  74
ATOM     74  N   UNL     1       6.315   2.911   4.311  1.00  0.00    -0.333 N 
ATOM     75  C   UNL     1       6.464   1.703   3.657  1.00  0.00     0.289 C 
ATOM     76  H   UNL     1       6.780   3.626   3.820  1.00  0.00     0.165 HD
ATOM     77  O   UNL     1       7.288   1.761   2.733  1.00  0.00    -0.266 OA
BRANCH  75  78
ATOM     78  C   UNL     1       5.849   0.421   3.967  1.00  0.00     0.214 A 
ATOM     79  N   UNL     1       4.571   0.059   4.021  1.00  0.00    -0.207 NA
ATOM     80  N   UNL     1       6.595  -0.726   3.923  1.00  0.00    -0.255 N 
ATOM     81  C   UNL     1       4.614  -1.328   4.078  1.00  0.00     0.154 A 
ATOM     82  N   UNL     1       5.854  -1.830   4.053  1.00  0.00    -0.158 NA
ATOM     83  H   UNL     1       7.573  -0.736   3.807  1.00  0.00     0.192 HD
BRANCH  81  84
ATOM     84  C   UNL     1       3.448  -2.323   4.176  1.00  0.00     0.060 C 
ATOM     85  C   UNL     1       2.015  -1.922   4.383  1.00  0.00     0.012 C 
ATOM     86  C   UNL     1       2.430  -2.456   3.058  1.00  0.00     0.012 C 
ENDBRANCH  81  84
ENDBRANCH  75  78
ENDBRANCH  68  74
ENDBRANCH  66  68
ENDBRANCH  65  66
ENDBRANCH  64  65
ENDBRANCH  63  64
ENDBRANCH  62  63
ENDBRANCH  61  62
ENDBRANCH   1  61
TORSDOF 23
