REMARK SMILES Cc1cc(C(=O)OCCOCCOCCOCCOC(=O)c2ccc(-c3c4nc(c(-c5ccccc5)c5ccc([nH]5)c(-c5ccccc5)c5nc(c(-c6ccccc6)c6ccc3[nH]6)C=C5)C=C4)cc2)ccc1NC(=O)N1C[C@@H](C)[C@H](C)C1
REMARK SMILES IDX 14 1 13 2 12 3 11 4 10 5 9 6 8 7 7 8 5 9 6 10 4 11 1 12 2 13
REMARK SMILES IDX 3 14 72 15 71 16 70 17 73 18 74 19 75 21 76 22 77 23 82 24
REMARK SMILES IDX 78 25 80 26 79 27 81 28 15 29 16 30 17 31 18 32 19 33 20 34
REMARK SMILES IDX 21 35 22 36 23 37 69 38 24 39 68 40 25 41 26 42 27 43 62 44
REMARK SMILES IDX 28 45 67 46 61 47 63 48 29 49 66 50 60 51 59 52 30 54 52 55
REMARK SMILES IDX 37 56 51 57 38 58 41 59 50 60 64 61 39 62 40 63 49 65 65 66
REMARK SMILES IDX 42 67 31 68 32 69 36 70 33 71 35 72 34 73 53 74 54 75 58 76
REMARK SMILES IDX 55 77 57 78 56 79 43 80 44 81 48 82 45 83 47 84 46 85
REMARK H PARENT 73 20 63 53 41 64
REMARK Flexibility Score: inf
ROOT
ATOM      1  C   UNL     1      -2.752  -1.930  -3.039  1.00  0.00     0.188 C 
ENDROOT
BRANCH   1   2
ATOM      2  O   UNL     1      -1.658  -1.088  -2.668  1.00  0.00    -0.377 OA
BRANCH   2   3
ATOM      3  C   UNL     1      -0.347  -1.480  -3.064  1.00  0.00     0.188 C 
BRANCH   3   4
ATOM      4  C   UNL     1       0.453  -2.366  -2.101  1.00  0.00     0.188 C 
BRANCH   4   5
ATOM      5  O   UNL     1       0.199  -3.766  -2.107  1.00  0.00    -0.376 OA
BRANCH   5   6
ATOM      6  C   UNL     1      -0.647  -4.255  -1.064  1.00  0.00     0.202 C 
BRANCH   6   7
ATOM      7  C   UNL     1      -0.146  -4.107   0.374  1.00  0.00     0.261 C 
BRANCH   7   8
ATOM      8  O   UNL     1      -0.438  -2.781   0.819  1.00  0.00    -0.460 OA
BRANCH   8   9
ATOM      9  C   UNL     1       0.518  -2.192   1.561  1.00  0.00     0.338 C 
ATOM     10  O   UNL     1       1.365  -2.732   2.244  1.00  0.00    -0.246 OA
BRANCH   9  11
ATOM     11  C   UNL     1       0.572  -0.784   1.115  1.00  0.00     0.060 A 
ATOM     12  C   UNL     1       3.424   1.414   0.027  1.00  0.00     0.046 C 
ATOM     13  C   UNL     1       2.014   1.033   0.391  1.00  0.00    -0.027 A 
ATOM     14  C   UNL     1       1.843  -0.231   0.973  1.00  0.00     0.021 A 
ATOM     15  C   UNL     1       0.872   1.776   0.033  1.00  0.00     0.045 A 
ATOM     16  C   UNL     1      -0.359   1.125  -0.014  1.00  0.00     0.027 A 
ATOM     17  C   UNL     1      -0.530  -0.124   0.573  1.00  0.00     0.018 A 
BRANCH  15  18
ATOM     18  N   UNL     1       0.998   3.141  -0.256  1.00  0.00    -0.308 N 
ATOM     19  C   UNL     1       0.113   4.148  -0.458  1.00  0.00     0.321 C 
ATOM     20  H   UNL     1       1.935   3.434  -0.330  1.00  0.00     0.171 HD
ATOM     21  O   UNL     1       0.565   5.184  -0.955  1.00  0.00    -0.248 OA
ATOM     22  N   UNL     1      -1.209   4.029  -0.137  1.00  0.00    -0.324 N 
ATOM     23  C   UNL     1      -2.176   4.848  -0.849  1.00  0.00     0.125 C 
ATOM     24  C   UNL     1      -1.748   3.630   1.167  1.00  0.00     0.125 C 
ATOM     25  C   UNL     1      -3.244   5.199   0.181  1.00  0.00     0.010 C 
ATOM     26  C   UNL     1      -3.243   3.962   1.090  1.00  0.00     0.010 C 
ATOM     27  C   UNL     1      -4.584   5.505  -0.465  1.00  0.00     0.010 C 
ATOM     28  C   UNL     1      -3.881   4.190   2.454  1.00  0.00     0.010 C 
ENDBRANCH  15  18
ENDBRANCH   9  11
ENDBRANCH   8   9
ENDBRANCH   7   8
ENDBRANCH   6   7
ENDBRANCH   5   6
ENDBRANCH   4   5
ENDBRANCH   3   4
ENDBRANCH   2   3
ENDBRANCH   1   2
BRANCH   1  29
ATOM     29  C   UNL     1      -2.755  -2.456  -4.474  1.00  0.00     0.188 C 
BRANCH  29  30
ATOM     30  O   UNL     1      -1.917  -3.613  -4.535  1.00  0.00    -0.376 OA
BRANCH  30  31
ATOM     31  C   UNL     1      -1.263  -3.836  -5.782  1.00  0.00     0.202 C 
BRANCH  31  32
ATOM     32  C   UNL     1      -2.216  -4.180  -6.932  1.00  0.00     0.261 C 
BRANCH  32  33
ATOM     33  O   UNL     1      -2.875  -5.428  -6.651  1.00  0.00    -0.460 OA
BRANCH  33  34
ATOM     34  C   UNL     1      -4.172  -5.314  -6.264  1.00  0.00     0.338 C 
ATOM     35  O   UNL     1      -5.033  -4.680  -6.850  1.00  0.00    -0.246 OA
BRANCH  34  36
ATOM     36  C   UNL     1      -4.328  -5.851  -4.884  1.00  0.00     0.060 A 
ATOM     37  C   UNL     1      -5.519  -5.613  -4.179  1.00  0.00     0.016 A 
ATOM     38  C   UNL     1      -3.203  -6.300  -4.202  1.00  0.00     0.016 A 
ATOM     39  C   UNL     1      -5.524  -5.655  -2.778  1.00  0.00     0.010 A 
ATOM     40  C   UNL     1      -3.192  -6.244  -2.823  1.00  0.00     0.010 A 
ATOM     41  C   UNL     1      -4.325  -5.861  -2.093  1.00  0.00    -0.014 A 
BRANCH  41  42
ATOM     42  C   UNL     1      -4.081  -5.476  -0.688  1.00  0.00     0.031 A 
ATOM     43  C   UNL     1      -3.359  -6.389   0.255  1.00  0.00     0.074 A 
ATOM     44  C   UNL     1      -4.160  -4.152  -0.383  1.00  0.00     0.049 A 
ATOM     45  N   UNL     1      -3.139  -6.121   1.501  1.00  0.00    -0.248 NA
ATOM     46  C   UNL     1      -2.805  -7.695  -0.115  1.00  0.00     0.031 C 
ATOM     47  C   UNL     1      -3.447  -3.452   0.687  1.00  0.00     0.029 A 
ATOM     48  N   UNL     1      -4.906  -3.126  -0.963  1.00  0.00    -0.354 N 
ATOM     49  C   UNL     1      -2.120  -6.940   1.936  1.00  0.00     0.074 A 
ATOM     50  C   UNL     1      -2.056  -7.992   0.954  1.00  0.00     0.031 C 
ATOM     51  C   UNL     1      -3.883  -2.191   0.794  1.00  0.00     0.029 A 
ATOM     52  C   UNL     1      -5.078  -2.113  -0.010  1.00  0.00     0.049 A 
ATOM     53  H   UNL     1      -5.253  -3.115  -1.885  1.00  0.00     0.167 HD
ATOM     54  C   UNL     1      -1.324  -6.535   2.972  1.00  0.00     0.031 A 
ATOM     55  C   UNL     1      -6.294  -1.749   0.492  1.00  0.00     0.031 A 
ATOM     56  C   UNL     1      -1.824  -5.314   3.630  1.00  0.00     0.049 A 
ATOM     57  C   UNL     1      -6.370  -2.083   1.973  1.00  0.00     0.074 A 
ATOM     58  C   UNL     1      -1.256  -4.099   3.974  1.00  0.00     0.029 A 
ATOM     59  N   UNL     1      -3.188  -5.181   3.893  1.00  0.00    -0.354 N 
ATOM     60  N   UNL     1      -5.589  -2.978   2.527  1.00  0.00    -0.248 NA
ATOM     61  C   UNL     1      -7.205  -1.409   2.964  1.00  0.00     0.031 C 
ATOM     62  C   UNL     1      -2.307  -3.199   4.310  1.00  0.00     0.029 A 
ATOM     63  C   UNL     1      -3.506  -3.893   4.261  1.00  0.00     0.049 A 
ATOM     64  H   UNL     1      -3.840  -5.915   3.824  1.00  0.00     0.167 HD
ATOM     65  C   UNL     1      -5.690  -2.910   3.884  1.00  0.00     0.074 A 
ATOM     66  C   UNL     1      -6.776  -1.973   4.113  1.00  0.00     0.031 C 
ATOM     67  C   UNL     1      -4.849  -3.573   4.727  1.00  0.00     0.031 A 
BRANCH  54  68
ATOM     68  C   UNL     1       0.057  -7.112   3.270  1.00  0.00    -0.014 A 
ATOM     69  C   UNL     1       0.748  -6.713   4.434  1.00  0.00     0.009 A 
ATOM     70  C   UNL     1       0.780  -7.956   2.404  1.00  0.00     0.009 A 
ATOM     71  C   UNL     1       2.063  -7.126   4.710  1.00  0.00     0.001 A 
ATOM     72  C   UNL     1       2.078  -8.411   2.696  1.00  0.00     0.001 A 
ATOM     73  C   UNL     1       2.725  -7.988   3.847  1.00  0.00     0.000 A 
ENDBRANCH  54  68
BRANCH  55  74
ATOM     74  C   UNL     1      -7.350  -1.709  -0.558  1.00  0.00    -0.014 A 
ATOM     75  C   UNL     1      -7.219  -0.644  -1.479  1.00  0.00     0.009 A 
ATOM     76  C   UNL     1      -7.973  -2.890  -0.995  1.00  0.00     0.009 A 
ATOM     77  C   UNL     1      -7.486  -0.834  -2.838  1.00  0.00     0.001 A 
ATOM     78  C   UNL     1      -8.248  -3.069  -2.363  1.00  0.00     0.001 A 
ATOM     79  C   UNL     1      -7.951  -2.065  -3.286  1.00  0.00     0.000 A 
ENDBRANCH  55  74
BRANCH  67  80
ATOM     80  C   UNL     1      -5.204  -3.998   6.127  1.00  0.00    -0.014 A 
ATOM     81  C   UNL     1      -6.527  -4.154   6.556  1.00  0.00     0.009 A 
ATOM     82  C   UNL     1      -4.191  -4.522   6.963  1.00  0.00     0.009 A 
ATOM     83  C   UNL     1      -6.821  -4.800   7.761  1.00  0.00     0.001 A 
ATOM     84  C   UNL     1      -4.483  -5.204   8.143  1.00  0.00     0.001 A 
ATOM     85  C   UNL     1      -5.803  -5.341   8.543  1.00  0.00     0.000 A 
ENDBRANCH  67  80
ENDBRANCH  41  42
ENDBRANCH  34  36
ENDBRANCH  33  34
ENDBRANCH  32  33
ENDBRANCH  31  32
ENDBRANCH  30  31
ENDBRANCH  29  30
ENDBRANCH   1  29
TORSDOF 21
