REMARK SMILES CC(C)CCc1cc2c(cc1Cl)C=C(C(=O)OCCOCCOCCOCCOC(=O)c1ccc(-c3c4nc(c(-c5ccccc5)c5ccc([nH]5)c(-c5ccccc5)c5nc(c(-c6ccccc6)c6ccc3[nH]6)C=C5)C=C4)cc1)[C@@H](C(F)(F)F)O2
REMARK SMILES IDX 22 1 21 2 20 3 19 4 18 5 17 6 15 7 16 8 14 9 6 10 7 11 11 12
REMARK SMILES IDX 8 13 10 14 12 15 9 16 85 17 13 18 80 19 5 20 4 21 2 22 1 23
REMARK SMILES IDX 3 24 81 25 82 26 83 27 84 28 23 29 24 30 25 31 26 32 27 33
REMARK SMILES IDX 28 34 29 35 30 36 31 37 32 38 33 39 79 40 34 41 78 42 35 43
REMARK SMILES IDX 36 44 37 45 72 46 38 47 77 48 71 49 73 50 39 51 76 52 70 53
REMARK SMILES IDX 69 54 40 56 62 57 47 58 61 59 48 60 51 61 60 62 74 63 49 64
REMARK SMILES IDX 50 65 59 67 75 68 52 69 41 70 42 71 46 72 43 73 45 74 44 75
REMARK SMILES IDX 63 76 64 77 68 78 65 79 67 80 66 81 53 82 54 83 58 84 55 85
REMARK SMILES IDX 57 86 56 87
REMARK H PARENT 73 55 51 66
REMARK Flexibility Score: inf
ROOT
ATOM      1  C   UNL     1       1.468   8.774  -2.978  1.00  0.00     0.188 C 
ENDROOT
BRANCH   1   2
ATOM      2  C   UNL     1       1.567   8.827  -4.513  1.00  0.00     0.188 C 
BRANCH   2   3
ATOM      3  O   UNL     1       1.416  10.143  -5.039  1.00  0.00    -0.376 OA
BRANCH   3   4
ATOM      4  C   UNL     1       0.173  10.465  -5.650  1.00  0.00     0.202 C 
BRANCH   4   5
ATOM      5  C   UNL     1      -1.054  10.570  -4.728  1.00  0.00     0.261 C 
BRANCH   5   6
ATOM      6  O   UNL     1      -1.325   9.400  -3.942  1.00  0.00    -0.460 OA
BRANCH   6   7
ATOM      7  C   UNL     1      -1.693   8.295  -4.614  1.00  0.00     0.338 C 
ATOM      8  O   UNL     1      -1.922   8.214  -5.810  1.00  0.00    -0.246 OA
BRANCH   7   9
ATOM      9  C   UNL     1      -1.599   7.138  -3.702  1.00  0.00     0.087 C 
ATOM     10  C   UNL     1      -1.199   2.460  -1.887  1.00  0.00    -0.026 A 
ATOM     11  C   UNL     1      -1.551   3.720  -1.333  1.00  0.00     0.052 A 
ATOM     12  C   UNL     1      -0.705   2.457  -3.203  1.00  0.00     0.045 A 
ATOM     13  C   UNL     1      -1.467   4.904  -2.072  1.00  0.00     0.128 A 
ATOM     14  C   UNL     1      -0.553   3.655  -3.911  1.00  0.00     0.032 A 
ATOM     15  Cl  UNL     1      -0.337   1.048  -4.128  1.00  0.00    -0.084 Cl
ATOM     16  C   UNL     1      -0.978   4.865  -3.370  1.00  0.00     0.019 A 
ATOM     17  O   UNL     1      -1.905   6.048  -1.468  1.00  0.00    -0.475 OA
ATOM     18  C   UNL     1      -1.008   6.048  -4.203  1.00  0.00     0.027 C 
ATOM     19  C   UNL     1      -2.119   7.235  -2.291  1.00  0.00     0.316 C 
BRANCH  10  20
ATOM     20  C   UNL     1      -1.530   1.259  -1.016  1.00  0.00     0.037 C 
BRANCH  20  21
ATOM     21  C   UNL     1      -0.954  -0.138  -1.278  1.00  0.00     0.008 C 
BRANCH  21  22
ATOM     22  C   UNL     1       0.579  -0.247  -1.167  1.00  0.00    -0.017 C 
ATOM     23  C   UNL     1       1.042  -0.231   0.289  1.00  0.00     0.007 C 
ATOM     24  C   UNL     1       1.061  -1.529  -1.851  1.00  0.00     0.007 C 
ENDBRANCH  21  22
ENDBRANCH  20  21
ENDBRANCH  10  20
BRANCH  19  25
ATOM     25  C   UNL     1      -3.608   7.603  -2.260  1.00  0.00     0.430 C 
ATOM     26  F   UNL     1      -4.077   7.662  -0.991  1.00  0.00    -0.167 F 
ATOM     27  F   UNL     1      -3.838   8.816  -2.815  1.00  0.00    -0.167 F 
ATOM     28  F   UNL     1      -4.364   6.704  -2.931  1.00  0.00    -0.167 F 
ENDBRANCH  19  25
ENDBRANCH   7   9
ENDBRANCH   6   7
ENDBRANCH   5   6
ENDBRANCH   4   5
ENDBRANCH   3   4
ENDBRANCH   2   3
ENDBRANCH   1   2
BRANCH   1  29
ATOM     29  O   UNL     1       0.950   9.963  -2.405  1.00  0.00    -0.377 OA
BRANCH  29  30
ATOM     30  C   UNL     1       1.819  11.090  -2.298  1.00  0.00     0.188 C 
BRANCH  30  31
ATOM     31  C   UNL     1       3.167  11.178  -3.054  1.00  0.00     0.188 C 
BRANCH  31  32
ATOM     32  O   UNL     1       3.915   9.966  -3.064  1.00  0.00    -0.376 OA
BRANCH  32  33
ATOM     33  C   UNL     1       5.087   9.928  -2.261  1.00  0.00     0.202 C 
BRANCH  33  34
ATOM     34  C   UNL     1       4.809   9.751  -0.763  1.00  0.00     0.261 C 
BRANCH  34  35
ATOM     35  O   UNL     1       4.061  10.816  -0.155  1.00  0.00    -0.460 OA
BRANCH  35  36
ATOM     36  C   UNL     1       4.587  12.060  -0.205  1.00  0.00     0.338 C 
ATOM     37  O   UNL     1       5.674  12.385  -0.646  1.00  0.00    -0.246 OA
BRANCH  36  38
ATOM     38  C   UNL     1       3.518  13.008   0.178  1.00  0.00     0.060 A 
ATOM     39  C   UNL     1       2.769  12.800   1.339  1.00  0.00     0.016 A 
ATOM     40  C   UNL     1       3.243  14.098  -0.658  1.00  0.00     0.016 A 
ATOM     41  C   UNL     1       1.775  13.714   1.690  1.00  0.00     0.010 A 
ATOM     42  C   UNL     1       2.243  15.009  -0.309  1.00  0.00     0.010 A 
ATOM     43  C   UNL     1       1.528  14.842   0.886  1.00  0.00    -0.014 A 
BRANCH  43  44
ATOM     44  C   UNL     1       0.723  15.960   1.434  1.00  0.00     0.031 A 
ATOM     45  C   UNL     1      -0.698  16.210   1.040  1.00  0.00     0.074 A 
ATOM     46  C   UNL     1       1.332  16.770   2.321  1.00  0.00     0.049 A 
ATOM     47  N   UNL     1      -1.538  17.081   1.541  1.00  0.00    -0.248 NA
ATOM     48  C   UNL     1      -1.250  15.396  -0.052  1.00  0.00     0.031 C 
ATOM     49  C   UNL     1       2.728  16.640   2.747  1.00  0.00     0.029 A 
ATOM     50  N   UNL     1       0.863  17.845   3.031  1.00  0.00    -0.354 N 
ATOM     51  C   UNL     1      -2.726  16.910   0.844  1.00  0.00     0.074 A 
ATOM     52  C   UNL     1      -2.484  15.881  -0.147  1.00  0.00     0.031 C 
ATOM     53  C   UNL     1       2.991  17.575   3.670  1.00  0.00     0.029 A 
ATOM     54  C   UNL     1       1.796  18.384   3.882  1.00  0.00     0.049 A 
ATOM     55  H   UNL     1      -0.052  18.195   2.939  1.00  0.00     0.167 HD
ATOM     56  C   UNL     1      -3.908  17.547   1.032  1.00  0.00     0.031 A 
ATOM     57  C   UNL     1       1.705  19.407   4.751  1.00  0.00     0.031 A 
ATOM     58  C   UNL     1      -4.126  18.590   2.005  1.00  0.00     0.049 A 
ATOM     59  C   UNL     1       0.392  20.113   4.915  1.00  0.00     0.074 A 
ATOM     60  C   UNL     1      -5.308  19.248   2.306  1.00  0.00     0.029 A 
ATOM     61  N   UNL     1      -3.148  19.142   2.819  1.00  0.00    -0.354 N 
ATOM     62  N   UNL     1      -0.752  19.869   4.324  1.00  0.00    -0.248 NA
ATOM     63  C   UNL     1       0.350  21.221   5.879  1.00  0.00     0.031 C 
ATOM     64  C   UNL     1      -5.030  20.246   3.243  1.00  0.00     0.029 A 
ATOM     65  C   UNL     1      -3.691  20.161   3.587  1.00  0.00     0.049 A 
ATOM     66  H   UNL     1      -2.207  18.853   2.847  1.00  0.00     0.167 HD
ATOM     67  C   UNL     1      -1.653  20.784   4.850  1.00  0.00     0.074 A 
ATOM     68  C   UNL     1      -0.929  21.567   5.831  1.00  0.00     0.031 C 
ATOM     69  C   UNL     1      -2.962  20.957   4.543  1.00  0.00     0.031 A 
BRANCH  56  70
ATOM     70  C   UNL     1      -5.083  17.140   0.183  1.00  0.00    -0.014 A 
ATOM     71  C   UNL     1      -5.642  18.053  -0.726  1.00  0.00     0.009 A 
ATOM     72  C   UNL     1      -5.724  15.909   0.386  1.00  0.00     0.009 A 
ATOM     73  C   UNL     1      -6.829  17.751  -1.398  1.00  0.00     0.001 A 
ATOM     74  C   UNL     1      -6.896  15.597  -0.308  1.00  0.00     0.001 A 
ATOM     75  C   UNL     1      -7.454  16.523  -1.190  1.00  0.00     0.000 A 
ENDBRANCH  56  70
BRANCH  57  76
ATOM     76  C   UNL     1       2.894  19.776   5.560  1.00  0.00    -0.014 A 
ATOM     77  C   UNL     1       4.027  20.337   4.948  1.00  0.00     0.009 A 
ATOM     78  C   UNL     1       2.931  19.501   6.934  1.00  0.00     0.009 A 
ATOM     79  C   UNL     1       5.182  20.590   5.691  1.00  0.00     0.001 A 
ATOM     80  C   UNL     1       4.076  19.785   7.681  1.00  0.00     0.001 A 
ATOM     81  C   UNL     1       5.204  20.319   7.057  1.00  0.00     0.000 A 
ENDBRANCH  57  76
BRANCH  69  82
ATOM     82  C   UNL     1      -3.707  22.050   5.261  1.00  0.00    -0.014 A 
ATOM     83  C   UNL     1      -4.739  21.727   6.156  1.00  0.00     0.009 A 
ATOM     84  C   UNL     1      -3.439  23.403   4.996  1.00  0.00     0.009 A 
ATOM     85  C   UNL     1      -5.496  22.733   6.760  1.00  0.00     0.001 A 
ATOM     86  C   UNL     1      -4.175  24.407   5.628  1.00  0.00     0.001 A 
ATOM     87  C   UNL     1      -5.209  24.072   6.502  1.00  0.00     0.000 A 
ENDBRANCH  69  82
ENDBRANCH  43  44
ENDBRANCH  36  38
ENDBRANCH  35  36
ENDBRANCH  34  35
ENDBRANCH  33  34
ENDBRANCH  32  33
ENDBRANCH  31  32
ENDBRANCH  30  31
ENDBRANCH  29  30
ENDBRANCH   1  29
TORSDOF 24
