REMARK SMILES Cc1cc(/C=C2\C(=O)N(Cc3ccco3)C(=O)N=C2OCCOCCOCCOCCOC(=O)c2ccc(-c3c4nc(c(-c5ccccc5)c5ccc([nH]5)c(-c5ccccc5)c5nc(c(-c6ccccc6)c6ccc3[nH]6)C=C5)C=C4)cc2)c(C)n1-c1ccc(Cl)c(C(=O)[O-])c1
REMARK SMILES IDX 26 1 25 2 24 3 23 4 22 5 21 6 20 7 19 8 5 9 6 10 7 11 8 12
REMARK SMILES IDX 9 13 18 14 16 15 17 16 4 17 1 18 2 19 3 20 85 21 83 22 84 23
REMARK SMILES IDX 86 24 87 25 95 26 88 27 91 28 89 29 90 30 92 31 93 32 94 33
REMARK SMILES IDX 10 34 11 35 12 36 15 37 13 38 14 39 27 40 28 41 29 42 30 43
REMARK SMILES IDX 31 44 32 45 33 46 34 47 35 48 36 49 82 50 37 51 81 52 38 53
REMARK SMILES IDX 39 54 40 55 75 56 41 57 80 58 74 59 76 60 42 61 79 62 73 63
REMARK SMILES IDX 72 64 43 66 65 67 50 68 64 69 51 70 54 71 63 72 77 73 52 74
REMARK SMILES IDX 53 75 62 77 78 78 55 79 44 80 45 81 49 82 46 83 48 84 47 85
REMARK SMILES IDX 66 86 67 87 71 88 68 89 70 90 69 91 56 92 57 93 61 94 58 95
REMARK SMILES IDX 60 96 59 97
REMARK H PARENT 76 65 54 76
REMARK Flexibility Score: inf
ROOT
ATOM      1  O   UNL     1      -1.769  -7.447   0.370  1.00  0.00    -0.377 OA
ENDROOT
BRANCH   1   2
ATOM      2  C   UNL     1      -1.698  -6.927  -0.957  1.00  0.00     0.188 C 
BRANCH   2   3
ATOM      3  C   UNL     1      -2.031  -7.789  -2.188  1.00  0.00     0.188 C 
BRANCH   3   4
ATOM      4  O   UNL     1      -1.425  -9.071  -2.158  1.00  0.00    -0.376 OA
BRANCH   4   5
ATOM      5  C   UNL     1      -0.312  -9.332  -3.000  1.00  0.00     0.201 C 
BRANCH   5   6
ATOM      6  C   UNL     1       1.037  -8.691  -2.588  1.00  0.00     0.260 C 
BRANCH   6   7
ATOM      7  O   UNL     1       1.148  -7.241  -2.560  1.00  0.00    -0.475 OA
BRANCH   7   8
ATOM      8  C   UNL     1       0.692  -6.548  -3.622  1.00  0.00     0.231 C 
ATOM      9  C   UNL     1       0.686  -4.462  -2.249  1.00  0.00     0.029 C 
ATOM     10  C   UNL     1       0.593  -5.087  -3.442  1.00  0.00     0.103 C 
ATOM     11  C   UNL     1       0.248  -4.416  -4.718  1.00  0.00     0.267 C 
ATOM     12  O   UNL     1       0.725  -3.342  -5.058  1.00  0.00    -0.268 OA
ATOM     13  N   UNL     1      -0.662  -5.152  -5.442  1.00  0.00    -0.250 N 
ATOM     14  N   UNL     1       0.279  -7.169  -4.664  1.00  0.00    -0.156 NA
ATOM     15  C   UNL     1      -0.635  -6.533  -5.455  1.00  0.00     0.354 C 
ATOM     16  O   UNL     1      -1.468  -7.194  -6.058  1.00  0.00    -0.245 OA
BRANCH   9  17
ATOM     17  C   UNL     1       0.425  -3.092  -1.878  1.00  0.00    -0.003 A 
ATOM     18  C   UNL     1       1.028  -0.047   0.195  1.00  0.00     0.065 C 
ATOM     19  C   UNL     1       0.638  -1.115  -0.770  1.00  0.00     0.020 A 
ATOM     20  C   UNL     1       1.082  -2.425  -0.812  1.00  0.00     0.031 A 
ATOM     21  N   UNL     1      -0.312  -0.963  -1.764  1.00  0.00    -0.318 N 
ATOM     22  C   UNL     1      -0.533  -2.208  -2.363  1.00  0.00     0.027 A 
ATOM     23  C   UNL     1      -1.559  -2.380  -3.428  1.00  0.00     0.065 C 
BRANCH  21  24
ATOM     24  C   UNL     1      -0.885   0.260  -2.212  1.00  0.00     0.046 A 
ATOM     25  C   UNL     1      -2.271   0.403  -2.272  1.00  0.00     0.028 A 
ATOM     26  C   UNL     1      -0.050   1.246  -2.754  1.00  0.00     0.038 A 
ATOM     27  C   UNL     1      -2.824   1.482  -2.958  1.00  0.00     0.023 A 
ATOM     28  C   UNL     1      -0.603   2.352  -3.435  1.00  0.00     0.018 A 
ATOM     29  C   UNL     1      -2.000   2.445  -3.557  1.00  0.00     0.050 A 
ATOM     30  Cl  UNL     1      -2.820   3.683  -4.444  1.00  0.00    -0.084 Cl
BRANCH  28  31
ATOM     31  C   UNL     1       0.304   3.372  -4.043  1.00  0.00     0.073 C 
ATOM     32  O   UNL     1       0.012   4.336  -4.707  1.00  0.00    -0.545 OA
ATOM     33  O   UNL     1       1.601   3.126  -3.760  1.00  0.00    -0.545 OA
ENDBRANCH  28  31
ENDBRANCH  21  24
ENDBRANCH   9  17
BRANCH  13  34
ATOM     34  C   UNL     1      -1.697  -4.482  -6.202  1.00  0.00     0.206 C 
BRANCH  34  35
ATOM     35  C   UNL     1      -1.413  -4.564  -7.645  1.00  0.00     0.123 A 
ATOM     36  C   UNL     1      -1.668  -5.520  -8.603  1.00  0.00     0.047 A 
ATOM     37  O   UNL     1      -0.745  -3.513  -8.187  1.00  0.00    -0.467 OA
ATOM     38  C   UNL     1      -1.073  -5.047  -9.792  1.00  0.00     0.042 A 
ATOM     39  C   UNL     1      -0.535  -3.818  -9.491  1.00  0.00     0.195 A 
ENDBRANCH  34  35
ENDBRANCH  13  34
ENDBRANCH   7   8
ENDBRANCH   6   7
ENDBRANCH   5   6
ENDBRANCH   4   5
ENDBRANCH   3   4
ENDBRANCH   2   3
ENDBRANCH   1   2
BRANCH   1  40
ATOM     40  C   UNL     1      -1.608  -8.842   0.556  1.00  0.00     0.188 C 
BRANCH  40  41
ATOM     41  C   UNL     1      -2.923  -9.631   0.515  1.00  0.00     0.188 C 
BRANCH  41  42
ATOM     42  O   UNL     1      -4.056  -8.999  -0.056  1.00  0.00    -0.376 OA
BRANCH  42  43
ATOM     43  C   UNL     1      -4.570  -7.812   0.548  1.00  0.00     0.202 C 
BRANCH  43  44
ATOM     44  C   UNL     1      -4.817  -7.705   2.082  1.00  0.00     0.261 C 
BRANCH  44  45
ATOM     45  O   UNL     1      -3.770  -7.293   3.036  1.00  0.00    -0.460 OA
BRANCH  45  46
ATOM     46  C   UNL     1      -3.684  -8.047   4.189  1.00  0.00     0.338 C 
ATOM     47  O   UNL     1      -4.044  -9.219   4.237  1.00  0.00    -0.246 OA
BRANCH  46  48
ATOM     48  C   UNL     1      -3.138  -7.374   5.464  1.00  0.00     0.060 A 
ATOM     49  C   UNL     1      -1.895  -7.746   5.961  1.00  0.00     0.016 A 
ATOM     50  C   UNL     1      -3.935  -6.660   6.390  1.00  0.00     0.016 A 
ATOM     51  C   UNL     1      -1.466  -7.377   7.294  1.00  0.00     0.010 A 
ATOM     52  C   UNL     1      -3.515  -6.341   7.776  1.00  0.00     0.010 A 
ATOM     53  C   UNL     1      -2.256  -6.696   8.299  1.00  0.00    -0.014 A 
BRANCH  53  54
ATOM     54  C   UNL     1      -1.798  -6.879   9.879  1.00  0.00     0.031 A 
ATOM     55  C   UNL     1      -1.377  -8.306   9.915  1.00  0.00     0.074 A 
ATOM     56  C   UNL     1      -1.773  -6.301  11.163  1.00  0.00     0.049 A 
ATOM     57  N   UNL     1      -2.229  -9.226   9.568  1.00  0.00    -0.248 NA
ATOM     58  C   UNL     1       0.019  -8.739   9.954  1.00  0.00     0.031 C 
ATOM     59  C   UNL     1      -2.299  -4.991  11.589  1.00  0.00     0.029 A 
ATOM     60  N   UNL     1      -1.256  -6.757  12.440  1.00  0.00    -0.354 N 
ATOM     61  C   UNL     1      -1.550 -10.414   9.622  1.00  0.00     0.074 A 
ATOM     62  C   UNL     1      -0.144 -10.029   9.637  1.00  0.00     0.031 C 
ATOM     63  C   UNL     1      -1.986  -4.703  12.891  1.00  0.00     0.029 A 
ATOM     64  C   UNL     1      -1.259  -5.801  13.531  1.00  0.00     0.049 A 
ATOM     65  H   UNL     1      -0.918  -7.674  12.560  1.00  0.00     0.167 HD
ATOM     66  C   UNL     1      -2.164 -11.421  10.307  1.00  0.00     0.031 A 
ATOM     67  C   UNL     1      -0.804  -5.875  14.854  1.00  0.00     0.031 A 
ATOM     68  C   UNL     1      -1.580 -11.617  11.605  1.00  0.00     0.049 A 
ATOM     69  C   UNL     1      -0.747  -7.293  15.233  1.00  0.00     0.074 A 
ATOM     70  C   UNL     1      -0.278 -11.665  12.063  1.00  0.00     0.029 A 
ATOM     71  N   UNL     1      -2.374 -11.322  12.693  1.00  0.00    -0.354 N 
ATOM     72  N   UNL     1      -1.819  -7.912  15.625  1.00  0.00    -0.248 NA
ATOM     73  C   UNL     1       0.494  -8.044  15.389  1.00  0.00     0.031 C 
ATOM     74  C   UNL     1      -0.287 -10.912  13.257  1.00  0.00     0.029 A 
ATOM     75  C   UNL     1      -1.601 -10.737  13.672  1.00  0.00     0.049 A 
ATOM     76  H   UNL     1      -3.340 -11.500  12.759  1.00  0.00     0.167 HD
ATOM     77  C   UNL     1      -1.471  -9.218  15.506  1.00  0.00     0.074 A 
ATOM     78  C   UNL     1      -0.029  -9.241  15.669  1.00  0.00     0.031 C 
ATOM     79  C   UNL     1      -2.261  -9.957  14.689  1.00  0.00     0.031 A 
BRANCH  66  80
ATOM     80  C   UNL     1      -3.641 -11.561  10.034  1.00  0.00    -0.014 A 
ATOM     81  C   UNL     1      -4.113 -12.711   9.396  1.00  0.00     0.009 A 
ATOM     82  C   UNL     1      -4.558 -10.521  10.298  1.00  0.00     0.009 A 
ATOM     83  C   UNL     1      -5.443 -12.780   8.963  1.00  0.00     0.001 A 
ATOM     84  C   UNL     1      -5.868 -10.571   9.827  1.00  0.00     0.001 A 
ATOM     85  C   UNL     1      -6.308 -11.700   9.149  1.00  0.00     0.000 A 
ENDBRANCH  66  80
BRANCH  67  86
ATOM     86  C   UNL     1      -0.547  -5.070  16.173  1.00  0.00    -0.014 A 
ATOM     87  C   UNL     1      -0.906  -5.652  17.441  1.00  0.00     0.009 A 
ATOM     88  C   UNL     1       0.408  -4.049  16.270  1.00  0.00     0.009 A 
ATOM     89  C   UNL     1      -0.282  -5.339  18.669  1.00  0.00     0.001 A 
ATOM     90  C   UNL     1       1.009  -3.700  17.518  1.00  0.00     0.001 A 
ATOM     91  C   UNL     1       0.696  -4.365  18.705  1.00  0.00     0.000 A 
ENDBRANCH  67  86
BRANCH  79  92
ATOM     92  C   UNL     1      -3.755  -9.659  14.717  1.00  0.00    -0.014 A 
ATOM     93  C   UNL     1      -4.329  -8.371  14.608  1.00  0.00     0.009 A 
ATOM     94  C   UNL     1      -4.634 -10.729  14.917  1.00  0.00     0.009 A 
ATOM     95  C   UNL     1      -5.702  -8.155  14.766  1.00  0.00     0.001 A 
ATOM     96  C   UNL     1      -6.015 -10.523  15.023  1.00  0.00     0.001 A 
ATOM     97  C   UNL     1      -6.547  -9.236  14.968  1.00  0.00     0.000 A 
ENDBRANCH  79  92
ENDBRANCH  53  54
ENDBRANCH  46  48
ENDBRANCH  45  46
ENDBRANCH  44  45
ENDBRANCH  43  44
ENDBRANCH  42  43
ENDBRANCH  41  42
ENDBRANCH  40  41
ENDBRANCH   1  40
TORSDOF 24
