REMARK SMILES NS(=O)(=O)c1ccc(-n2nc(C(F)(F)F)cc2-c2ccc(CC(=O)OCCOCCOCCOCCOC(=O)c3ccc(-c4c5nc(c(-c6ccccc6)c6ccc([nH]6)c(-c6ccccc6)c6nc(c(-c7ccccc7)c7ccc4[nH]7)C=C6)C=C5)cc3)cc2)cc1
REMARK SMILES IDX 29 1 28 2 27 3 26 4 25 5 23 6 24 7 22 8 21 9 18 10 19 11
REMARK SMILES IDX 89 12 20 13 88 14 17 15 9 16 10 17 11 18 16 19 8 20 5 21
REMARK SMILES IDX 6 22 91 23 7 24 90 25 2 26 3 27 4 28 1 29 12 32 13 33 14 34
REMARK SMILES IDX 15 35 30 36 31 37 32 38 33 39 34 40 35 41 36 42 37 43 38 44
REMARK SMILES IDX 39 45 40 46 41 47 87 48 42 49 86 50 43 51 44 52 45 53 80 54
REMARK SMILES IDX 46 55 85 56 79 57 81 58 47 59 84 60 78 61 77 62 48 64 70 65
REMARK SMILES IDX 55 66 69 67 56 68 59 69 68 70 82 71 57 72 58 73 67 75 83 76
REMARK SMILES IDX 60 77 49 78 50 79 54 80 51 81 53 82 52 83 71 84 72 85 76 86
REMARK SMILES IDX 73 87 75 88 74 89 61 90 62 91 66 92 63 93 65 94 64 95
REMARK H PARENT 1 30 1 31 81 63 59 74
REMARK Flexibility Score: inf
ROOT
ATOM      1  C   UNL     1      -2.206  -2.667  -7.346  1.00  0.00     0.188 C 
ENDROOT
BRANCH   1   2
ATOM      2  O   UNL     1      -2.422  -3.939  -7.947  1.00  0.00    -0.376 OA
BRANCH   2   3
ATOM      3  C   UNL     1      -1.365  -4.877  -8.053  1.00  0.00     0.202 C 
BRANCH   3   4
ATOM      4  C   UNL     1      -0.085  -4.457  -8.801  1.00  0.00     0.261 C 
BRANCH   4   5
ATOM      5  O   UNL     1       0.027  -3.054  -9.104  1.00  0.00    -0.463 OA
BRANCH   5   6
ATOM      6  C   UNL     1      -0.593  -2.649 -10.234  1.00  0.00     0.310 C 
ATOM      7  O   UNL     1      -1.118  -3.414 -11.039  1.00  0.00    -0.252 OA
BRANCH   6   8
ATOM      8  C   UNL     1      -0.606  -1.150 -10.449  1.00  0.00     0.158 C 
BRANCH   8   9
ATOM      9  C   UNL     1      -0.004  -0.176  -9.443  1.00  0.00    -0.037 A 
ATOM     10  C   UNL     1       1.065   2.007  -7.926  1.00  0.00     0.000 A 
ATOM     11  C   UNL     1      -0.305   1.725  -7.913  1.00  0.00     0.010 A 
ATOM     12  C   UNL     1       1.896   1.143  -8.663  1.00  0.00     0.010 A 
ATOM     13  C   UNL     1      -0.830   0.650  -8.657  1.00  0.00     0.005 A 
ATOM     14  C   UNL     1       1.373   0.064  -9.402  1.00  0.00     0.005 A 
BRANCH  10  15
ATOM     15  C   UNL     1       1.611   3.268  -7.375  1.00  0.00     0.075 A 
ATOM     16  N   UNL     1       1.394   3.879  -6.130  1.00  0.00    -0.233 N 
ATOM     17  N   UNL     1       1.915   5.138  -6.096  1.00  0.00    -0.163 NA
ATOM     18  C   UNL     1       2.533   5.322  -7.270  1.00  0.00     0.167 A 
ATOM     19  C   UNL     1       2.356   4.193  -8.097  1.00  0.00     0.064 A 
BRANCH  16  20
ATOM     20  C   UNL     1       0.784   3.401  -4.928  1.00  0.00     0.065 A 
ATOM     21  C   UNL     1      -0.423   2.538  -2.510  1.00  0.00     0.082 A 
ATOM     22  C   UNL     1       0.013   1.637  -3.483  1.00  0.00     0.024 A 
ATOM     23  C   UNL     1      -0.278   3.898  -2.763  1.00  0.00     0.024 A 
ATOM     24  C   UNL     1       0.624   2.047  -4.678  1.00  0.00     0.030 A 
ATOM     25  C   UNL     1       0.353   4.323  -3.947  1.00  0.00     0.030 A 
BRANCH  21  26
ATOM     26  S   UNL     1      -1.248   1.970  -1.030  1.00  0.00     0.238 S 
ATOM     27  O   UNL     1      -1.183   0.528  -0.975  1.00  0.00    -0.207 OA
ATOM     28  O   UNL     1      -2.499   2.672  -0.919  1.00  0.00    -0.207 OA
BRANCH  26  29
ATOM     29  N   UNL     1      -0.294   2.391   0.283  1.00  0.00    -0.225 NA
ATOM     30  H   UNL     1      -0.742   2.078   1.144  1.00  0.00     0.137 HD
ATOM     31  H   UNL     1      -0.178   3.404   0.308  1.00  0.00     0.137 HD
ENDBRANCH  26  29
ENDBRANCH  21  26
ENDBRANCH  16  20
BRANCH  18  32
ATOM     32  C   UNL     1       3.286   6.583  -7.607  1.00  0.00     0.435 C 
ATOM     33  F   UNL     1       2.870   7.666  -6.899  1.00  0.00    -0.164 F 
ATOM     34  F   UNL     1       4.619   6.446  -7.371  1.00  0.00    -0.164 F 
ATOM     35  F   UNL     1       3.161   6.909  -8.923  1.00  0.00    -0.164 F 
ENDBRANCH  18  32
ENDBRANCH  10  15
ENDBRANCH   8   9
ENDBRANCH   6   8
ENDBRANCH   5   6
ENDBRANCH   4   5
ENDBRANCH   3   4
ENDBRANCH   2   3
ENDBRANCH   1   2
BRANCH   1  36
ATOM     36  C   UNL     1      -0.953  -2.364  -6.490  1.00  0.00     0.188 C 
BRANCH  36  37
ATOM     37  O   UNL     1      -0.256  -3.502  -6.025  1.00  0.00    -0.377 OA
BRANCH  37  38
ATOM     38  C   UNL     1      -0.530  -4.029  -4.738  1.00  0.00     0.188 C 
BRANCH  38  39
ATOM     39  C   UNL     1      -1.957  -4.063  -4.163  1.00  0.00     0.188 C 
BRANCH  39  40
ATOM     40  O   UNL     1      -2.824  -3.039  -4.589  1.00  0.00    -0.376 OA
BRANCH  40  41
ATOM     41  C   UNL     1      -2.938  -1.835  -3.869  1.00  0.00     0.202 C 
BRANCH  41  42
ATOM     42  C   UNL     1      -1.915  -1.415  -2.829  1.00  0.00     0.261 C 
BRANCH  42  43
ATOM     43  O   UNL     1      -0.522  -1.607  -3.109  1.00  0.00    -0.460 OA
BRANCH  43  44
ATOM     44  C   UNL     1       0.163  -2.192  -2.079  1.00  0.00     0.338 C 
ATOM     45  O   UNL     1      -0.228  -3.137  -1.415  1.00  0.00    -0.246 OA
BRANCH  44  46
ATOM     46  C   UNL     1       1.323  -1.347  -1.708  1.00  0.00     0.060 A 
ATOM     47  C   UNL     1       1.505  -1.115  -0.343  1.00  0.00     0.016 A 
ATOM     48  C   UNL     1       2.065  -0.623  -2.647  1.00  0.00     0.016 A 
ATOM     49  C   UNL     1       2.285  -0.041   0.073  1.00  0.00     0.010 A 
ATOM     50  C   UNL     1       2.820   0.478  -2.226  1.00  0.00     0.010 A 
ATOM     51  C   UNL     1       2.878   0.811  -0.870  1.00  0.00    -0.014 A 
BRANCH  51  52
ATOM     52  C   UNL     1       3.732   1.889  -0.359  1.00  0.00     0.031 A 
ATOM     53  C   UNL     1       5.119   1.465  -0.119  1.00  0.00     0.074 A 
ATOM     54  C   UNL     1       3.439   3.179  -0.098  1.00  0.00     0.049 A 
ATOM     55  N   UNL     1       5.659   1.199   1.021  1.00  0.00    -0.248 NA
ATOM     56  C   UNL     1       5.964   1.221  -1.292  1.00  0.00     0.031 C 
ATOM     57  C   UNL     1       2.281   3.933  -0.530  1.00  0.00     0.029 A 
ATOM     58  N   UNL     1       4.169   4.121   0.583  1.00  0.00    -0.354 N 
ATOM     59  C   UNL     1       6.984   0.929   0.730  1.00  0.00     0.074 A 
ATOM     60  C   UNL     1       7.075   0.781  -0.704  1.00  0.00     0.031 C 
ATOM     61  C   UNL     1       2.413   5.236  -0.218  1.00  0.00     0.029 A 
ATOM     62  C   UNL     1       3.665   5.415   0.486  1.00  0.00     0.049 A 
ATOM     63  H   UNL     1       4.980   3.901   1.096  1.00  0.00     0.167 HD
ATOM     64  C   UNL     1       7.969   1.113   1.646  1.00  0.00     0.031 A 
ATOM     65  C   UNL     1       4.236   6.573   0.897  1.00  0.00     0.031 A 
ATOM     66  C   UNL     1       7.477   1.221   2.993  1.00  0.00     0.049 A 
ATOM     67  C   UNL     1       5.252   6.243   1.917  1.00  0.00     0.074 A 
ATOM     68  C   UNL     1       6.662   0.450   3.801  1.00  0.00     0.029 A 
ATOM     69  N   UNL     1       7.560   2.444   3.615  1.00  0.00    -0.354 N 
ATOM     70  N   UNL     1       4.971   5.884   3.135  1.00  0.00    -0.248 NA
ATOM     71  C   UNL     1       6.613   5.969   1.483  1.00  0.00     0.031 C 
ATOM     72  C   UNL     1       5.938   1.377   4.605  1.00  0.00     0.029 A 
ATOM     73  C   UNL     1       6.365   2.658   4.254  1.00  0.00     0.049 A 
ATOM     74  H   UNL     1       8.333   3.054   3.603  1.00  0.00     0.167 HD
ATOM     75  C   UNL     1       5.955   4.966   3.467  1.00  0.00     0.074 A 
ATOM     76  C   UNL     1       7.003   5.161   2.471  1.00  0.00     0.031 C 
ATOM     77  C   UNL     1       5.705   3.943   4.336  1.00  0.00     0.031 A 
BRANCH  64  78
ATOM     78  C   UNL     1       9.337   1.574   1.235  1.00  0.00    -0.014 A 
ATOM     79  C   UNL     1      10.396   1.486   2.148  1.00  0.00     0.009 A 
ATOM     80  C   UNL     1       9.564   2.315   0.056  1.00  0.00     0.009 A 
ATOM     81  C   UNL     1      11.617   2.119   1.894  1.00  0.00     0.001 A 
ATOM     82  C   UNL     1      10.797   2.901  -0.226  1.00  0.00     0.001 A 
ATOM     83  C   UNL     1      11.820   2.818   0.705  1.00  0.00     0.000 A 
ENDBRANCH  64  78
BRANCH  65  84
ATOM     84  C   UNL     1       4.063   7.941   0.351  1.00  0.00    -0.014 A 
ATOM     85  C   UNL     1       4.586   9.057   1.024  1.00  0.00     0.009 A 
ATOM     86  C   UNL     1       3.587   8.145  -0.959  1.00  0.00     0.009 A 
ATOM     87  C   UNL     1       4.665  10.309   0.397  1.00  0.00     0.001 A 
ATOM     88  C   UNL     1       3.645   9.397  -1.577  1.00  0.00     0.001 A 
ATOM     89  C   UNL     1       4.204  10.476  -0.906  1.00  0.00     0.000 A 
ENDBRANCH  65  84
BRANCH  77  90
ATOM     90  C   UNL     1       4.474   4.022   5.208  1.00  0.00    -0.014 A 
ATOM     91  C   UNL     1       3.174   4.170   4.694  1.00  0.00     0.009 A 
ATOM     92  C   UNL     1       4.619   3.808   6.588  1.00  0.00     0.009 A 
ATOM     93  C   UNL     1       2.060   4.147   5.540  1.00  0.00     0.001 A 
ATOM     94  C   UNL     1       3.505   3.759   7.430  1.00  0.00     0.001 A 
ATOM     95  C   UNL     1       2.226   3.937   6.907  1.00  0.00     0.000 A 
ENDBRANCH  77  90
ENDBRANCH  51  52
ENDBRANCH  44  46
ENDBRANCH  43  44
ENDBRANCH  42  43
ENDBRANCH  41  42
ENDBRANCH  40  41
ENDBRANCH  39  40
ENDBRANCH  38  39
ENDBRANCH  37  38
ENDBRANCH  36  37
ENDBRANCH   1  36
TORSDOF 26
