REMARK SMILES O=C(CSCc1ccc(Cl)s1)Nc1ccsc1C(=O)OCCOCCOCCOCCOC(=O)c1ccc(-c2c3nc(c(-c4ccccc4)c4ccc([nH]4)c(-c4ccccc4)c4nc(c(-c5ccccc5)c5ccc2[nH]5)C=C4)C=C3)cc1
REMARK SMILES IDX 24 1 23 2 22 3 21 4 20 5 18 6 19 7 17 8 13 9 14 10 15 11
REMARK SMILES IDX 16 12 12 13 1 14 2 15 3 17 4 18 5 19 6 20 7 21 11 22 8 23
REMARK SMILES IDX 9 24 10 25 25 26 26 27 27 28 28 29 29 30 30 31 31 32 32 33
REMARK SMILES IDX 33 34 34 35 35 36 36 37 82 38 37 39 81 40 38 41 39 42 40 43
REMARK SMILES IDX 75 44 41 45 80 46 74 47 76 48 42 49 79 50 73 51 72 52 43 54
REMARK SMILES IDX 65 55 50 56 64 57 51 58 54 59 63 60 77 61 52 62 53 63 62 65
REMARK SMILES IDX 78 66 55 67 44 68 45 69 49 70 46 71 48 72 47 73 66 74 67 75
REMARK SMILES IDX 71 76 68 77 70 78 69 79 56 80 57 81 61 82 58 83 60 84 59 85
REMARK H PARENT 12 16 76 53 54 64
REMARK Flexibility Score: inf
ROOT
ATOM      1  C   UNL     1       3.632   4.176  -3.751  1.00  0.00     0.188 C 
ENDROOT
BRANCH   1   2
ATOM      2  O   UNL     1       4.963   3.899  -4.191  1.00  0.00    -0.376 OA
BRANCH   2   3
ATOM      3  C   UNL     1       5.990   4.082  -3.220  1.00  0.00     0.202 C 
BRANCH   3   4
ATOM      4  C   UNL     1       6.115   2.943  -2.195  1.00  0.00     0.261 C 
BRANCH   4   5
ATOM      5  O   UNL     1       4.983   2.796  -1.321  1.00  0.00    -0.459 OA
BRANCH   5   6
ATOM      6  C   UNL     1       4.703   3.840  -0.494  1.00  0.00     0.350 C 
ATOM      7  O   UNL     1       5.446   4.804  -0.341  1.00  0.00    -0.245 OA
BRANCH   6   8
ATOM      8  C   UNL     1       3.370   3.674   0.054  1.00  0.00     0.136 A 
ATOM      9  C   UNL     1       2.594   2.533   0.246  1.00  0.00     0.066 A 
ATOM     10  C   UNL     1       1.285   2.879   0.712  1.00  0.00     0.039 A 
ATOM     11  C   UNL     1       1.105   4.234   0.863  1.00  0.00     0.068 A 
ATOM     12  S   UNL     1       2.518   5.104   0.489  1.00  0.00    -0.135 S 
BRANCH   9  13
ATOM     13  N   UNL     1       3.069   1.240   0.009  1.00  0.00    -0.324 N 
ATOM     14  O   UNL     1       1.123   0.005   0.334  1.00  0.00    -0.274 OA
ATOM     15  C   UNL     1       2.335   0.073   0.143  1.00  0.00     0.234 C 
ATOM     16  H   UNL     1       4.007   1.151  -0.279  1.00  0.00     0.170 HD
BRANCH  15  17
ATOM     17  C   UNL     1       3.184  -1.188   0.153  1.00  0.00     0.170 C 
BRANCH  17  18
ATOM     18  S   UNL     1       4.249  -1.357  -1.309  1.00  0.00    -0.146 SA
BRANCH  18  19
ATOM     19  C   UNL     1       2.982  -1.485  -2.610  1.00  0.00     0.116 C 
BRANCH  19  20
ATOM     20  C   UNL     1       2.134  -2.716  -2.508  1.00  0.00     0.016 A 
ATOM     21  C   UNL     1       2.514  -4.048  -2.472  1.00  0.00     0.018 A 
ATOM     22  S   UNL     1       0.420  -2.564  -2.506  1.00  0.00    -0.128 S 
ATOM     23  C   UNL     1       1.395  -4.935  -2.459  1.00  0.00     0.033 A 
ATOM     24  C   UNL     1       0.215  -4.241  -2.474  1.00  0.00     0.093 A 
ATOM     25  Cl  UNL     1      -1.367  -4.907  -2.483  1.00  0.00    -0.072 Cl
ENDBRANCH  19  20
ENDBRANCH  18  19
ENDBRANCH  17  18
ENDBRANCH  15  17
ENDBRANCH   9  13
ENDBRANCH   6   8
ENDBRANCH   5   6
ENDBRANCH   4   5
ENDBRANCH   3   4
ENDBRANCH   2   3
ENDBRANCH   1   2
BRANCH   1  26
ATOM     26  C   UNL     1       2.798   2.909  -3.510  1.00  0.00     0.188 C 
BRANCH  26  27
ATOM     27  O   UNL     1       3.542   1.708  -3.627  1.00  0.00    -0.377 OA
BRANCH  27  28
ATOM     28  C   UNL     1       3.830   1.220  -4.936  1.00  0.00     0.188 C 
BRANCH  28  29
ATOM     29  C   UNL     1       3.652   2.086  -6.198  1.00  0.00     0.188 C 
BRANCH  29  30
ATOM     30  O   UNL     1       2.402   2.768  -6.268  1.00  0.00    -0.376 OA
BRANCH  30  31
ATOM     31  C   UNL     1       1.447   2.244  -7.184  1.00  0.00     0.202 C 
BRANCH  31  32
ATOM     32  C   UNL     1       0.645   1.067  -6.615  1.00  0.00     0.261 C 
BRANCH  32  33
ATOM     33  O   UNL     1       1.408  -0.130  -6.393  1.00  0.00    -0.460 OA
BRANCH  33  34
ATOM     34  C   UNL     1       2.001  -0.687  -7.471  1.00  0.00     0.338 C 
ATOM     35  O   UNL     1       1.944  -0.317  -8.628  1.00  0.00    -0.246 OA
BRANCH  34  36
ATOM     36  C   UNL     1       2.885  -1.763  -6.989  1.00  0.00     0.060 A 
ATOM     37  C   UNL     1       4.252  -1.701  -7.282  1.00  0.00     0.016 A 
ATOM     38  C   UNL     1       2.356  -2.835  -6.270  1.00  0.00     0.016 A 
ATOM     39  C   UNL     1       5.096  -2.737  -6.875  1.00  0.00     0.010 A 
ATOM     40  C   UNL     1       3.197  -3.877  -5.882  1.00  0.00     0.010 A 
ATOM     41  C   UNL     1       4.566  -3.845  -6.201  1.00  0.00    -0.014 A 
BRANCH  41  42
ATOM     42  C   UNL     1       5.388  -5.058  -5.983  1.00  0.00     0.031 A 
ATOM     43  C   UNL     1       5.238  -6.205  -6.945  1.00  0.00     0.074 A 
ATOM     44  C   UNL     1       6.238  -5.153  -4.945  1.00  0.00     0.049 A 
ATOM     45  N   UNL     1       5.806  -7.383  -6.925  1.00  0.00    -0.248 NA
ATOM     46  C   UNL     1       4.315  -5.998  -8.074  1.00  0.00     0.031 C 
ATOM     47  C   UNL     1       6.492  -4.111  -3.952  1.00  0.00     0.029 A 
ATOM     48  N   UNL     1       7.040  -6.196  -4.553  1.00  0.00    -0.354 N 
ATOM     49  C   UNL     1       5.303  -8.059  -8.030  1.00  0.00     0.074 A 
ATOM     50  C   UNL     1       4.365  -7.172  -8.683  1.00  0.00     0.031 C 
ATOM     51  C   UNL     1       7.386  -4.572  -3.058  1.00  0.00     0.029 A 
ATOM     52  C   UNL     1       7.746  -5.946  -3.401  1.00  0.00     0.049 A 
ATOM     53  H   UNL     1       7.103  -7.044  -5.049  1.00  0.00     0.167 HD
ATOM     54  C   UNL     1       5.598  -9.304  -8.469  1.00  0.00     0.031 A 
ATOM     55  C   UNL     1       8.576  -6.744  -2.700  1.00  0.00     0.031 A 
ATOM     56  C   UNL     1       6.524 -10.194  -7.827  1.00  0.00     0.049 A 
ATOM     57  C   UNL     1       8.848  -8.145  -3.183  1.00  0.00     0.074 A 
ATOM     58  C   UNL     1       6.905 -11.466  -8.214  1.00  0.00     0.029 A 
ATOM     59  N   UNL     1       7.210  -9.905  -6.659  1.00  0.00    -0.354 N 
ATOM     60  N   UNL     1       8.400  -8.754  -4.254  1.00  0.00    -0.248 NA
ATOM     61  C   UNL     1       9.748  -8.967  -2.358  1.00  0.00     0.031 C 
ATOM     62  C   UNL     1       7.791 -11.966  -7.254  1.00  0.00     0.029 A 
ATOM     63  C   UNL     1       7.995 -10.985  -6.297  1.00  0.00     0.049 A 
ATOM     64  H   UNL     1       7.148  -9.058  -6.161  1.00  0.00     0.167 HD
ATOM     65  C   UNL     1       8.985 -10.016  -4.246  1.00  0.00     0.074 A 
ATOM     66  C   UNL     1       9.829 -10.082  -3.072  1.00  0.00     0.031 C 
ATOM     67  C   UNL     1       8.837 -11.030  -5.132  1.00  0.00     0.031 A 
BRANCH  54  68
ATOM     68  C   UNL     1       4.886  -9.787  -9.698  1.00  0.00    -0.014 A 
ATOM     69  C   UNL     1       5.234  -9.310 -10.971  1.00  0.00     0.009 A 
ATOM     70  C   UNL     1       3.878 -10.756  -9.583  1.00  0.00     0.009 A 
ATOM     71  C   UNL     1       4.567  -9.778 -12.105  1.00  0.00     0.001 A 
ATOM     72  C   UNL     1       3.229 -11.238 -10.720  1.00  0.00     0.001 A 
ATOM     73  C   UNL     1       3.570 -10.744 -11.979  1.00  0.00     0.000 A 
ENDBRANCH  54  68
BRANCH  55  74
ATOM     74  C   UNL     1       9.205  -6.256  -1.445  1.00  0.00    -0.014 A 
ATOM     75  C   UNL     1      10.586  -6.010  -1.387  1.00  0.00     0.009 A 
ATOM     76  C   UNL     1       8.436  -6.085  -0.284  1.00  0.00     0.009 A 
ATOM     77  C   UNL     1      11.188  -5.636  -0.182  1.00  0.00     0.001 A 
ATOM     78  C   UNL     1       9.036  -5.686   0.912  1.00  0.00     0.001 A 
ATOM     79  C   UNL     1      10.412  -5.473   0.965  1.00  0.00     0.000 A 
ENDBRANCH  55  74
BRANCH  67  80
ATOM     80  C   UNL     1       9.631 -12.283  -4.892  1.00  0.00    -0.014 A 
ATOM     81  C   UNL     1       9.273 -13.189  -3.883  1.00  0.00     0.009 A 
ATOM     82  C   UNL     1      10.718 -12.585  -5.727  1.00  0.00     0.009 A 
ATOM     83  C   UNL     1      10.007 -14.362  -3.697  1.00  0.00     0.001 A 
ATOM     84  C   UNL     1      11.434 -13.771  -5.554  1.00  0.00     0.001 A 
ATOM     85  C   UNL     1      11.082 -14.654  -4.535  1.00  0.00     0.000 A 
ENDBRANCH  67  80
ENDBRANCH  41  42
ENDBRANCH  34  36
ENDBRANCH  33  34
ENDBRANCH  32  33
ENDBRANCH  31  32
ENDBRANCH  30  31
ENDBRANCH  29  30
ENDBRANCH  28  29
ENDBRANCH  27  28
ENDBRANCH  26  27
ENDBRANCH   1  26
TORSDOF 25
