REMARK SMILES CCCC(=O)Nc1cccc(C(=O)N[C@@H](C(=O)OCCOCCOCCOCCOC(=O)c2ccc(-c3c4nc(c(-c5ccccc5)c5ccc([nH]5)c(-c5ccccc5)c5nc(c(-c6ccccc6)c6ccc3[nH]6)C=C5)C=C4)cc2)c2c(C)n[nH]c2C)c1
REMARK SMILES IDX 22 1 21 2 20 3 19 4 18 5 16 6 17 7 15 8 14 9 12 10 13 11
REMARK SMILES IDX 11 13 7 14 8 15 88 16 9 17 10 18 6 19 4 20 5 21 3 23 2 24
REMARK SMILES IDX 1 25 81 26 82 27 86 28 83 29 84 30 85 31 87 32 23 34 24 35
REMARK SMILES IDX 25 36 26 37 27 38 28 39 29 40 30 41 31 42 32 43 33 44 34 45
REMARK SMILES IDX 80 46 35 47 79 48 36 49 37 50 38 51 73 52 39 53 78 54 72 55
REMARK SMILES IDX 74 56 40 57 77 58 71 59 70 60 41 62 63 63 48 64 62 65 49 66
REMARK SMILES IDX 52 67 61 68 75 69 50 70 51 71 60 73 76 74 53 75 42 76 43 77
REMARK SMILES IDX 47 78 44 79 46 80 45 81 64 82 65 83 69 84 66 85 68 86 67 87
REMARK SMILES IDX 54 88 55 89 59 90 56 91 58 92 57 93
REMARK H PARENT 14 12 6 22 85 33 74 61 52 72
REMARK Flexibility Score: inf
ROOT
ATOM      1  C   UNL     1      -3.112   1.063  -2.898  1.00  0.00     0.188 C 
ENDROOT
BRANCH   1   2
ATOM      2  O   UNL     1      -4.349   1.348  -2.259  1.00  0.00    -0.376 OA
BRANCH   2   3
ATOM      3  C   UNL     1      -4.586   0.933  -0.925  1.00  0.00     0.202 C 
BRANCH   3   4
ATOM      4  C   UNL     1      -3.583   1.318   0.177  1.00  0.00     0.261 C 
BRANCH   4   5
ATOM      5  O   UNL     1      -2.203   1.055  -0.124  1.00  0.00    -0.461 OA
BRANCH   5   6
ATOM      6  C   UNL     1      -1.851  -0.246  -0.288  1.00  0.00     0.333 C 
ATOM      7  O   UNL     1      -2.591  -1.159   0.053  1.00  0.00    -0.249 OA
BRANCH   6   8
ATOM      8  C   UNL     1      -0.428  -0.396  -0.950  1.00  0.00     0.227 C 
BRANCH   8   9
ATOM      9  N   UNL     1       0.247   0.879  -1.262  1.00  0.00    -0.335 N 
ATOM     10  C   UNL     1       0.977   1.796  -0.540  1.00  0.00     0.252 C 
ATOM     11  O   UNL     1       1.286   2.848  -1.100  1.00  0.00    -0.269 OA
ATOM     12  H   UNL     1       0.153   1.133  -2.208  1.00  0.00     0.165 HD
BRANCH  10  13
ATOM     13  C   UNL     1       1.540   1.510   0.803  1.00  0.00     0.041 A 
ATOM     14  C   UNL     1       1.809  -0.105   2.548  1.00  0.00     0.041 A 
ATOM     15  C   UNL     1       3.085   0.365   2.833  1.00  0.00     0.026 A 
ATOM     16  C   UNL     1       0.985   0.561   1.646  1.00  0.00     0.040 A 
ATOM     17  C   UNL     1       3.562   1.484   2.151  1.00  0.00     0.003 A 
ATOM     18  C   UNL     1       2.808   2.032   1.108  1.00  0.00     0.014 A 
BRANCH  14  19
ATOM     19  N   UNL     1       1.341  -1.323   3.063  1.00  0.00    -0.326 N 
ATOM     20  C   UNL     1       1.254  -2.445   2.262  1.00  0.00     0.224 C 
ATOM     21  O   UNL     1       0.219  -3.115   2.299  1.00  0.00    -0.275 OA
ATOM     22  H   UNL     1       1.072  -1.379   4.008  1.00  0.00     0.169 HD
BRANCH  20  23
ATOM     23  C   UNL     1       2.442  -2.861   1.395  1.00  0.00     0.100 C 
BRANCH  23  24
ATOM     24  C   UNL     1       2.256  -2.702  -0.114  1.00  0.00     0.006 C 
ATOM     25  C   UNL     1       2.961  -1.489  -0.701  1.00  0.00     0.004 C 
ENDBRANCH  23  24
ENDBRANCH  20  23
ENDBRANCH  14  19
ENDBRANCH  10  13
ENDBRANCH   8   9
BRANCH   8  26
ATOM     26  C   UNL     1      -0.460  -1.347  -2.152  1.00  0.00     0.029 A 
ATOM     27  C   UNL     1      -0.047  -1.218  -3.531  1.00  0.00     0.065 A 
ATOM     28  C   UNL     1      -0.899  -2.674  -2.095  1.00  0.00     0.038 A 
ATOM     29  C   UNL     1       0.504  -0.085  -4.324  1.00  0.00     0.069 C 
ATOM     30  N   UNL     1      -0.217  -2.357  -4.213  1.00  0.00    -0.180 NA
ATOM     31  N   UNL     1      -0.709  -3.215  -3.328  1.00  0.00    -0.282 N 
ATOM     32  C   UNL     1      -1.478  -3.511  -1.010  1.00  0.00     0.066 C 
ATOM     33  H   UNL     1      -0.915  -4.154  -3.543  1.00  0.00     0.190 HD
ENDBRANCH   8  26
ENDBRANCH   6   8
ENDBRANCH   5   6
ENDBRANCH   4   5
ENDBRANCH   3   4
ENDBRANCH   2   3
ENDBRANCH   1   2
BRANCH   1  34
ATOM     34  C   UNL     1      -2.084   2.212  -2.780  1.00  0.00     0.188 C 
BRANCH  34  35
ATOM     35  O   UNL     1      -2.428   3.532  -3.151  1.00  0.00    -0.377 OA
BRANCH  35  36
ATOM     36  C   UNL     1      -3.708   3.953  -2.725  1.00  0.00     0.188 C 
BRANCH  36  37
ATOM     37  C   UNL     1      -4.747   3.709  -3.828  1.00  0.00     0.188 C 
BRANCH  37  38
ATOM     38  O   UNL     1      -4.322   2.744  -4.780  1.00  0.00    -0.376 OA
BRANCH  38  39
ATOM     39  C   UNL     1      -3.644   3.158  -5.958  1.00  0.00     0.202 C 
BRANCH  39  40
ATOM     40  C   UNL     1      -2.436   4.122  -5.963  1.00  0.00     0.261 C 
BRANCH  40  41
ATOM     41  O   UNL     1      -2.463   5.284  -5.124  1.00  0.00    -0.460 OA
BRANCH  41  42
ATOM     42  C   UNL     1      -3.425   6.207  -5.318  1.00  0.00     0.338 C 
ATOM     43  O   UNL     1      -4.269   6.220  -6.183  1.00  0.00    -0.246 OA
BRANCH  42  44
ATOM     44  C   UNL     1      -3.406   7.097  -4.128  1.00  0.00     0.060 A 
ATOM     45  C   UNL     1      -4.588   7.241  -3.386  1.00  0.00     0.016 A 
ATOM     46  C   UNL     1      -2.232   7.733  -3.713  1.00  0.00     0.016 A 
ATOM     47  C   UNL     1      -4.604   8.037  -2.243  1.00  0.00     0.010 A 
ATOM     48  C   UNL     1      -2.262   8.574  -2.596  1.00  0.00     0.010 A 
ATOM     49  C   UNL     1      -3.459   8.756  -1.882  1.00  0.00    -0.014 A 
BRANCH  49  50
ATOM     50  C   UNL     1      -3.614   9.894  -0.947  1.00  0.00     0.031 A 
ATOM     51  C   UNL     1      -3.886  11.247  -1.546  1.00  0.00     0.074 A 
ATOM     52  C   UNL     1      -3.600   9.728   0.387  1.00  0.00     0.049 A 
ATOM     53  N   UNL     1      -4.084  12.396  -0.953  1.00  0.00    -0.248 NA
ATOM     54  C   UNL     1      -3.953  11.310  -3.018  1.00  0.00     0.031 C 
ATOM     55  C   UNL     1      -3.408   8.458   1.085  1.00  0.00     0.029 A 
ATOM     56  N   UNL     1      -3.760  10.647   1.393  1.00  0.00    -0.354 N 
ATOM     57  C   UNL     1      -4.305  13.310  -1.976  1.00  0.00     0.074 A 
ATOM     58  C   UNL     1      -4.178  12.596  -3.226  1.00  0.00     0.031 C 
ATOM     59  C   UNL     1      -3.449   8.682   2.411  1.00  0.00     0.029 A 
ATOM     60  C   UNL     1      -3.642  10.112   2.652  1.00  0.00     0.049 A 
ATOM     61  H   UNL     1      -3.941  11.601   1.228  1.00  0.00     0.167 HD
ATOM     62  C   UNL     1      -4.600  14.627  -1.885  1.00  0.00     0.031 A 
ATOM     63  C   UNL     1      -3.666  10.716   3.856  1.00  0.00     0.031 A 
ATOM     64  C   UNL     1      -4.696  15.343  -0.644  1.00  0.00     0.049 A 
ATOM     65  C   UNL     1      -3.898  12.205   3.926  1.00  0.00     0.074 A 
ATOM     66  C   UNL     1      -4.963  16.685  -0.442  1.00  0.00     0.029 A 
ATOM     67  N   UNL     1      -4.522  14.774   0.608  1.00  0.00    -0.354 N 
ATOM     68  N   UNL     1      -4.112  13.060   2.954  1.00  0.00    -0.248 NA
ATOM     69  C   UNL     1      -3.908  12.810   5.267  1.00  0.00     0.031 C 
ATOM     70  C   UNL     1      -4.897  16.939   0.931  1.00  0.00     0.029 A 
ATOM     71  C   UNL     1      -4.663  15.741   1.587  1.00  0.00     0.049 A 
ATOM     72  H   UNL     1      -4.327  13.824   0.775  1.00  0.00     0.167 HD
ATOM     73  C   UNL     1      -4.323  14.290   3.567  1.00  0.00     0.074 A 
ATOM     74  C   UNL     1      -4.228  14.066   4.994  1.00  0.00     0.031 C 
ATOM     75  C   UNL     1      -4.576  15.497   3.003  1.00  0.00     0.031 A 
BRANCH  62  76
ATOM     76  C   UNL     1      -4.810  15.379  -3.169  1.00  0.00    -0.014 A 
ATOM     77  C   UNL     1      -5.951  15.165  -3.960  1.00  0.00     0.009 A 
ATOM     78  C   UNL     1      -3.872  16.340  -3.575  1.00  0.00     0.009 A 
ATOM     79  C   UNL     1      -6.135  15.882  -5.144  1.00  0.00     0.001 A 
ATOM     80  C   UNL     1      -4.074  17.077  -4.743  1.00  0.00     0.001 A 
ATOM     81  C   UNL     1      -5.201  16.843  -5.529  1.00  0.00     0.000 A 
ENDBRANCH  62  76
BRANCH  63  82
ATOM     82  C   UNL     1      -3.432   9.932   5.100  1.00  0.00    -0.014 A 
ATOM     83  C   UNL     1      -4.436   9.791   6.070  1.00  0.00     0.009 A 
ATOM     84  C   UNL     1      -2.169   9.371   5.351  1.00  0.00     0.009 A 
ATOM     85  C   UNL     1      -4.168   9.144   7.280  1.00  0.00     0.001 A 
ATOM     86  C   UNL     1      -1.915   8.693   6.545  1.00  0.00     0.001 A 
ATOM     87  C   UNL     1      -2.909   8.594   7.515  1.00  0.00     0.000 A 
ENDBRANCH  63  82
BRANCH  75  88
ATOM     88  C   UNL     1      -4.837  16.653   3.931  1.00  0.00    -0.014 A 
ATOM     89  C   UNL     1      -3.823  17.207   4.727  1.00  0.00     0.009 A 
ATOM     90  C   UNL     1      -6.124  17.214   3.984  1.00  0.00     0.009 A 
ATOM     91  C   UNL     1      -4.106  18.265   5.594  1.00  0.00     0.001 A 
ATOM     92  C   UNL     1      -6.394  18.296   4.822  1.00  0.00     0.001 A 
ATOM     93  C   UNL     1      -5.389  18.811   5.638  1.00  0.00     0.000 A 
ENDBRANCH  75  88
ENDBRANCH  49  50
ENDBRANCH  42  44
ENDBRANCH  41  42
ENDBRANCH  40  41
ENDBRANCH  39  40
ENDBRANCH  38  39
ENDBRANCH  37  38
ENDBRANCH  36  37
ENDBRANCH  35  36
ENDBRANCH  34  35
ENDBRANCH   1  34
TORSDOF 26
