REMARK SMILES CC[C@](C)(NC(=O)N[C@@H]1C[C@@H]1C)C(=O)OCCOCCOCCOCCOC(=O)c1ccc(-c2c3nc(c(-c4ccccc4)c4ccc([nH]4)c(-c4ccccc4)c4nc(c(-c5ccccc5)c5ccc2[nH]5)C=C4)C=C3)cc1
REMARK SMILES IDX 21 1 20 2 19 3 18 4 17 5 16 6 15 7 13 8 14 9 3 10 4 11 2 12
REMARK SMILES IDX 1 13 5 14 6 15 7 17 8 18 9 20 10 21 11 22 12 23 22 24 23 25
REMARK SMILES IDX 24 26 25 27 26 28 27 29 28 30 29 31 30 32 31 33 77 34 32 35
REMARK SMILES IDX 76 36 33 37 34 38 35 39 70 40 36 41 75 42 69 43 71 44 37 45
REMARK SMILES IDX 74 46 68 47 67 48 38 50 60 51 45 52 59 53 46 54 49 55 58 56
REMARK SMILES IDX 72 57 47 58 48 59 57 61 73 62 50 63 39 64 40 65 44 66 41 67
REMARK SMILES IDX 43 68 42 69 61 70 62 71 66 72 63 73 65 74 64 75 51 76 52 77
REMARK SMILES IDX 56 78 53 79 55 80 54 81
REMARK H PARENT 5 16 8 19 71 49 49 60
REMARK Flexibility Score: inf
ROOT
ATOM      1  O   UNL     1       3.307   5.207  -0.723  1.00  0.00    -0.377 OA
ENDROOT
BRANCH   1   2
ATOM      2  C   UNL     1       3.377   4.011   0.043  1.00  0.00     0.188 C 
BRANCH   2   3
ATOM      3  C   UNL     1       4.461   2.942  -0.297  1.00  0.00     0.188 C 
BRANCH   3   4
ATOM      4  O   UNL     1       5.012   2.999  -1.625  1.00  0.00    -0.376 OA
BRANCH   4   5
ATOM      5  C   UNL     1       4.888   2.449  -2.971  1.00  0.00     0.202 C 
BRANCH   5   6
ATOM      6  C   UNL     1       3.600   2.337  -4.121  1.00  0.00     0.261 C 
BRANCH   6   7
ATOM      7  O   UNL     1       2.375   1.223  -4.286  1.00  0.00    -0.462 OA
BRANCH   7   8
ATOM      8  C   UNL     1       1.165   0.569  -3.930  1.00  0.00     0.331 C 
ATOM      9  O   UNL     1       0.870  -0.466  -4.546  1.00  0.00    -0.249 OA
BRANCH   8  10
ATOM     10  C   UNL     1       0.102   1.034  -2.764  1.00  0.00     0.136 C 
ATOM     11  C   UNL     1       0.084   0.681  -1.228  1.00  0.00     0.047 C 
BRANCH  10  12
ATOM     12  C   UNL     1      -1.344   0.757  -3.318  1.00  0.00     0.037 C 
ATOM     13  C   UNL     1      -2.307  -0.011  -2.393  1.00  0.00     0.007 C 
ENDBRANCH  10  12
BRANCH  10  14
ATOM     14  N   UNL     1       0.465   2.382  -2.741  1.00  0.00    -0.322 N 
ATOM     15  C   UNL     1       1.692   2.642  -2.289  1.00  0.00     0.315 C 
ATOM     16  H   UNL     1      -0.145   3.095  -3.040  1.00  0.00     0.166 HD
ATOM     17  O   UNL     1       2.024   3.820  -2.362  1.00  0.00    -0.249 OA
ATOM     18  N   UNL     1       2.588   1.625  -1.920  1.00  0.00    -0.335 N 
ATOM     19  H   UNL     1       3.376   2.084  -1.549  1.00  0.00     0.165 HD
BRANCH  18  20
ATOM     20  C   UNL     1       2.891   0.145  -1.834  1.00  0.00     0.087 C 
ATOM     21  C   UNL     1       4.273  -0.307  -2.327  1.00  0.00     0.030 C 
ATOM     22  C   UNL     1       3.140  -1.140  -2.752  1.00  0.00     0.010 C 
ATOM     23  C   UNL     1       3.285  -1.511  -4.227  1.00  0.00     0.010 C 
ENDBRANCH  18  20
ENDBRANCH  10  14
ENDBRANCH   8  10
ENDBRANCH   7   8
ENDBRANCH   6   7
ENDBRANCH   5   6
ENDBRANCH   4   5
ENDBRANCH   3   4
ENDBRANCH   2   3
ENDBRANCH   1   2
BRANCH   1  24
ATOM     24  C   UNL     1       4.403   5.549  -1.554  1.00  0.00     0.188 C 
BRANCH  24  25
ATOM     25  C   UNL     1       5.635   5.931  -0.745  1.00  0.00     0.188 C 
BRANCH  25  26
ATOM     26  O   UNL     1       5.574   7.213  -0.121  1.00  0.00    -0.376 OA
BRANCH  26  27
ATOM     27  C   UNL     1       4.325   7.576   0.454  1.00  0.00     0.202 C 
BRANCH  27  28
ATOM     28  C   UNL     1       3.383   8.389  -0.469  1.00  0.00     0.261 C 
BRANCH  28  29
ATOM     29  O   UNL     1       3.623   8.343  -1.892  1.00  0.00    -0.460 OA
BRANCH  29  30
ATOM     30  C   UNL     1       4.805   8.830  -2.347  1.00  0.00     0.338 C 
ATOM     31  O   UNL     1       5.611   9.498  -1.737  1.00  0.00    -0.246 OA
BRANCH  30  32
ATOM     32  C   UNL     1       5.038   8.342  -3.737  1.00  0.00     0.060 A 
ATOM     33  C   UNL     1       6.201   7.610  -4.025  1.00  0.00     0.016 A 
ATOM     34  C   UNL     1       4.175   8.704  -4.772  1.00  0.00     0.016 A 
ATOM     35  C   UNL     1       6.547   7.317  -5.352  1.00  0.00     0.010 A 
ATOM     36  C   UNL     1       4.533   8.433  -6.100  1.00  0.00     0.010 A 
ATOM     37  C   UNL     1       5.750   7.790  -6.402  1.00  0.00    -0.014 A 
BRANCH  37  38
ATOM     38  C   UNL     1       6.295   7.859  -7.787  1.00  0.00     0.031 A 
ATOM     39  C   UNL     1       6.885   9.168  -8.253  1.00  0.00     0.074 A 
ATOM     40  C   UNL     1       6.282   6.807  -8.626  1.00  0.00     0.049 A 
ATOM     41  N   UNL     1       7.325   9.513  -9.437  1.00  0.00    -0.248 NA
ATOM     42  C   UNL     1       6.986  10.232  -7.240  1.00  0.00     0.031 C 
ATOM     43  C   UNL     1       5.807   5.466  -8.298  1.00  0.00     0.029 A 
ATOM     44  N   UNL     1       6.671   6.715  -9.942  1.00  0.00    -0.354 N 
ATOM     45  C   UNL     1       7.731  10.838  -9.316  1.00  0.00     0.074 A 
ATOM     46  C   UNL     1       7.466  11.239  -7.952  1.00  0.00     0.031 C 
ATOM     47  C   UNL     1       5.911   4.689  -9.392  1.00  0.00     0.029 A 
ATOM     48  C   UNL     1       6.419   5.488 -10.507  1.00  0.00     0.049 A 
ATOM     49  H   UNL     1       7.091   7.458 -10.433  1.00  0.00     0.167 HD
ATOM     50  C   UNL     1       8.272  11.654 -10.253  1.00  0.00     0.031 A 
ATOM     51  C   UNL     1       6.546   5.068 -11.783  1.00  0.00     0.031 A 
ATOM     52  C   UNL     1       8.524  11.266 -11.615  1.00  0.00     0.049 A 
ATOM     53  C   UNL     1       7.064   6.018 -12.835  1.00  0.00     0.074 A 
ATOM     54  C   UNL     1       9.085  12.016 -12.635  1.00  0.00     0.029 A 
ATOM     55  N   UNL     1       8.220  10.025 -12.151  1.00  0.00    -0.354 N 
ATOM     56  N   UNL     1       7.461   7.261 -12.706  1.00  0.00    -0.248 NA
ATOM     57  C   UNL     1       7.155   5.503 -14.210  1.00  0.00     0.031 C 
ATOM     58  C   UNL     1       9.054  11.252 -13.805  1.00  0.00     0.029 A 
ATOM     59  C   UNL     1       8.546  10.000 -13.496  1.00  0.00     0.049 A 
ATOM     60  H   UNL     1       7.830   9.273 -11.650  1.00  0.00     0.167 HD
ATOM     61  C   UNL     1       7.875   7.665 -13.971  1.00  0.00     0.074 A 
ATOM     62  C   UNL     1       7.694   6.530 -14.852  1.00  0.00     0.031 C 
ATOM     63  C   UNL     1       8.364   8.866 -14.366  1.00  0.00     0.031 A 
BRANCH  50  64
ATOM     64  C   UNL     1       8.575  13.071  -9.846  1.00  0.00    -0.014 A 
ATOM     65  C   UNL     1       9.608  13.377  -8.945  1.00  0.00     0.009 A 
ATOM     66  C   UNL     1       7.820  14.122 -10.392  1.00  0.00     0.009 A 
ATOM     67  C   UNL     1       9.848  14.700  -8.567  1.00  0.00     0.001 A 
ATOM     68  C   UNL     1       8.085  15.446 -10.038  1.00  0.00     0.001 A 
ATOM     69  C   UNL     1       9.090  15.733  -9.117  1.00  0.00     0.000 A 
ENDBRANCH  50  64
BRANCH  51  70
ATOM     70  C   UNL     1       6.133   3.687 -12.157  1.00  0.00    -0.014 A 
ATOM     71  C   UNL     1       7.079   2.736 -12.569  1.00  0.00     0.009 A 
ATOM     72  C   UNL     1       4.777   3.321 -12.126  1.00  0.00     0.009 A 
ATOM     73  C   UNL     1       6.674   1.456 -12.960  1.00  0.00     0.001 A 
ATOM     74  C   UNL     1       4.379   2.031 -12.486  1.00  0.00     0.001 A 
ATOM     75  C   UNL     1       5.326   1.103 -12.912  1.00  0.00     0.000 A 
ENDBRANCH  51  70
BRANCH  63  76
ATOM     76  C   UNL     1       8.786   9.013 -15.804  1.00  0.00    -0.014 A 
ATOM     77  C   UNL     1       7.846   9.069 -16.844  1.00  0.00     0.009 A 
ATOM     78  C   UNL     1      10.148   9.161 -16.113  1.00  0.00     0.009 A 
ATOM     79  C   UNL     1       8.264   9.240 -18.166  1.00  0.00     0.001 A 
ATOM     80  C   UNL     1      10.560   9.365 -17.431  1.00  0.00     0.001 A 
ATOM     81  C   UNL     1       9.619   9.395 -18.458  1.00  0.00     0.000 A 
ENDBRANCH  63  76
ENDBRANCH  37  38
ENDBRANCH  30  32
ENDBRANCH  29  30
ENDBRANCH  28  29
ENDBRANCH  27  28
ENDBRANCH  26  27
ENDBRANCH  25  26
ENDBRANCH  24  25
ENDBRANCH   1  24
TORSDOF 23
