REMARK SMILES C[NH2+][C@@]1(C(=O)OCCOCCOCCOCCOC(=O)c2ccc(-c3c4nc(c(-c5ccccc5)c5ccc([nH]5)c(-c5ccccc5)c5nc(c(-c6ccccc6)c6ccc3[nH]6)C=C5)C=C4)cc2)CC[C@H]([NH+]2CC[NH+](C)CC2)C1
REMARK SMILES IDX 13 1 12 2 11 3 10 4 9 5 8 6 7 7 6 8 4 9 5 10 3 11 69 12
REMARK SMILES IDX 79 13 70 14 71 15 2 16 1 17 72 20 73 21 78 22 74 24 77 25
REMARK SMILES IDX 75 26 76 27 14 29 15 30 16 31 17 32 18 33 19 34 20 35 21 36
REMARK SMILES IDX 22 37 68 38 23 39 67 40 24 41 25 42 26 43 61 44 27 45 66 46
REMARK SMILES IDX 60 47 62 48 28 49 65 50 59 51 58 52 29 54 51 55 36 56 50 57
REMARK SMILES IDX 37 58 40 59 49 60 63 61 38 62 39 63 48 65 64 66 41 67 30 68
REMARK SMILES IDX 31 69 35 70 32 71 34 72 33 73 52 74 53 75 57 76 54 77 56 78
REMARK SMILES IDX 55 79 42 80 43 81 47 82 44 83 46 84 45 85
REMARK H PARENT 2 18 2 19 72 23 75 28 62 53 40 64
REMARK Flexibility Score: inf
ROOT
ATOM      1  C   UNL     1      -2.583  -2.101   2.344  1.00  0.00     0.188 C 
ENDROOT
BRANCH   1   2
ATOM      2  O   UNL     1      -1.637  -2.163   1.307  1.00  0.00    -0.377 OA
BRANCH   2   3
ATOM      3  C   UNL     1      -0.670  -1.141   1.236  1.00  0.00     0.188 C 
BRANCH   3   4
ATOM      4  C   UNL     1      -0.020  -0.493   2.458  1.00  0.00     0.188 C 
BRANCH   4   5
ATOM      5  O   UNL     1      -0.841  -0.049   3.517  1.00  0.00    -0.376 OA
BRANCH   5   6
ATOM      6  C   UNL     1      -1.752   1.032   3.417  1.00  0.00     0.202 C 
BRANCH   6   7
ATOM      7  C   UNL     1      -1.735   2.074   2.289  1.00  0.00     0.261 C 
BRANCH   7   8
ATOM      8  O   UNL     1      -1.742   1.549   0.946  1.00  0.00    -0.459 OA
BRANCH   8   9
ATOM      9  C   UNL     1      -0.987   2.225   0.041  1.00  0.00     0.368 C 
ATOM     10  O   UNL     1      -0.377   3.256   0.331  1.00  0.00    -0.245 OA
BRANCH   9  11
ATOM     11  C   UNL     1      -0.858   1.594  -1.399  1.00  0.00     0.200 C 
ATOM     12  C   UNL     1      -1.458   2.614  -2.389  1.00  0.00     0.087 C 
ATOM     13  C   UNL     1      -1.589   0.310  -1.848  1.00  0.00     0.146 C 
ATOM     14  C   UNL     1      -2.926   2.229  -2.534  1.00  0.00     0.072 C 
ATOM     15  C   UNL     1      -2.985   0.705  -2.382  1.00  0.00     0.191 C 
BRANCH  11  16
ATOM     16  N   UNL     1       0.606   1.533  -1.714  1.00  0.00    -0.334 N 
ATOM     17  C   UNL     1       1.367   0.556  -0.952  1.00  0.00     0.331 C 
ATOM     18  H   UNL     1       0.706   1.308  -2.704  1.00  0.00     0.347 HD
ATOM     19  H   UNL     1       0.986   2.445  -1.461  1.00  0.00     0.347 HD
ENDBRANCH  11  16
BRANCH  15  20
ATOM     20  N   UNL     1      -4.140   0.064  -1.734  1.00  0.00    -0.323 N 
ATOM     21  C   UNL     1      -5.454   0.407  -2.305  1.00  0.00     0.324 C 
ATOM     22  C   UNL     1      -4.251   0.136  -0.275  1.00  0.00     0.324 C 
ATOM     23  H   UNL     1      -3.894  -0.900  -1.960  1.00  0.00     0.348 HD
ATOM     24  C   UNL     1      -6.085   1.724  -1.785  1.00  0.00     0.324 C 
ATOM     25  C   UNL     1      -4.756   1.485   0.265  1.00  0.00     0.324 C 
ATOM     26  N   UNL     1      -6.032   1.922  -0.321  1.00  0.00    -0.328 N 
ATOM     27  C   UNL     1      -6.277   3.327   0.012  1.00  0.00     0.333 C 
ATOM     28  H   UNL     1      -6.765   1.339   0.081  1.00  0.00     0.348 HD
ENDBRANCH  15  20
ENDBRANCH   9  11
ENDBRANCH   8   9
ENDBRANCH   7   8
ENDBRANCH   6   7
ENDBRANCH   5   6
ENDBRANCH   4   5
ENDBRANCH   3   4
ENDBRANCH   2   3
ENDBRANCH   1   2
BRANCH   1  29
ATOM     29  C   UNL     1      -2.108  -2.775   3.638  1.00  0.00     0.188 C 
BRANCH  29  30
ATOM     30  O   UNL     1      -1.003  -3.674   3.655  1.00  0.00    -0.376 OA
BRANCH  30  31
ATOM     31  C   UNL     1      -0.535  -4.309   2.478  1.00  0.00     0.202 C 
BRANCH  31  32
ATOM     32  C   UNL     1      -1.460  -5.228   1.661  1.00  0.00     0.261 C 
BRANCH  32  33
ATOM     33  O   UNL     1      -2.855  -4.906   1.650  1.00  0.00    -0.460 OA
BRANCH  33  34
ATOM     34  C   UNL     1      -3.582  -5.453   2.644  1.00  0.00     0.338 C 
ATOM     35  O   UNL     1      -3.187  -6.183   3.545  1.00  0.00    -0.246 OA
BRANCH  34  36
ATOM     36  C   UNL     1      -4.960  -4.938   2.573  1.00  0.00     0.060 A 
ATOM     37  C   UNL     1      -5.470  -4.230   3.668  1.00  0.00     0.016 A 
ATOM     38  C   UNL     1      -5.766  -5.210   1.465  1.00  0.00     0.016 A 
ATOM     39  C   UNL     1      -6.796  -3.814   3.677  1.00  0.00     0.010 A 
ATOM     40  C   UNL     1      -7.109  -4.826   1.489  1.00  0.00     0.010 A 
ATOM     41  C   UNL     1      -7.635  -4.163   2.613  1.00  0.00    -0.014 A 
BRANCH  41  42
ATOM     42  C   UNL     1      -9.097  -4.035   2.791  1.00  0.00     0.031 A 
ATOM     43  C   UNL     1      -9.866  -5.248   3.235  1.00  0.00     0.074 A 
ATOM     44  C   UNL     1      -9.716  -2.856   2.618  1.00  0.00     0.049 A 
ATOM     45  N   UNL     1     -11.151  -5.393   3.427  1.00  0.00    -0.248 NA
ATOM     46  C   UNL     1      -9.076  -6.463   3.499  1.00  0.00     0.031 C 
ATOM     47  C   UNL     1      -9.061  -1.599   2.260  1.00  0.00     0.029 A 
ATOM     48  N   UNL     1     -11.043  -2.530   2.724  1.00  0.00    -0.354 N 
ATOM     49  C   UNL     1     -11.324  -6.715   3.819  1.00  0.00     0.074 A 
ATOM     50  C   UNL     1     -10.019  -7.337   3.813  1.00  0.00     0.031 C 
ATOM     51  C   UNL     1      -9.995  -0.636   2.165  1.00  0.00     0.029 A 
ATOM     52  C   UNL     1     -11.311  -1.220   2.416  1.00  0.00     0.049 A 
ATOM     53  H   UNL     1     -11.737  -3.174   2.994  1.00  0.00     0.167 HD
ATOM     54  C   UNL     1     -12.470  -7.352   4.155  1.00  0.00     0.031 A 
ATOM     55  C   UNL     1     -12.491  -0.578   2.321  1.00  0.00     0.031 A 
ATOM     56  C   UNL     1     -13.766  -6.731   4.141  1.00  0.00     0.049 A 
ATOM     57  C   UNL     1     -13.762  -1.335   2.604  1.00  0.00     0.074 A 
ATOM     58  C   UNL     1     -14.991  -7.284   4.465  1.00  0.00     0.029 A 
ATOM     59  N   UNL     1     -14.003  -5.415   3.772  1.00  0.00    -0.354 N 
ATOM     60  N   UNL     1     -13.918  -2.582   2.984  1.00  0.00    -0.248 NA
ATOM     61  C   UNL     1     -15.022  -0.594   2.450  1.00  0.00     0.031 C 
ATOM     62  C   UNL     1     -15.978  -6.323   4.227  1.00  0.00     0.029 A 
ATOM     63  C   UNL     1     -15.360  -5.148   3.828  1.00  0.00     0.049 A 
ATOM     64  H   UNL     1     -13.310  -4.768   3.508  1.00  0.00     0.167 HD
ATOM     65  C   UNL     1     -15.286  -2.763   3.146  1.00  0.00     0.074 A 
ATOM     66  C   UNL     1     -15.914  -1.494   2.838  1.00  0.00     0.031 C 
ATOM     67  C   UNL     1     -15.964  -3.877   3.518  1.00  0.00     0.031 A 
BRANCH  54  68
ATOM     68  C   UNL     1     -12.372  -8.809   4.515  1.00  0.00    -0.014 A 
ATOM     69  C   UNL     1     -11.758  -9.234   5.705  1.00  0.00     0.009 A 
ATOM     70  C   UNL     1     -12.924  -9.773   3.656  1.00  0.00     0.009 A 
ATOM     71  C   UNL     1     -11.669 -10.595   6.007  1.00  0.00     0.001 A 
ATOM     72  C   UNL     1     -12.862 -11.130   3.977  1.00  0.00     0.001 A 
ATOM     73  C   UNL     1     -12.225 -11.541   5.146  1.00  0.00     0.000 A 
ENDBRANCH  54  68
BRANCH  55  74
ATOM     74  C   UNL     1     -12.533   0.850   1.907  1.00  0.00    -0.014 A 
ATOM     75  C   UNL     1     -12.960   1.845   2.800  1.00  0.00     0.009 A 
ATOM     76  C   UNL     1     -12.165   1.223   0.604  1.00  0.00     0.009 A 
ATOM     77  C   UNL     1     -13.044   3.178   2.387  1.00  0.00     0.001 A 
ATOM     78  C   UNL     1     -12.219   2.560   0.205  1.00  0.00     0.001 A 
ATOM     79  C   UNL     1     -12.670   3.535   1.093  1.00  0.00     0.000 A 
ENDBRANCH  55  74
BRANCH  67  80
ATOM     80  C   UNL     1     -17.458  -3.762   3.659  1.00  0.00    -0.014 A 
ATOM     81  C   UNL     1     -18.293  -3.617   2.540  1.00  0.00     0.009 A 
ATOM     82  C   UNL     1     -18.040  -3.848   4.934  1.00  0.00     0.009 A 
ATOM     83  C   UNL     1     -19.677  -3.521   2.700  1.00  0.00     0.001 A 
ATOM     84  C   UNL     1     -19.425  -3.788   5.088  1.00  0.00     0.001 A 
ATOM     85  C   UNL     1     -20.242  -3.613   3.972  1.00  0.00     0.000 A 
ENDBRANCH  67  80
ENDBRANCH  41  42
ENDBRANCH  34  36
ENDBRANCH  33  34
ENDBRANCH  32  33
ENDBRANCH  31  32
ENDBRANCH  30  31
ENDBRANCH  29  30
ENDBRANCH   1  29
TORSDOF 22
