REMARK SMILES Cc1n[nH]c(C(=O)Nc2cc(C(=O)OCCOCCOCCOCCOC(=O)c3ccc(-c4c5nc(c(-c6ccccc6)c6ccc([nH]6)c(-c6ccccc6)c6nc(c(-c7ccccc7)c7ccc4[nH]7)C=C6)C=C5)cc3)[nH]n2)n1
REMARK SMILES IDX 20 1 19 2 18 3 17 4 16 5 15 6 14 7 12 8 13 9 11 10 9 11
REMARK SMILES IDX 10 12 78 13 77 14 8 16 6 17 7 18 5 20 1 21 2 22 3 23 79 24
REMARK SMILES IDX 4 25 21 27 22 28 23 29 24 30 25 31 26 32 27 33 28 34 29 35
REMARK SMILES IDX 30 36 76 37 31 38 75 39 32 40 33 41 34 42 69 43 35 44 74 45
REMARK SMILES IDX 68 46 70 47 36 48 73 49 67 50 66 51 37 53 59 54 44 55 58 56
REMARK SMILES IDX 45 57 48 58 57 59 71 60 46 61 47 62 56 64 72 65 49 66 38 67
REMARK SMILES IDX 39 68 43 69 40 70 42 71 41 72 60 73 61 74 65 75 62 76 64 77
REMARK SMILES IDX 63 78 50 79 51 80 55 81 52 82 54 83 53 84
REMARK H PARENT 77 15 8 19 4 26 70 52 48 63
REMARK Flexibility Score: inf
ROOT
ATOM      1  O   UNL     1       0.072  -7.250   3.514  1.00  0.00    -0.377 OA
ENDROOT
BRANCH   1   2
ATOM      2  C   UNL     1       0.091  -8.055   2.350  1.00  0.00     0.188 C 
BRANCH   2   3
ATOM      3  C   UNL     1       1.474  -8.651   1.997  1.00  0.00     0.188 C 
BRANCH   3   4
ATOM      4  O   UNL     1       2.634  -8.457   2.801  1.00  0.00    -0.376 OA
BRANCH   4   5
ATOM      5  C   UNL     1       2.819  -7.320   3.628  1.00  0.00     0.202 C 
BRANCH   5   6
ATOM      6  C   UNL     1       2.860  -5.913   3.019  1.00  0.00     0.261 C 
BRANCH   6   7
ATOM      7  O   UNL     1       1.930  -5.677   1.964  1.00  0.00    -0.459 OA
BRANCH   7   8
ATOM      8  C   UNL     1       2.376  -6.011   0.729  1.00  0.00     0.356 C 
ATOM      9  O   UNL     1       3.502  -6.388   0.439  1.00  0.00    -0.244 OA
BRANCH   8  10
ATOM     10  C   UNL     1       1.279  -5.995  -0.191  1.00  0.00     0.145 A 
ATOM     11  C   UNL     1      -0.470  -5.567  -1.461  1.00  0.00     0.155 A 
ATOM     12  C   UNL     1       0.089  -5.301  -0.195  1.00  0.00     0.084 A 
ATOM     13  N   UNL     1       0.143  -6.584  -2.062  1.00  0.00    -0.157 NA
ATOM     14  N   UNL     1       1.232  -6.793  -1.299  1.00  0.00    -0.269 N 
ATOM     15  H   UNL     1       1.926  -7.456  -1.518  1.00  0.00     0.190 HD
BRANCH  11  16
ATOM     16  N   UNL     1      -1.442  -4.865  -2.119  1.00  0.00    -0.302 N 
ATOM     17  C   UNL     1      -1.685  -3.506  -2.037  1.00  0.00     0.294 C 
ATOM     18  O   UNL     1      -2.743  -3.087  -2.510  1.00  0.00    -0.265 OA
ATOM     19  H   UNL     1      -2.031  -5.382  -2.715  1.00  0.00     0.172 HD
BRANCH  17  20
ATOM     20  C   UNL     1      -0.644  -2.630  -1.514  1.00  0.00     0.214 A 
ATOM     21  C   UNL     1       0.700   0.287  -0.019  1.00  0.00     0.092 C 
ATOM     22  C   UNL     1       0.429  -1.023  -0.640  1.00  0.00     0.148 A 
ATOM     23  N   UNL     1       1.405  -1.863  -0.996  1.00  0.00    -0.159 NA
ATOM     24  N   UNL     1      -0.839  -1.459  -0.931  1.00  0.00    -0.207 NA
ATOM     25  N   UNL     1       0.709  -2.827  -1.611  1.00  0.00    -0.255 N 
ATOM     26  H   UNL     1       1.121  -3.589  -2.078  1.00  0.00     0.192 HD
ENDBRANCH  17  20
ENDBRANCH  11  16
ENDBRANCH   8  10
ENDBRANCH   7   8
ENDBRANCH   6   7
ENDBRANCH   5   6
ENDBRANCH   4   5
ENDBRANCH   3   4
ENDBRANCH   2   3
ENDBRANCH   1   2
BRANCH   1  27
ATOM     27  C   UNL     1      -0.355  -7.907   4.705  1.00  0.00     0.188 C 
BRANCH  27  28
ATOM     28  C   UNL     1       0.248  -9.298   5.030  1.00  0.00     0.188 C 
BRANCH  28  29
ATOM     29  O   UNL     1       0.324 -10.183   3.915  1.00  0.00    -0.376 OA
BRANCH  29  30
ATOM     30  C   UNL     1      -0.507 -11.331   3.845  1.00  0.00     0.202 C 
BRANCH  30  31
ATOM     31  C   UNL     1      -1.940 -11.053   3.401  1.00  0.00     0.261 C 
BRANCH  31  32
ATOM     32  O   UNL     1      -2.543  -9.992   4.120  1.00  0.00    -0.460 OA
BRANCH  32  33
ATOM     33  C   UNL     1      -2.675 -10.207   5.442  1.00  0.00     0.338 C 
ATOM     34  O   UNL     1      -2.262 -11.156   6.085  1.00  0.00    -0.246 OA
BRANCH  33  35
ATOM     35  C   UNL     1      -3.544  -9.163   5.988  1.00  0.00     0.060 A 
ATOM     36  C   UNL     1      -3.876  -9.335   7.328  1.00  0.00     0.016 A 
ATOM     37  C   UNL     1      -4.320  -8.404   5.097  1.00  0.00     0.016 A 
ATOM     38  C   UNL     1      -5.167  -9.059   7.681  1.00  0.00     0.010 A 
ATOM     39  C   UNL     1      -5.616  -8.142   5.447  1.00  0.00     0.010 A 
ATOM     40  C   UNL     1      -6.041  -8.587   6.692  1.00  0.00    -0.014 A 
BRANCH  40  41
ATOM     41  C   UNL     1      -7.434  -8.532   7.041  1.00  0.00     0.031 A 
ATOM     42  C   UNL     1      -7.732  -7.433   7.970  1.00  0.00     0.074 A 
ATOM     43  C   UNL     1      -8.345  -9.381   6.541  1.00  0.00     0.049 A 
ATOM     44  N   UNL     1      -8.066  -7.524   9.211  1.00  0.00    -0.248 NA
ATOM     45  C   UNL     1      -7.431  -6.071   7.506  1.00  0.00     0.031 C 
ATOM     46  C   UNL     1      -8.224 -10.305   5.411  1.00  0.00     0.029 A 
ATOM     47  N   UNL     1      -9.646  -9.498   6.901  1.00  0.00    -0.354 N 
ATOM     48  C   UNL     1      -8.199  -6.214   9.646  1.00  0.00     0.074 A 
ATOM     49  C   UNL     1      -7.622  -5.377   8.625  1.00  0.00     0.031 C 
ATOM     50  C   UNL     1      -9.465 -10.691   5.030  1.00  0.00     0.029 A 
ATOM     51  C   UNL     1     -10.435 -10.148   5.969  1.00  0.00     0.049 A 
ATOM     52  H   UNL     1      -9.999  -9.150   7.752  1.00  0.00     0.167 HD
ATOM     53  C   UNL     1      -9.018  -5.898  10.682  1.00  0.00     0.031 A 
ATOM     54  C   UNL     1     -11.790 -10.135   5.943  1.00  0.00     0.031 A 
ATOM     55  C   UNL     1      -9.322  -7.044  11.499  1.00  0.00     0.049 A 
ATOM     56  C   UNL     1     -12.264  -9.697   7.281  1.00  0.00     0.074 A 
ATOM     57  C   UNL     1      -8.566  -7.936  12.235  1.00  0.00     0.029 A 
ATOM     58  N   UNL     1     -10.547  -7.643  11.323  1.00  0.00    -0.354 N 
ATOM     59  N   UNL     1     -12.162 -10.422   8.357  1.00  0.00    -0.248 NA
ATOM     60  C   UNL     1     -12.458  -8.272   7.508  1.00  0.00     0.031 C 
ATOM     61  C   UNL     1      -9.206  -9.198  12.063  1.00  0.00     0.029 A 
ATOM     62  C   UNL     1     -10.339  -8.997  11.273  1.00  0.00     0.049 A 
ATOM     63  H   UNL     1     -11.414  -7.183  11.248  1.00  0.00     0.167 HD
ATOM     64  C   UNL     1     -11.849  -9.521   9.366  1.00  0.00     0.074 A 
ATOM     65  C   UNL     1     -12.147  -8.205   8.806  1.00  0.00     0.031 C 
ATOM     66  C   UNL     1     -11.111  -9.903  10.450  1.00  0.00     0.031 A 
BRANCH  53  67
ATOM     67  C   UNL     1      -9.870  -4.657  10.665  1.00  0.00    -0.014 A 
ATOM     68  C   UNL     1     -10.680  -4.384  11.778  1.00  0.00     0.009 A 
ATOM     69  C   UNL     1     -10.120  -3.906   9.498  1.00  0.00     0.009 A 
ATOM     70  C   UNL     1     -11.732  -3.464  11.698  1.00  0.00     0.001 A 
ATOM     71  C   UNL     1     -11.138  -2.955   9.428  1.00  0.00     0.001 A 
ATOM     72  C   UNL     1     -11.964  -2.757  10.521  1.00  0.00     0.000 A 
ENDBRANCH  53  67
BRANCH  54  73
ATOM     73  C   UNL     1     -12.690 -10.168   4.772  1.00  0.00    -0.014 A 
ATOM     74  C   UNL     1     -14.061 -10.414   4.943  1.00  0.00     0.009 A 
ATOM     75  C   UNL     1     -12.260  -9.685   3.523  1.00  0.00     0.009 A 
ATOM     76  C   UNL     1     -14.974 -10.138   3.918  1.00  0.00     0.001 A 
ATOM     77  C   UNL     1     -13.171  -9.417   2.497  1.00  0.00     0.001 A 
ATOM     78  C   UNL     1     -14.530  -9.626   2.701  1.00  0.00     0.000 A 
ENDBRANCH  54  73
BRANCH  66  79
ATOM     79  C   UNL     1     -10.857 -11.377  10.648  1.00  0.00    -0.014 A 
ATOM     80  C   UNL     1     -10.187 -12.174   9.702  1.00  0.00     0.009 A 
ATOM     81  C   UNL     1     -11.175 -11.947  11.890  1.00  0.00     0.009 A 
ATOM     82  C   UNL     1      -9.882 -13.511   9.979  1.00  0.00     0.001 A 
ATOM     83  C   UNL     1     -10.850 -13.275  12.174  1.00  0.00     0.001 A 
ATOM     84  C   UNL     1     -10.210 -14.059  11.217  1.00  0.00     0.000 A 
ENDBRANCH  66  79
ENDBRANCH  40  41
ENDBRANCH  33  35
ENDBRANCH  32  33
ENDBRANCH  31  32
ENDBRANCH  30  31
ENDBRANCH  29  30
ENDBRANCH  28  29
ENDBRANCH  27  28
ENDBRANCH   1  27
TORSDOF 22
