REMARK SMILES Cc1nn(C(C)C)cc1-c1cnccc1C(=O)OCCOCCOCCOCCOC(=O)c1ccc(-c2c3nc(c(-c4ccccc4)c4ccc([nH]4)c(-c4ccccc4)c4nc(c(-c5ccccc5)c5ccc2[nH]5)C=C4)C=C3)cc1
REMARK SMILES IDX 24 1 23 2 22 3 21 4 20 5 19 6 18 7 16 8 17 9 15 10 10 11
REMARK SMILES IDX 11 12 12 13 14 14 13 15 9 16 1 17 2 18 3 19 4 20 8 21 5 22
REMARK SMILES IDX 6 23 7 24 25 25 26 26 27 27 28 28 29 29 30 30 31 31 32 32
REMARK SMILES IDX 33 33 34 34 80 35 35 36 79 37 36 38 37 39 38 40 73 41 39 42
REMARK SMILES IDX 78 43 72 44 74 45 40 46 77 47 71 48 70 49 41 51 63 52 48 53
REMARK SMILES IDX 62 54 49 55 52 56 61 57 75 58 50 59 51 60 60 62 76 63 53 64
REMARK SMILES IDX 42 65 43 66 47 67 44 68 46 69 45 70 64 71 65 72 69 73 66 74
REMARK SMILES IDX 68 75 67 76 54 77 55 78 59 79 56 80 58 81 57 82
REMARK H PARENT 74 50 52 61
REMARK Flexibility Score: inf
ROOT
ATOM      1  O   UNL     1       1.650  -0.593   4.008  1.00  0.00    -0.377 OA
ENDROOT
BRANCH   1   2
ATOM      2  C   UNL     1       0.278  -0.392   4.343  1.00  0.00     0.188 C 
BRANCH   2   3
ATOM      3  C   UNL     1      -0.449  -1.100   5.516  1.00  0.00     0.188 C 
BRANCH   3   4
ATOM      4  O   UNL     1       0.151  -2.314   5.934  1.00  0.00    -0.376 OA
BRANCH   4   5
ATOM      5  C   UNL     1      -0.539  -3.532   5.767  1.00  0.00     0.202 C 
BRANCH   5   6
ATOM      6  C   UNL     1      -0.784  -3.970   4.324  1.00  0.00     0.261 C 
BRANCH   6   7
ATOM      7  O   UNL     1      -1.153  -2.896   3.453  1.00  0.00    -0.460 OA
BRANCH   7   8
ATOM      8  C   UNL     1      -2.465  -2.634   3.299  1.00  0.00     0.338 C 
ATOM      9  O   UNL     1      -3.382  -3.195   3.872  1.00  0.00    -0.246 OA
BRANCH   8  10
ATOM     10  C   UNL     1      -2.638  -1.418   2.462  1.00  0.00     0.071 A 
ATOM     11  C   UNL     1      -1.931  -1.139   1.279  1.00  0.00     0.018 A 
ATOM     12  C   UNL     1      -2.237   0.071   0.657  1.00  0.00     0.120 A 
ATOM     13  N   UNL     1      -3.097   1.002   1.141  1.00  0.00    -0.264 NA
ATOM     14  C   UNL     1      -3.534  -0.470   2.982  1.00  0.00     0.036 A 
ATOM     15  C   UNL     1      -3.712   0.718   2.302  1.00  0.00     0.112 A 
BRANCH  11  16
ATOM     16  C   UNL     1      -0.857  -1.951   0.725  1.00  0.00     0.025 A 
ATOM     17  C   UNL     1       1.034  -0.217   0.128  1.00  0.00     0.069 C 
ATOM     18  C   UNL     1       0.433  -1.571   0.242  1.00  0.00     0.067 A 
ATOM     19  N   UNL     1       1.155  -2.635  -0.128  1.00  0.00    -0.177 NA
ATOM     20  N   UNL     1       0.379  -3.685   0.185  1.00  0.00    -0.269 N 
ATOM     21  C   UNL     1      -0.869  -3.326   0.613  1.00  0.00     0.118 A 
BRANCH  20  22
ATOM     22  C   UNL     1       0.904  -5.041   0.071  1.00  0.00     0.101 C 
ATOM     23  C   UNL     1       1.080  -5.436  -1.392  1.00  0.00     0.033 C 
ATOM     24  C   UNL     1       2.206  -5.215   0.858  1.00  0.00     0.033 C 
ENDBRANCH  20  22
ENDBRANCH  11  16
ENDBRANCH   8  10
ENDBRANCH   7   8
ENDBRANCH   6   7
ENDBRANCH   5   6
ENDBRANCH   4   5
ENDBRANCH   3   4
ENDBRANCH   2   3
ENDBRANCH   1   2
BRANCH   1  25
ATOM     25  C   UNL     1       2.373  -1.645   4.626  1.00  0.00     0.188 C 
BRANCH  25  26
ATOM     26  C   UNL     1       2.732  -1.398   6.106  1.00  0.00     0.188 C 
BRANCH  26  27
ATOM     27  O   UNL     1       1.907  -0.437   6.751  1.00  0.00    -0.376 OA
BRANCH  27  28
ATOM     28  C   UNL     1       2.293   0.921   6.853  1.00  0.00     0.202 C 
BRANCH  28  29
ATOM     29  C   UNL     1       2.841   1.683   5.650  1.00  0.00     0.261 C 
BRANCH  29  30
ATOM     30  O   UNL     1       3.788   0.994   4.857  1.00  0.00    -0.460 OA
BRANCH  30  31
ATOM     31  C   UNL     1       4.958   0.718   5.454  1.00  0.00     0.338 C 
ATOM     32  O   UNL     1       5.225   0.746   6.638  1.00  0.00    -0.246 OA
BRANCH  31  33
ATOM     33  C   UNL     1       5.938   0.504   4.392  1.00  0.00     0.060 A 
ATOM     34  C   UNL     1       7.134  -0.116   4.744  1.00  0.00     0.016 A 
ATOM     35  C   UNL     1       5.768   1.188   3.177  1.00  0.00     0.016 A 
ATOM     36  C   UNL     1       8.234   0.118   3.953  1.00  0.00     0.010 A 
ATOM     37  C   UNL     1       6.870   1.440   2.402  1.00  0.00     0.010 A 
ATOM     38  C   UNL     1       8.100   0.966   2.846  1.00  0.00    -0.014 A 
BRANCH  38  39
ATOM     39  C   UNL     1       9.295   1.292   2.108  1.00  0.00     0.031 A 
ATOM     40  C   UNL     1       9.791   0.185   1.268  1.00  0.00     0.074 A 
ATOM     41  C   UNL     1       9.846   2.517   2.124  1.00  0.00     0.049 A 
ATOM     42  N   UNL     1      10.904  -0.452   1.395  1.00  0.00    -0.248 NA
ATOM     43  C   UNL     1       8.879  -0.369   0.257  1.00  0.00     0.031 C 
ATOM     44  C   UNL     1       9.294   3.755   2.678  1.00  0.00     0.029 A 
ATOM     45  N   UNL     1      10.992   2.927   1.522  1.00  0.00    -0.354 N 
ATOM     46  C   UNL     1      10.923  -1.379   0.362  1.00  0.00     0.074 A 
ATOM     47  C   UNL     1       9.597  -1.393  -0.202  1.00  0.00     0.031 C 
ATOM     48  C   UNL     1       9.986   4.804   2.177  1.00  0.00     0.029 A 
ATOM     49  C   UNL     1      11.089   4.301   1.372  1.00  0.00     0.049 A 
ATOM     50  H   UNL     1      11.691   2.304   1.218  1.00  0.00     0.167 HD
ATOM     51  C   UNL     1      12.096  -1.876  -0.112  1.00  0.00     0.031 A 
ATOM     52  C   UNL     1      11.963   4.955   0.568  1.00  0.00     0.031 A 
ATOM     53  C   UNL     1      13.173  -1.694   0.828  1.00  0.00     0.049 A 
ATOM     54  C   UNL     1      13.067   4.017   0.246  1.00  0.00     0.074 A 
ATOM     55  C   UNL     1      13.382  -2.066   2.143  1.00  0.00     0.029 A 
ATOM     56  N   UNL     1      14.086  -0.698   0.569  1.00  0.00    -0.354 N 
ATOM     57  N   UNL     1      13.964   3.635   1.108  1.00  0.00    -0.248 NA
ATOM     58  C   UNL     1      12.930   3.165  -0.927  1.00  0.00     0.031 C 
ATOM     59  C   UNL     1      14.062  -0.963   2.735  1.00  0.00     0.029 A 
ATOM     60  C   UNL     1      14.281  -0.011   1.738  1.00  0.00     0.049 A 
ATOM     61  H   UNL     1      14.519  -0.513  -0.295  1.00  0.00     0.167 HD
ATOM     62  C   UNL     1      14.177   2.294   0.825  1.00  0.00     0.074 A 
ATOM     63  C   UNL     1      13.601   2.091  -0.503  1.00  0.00     0.031 C 
ATOM     64  C   UNL     1      14.534   1.411   1.805  1.00  0.00     0.031 A 
BRANCH  51  65
ATOM     65  C   UNL     1      12.335  -2.112  -1.582  1.00  0.00    -0.014 A 
ATOM     66  C   UNL     1      13.595  -2.587  -1.986  1.00  0.00     0.009 A 
ATOM     67  C   UNL     1      11.494  -1.611  -2.595  1.00  0.00     0.009 A 
ATOM     68  C   UNL     1      14.025  -2.467  -3.312  1.00  0.00     0.001 A 
ATOM     69  C   UNL     1      11.902  -1.533  -3.927  1.00  0.00     0.001 A 
ATOM     70  C   UNL     1      13.182  -1.929  -4.279  1.00  0.00     0.000 A 
ENDBRANCH  51  65
BRANCH  52  71
ATOM     71  C   UNL     1      11.791   6.240  -0.143  1.00  0.00    -0.014 A 
ATOM     72  C   UNL     1      12.889   6.858  -0.765  1.00  0.00     0.009 A 
ATOM     73  C   UNL     1      10.510   6.740  -0.439  1.00  0.00     0.009 A 
ATOM     74  C   UNL     1      12.706   7.902  -1.682  1.00  0.00     0.001 A 
ATOM     75  C   UNL     1      10.327   7.790  -1.345  1.00  0.00     0.001 A 
ATOM     76  C   UNL     1      11.425   8.358  -1.980  1.00  0.00     0.000 A 
ENDBRANCH  52  71
BRANCH  64  77
ATOM     77  C   UNL     1      14.946   1.954   3.151  1.00  0.00    -0.014 A 
ATOM     78  C   UNL     1      14.120   2.780   3.932  1.00  0.00     0.009 A 
ATOM     79  C   UNL     1      16.139   1.479   3.720  1.00  0.00     0.009 A 
ATOM     80  C   UNL     1      14.492   3.145   5.230  1.00  0.00     0.001 A 
ATOM     81  C   UNL     1      16.498   1.823   5.024  1.00  0.00     0.001 A 
ATOM     82  C   UNL     1      15.678   2.660   5.777  1.00  0.00     0.000 A 
ENDBRANCH  64  77
ENDBRANCH  38  39
ENDBRANCH  31  33
ENDBRANCH  30  31
ENDBRANCH  29  30
ENDBRANCH  28  29
ENDBRANCH  27  28
ENDBRANCH  26  27
ENDBRANCH  25  26
ENDBRANCH   1  25
TORSDOF 22
