REMARK SMILES CC1(C)S[C@@H](c2ccsc2)[NH2+][C@@H]1C(=O)OCCOCCOCCOCCOC(=O)c1ccc(-c2c3nc(c(-c4ccccc4)c4ccc([nH]4)c(-c4ccccc4)c4nc(c(-c5ccccc5)c5ccc2[nH]5)C=C4)C=C3)cc1
REMARK SMILES IDX 22 1 21 2 20 3 19 4 18 5 17 6 16 7 15 8 13 9 14 10 12 11
REMARK SMILES IDX 1 12 2 13 3 14 4 15 5 16 11 17 6 20 7 21 10 22 8 23 9 24
REMARK SMILES IDX 23 25 24 26 25 27 26 28 27 29 28 30 29 31 30 32 31 33 77 34
REMARK SMILES IDX 32 35 76 36 33 37 34 38 35 39 70 40 36 41 75 42 69 43 71 44
REMARK SMILES IDX 37 45 74 46 68 47 67 48 38 50 60 51 45 52 59 53 46 54 49 55
REMARK SMILES IDX 58 56 72 57 47 58 48 59 57 61 73 62 50 63 39 64 40 65 44 66
REMARK SMILES IDX 41 67 43 68 42 69 61 70 62 71 66 72 63 73 65 74 64 75 51 76
REMARK SMILES IDX 52 77 56 78 53 79 55 80 54 81
REMARK H PARENT 11 18 11 19 71 49 49 60
REMARK Flexibility Score: inf
ROOT
ATOM      1  C   UNL     1      -0.812   4.326  -4.400  1.00  0.00     0.188 C 
ENDROOT
BRANCH   1   2
ATOM      2  O   UNL     1      -0.828   3.640  -3.151  1.00  0.00    -0.377 OA
BRANCH   2   3
ATOM      3  C   UNL     1       0.408   3.350  -2.530  1.00  0.00     0.188 C 
BRANCH   3   4
ATOM      4  C   UNL     1       1.207   2.213  -3.201  1.00  0.00     0.188 C 
BRANCH   4   5
ATOM      5  O   UNL     1       0.820   1.960  -4.545  1.00  0.00    -0.376 OA
BRANCH   5   6
ATOM      6  C   UNL     1      -0.055   0.881  -4.846  1.00  0.00     0.202 C 
BRANCH   6   7
ATOM      7  C   UNL     1      -1.387   0.736  -4.095  1.00  0.00     0.261 C 
BRANCH   7   8
ATOM      8  O   UNL     1      -1.277   0.875  -2.678  1.00  0.00    -0.459 OA
BRANCH   8   9
ATOM      9  C   UNL     1      -0.644  -0.120  -2.002  1.00  0.00     0.366 C 
ATOM     10  O   UNL     1      -0.321  -1.191  -2.490  1.00  0.00    -0.245 OA
BRANCH   9  11
ATOM     11  C   UNL     1      -0.382   0.369  -0.557  1.00  0.00     0.310 C 
ATOM     12  C   UNL     1       1.139   0.483   1.480  1.00  0.00     0.030 C 
ATOM     13  C   UNL     1       0.701  -0.359   0.260  1.00  0.00     0.079 C 
ATOM     14  C   UNL     1       1.968  -0.709  -0.525  1.00  0.00     0.030 C 
ATOM     15  S   UNL     1      -0.217  -1.802   0.897  1.00  0.00    -0.081 SA
ATOM     16  C   UNL     1      -1.850  -1.081   0.532  1.00  0.00     0.275 C 
ATOM     17  N   UNL     1      -1.658   0.327   0.185  1.00  0.00    -0.319 N 
ATOM     18  H   UNL     1      -1.601   0.899   1.028  1.00  0.00     0.348 HD
ATOM     19  H   UNL     1      -2.433   0.695  -0.366  1.00  0.00     0.348 HD
BRANCH  16  20
ATOM     20  C   UNL     1      -2.821  -1.113   1.669  1.00  0.00     0.031 A 
ATOM     21  C   UNL     1      -2.534  -0.794   3.042  1.00  0.00     0.022 A 
ATOM     22  C   UNL     1      -4.172  -1.377   1.510  1.00  0.00     0.075 A 
ATOM     23  C   UNL     1      -3.646  -0.865   3.849  1.00  0.00     0.065 A 
ATOM     24  S   UNL     1      -5.047  -1.292   2.973  1.00  0.00    -0.152 S 
ENDBRANCH  16  20
ENDBRANCH   9  11
ENDBRANCH   8   9
ENDBRANCH   7   8
ENDBRANCH   6   7
ENDBRANCH   5   6
ENDBRANCH   4   5
ENDBRANCH   3   4
ENDBRANCH   2   3
ENDBRANCH   1   2
BRANCH   1  25
ATOM     25  C   UNL     1       0.494   4.619  -5.187  1.00  0.00     0.188 C 
BRANCH  25  26
ATOM     26  O   UNL     1       1.672   4.722  -4.403  1.00  0.00    -0.376 OA
BRANCH  26  27
ATOM     27  C   UNL     1       2.231   6.003  -4.178  1.00  0.00     0.202 C 
BRANCH  27  28
ATOM     28  C   UNL     1       1.414   6.962  -3.300  1.00  0.00     0.261 C 
BRANCH  28  29
ATOM     29  O   UNL     1       0.060   7.187  -3.719  1.00  0.00    -0.460 OA
BRANCH  29  30
ATOM     30  C   UNL     1      -0.117   7.792  -4.912  1.00  0.00     0.338 C 
ATOM     31  O   UNL     1       0.750   8.199  -5.669  1.00  0.00    -0.246 OA
BRANCH  30  32
ATOM     32  C   UNL     1      -1.550   7.702  -5.255  1.00  0.00     0.060 A 
ATOM     33  C   UNL     1      -1.926   7.035  -6.429  1.00  0.00     0.016 A 
ATOM     34  C   UNL     1      -2.516   8.251  -4.410  1.00  0.00     0.016 A 
ATOM     35  C   UNL     1      -3.271   6.952  -6.783  1.00  0.00     0.010 A 
ATOM     36  C   UNL     1      -3.861   8.193  -4.779  1.00  0.00     0.010 A 
ATOM     37  C   UNL     1      -4.238   7.578  -5.987  1.00  0.00    -0.014 A 
BRANCH  37  38
ATOM     38  C   UNL     1      -5.599   7.791  -6.532  1.00  0.00     0.031 A 
ATOM     39  C   UNL     1      -5.900   9.116  -7.178  1.00  0.00     0.074 A 
ATOM     40  C   UNL     1      -6.536   6.828  -6.491  1.00  0.00     0.049 A 
ATOM     41  N   UNL     1      -7.016   9.552  -7.703  1.00  0.00    -0.248 NA
ATOM     42  C   UNL     1      -4.788  10.081  -7.237  1.00  0.00     0.031 C 
ATOM     43  C   UNL     1      -6.352   5.487  -5.943  1.00  0.00     0.029 A 
ATOM     44  N   UNL     1      -7.838   6.843  -6.923  1.00  0.00    -0.354 N 
ATOM     45  C   UNL     1      -6.743  10.841  -8.144  1.00  0.00     0.074 A 
ATOM     46  C   UNL     1      -5.369  11.129  -7.798  1.00  0.00     0.031 C 
ATOM     47  C   UNL     1      -7.506   4.807  -6.066  1.00  0.00     0.029 A 
ATOM     48  C   UNL     1      -8.515   5.677  -6.668  1.00  0.00     0.049 A 
ATOM     49  H   UNL     1      -8.248   7.617  -7.374  1.00  0.00     0.167 HD
ATOM     50  C   UNL     1      -7.561  11.707  -8.786  1.00  0.00     0.031 A 
ATOM     51  C   UNL     1      -9.808   5.359  -6.878  1.00  0.00     0.031 A 
ATOM     52  C   UNL     1      -8.933  11.429  -9.112  1.00  0.00     0.049 A 
ATOM     53  C   UNL     1     -10.724   6.375  -7.513  1.00  0.00     0.074 A 
ATOM     54  C   UNL     1      -9.844  12.237  -9.768  1.00  0.00     0.029 A 
ATOM     55  N   UNL     1      -9.595  10.253  -8.794  1.00  0.00    -0.354 N 
ATOM     56  N   UNL     1     -10.451   7.582  -7.949  1.00  0.00    -0.248 NA
ATOM     57  C   UNL     1     -12.128   5.977  -7.692  1.00  0.00     0.031 C 
ATOM     58  C   UNL     1     -11.076  11.576  -9.788  1.00  0.00     0.029 A 
ATOM     59  C   UNL     1     -10.912  10.326  -9.213  1.00  0.00     0.049 A 
ATOM     60  H   UNL     1      -9.188   9.481  -8.338  1.00  0.00     0.167 HD
ATOM     61  C   UNL     1     -11.637   8.071  -8.484  1.00  0.00     0.074 A 
ATOM     62  C   UNL     1     -12.627   7.024  -8.332  1.00  0.00     0.031 C 
ATOM     63  C   UNL     1     -11.886   9.277  -9.054  1.00  0.00     0.031 A 
BRANCH  50  64
ATOM     64  C   UNL     1      -6.998  13.057  -9.136  1.00  0.00    -0.014 A 
ATOM     65  C   UNL     1      -6.013  13.209 -10.125  1.00  0.00     0.009 A 
ATOM     66  C   UNL     1      -7.478  14.200  -8.476  1.00  0.00     0.009 A 
ATOM     67  C   UNL     1      -5.496  14.472 -10.421  1.00  0.00     0.001 A 
ATOM     68  C   UNL     1      -6.983  15.464  -8.797  1.00  0.00     0.001 A 
ATOM     69  C   UNL     1      -5.986  15.599  -9.761  1.00  0.00     0.000 A 
ENDBRANCH  50  64
BRANCH  51  70
ATOM     70  C   UNL     1     -10.329   4.028  -6.467  1.00  0.00    -0.014 A 
ATOM     71  C   UNL     1     -10.757   3.096  -7.424  1.00  0.00     0.009 A 
ATOM     72  C   UNL     1     -10.433   3.696  -5.106  1.00  0.00     0.009 A 
ATOM     73  C   UNL     1     -11.305   1.873  -7.028  1.00  0.00     0.001 A 
ATOM     74  C   UNL     1     -10.950   2.459  -4.714  1.00  0.00     0.001 A 
ATOM     75  C   UNL     1     -11.396   1.554  -5.674  1.00  0.00     0.000 A 
ENDBRANCH  51  70
BRANCH  63  76
ATOM     76  C   UNL     1     -13.269   9.512  -9.599  1.00  0.00    -0.014 A 
ATOM     77  C   UNL     1     -14.380   9.659  -8.754  1.00  0.00     0.009 A 
ATOM     78  C   UNL     1     -13.455   9.626 -10.987  1.00  0.00     0.009 A 
ATOM     79  C   UNL     1     -15.653   9.871  -9.289  1.00  0.00     0.001 A 
ATOM     80  C   UNL     1     -14.722   9.873 -11.517  1.00  0.00     0.001 A 
ATOM     81  C   UNL     1     -15.821   9.983 -10.669  1.00  0.00     0.000 A 
ENDBRANCH  63  76
ENDBRANCH  37  38
ENDBRANCH  30  32
ENDBRANCH  29  30
ENDBRANCH  28  29
ENDBRANCH  27  28
ENDBRANCH  26  27
ENDBRANCH  25  26
ENDBRANCH   1  25
TORSDOF 21
