REMARK SMILES C=CC[C@H](CNC(=O)OC(C)(C)C)C(=O)OCCOCCOCCOCCOC(=O)c1ccc(-c2c3nc(c(-c4ccccc4)c4ccc([nH]4)c(-c4ccccc4)c4nc(c(-c5ccccc5)c5ccc2[nH]5)C=C4)C=C3)cc1
REMARK SMILES IDX 21 1 20 2 19 3 18 4 17 5 16 6 14 7 15 8 4 9 3 10 2 11 1 12
REMARK SMILES IDX 5 13 6 14 7 15 8 17 9 18 10 19 11 20 12 21 13 22 22 23 23 24
REMARK SMILES IDX 24 25 25 26 26 27 27 28 28 29 29 30 30 31 31 32 32 33 78 34
REMARK SMILES IDX 33 35 77 36 34 37 35 38 36 39 71 40 37 41 76 42 70 43 72 44
REMARK SMILES IDX 38 45 75 46 69 47 68 48 39 50 61 51 46 52 60 53 47 54 50 55
REMARK SMILES IDX 59 56 73 57 48 58 49 59 58 61 74 62 51 63 40 64 41 65 45 66
REMARK SMILES IDX 42 67 44 68 43 69 62 70 63 71 67 72 64 73 66 74 65 75 52 76
REMARK SMILES IDX 53 77 57 78 54 79 56 80 55 81
REMARK H PARENT 6 16 72 49 50 60
REMARK Flexibility Score: inf
ROOT
ATOM      1  C   UNL     1      -3.736   0.565  -0.280  1.00  0.00     0.188 C 
ENDROOT
BRANCH   1   2
ATOM      2  C   UNL     1      -4.538   1.373  -1.308  1.00  0.00     0.188 C 
BRANCH   2   3
ATOM      3  O   UNL     1      -5.814   0.944  -1.743  1.00  0.00    -0.376 OA
BRANCH   3   4
ATOM      4  C   UNL     1      -6.074  -0.389  -2.147  1.00  0.00     0.202 C 
BRANCH   4   5
ATOM      5  C   UNL     1      -5.102  -1.252  -2.972  1.00  0.00     0.261 C 
BRANCH   5   6
ATOM      6  O   UNL     1      -3.738  -1.358  -2.530  1.00  0.00    -0.463 OA
BRANCH   6   7
ATOM      7  C   UNL     1      -2.851  -0.591  -3.208  1.00  0.00     0.311 C 
ATOM      8  O   UNL     1      -3.167   0.236  -4.061  1.00  0.00    -0.252 OA
BRANCH   7   9
ATOM      9  C   UNL     1      -1.394  -0.898  -2.912  1.00  0.00     0.122 C 
BRANCH   9  10
ATOM     10  C   UNL     1      -0.809  -1.796  -4.013  1.00  0.00     0.044 C 
BRANCH  10  11
ATOM     11  C   UNL     1      -1.770  -2.793  -4.599  1.00  0.00    -0.034 C 
ATOM     12  C   UNL     1      -2.358  -2.612  -5.789  1.00  0.00     0.004 C 
ENDBRANCH  10  11
ENDBRANCH   9  10
BRANCH   9  13
ATOM     13  C   UNL     1      -0.936  -1.304  -1.509  1.00  0.00     0.135 C 
BRANCH  13  14
ATOM     14  N   UNL     1      -1.315  -2.619  -1.050  1.00  0.00    -0.321 N 
ATOM     15  C   UNL     1      -0.460  -3.517  -0.474  1.00  0.00     0.407 C 
ATOM     16  H   UNL     1      -2.255  -2.888  -1.159  1.00  0.00     0.167 HD
ATOM     17  O   UNL     1      -0.836  -4.621  -0.099  1.00  0.00    -0.225 OA
BRANCH  15  18
ATOM     18  O   UNL     1       0.806  -3.044  -0.405  1.00  0.00    -0.444 OA
BRANCH  18  19
ATOM     19  C   UNL     1       1.933  -3.886  -0.067  1.00  0.00     0.106 C 
ATOM     20  C   UNL     1       1.813  -4.502   1.329  1.00  0.00     0.056 C 
ATOM     21  C   UNL     1       2.126  -4.944  -1.155  1.00  0.00     0.056 C 
ATOM     22  C   UNL     1       3.144  -2.938  -0.077  1.00  0.00     0.056 C 
ENDBRANCH  18  19
ENDBRANCH  15  18
ENDBRANCH  13  14
ENDBRANCH   9  13
ENDBRANCH   7   9
ENDBRANCH   6   7
ENDBRANCH   5   6
ENDBRANCH   4   5
ENDBRANCH   3   4
ENDBRANCH   2   3
ENDBRANCH   1   2
BRANCH   1  23
ATOM     23  O   UNL     1      -4.179  -0.757  -0.048  1.00  0.00    -0.377 OA
BRANCH  23  24
ATOM     24  C   UNL     1      -5.147  -0.961   0.977  1.00  0.00     0.188 C 
BRANCH  24  25
ATOM     25  C   UNL     1      -6.080   0.204   1.367  1.00  0.00     0.188 C 
BRANCH  25  26
ATOM     26  O   UNL     1      -5.414   1.443   1.560  1.00  0.00    -0.376 OA
BRANCH  26  27
ATOM     27  C   UNL     1      -5.010   1.820   2.867  1.00  0.00     0.202 C 
BRANCH  27  28
ATOM     28  C   UNL     1      -4.012   0.917   3.611  1.00  0.00     0.261 C 
BRANCH  28  29
ATOM     29  O   UNL     1      -4.420  -0.441   3.839  1.00  0.00    -0.460 OA
BRANCH  29  30
ATOM     30  C   UNL     1      -5.583  -0.654   4.487  1.00  0.00     0.338 C 
ATOM     31  O   UNL     1      -6.315   0.180   4.984  1.00  0.00    -0.246 OA
BRANCH  30  32
ATOM     32  C   UNL     1      -5.934  -2.080   4.321  1.00  0.00     0.060 A 
ATOM     33  C   UNL     1      -7.156  -2.409   3.720  1.00  0.00     0.016 A 
ATOM     34  C   UNL     1      -5.076  -3.081   4.780  1.00  0.00     0.016 A 
ATOM     35  C   UNL     1      -7.554  -3.742   3.633  1.00  0.00     0.010 A 
ATOM     36  C   UNL     1      -5.484  -4.415   4.712  1.00  0.00     0.010 A 
ATOM     37  C   UNL     1      -6.747  -4.744   4.186  1.00  0.00    -0.014 A 
BRANCH  37  38
ATOM     38  C   UNL     1      -7.329  -6.083   4.443  1.00  0.00     0.031 A 
ATOM     39  C   UNL     1      -7.852  -6.372   5.824  1.00  0.00     0.074 A 
ATOM     40  C   UNL     1      -7.430  -7.008   3.474  1.00  0.00     0.049 A 
ATOM     41  N   UNL     1      -8.382  -7.468   6.303  1.00  0.00    -0.248 NA
ATOM     42  C   UNL     1      -7.758  -5.272   6.799  1.00  0.00     0.031 C 
ATOM     43  C   UNL     1      -7.019  -6.830   2.084  1.00  0.00     0.029 A 
ATOM     44  N   UNL     1      -7.918  -8.289   3.524  1.00  0.00    -0.354 N 
ATOM     45  C   UNL     1      -8.668  -7.195   7.635  1.00  0.00     0.074 A 
ATOM     46  C   UNL     1      -8.222  -5.845   7.898  1.00  0.00     0.031 C 
ATOM     47  C   UNL     1      -7.273  -7.965   1.409  1.00  0.00     0.029 A 
ATOM     48  C   UNL     1      -7.827  -8.958   2.329  1.00  0.00     0.049 A 
ATOM     49  H   UNL     1      -8.296  -8.691   4.340  1.00  0.00     0.167 HD
ATOM     50  C   UNL     1      -9.253  -7.993   8.559  1.00  0.00     0.031 A 
ATOM     51  C   UNL     1      -8.139 -10.231   2.021  1.00  0.00     0.031 A 
ATOM     52  C   UNL     1      -9.676  -9.343   8.303  1.00  0.00     0.049 A 
ATOM     53  C   UNL     1      -8.703 -11.133   3.088  1.00  0.00     0.074 A 
ATOM     54  C   UNL     1     -10.288 -10.235   9.165  1.00  0.00     0.029 A 
ATOM     55  N   UNL     1      -9.515 -10.002   7.093  1.00  0.00    -0.354 N 
ATOM     56  N   UNL     1      -8.988 -10.862   4.339  1.00  0.00    -0.248 NA
ATOM     57  C   UNL     1      -8.997 -12.518   2.693  1.00  0.00     0.031 C 
ATOM     58  C   UNL     1     -10.433 -11.456   8.499  1.00  0.00     0.029 A 
ATOM     59  C   UNL     1      -9.986 -11.300   7.196  1.00  0.00     0.049 A 
ATOM     60  H   UNL     1      -9.123  -9.606   6.281  1.00  0.00     0.167 HD
ATOM     61  C   UNL     1      -9.531 -12.027   4.869  1.00  0.00     0.074 A 
ATOM     62  C   UNL     1      -9.542 -13.005   3.799  1.00  0.00     0.031 C 
ATOM     63  C   UNL     1      -9.989 -12.264   6.123  1.00  0.00     0.031 A 
BRANCH  50  64
ATOM     64  C   UNL     1      -9.409  -7.433   9.948  1.00  0.00    -0.014 A 
ATOM     65  C   UNL     1     -10.283  -6.368  10.222  1.00  0.00     0.009 A 
ATOM     66  C   UNL     1      -8.656  -7.977  11.000  1.00  0.00     0.009 A 
ATOM     67  C   UNL     1     -10.358  -5.826  11.508  1.00  0.00     0.001 A 
ATOM     68  C   UNL     1      -8.761  -7.458  12.292  1.00  0.00     0.001 A 
ATOM     69  C   UNL     1      -9.600  -6.374  12.541  1.00  0.00     0.000 A 
ENDBRANCH  50  64
BRANCH  51  70
ATOM     70  C   UNL     1      -7.925 -10.734   0.638  1.00  0.00    -0.014 A 
ATOM     71  C   UNL     1      -9.017 -11.051  -0.184  1.00  0.00     0.009 A 
ATOM     72  C   UNL     1      -6.626 -10.905   0.134  1.00  0.00     0.009 A 
ATOM     73  C   UNL     1      -8.813 -11.548  -1.474  1.00  0.00     0.001 A 
ATOM     74  C   UNL     1      -6.425 -11.372  -1.167  1.00  0.00     0.001 A 
ATOM     75  C   UNL     1      -7.518 -11.701  -1.967  1.00  0.00     0.000 A 
ENDBRANCH  51  70
BRANCH  63  76
ATOM     76  C   UNL     1     -10.595 -13.615   6.398  1.00  0.00    -0.014 A 
ATOM     77  C   UNL     1      -9.814 -14.781   6.443  1.00  0.00     0.009 A 
ATOM     78  C   UNL     1     -11.972 -13.712   6.657  1.00  0.00     0.009 A 
ATOM     79  C   UNL     1     -10.408 -16.019   6.700  1.00  0.00     0.001 A 
ATOM     80  C   UNL     1     -12.557 -14.945   6.950  1.00  0.00     0.001 A 
ATOM     81  C   UNL     1     -11.777 -16.099   6.959  1.00  0.00     0.000 A 
ENDBRANCH  63  76
ENDBRANCH  37  38
ENDBRANCH  30  32
ENDBRANCH  29  30
ENDBRANCH  28  29
ENDBRANCH  27  28
ENDBRANCH  26  27
ENDBRANCH  25  26
ENDBRANCH  24  25
ENDBRANCH  23  24
ENDBRANCH   1  23
TORSDOF 26
