REMARK SMILES O=C(Cc1ccn(C(F)F)c(=O)c1)OCCOCCOCCOCCOC(=O)c1ccc(-c2c3nc(c(-c4ccccc4)c4ccc([nH]4)c(-c4ccccc4)c4nc(c(-c5ccccc5)c5ccc2[nH]5)C=C4)C=C3)cc1
REMARK SMILES IDX 20 1 19 2 18 3 17 4 16 5 15 6 14 7 2 8 1 9 3 10 4 11 5 12
REMARK SMILES IDX 13 13 6 14 11 15 7 16 12 17 8 18 9 19 10 20 21 21 22 22
REMARK SMILES IDX 23 23 24 24 25 25 26 26 27 27 28 28 29 29 30 30 76 31 31 32
REMARK SMILES IDX 75 33 32 34 33 35 34 36 69 37 35 38 74 39 68 40 70 41 36 42
REMARK SMILES IDX 73 43 67 44 66 45 37 47 59 48 44 49 58 50 45 51 48 52 57 53
REMARK SMILES IDX 71 54 46 55 47 56 56 58 72 59 49 60 38 61 39 62 43 63 40 64
REMARK SMILES IDX 42 65 41 66 60 67 61 68 65 69 62 70 64 71 63 72 50 73 51 74
REMARK SMILES IDX 55 75 52 76 54 77 53 78
REMARK H PARENT 70 46 48 57
REMARK Flexibility Score: inf
ROOT
ATOM      1  O   UNL     1       2.889  -1.137   3.527  1.00  0.00    -0.377 OA
ENDROOT
BRANCH   1   2
ATOM      2  C   UNL     1       2.210  -0.893   2.298  1.00  0.00     0.188 C 
BRANCH   2   3
ATOM      3  C   UNL     1       2.805  -1.604   1.077  1.00  0.00     0.188 C 
BRANCH   3   4
ATOM      4  O   UNL     1       4.196  -1.400   0.908  1.00  0.00    -0.376 OA
BRANCH   4   5
ATOM      5  C   UNL     1       4.755  -0.383   0.107  1.00  0.00     0.202 C 
BRANCH   5   6
ATOM      6  C   UNL     1       4.162   1.022   0.107  1.00  0.00     0.261 C 
BRANCH   6   7
ATOM      7  O   UNL     1       2.740   1.150  -0.063  1.00  0.00    -0.463 OA
BRANCH   7   8
ATOM      8  C   UNL     1       1.956   0.719  -1.068  1.00  0.00     0.310 C 
ATOM      9  O   UNL     1       0.763   1.019  -1.061  1.00  0.00    -0.252 OA
BRANCH   8  10
ATOM     10  C   UNL     1       2.504  -0.209  -2.137  1.00  0.00     0.158 C 
BRANCH  10  11
ATOM     11  C   UNL     1       3.622   0.277  -3.002  1.00  0.00    -0.030 A 
ATOM     12  C   UNL     1       3.721   1.678  -3.337  1.00  0.00     0.023 A 
ATOM     13  C   UNL     1       4.517  -0.592  -3.506  1.00  0.00     0.076 A 
ATOM     14  C   UNL     1       4.663   2.093  -4.189  1.00  0.00     0.095 A 
ATOM     15  C   UNL     1       5.564  -0.148  -4.460  1.00  0.00     0.255 A 
ATOM     16  N   UNL     1       5.555   1.204  -4.760  1.00  0.00    -0.258 N 
ATOM     17  O   UNL     1       6.327  -0.990  -4.918  1.00  0.00    -0.269 OA
BRANCH  16  18
ATOM     18  C   UNL     1       6.423   1.635  -5.822  1.00  0.00     0.451 C 
ATOM     19  F   UNL     1       7.697   1.221  -5.633  1.00  0.00    -0.185 F 
ATOM     20  F   UNL     1       5.987   1.137  -7.005  1.00  0.00    -0.185 F 
ENDBRANCH  16  18
ENDBRANCH  10  11
ENDBRANCH   8  10
ENDBRANCH   7   8
ENDBRANCH   6   7
ENDBRANCH   5   6
ENDBRANCH   4   5
ENDBRANCH   3   4
ENDBRANCH   2   3
ENDBRANCH   1   2
BRANCH   1  21
ATOM     21  C   UNL     1       4.252  -0.747   3.533  1.00  0.00     0.188 C 
BRANCH  21  22
ATOM     22  C   UNL     1       5.274  -1.905   3.469  1.00  0.00     0.188 C 
BRANCH  22  23
ATOM     23  O   UNL     1       4.906  -3.239   3.150  1.00  0.00    -0.376 OA
BRANCH  23  24
ATOM     24  C   UNL     1       3.708  -3.823   3.630  1.00  0.00     0.202 C 
BRANCH  24  25
ATOM     25  C   UNL     1       3.320  -3.805   5.114  1.00  0.00     0.261 C 
BRANCH  25  26
ATOM     26  O   UNL     1       3.573  -2.587   5.811  1.00  0.00    -0.460 OA
BRANCH  26  27
ATOM     27  C   UNL     1       4.728  -2.542   6.511  1.00  0.00     0.338 C 
ATOM     28  O   UNL     1       5.551  -3.432   6.647  1.00  0.00    -0.246 OA
BRANCH  27  29
ATOM     29  C   UNL     1       4.947  -1.144   6.935  1.00  0.00     0.060 A 
ATOM     30  C   UNL     1       3.915  -0.401   7.511  1.00  0.00     0.016 A 
ATOM     31  C   UNL     1       6.202  -0.562   6.704  1.00  0.00     0.016 A 
ATOM     32  C   UNL     1       4.158   0.914   7.902  1.00  0.00     0.010 A 
ATOM     33  C   UNL     1       6.440   0.759   7.079  1.00  0.00     0.010 A 
ATOM     34  C   UNL     1       5.431   1.489   7.718  1.00  0.00    -0.014 A 
BRANCH  34  35
ATOM     35  C   UNL     1       5.760   2.743   8.432  1.00  0.00     0.031 A 
ATOM     36  C   UNL     1       5.816   4.069   7.749  1.00  0.00     0.074 A 
ATOM     37  C   UNL     1       5.995   2.640   9.754  1.00  0.00     0.049 A 
ATOM     38  N   UNL     1       5.914   5.256   8.291  1.00  0.00    -0.248 NA
ATOM     39  C   UNL     1       5.767   4.077   6.280  1.00  0.00     0.031 C 
ATOM     40  C   UNL     1       6.005   1.379  10.501  1.00  0.00     0.029 A 
ATOM     41  N   UNL     1       6.234   3.595  10.706  1.00  0.00    -0.354 N 
ATOM     42  C   UNL     1       5.915   6.157   7.237  1.00  0.00     0.074 A 
ATOM     43  C   UNL     1       5.857   5.377   6.017  1.00  0.00     0.031 C 
ATOM     44  C   UNL     1       6.172   1.644  11.803  1.00  0.00     0.029 A 
ATOM     45  C   UNL     1       6.313   3.085  11.980  1.00  0.00     0.049 A 
ATOM     46  H   UNL     1       6.338   4.552  10.499  1.00  0.00     0.167 HD
ATOM     47  C   UNL     1       5.945   7.509   7.297  1.00  0.00     0.031 A 
ATOM     48  C   UNL     1       6.455   3.707  13.165  1.00  0.00     0.031 A 
ATOM     49  C   UNL     1       6.023   8.261   8.525  1.00  0.00     0.049 A 
ATOM     50  C   UNL     1       6.503   5.207  13.195  1.00  0.00     0.074 A 
ATOM     51  C   UNL     1       6.003   9.636   8.688  1.00  0.00     0.029 A 
ATOM     52  N   UNL     1       6.151   7.711   9.792  1.00  0.00    -0.354 N 
ATOM     53  N   UNL     1       6.390   6.053  12.200  1.00  0.00    -0.248 NA
ATOM     54  C   UNL     1       6.675   5.840  14.509  1.00  0.00     0.031 C 
ATOM     55  C   UNL     1       6.201   9.919  10.040  1.00  0.00     0.029 A 
ATOM     56  C   UNL     1       6.250   8.721  10.736  1.00  0.00     0.049 A 
ATOM     57  H   UNL     1       6.168   6.747   9.992  1.00  0.00     0.167 HD
ATOM     58  C   UNL     1       6.445   7.318  12.770  1.00  0.00     0.074 A 
ATOM     59  C   UNL     1       6.584   7.127  14.199  1.00  0.00     0.031 C 
ATOM     60  C   UNL     1       6.383   8.525  12.158  1.00  0.00     0.031 A 
BRANCH  47  61
ATOM     61  C   UNL     1       5.879   8.291   6.013  1.00  0.00    -0.014 A 
ATOM     62  C   UNL     1       6.961   9.101   5.629  1.00  0.00     0.009 A 
ATOM     63  C   UNL     1       4.690   8.356   5.270  1.00  0.00     0.009 A 
ATOM     64  C   UNL     1       6.845   9.979   4.550  1.00  0.00     0.001 A 
ATOM     65  C   UNL     1       4.587   9.213   4.171  1.00  0.00     0.001 A 
ATOM     66  C   UNL     1       5.658  10.034   3.822  1.00  0.00     0.000 A 
ENDBRANCH  47  61
BRANCH  48  67
ATOM     67  C   UNL     1       6.485   2.898  14.413  1.00  0.00    -0.014 A 
ATOM     68  C   UNL     1       7.543   2.010  14.666  1.00  0.00     0.009 A 
ATOM     69  C   UNL     1       5.424   2.963  15.328  1.00  0.00     0.009 A 
ATOM     70  C   UNL     1       7.527   1.188  15.794  1.00  0.00     0.001 A 
ATOM     71  C   UNL     1       5.428   2.167  16.475  1.00  0.00     0.001 A 
ATOM     72  C   UNL     1       6.473   1.272  16.702  1.00  0.00     0.000 A 
ENDBRANCH  48  67
BRANCH  60  73
ATOM     73  C   UNL     1       6.441   9.759  13.019  1.00  0.00    -0.014 A 
ATOM     74  C   UNL     1       5.328  10.615  13.081  1.00  0.00     0.009 A 
ATOM     75  C   UNL     1       7.625  10.142  13.666  1.00  0.00     0.009 A 
ATOM     76  C   UNL     1       5.407  11.838  13.748  1.00  0.00     0.001 A 
ATOM     77  C   UNL     1       7.690  11.349  14.366  1.00  0.00     0.001 A 
ATOM     78  C   UNL     1       6.587  12.202  14.393  1.00  0.00     0.000 A 
ENDBRANCH  60  73
ENDBRANCH  34  35
ENDBRANCH  27  29
ENDBRANCH  26  27
ENDBRANCH  25  26
ENDBRANCH  24  25
ENDBRANCH  23  24
ENDBRANCH  22  23
ENDBRANCH  21  22
ENDBRANCH   1  21
TORSDOF 22
