REMARK SMILES C[C@H](NC(=O)c1c(C(=O)OCCOCCOCCOCCOC(=O)c2ccc(-c3c4nc(c(-c5ccccc5)c5ccc([nH]5)c(-c5ccccc5)c5nc(c(-c6ccccc6)c6ccc3[nH]6)C=C5)C=C4)cc2)cnn1C)[C@]12C[C@H]3C[C@H](C[C@H](C3)C1)C2
REMARK SMILES IDX 15 1 14 2 13 3 12 4 11 5 10 6 8 7 9 8 7 9 6 10 75 11 73 12
REMARK SMILES IDX 74 13 76 14 4 15 3 16 5 18 2 19 1 20 77 21 78 22 85 23 86 24
REMARK SMILES IDX 79 25 83 26 81 27 80 28 84 29 82 30 16 31 17 32 18 33 19 34
REMARK SMILES IDX 20 35 21 36 22 37 23 38 24 39 25 40 26 41 72 42 27 43 71 44
REMARK SMILES IDX 28 45 29 46 30 47 65 48 31 49 70 50 64 51 66 52 32 53 69 54
REMARK SMILES IDX 63 55 62 56 33 58 55 59 40 60 54 61 41 62 44 63 53 64 67 65
REMARK SMILES IDX 42 66 43 67 52 69 68 70 45 71 34 72 35 73 39 74 36 75 38 76
REMARK SMILES IDX 37 77 56 78 57 79 61 80 58 81 60 82 59 83 46 84 47 85 51 86
REMARK SMILES IDX 48 87 50 88 49 89
REMARK H PARENT 3 17 66 57 44 68
REMARK Flexibility Score: inf
ROOT
ATOM      1  C   UNL     1       0.712  -4.491  -1.199  1.00  0.00     0.188 C 
ENDROOT
BRANCH   1   2
ATOM      2  C   UNL     1       1.602  -5.707  -0.913  1.00  0.00     0.188 C 
BRANCH   2   3
ATOM      3  O   UNL     1       1.487  -6.225   0.408  1.00  0.00    -0.376 OA
BRANCH   3   4
ATOM      4  C   UNL     1       2.584  -5.951   1.270  1.00  0.00     0.202 C 
BRANCH   4   5
ATOM      5  C   UNL     1       2.559  -4.536   1.860  1.00  0.00     0.261 C 
BRANCH   5   6
ATOM      6  O   UNL     1       2.701  -3.486   0.890  1.00  0.00    -0.460 OA
BRANCH   6   7
ATOM      7  C   UNL     1       3.897  -3.407   0.254  1.00  0.00     0.342 C 
ATOM      8  O   UNL     1       4.831  -4.177   0.451  1.00  0.00    -0.246 OA
BRANCH   7   9
ATOM      9  C   UNL     1       3.938  -2.394  -0.780  1.00  0.00     0.111 A 
ATOM     10  C   UNL     1       3.217  -1.206  -0.908  1.00  0.00     0.140 A 
ATOM     11  N   UNL     1       3.792  -0.574  -1.984  1.00  0.00    -0.262 N 
ATOM     12  C   UNL     1       4.755  -2.443  -1.929  1.00  0.00     0.151 A 
ATOM     13  N   UNL     1       4.631  -1.358  -2.691  1.00  0.00    -0.180 NA
ATOM     14  C   UNL     1       3.656   0.805  -2.388  1.00  0.00     0.174 C 
BRANCH  10  15
ATOM     15  C   UNL     1       2.241  -0.645  -0.015  1.00  0.00     0.270 C 
ATOM     16  N   UNL     1       1.027  -0.183  -0.458  1.00  0.00    -0.348 N 
ATOM     17  H   UNL     1       0.469   0.138   0.287  1.00  0.00     0.164 HD
ATOM     18  O   UNL     1       2.460  -0.549   1.193  1.00  0.00    -0.267 OA
BRANCH  16  19
ATOM     19  C   UNL     1       0.333  -0.040  -1.758  1.00  0.00     0.085 C 
ATOM     20  C   UNL     1       0.563  -1.195  -2.736  1.00  0.00     0.031 C 
BRANCH  19  21
ATOM     21  C   UNL     1      -1.226   0.240  -1.555  1.00  0.00    -0.009 C 
ATOM     22  C   UNL     1      -1.835  -0.617  -0.405  1.00  0.00     0.012 C 
ATOM     23  C   UNL     1      -2.052  -0.063  -2.847  1.00  0.00     0.012 C 
ATOM     24  C   UNL     1      -1.469   1.739  -1.206  1.00  0.00     0.012 C 
ATOM     25  C   UNL     1      -3.330  -0.314  -0.212  1.00  0.00    -0.010 C 
ATOM     26  C   UNL     1      -3.550   0.220  -2.653  1.00  0.00    -0.010 C 
ATOM     27  C   UNL     1      -2.972   2.038  -1.021  1.00  0.00    -0.010 C 
ATOM     28  C   UNL     1      -3.522   1.173   0.122  1.00  0.00     0.007 C 
ATOM     29  C   UNL     1      -4.083  -0.648  -1.506  1.00  0.00     0.007 C 
ATOM     30  C   UNL     1      -3.737   1.702  -2.311  1.00  0.00     0.007 C 
ENDBRANCH  19  21
ENDBRANCH  16  19
ENDBRANCH  10  15
ENDBRANCH   7   9
ENDBRANCH   6   7
ENDBRANCH   5   6
ENDBRANCH   4   5
ENDBRANCH   3   4
ENDBRANCH   2   3
ENDBRANCH   1   2
BRANCH   1  31
ATOM     31  O   UNL     1      -0.173  -4.039  -0.190  1.00  0.00    -0.377 OA
BRANCH  31  32
ATOM     32  C   UNL     1      -1.046  -4.958   0.455  1.00  0.00     0.188 C 
BRANCH  32  33
ATOM     33  C   UNL     1      -1.427  -6.295  -0.207  1.00  0.00     0.188 C 
BRANCH  33  34
ATOM     34  O   UNL     1      -1.369  -6.285  -1.629  1.00  0.00    -0.376 OA
BRANCH  34  35
ATOM     35  C   UNL     1      -2.622  -6.346  -2.299  1.00  0.00     0.202 C 
BRANCH  35  36
ATOM     36  C   UNL     1      -3.317  -4.984  -2.369  1.00  0.00     0.261 C 
BRANCH  36  37
ATOM     37  O   UNL     1      -3.749  -4.475  -1.097  1.00  0.00    -0.460 OA
BRANCH  37  38
ATOM     38  C   UNL     1      -4.663  -5.206  -0.422  1.00  0.00     0.338 C 
ATOM     39  O   UNL     1      -5.195  -6.243  -0.770  1.00  0.00    -0.246 OA
BRANCH  38  40
ATOM     40  C   UNL     1      -4.815  -4.598   0.909  1.00  0.00     0.060 A 
ATOM     41  C   UNL     1      -4.548  -5.362   2.050  1.00  0.00     0.016 A 
ATOM     42  C   UNL     1      -5.224  -3.269   1.018  1.00  0.00     0.016 A 
ATOM     43  C   UNL     1      -4.717  -4.795   3.314  1.00  0.00     0.010 A 
ATOM     44  C   UNL     1      -5.387  -2.701   2.279  1.00  0.00     0.010 A 
ATOM     45  C   UNL     1      -5.168  -3.472   3.432  1.00  0.00    -0.014 A 
BRANCH  45  46
ATOM     46  C   UNL     1      -5.614  -2.945   4.740  1.00  0.00     0.031 A 
ATOM     47  C   UNL     1      -7.084  -2.983   5.054  1.00  0.00     0.074 A 
ATOM     48  C   UNL     1      -4.746  -2.419   5.621  1.00  0.00     0.049 A 
ATOM     49  N   UNL     1      -7.720  -2.543   6.108  1.00  0.00    -0.248 NA
ATOM     50  C   UNL     1      -7.953  -3.594   4.033  1.00  0.00     0.031 C 
ATOM     51  C   UNL     1      -3.298  -2.337   5.443  1.00  0.00     0.029 A 
ATOM     52  N   UNL     1      -4.971  -1.844   6.846  1.00  0.00    -0.354 N 
ATOM     53  C   UNL     1      -9.062  -2.817   5.874  1.00  0.00     0.074 A 
ATOM     54  C   UNL     1      -9.153  -3.429   4.567  1.00  0.00     0.031 C 
ATOM     55  C   UNL     1      -2.762  -1.745   6.526  1.00  0.00     0.029 A 
ATOM     56  C   UNL     1      -3.831  -1.383   7.455  1.00  0.00     0.049 A 
ATOM     57  H   UNL     1      -5.866  -1.769   7.250  1.00  0.00     0.167 HD
ATOM     58  C   UNL     1     -10.126  -2.587   6.677  1.00  0.00     0.031 A 
ATOM     59  C   UNL     1      -3.675  -0.733   8.624  1.00  0.00     0.031 A 
ATOM     60  C   UNL     1     -10.045  -1.964   7.968  1.00  0.00     0.049 A 
ATOM     61  C   UNL     1      -4.881  -0.427   9.471  1.00  0.00     0.074 A 
ATOM     62  C   UNL     1     -11.063  -1.711   8.870  1.00  0.00     0.029 A 
ATOM     63  N   UNL     1      -8.875  -1.484   8.535  1.00  0.00    -0.354 N 
ATOM     64  N   UNL     1      -6.140  -0.730   9.260  1.00  0.00    -0.248 NA
ATOM     65  C   UNL     1      -4.642   0.311  10.720  1.00  0.00     0.031 C 
ATOM     66  C   UNL     1     -10.514  -1.034   9.965  1.00  0.00     0.029 A 
ATOM     67  C   UNL     1      -9.149  -0.910   9.764  1.00  0.00     0.049 A 
ATOM     68  H   UNL     1      -7.982  -1.544   8.125  1.00  0.00     0.167 HD
ATOM     69  C   UNL     1      -6.837  -0.246  10.361  1.00  0.00     0.074 A 
ATOM     70  C   UNL     1      -5.861   0.365  11.240  1.00  0.00     0.031 C 
ATOM     71  C   UNL     1      -8.165  -0.305  10.623  1.00  0.00     0.031 A 
BRANCH  58  72
ATOM     72  C   UNL     1     -11.472  -2.990   6.151  1.00  0.00    -0.014 A 
ATOM     73  C   UNL     1     -11.842  -4.341   6.061  1.00  0.00     0.009 A 
ATOM     74  C   UNL     1     -12.379  -2.005   5.733  1.00  0.00     0.009 A 
ATOM     75  C   UNL     1     -13.080  -4.699   5.525  1.00  0.00     0.001 A 
ATOM     76  C   UNL     1     -13.626  -2.365   5.221  1.00  0.00     0.001 A 
ATOM     77  C   UNL     1     -13.972  -3.711   5.108  1.00  0.00     0.000 A 
ENDBRANCH  58  72
BRANCH  59  78
ATOM     78  C   UNL     1      -2.320  -0.323   9.072  1.00  0.00    -0.014 A 
ATOM     79  C   UNL     1      -1.696  -0.982  10.142  1.00  0.00     0.009 A 
ATOM     80  C   UNL     1      -1.652   0.740   8.445  1.00  0.00     0.009 A 
ATOM     81  C   UNL     1      -0.438  -0.571  10.589  1.00  0.00     0.001 A 
ATOM     82  C   UNL     1      -0.384   1.134   8.880  1.00  0.00     0.001 A 
ATOM     83  C   UNL     1       0.218   0.483   9.955  1.00  0.00     0.000 A 
ENDBRANCH  59  78
BRANCH  71  84
ATOM     84  C   UNL     1      -8.639   0.276  11.925  1.00  0.00    -0.014 A 
ATOM     85  C   UNL     1      -8.726   1.663  12.113  1.00  0.00     0.009 A 
ATOM     86  C   UNL     1      -9.053  -0.580  12.957  1.00  0.00     0.009 A 
ATOM     87  C   UNL     1      -9.196   2.182  13.321  1.00  0.00     0.001 A 
ATOM     88  C   UNL     1      -9.545  -0.059  14.154  1.00  0.00     0.001 A 
ATOM     89  C   UNL     1      -9.609   1.321  14.338  1.00  0.00     0.000 A 
ENDBRANCH  71  84
ENDBRANCH  45  46
ENDBRANCH  38  40
ENDBRANCH  37  38
ENDBRANCH  36  37
ENDBRANCH  35  36
ENDBRANCH  34  35
ENDBRANCH  33  34
ENDBRANCH  32  33
ENDBRANCH  31  32
ENDBRANCH   1  31
TORSDOF 23
