REMARK SMILES CC1(C)C(C(=O)N2CCOC[C@H]2C(=O)OCCOCCOCCOCCOC(=O)c2ccc(-c3c4nc(c(-c5ccccc5)c5ccc([nH]5)c(-c5ccccc5)c5nc(c(-c6ccccc6)c6ccc3[nH]6)C=C5)C=C4)cc2)C1(C)C
REMARK SMILES IDX 21 1 20 2 19 3 18 4 17 5 16 6 15 7 13 8 14 9 12 10 7 11 8 12
REMARK SMILES IDX 9 13 11 14 10 15 5 16 6 17 4 18 1 19 2 20 3 21 78 22 79 23
REMARK SMILES IDX 80 24 22 25 23 26 24 27 25 28 26 29 27 30 28 31 29 32 30 33
REMARK SMILES IDX 31 34 77 35 32 36 76 37 33 38 34 39 35 40 70 41 36 42 75 43
REMARK SMILES IDX 69 44 71 45 37 46 74 47 68 48 67 49 38 51 60 52 45 53 59 54
REMARK SMILES IDX 46 55 49 56 58 57 72 58 47 59 48 60 57 62 73 63 50 64 39 65
REMARK SMILES IDX 40 66 44 67 41 68 43 69 42 70 61 71 62 72 66 73 63 74 65 75
REMARK SMILES IDX 64 76 51 77 52 78 56 79 53 80 55 81 54 82
REMARK H PARENT 71 50 49 61
REMARK Flexibility Score: inf
ROOT
ATOM      1  O   UNL     1       1.539  -0.026  -6.749  1.00  0.00    -0.377 OA
ENDROOT
BRANCH   1   2
ATOM      2  C   UNL     1       2.380  -1.147  -6.519  1.00  0.00     0.188 C 
BRANCH   2   3
ATOM      3  C   UNL     1       2.606  -2.151  -7.661  1.00  0.00     0.188 C 
BRANCH   3   4
ATOM      4  O   UNL     1       2.261  -1.657  -8.938  1.00  0.00    -0.376 OA
BRANCH   4   5
ATOM      5  C   UNL     1       0.975  -1.890  -9.476  1.00  0.00     0.202 C 
BRANCH   5   6
ATOM      6  C   UNL     1      -0.308  -2.027  -8.636  1.00  0.00     0.261 C 
BRANCH   6   7
ATOM      7  O   UNL     1      -0.176  -2.162  -7.219  1.00  0.00    -0.462 OA
BRANCH   7   8
ATOM      8  C   UNL     1      -0.212  -3.414  -6.707  1.00  0.00     0.331 C 
ATOM      9  O   UNL     1      -0.245  -4.428  -7.400  1.00  0.00    -0.250 OA
BRANCH   8  10
ATOM     10  C   UNL     1      -0.352  -3.450  -5.170  1.00  0.00     0.221 C 
ATOM     11  N   UNL     1      -0.017  -2.298  -4.283  1.00  0.00    -0.324 N 
ATOM     12  C   UNL     1      -0.869  -1.131  -4.456  1.00  0.00     0.149 C 
ATOM     13  C   UNL     1      -2.355  -1.519  -4.413  1.00  0.00     0.181 C 
ATOM     14  C   UNL     1      -1.827  -3.789  -4.929  1.00  0.00     0.197 C 
ATOM     15  O   UNL     1      -2.664  -2.657  -5.238  1.00  0.00    -0.377 OA
BRANCH  11  16
ATOM     16  C   UNL     1       1.026  -2.464  -3.379  1.00  0.00     0.227 C 
ATOM     17  O   UNL     1       1.883  -3.322  -3.602  1.00  0.00    -0.275 OA
BRANCH  16  18
ATOM     18  C   UNL     1       1.188  -1.744  -2.066  1.00  0.00     0.091 C 
ATOM     19  C   UNL     1       1.238  -0.205   0.036  1.00  0.00     0.012 C 
ATOM     20  C   UNL     1       0.409  -0.958  -1.011  1.00  0.00    -0.017 C 
ATOM     21  C   UNL     1      -0.848  -0.183  -1.290  1.00  0.00     0.012 C 
ATOM     22  C   UNL     1       0.428  -2.478  -0.918  1.00  0.00    -0.017 C 
ATOM     23  C   UNL     1       1.243  -3.177   0.149  1.00  0.00     0.012 C 
ATOM     24  C   UNL     1      -0.806  -3.289  -1.257  1.00  0.00     0.012 C 
ENDBRANCH  16  18
ENDBRANCH  11  16
ENDBRANCH   8  10
ENDBRANCH   7   8
ENDBRANCH   6   7
ENDBRANCH   5   6
ENDBRANCH   4   5
ENDBRANCH   3   4
ENDBRANCH   2   3
ENDBRANCH   1   2
BRANCH   1  25
ATOM     25  C   UNL     1       1.860   0.902  -7.779  1.00  0.00     0.188 C 
BRANCH  25  26
ATOM     26  C   UNL     1       3.255   0.947  -8.439  1.00  0.00     0.188 C 
BRANCH  26  27
ATOM     27  O   UNL     1       4.273   0.245  -7.750  1.00  0.00    -0.376 OA
BRANCH  27  28
ATOM     28  C   UNL     1       5.183   0.990  -6.959  1.00  0.00     0.202 C 
BRANCH  28  29
ATOM     29  C   UNL     1       4.614   1.754  -5.754  1.00  0.00     0.261 C 
BRANCH  29  30
ATOM     30  O   UNL     1       3.562   2.689  -6.037  1.00  0.00    -0.460 OA
BRANCH  30  31
ATOM     31  C   UNL     1       3.862   3.740  -6.826  1.00  0.00     0.338 C 
ATOM     32  O   UNL     1       4.941   4.007  -7.330  1.00  0.00    -0.246 OA
BRANCH  31  33
ATOM     33  C   UNL     1       2.601   4.442  -7.130  1.00  0.00     0.060 A 
ATOM     34  C   UNL     1       2.147   4.488  -8.455  1.00  0.00     0.016 A 
ATOM     35  C   UNL     1       1.864   5.040  -6.105  1.00  0.00     0.016 A 
ATOM     36  C   UNL     1       0.963   5.159  -8.762  1.00  0.00     0.010 A 
ATOM     37  C   UNL     1       0.693   5.734  -6.419  1.00  0.00     0.010 A 
ATOM     38  C   UNL     1       0.254   5.822  -7.752  1.00  0.00    -0.014 A 
BRANCH  38  39
ATOM     39  C   UNL     1      -0.826   6.769  -8.114  1.00  0.00     0.031 A 
ATOM     40  C   UNL     1      -0.491   8.233  -8.196  1.00  0.00     0.074 A 
ATOM     41  C   UNL     1      -2.073   6.345  -8.382  1.00  0.00     0.049 A 
ATOM     42  N   UNL     1      -1.272   9.252  -8.446  1.00  0.00    -0.248 NA
ATOM     43  C   UNL     1       0.917   8.594  -7.962  1.00  0.00     0.031 C 
ATOM     44  C   UNL     1      -2.512   4.951  -8.392  1.00  0.00     0.029 A 
ATOM     45  N   UNL     1      -3.203   7.058  -8.696  1.00  0.00    -0.354 N 
ATOM     46  C   UNL     1      -0.453  10.373  -8.392  1.00  0.00     0.074 A 
ATOM     47  C   UNL     1       0.876   9.914  -8.054  1.00  0.00     0.031 C 
ATOM     48  C   UNL     1      -3.824   4.911  -8.689  1.00  0.00     0.029 A 
ATOM     49  C   UNL     1      -4.321   6.276  -8.852  1.00  0.00     0.049 A 
ATOM     50  H   UNL     1      -3.211   8.037  -8.800  1.00  0.00     0.167 HD
ATOM     51  C   UNL     1      -0.776  11.670  -8.607  1.00  0.00     0.031 A 
ATOM     52  C   UNL     1      -5.603   6.627  -9.076  1.00  0.00     0.031 A 
ATOM     53  C   UNL     1      -2.103  12.128  -8.921  1.00  0.00     0.049 A 
ATOM     54  C   UNL     1      -5.957   8.085  -9.215  1.00  0.00     0.074 A 
ATOM     55  C   UNL     1      -2.532  13.421  -9.165  1.00  0.00     0.029 A 
ATOM     56  N   UNL     1      -3.217  11.310  -9.020  1.00  0.00    -0.354 N 
ATOM     57  N   UNL     1      -5.172   9.136  -9.186  1.00  0.00    -0.248 NA
ATOM     58  C   UNL     1      -7.377   8.405  -9.424  1.00  0.00     0.031 C 
ATOM     59  C   UNL     1      -3.918  13.393  -9.344  1.00  0.00     0.029 A 
ATOM     60  C   UNL     1      -4.340  12.074  -9.288  1.00  0.00     0.049 A 
ATOM     61  H   UNL     1      -3.211  10.331  -8.916  1.00  0.00     0.167 HD
ATOM     62  C   UNL     1      -5.996  10.234  -9.406  1.00  0.00     0.074 A 
ATOM     63  C   UNL     1      -7.338   9.720  -9.582  1.00  0.00     0.031 C 
ATOM     64  C   UNL     1      -5.671  11.550  -9.460  1.00  0.00     0.031 A 
BRANCH  51  65
ATOM     65  C   UNL     1       0.320  12.689  -8.464  1.00  0.00    -0.014 A 
ATOM     66  C   UNL     1       1.373  12.769  -9.390  1.00  0.00     0.009 A 
ATOM     67  C   UNL     1       0.284  13.601  -7.398  1.00  0.00     0.009 A 
ATOM     68  C   UNL     1       2.385  13.718  -9.230  1.00  0.00     0.001 A 
ATOM     69  C   UNL     1       1.279  14.569  -7.259  1.00  0.00     0.001 A 
ATOM     70  C   UNL     1       2.334  14.621  -8.168  1.00  0.00     0.000 A 
ENDBRANCH  51  65
BRANCH  52  71
ATOM     71  C   UNL     1      -6.662   5.584  -9.159  1.00  0.00    -0.014 A 
ATOM     72  C   UNL     1      -7.340   5.342 -10.364  1.00  0.00     0.009 A 
ATOM     73  C   UNL     1      -7.024   4.846  -8.020  1.00  0.00     0.009 A 
ATOM     74  C   UNL     1      -8.375   4.405 -10.419  1.00  0.00     0.001 A 
ATOM     75  C   UNL     1      -8.036   3.887  -8.086  1.00  0.00     0.001 A 
ATOM     76  C   UNL     1      -8.719   3.675  -9.282  1.00  0.00     0.000 A 
ENDBRANCH  52  71
BRANCH  64  77
ATOM     77  C   UNL     1      -6.776  12.526  -9.764  1.00  0.00    -0.014 A 
ATOM     78  C   UNL     1      -7.790  12.802  -8.834  1.00  0.00     0.009 A 
ATOM     79  C   UNL     1      -6.773  13.214 -10.988  1.00  0.00     0.009 A 
ATOM     80  C   UNL     1      -8.798  13.720  -9.139  1.00  0.00     0.001 A 
ATOM     81  C   UNL     1      -7.762  14.156 -11.277  1.00  0.00     0.001 A 
ATOM     82  C   UNL     1      -8.780  14.400 -10.357  1.00  0.00     0.000 A 
ENDBRANCH  64  77
ENDBRANCH  38  39
ENDBRANCH  31  33
ENDBRANCH  30  31
ENDBRANCH  29  30
ENDBRANCH  28  29
ENDBRANCH  27  28
ENDBRANCH  26  27
ENDBRANCH  25  26
ENDBRANCH   1  25
TORSDOF 22
