REMARK SMILES NS(=O)(=O)c1ccc(N2N=C(C(=O)OCCOCCOCCOCCOC(=O)c3ccc(-c4c5nc(c(-c6ccccc6)c6ccc([nH]6)c(-c6ccccc6)c6nc(c(-c7ccccc7)c7ccc4[nH]7)C=C6)C=C5)cc3)C[C@H]2c2ccco2)cc1
REMARK SMILES IDX 19 1 18 2 17 3 16 4 15 5 14 6 12 7 13 8 11 9 9 10 10 11
REMARK SMILES IDX 78 12 77 13 8 14 5 15 6 16 85 17 7 18 84 19 2 20 3 21 4 22
REMARK SMILES IDX 1 23 79 26 80 27 83 28 81 29 82 30 20 31 21 32 22 33 23 34
REMARK SMILES IDX 24 35 25 36 26 37 27 38 28 39 29 40 30 41 76 42 31 43 75 44
REMARK SMILES IDX 32 45 33 46 34 47 69 48 35 49 74 50 68 51 70 52 36 53 73 54
REMARK SMILES IDX 67 55 66 56 37 58 59 59 44 60 58 61 45 62 48 63 57 64 71 65
REMARK SMILES IDX 46 66 47 67 56 69 72 70 49 71 38 72 39 73 43 74 40 75 42 76
REMARK SMILES IDX 41 77 60 78 61 79 65 80 62 81 64 82 63 83 50 84 51 85 55 86
REMARK SMILES IDX 52 87 54 88 53 89
REMARK H PARENT 1 24 1 25 70 57 48 68
REMARK Flexibility Score: inf
ROOT
ATOM      1  C   UNL     1       4.392   7.024  -6.938  1.00  0.00     0.188 C 
ENDROOT
BRANCH   1   2
ATOM      2  C   UNL     1       3.320   6.752  -8.009  1.00  0.00     0.188 C 
BRANCH   2   3
ATOM      3  O   UNL     1       3.298   7.747  -9.020  1.00  0.00    -0.376 OA
BRANCH   3   4
ATOM      4  C   UNL     1       2.303   8.754  -9.005  1.00  0.00     0.202 C 
BRANCH   4   5
ATOM      5  C   UNL     1       1.975   9.556  -7.732  1.00  0.00     0.261 C 
BRANCH   5   6
ATOM      6  O   UNL     1       2.099   8.849  -6.498  1.00  0.00    -0.459 OA
BRANCH   6   7
ATOM      7  C   UNL     1       1.035   8.155  -6.063  1.00  0.00     0.354 C 
ATOM      8  O   UNL     1      -0.078   8.113  -6.545  1.00  0.00    -0.245 OA
BRANCH   7   9
ATOM      9  C   UNL     1       1.509   7.276  -4.932  1.00  0.00     0.148 C 
ATOM     10  N   UNL     1       1.903   5.548  -3.765  1.00  0.00    -0.254 N 
ATOM     11  N   UNL     1       1.294   5.995  -4.906  1.00  0.00    -0.169 NA
ATOM     12  C   UNL     1       2.239   6.663  -2.851  1.00  0.00     0.180 C 
ATOM     13  C   UNL     1       2.385   7.823  -3.847  1.00  0.00     0.101 C 
BRANCH  10  14
ATOM     14  C   UNL     1       1.585   4.271  -3.317  1.00  0.00     0.060 A 
ATOM     15  C   UNL     1       0.977   1.692  -2.383  1.00  0.00     0.082 A 
ATOM     16  C   UNL     1       2.195   1.927  -3.025  1.00  0.00     0.024 A 
ATOM     17  C   UNL     1       0.040   2.716  -2.248  1.00  0.00     0.024 A 
ATOM     18  C   UNL     1       2.496   3.217  -3.479  1.00  0.00     0.029 A 
ATOM     19  C   UNL     1       0.342   3.989  -2.733  1.00  0.00     0.029 A 
BRANCH  15  20
ATOM     20  S   UNL     1       0.585   0.073  -1.791  1.00  0.00     0.238 S 
ATOM     21  O   UNL     1       1.374  -0.905  -2.508  1.00  0.00    -0.207 OA
ATOM     22  O   UNL     1      -0.843  -0.050  -1.631  1.00  0.00    -0.207 OA
BRANCH  20  23
ATOM     23  N   UNL     1       1.215   0.114  -0.233  1.00  0.00    -0.225 NA
ATOM     24  H   UNL     1       1.049  -0.782   0.224  1.00  0.00     0.137 HD
ATOM     25  H   UNL     1       0.760   0.856   0.298  1.00  0.00     0.137 HD
ENDBRANCH  20  23
ENDBRANCH  15  20
ENDBRANCH  10  14
BRANCH  12  26
ATOM     26  C   UNL     1       1.236   6.992  -1.776  1.00  0.00     0.128 A 
ATOM     27  C   UNL     1       0.925   6.404  -0.565  1.00  0.00     0.048 A 
ATOM     28  O   UNL     1       0.419   8.070  -1.979  1.00  0.00    -0.467 OA
ATOM     29  C   UNL     1      -0.156   7.142  -0.023  1.00  0.00     0.042 A 
ATOM     30  C   UNL     1      -0.413   8.156  -0.914  1.00  0.00     0.195 A 
ENDBRANCH  12  26
ENDBRANCH   7   9
ENDBRANCH   6   7
ENDBRANCH   5   6
ENDBRANCH   4   5
ENDBRANCH   3   4
ENDBRANCH   2   3
ENDBRANCH   1   2
BRANCH   1  31
ATOM     31  O   UNL     1       4.810   8.379  -6.841  1.00  0.00    -0.377 OA
BRANCH  31  32
ATOM     32  C   UNL     1       5.653   8.917  -7.865  1.00  0.00     0.188 C 
BRANCH  32  33
ATOM     33  C   UNL     1       6.032   8.134  -9.148  1.00  0.00     0.188 C 
BRANCH  33  34
ATOM     34  O   UNL     1       6.075   6.725  -8.994  1.00  0.00    -0.376 OA
BRANCH  34  35
ATOM     35  C   UNL     1       7.342   6.093  -8.935  1.00  0.00     0.202 C 
BRANCH  35  36
ATOM     36  C   UNL     1       8.208   6.415  -7.711  1.00  0.00     0.261 C 
BRANCH  36  37
ATOM     37  O   UNL     1       8.494   7.806  -7.497  1.00  0.00    -0.460 OA
BRANCH  37  38
ATOM     38  C   UNL     1       9.223   8.437  -8.443  1.00  0.00     0.338 C 
ATOM     39  O   UNL     1       9.694   7.957  -9.456  1.00  0.00    -0.246 OA
BRANCH  38  40
ATOM     40  C   UNL     1       9.210   9.880  -8.128  1.00  0.00     0.060 A 
ATOM     41  C   UNL     1       8.684  10.777  -9.067  1.00  0.00     0.016 A 
ATOM     42  C   UNL     1       9.721  10.342  -6.914  1.00  0.00     0.016 A 
ATOM     43  C   UNL     1       8.713  12.149  -8.811  1.00  0.00     0.010 A 
ATOM     44  C   UNL     1       9.764  11.716  -6.666  1.00  0.00     0.010 A 
ATOM     45  C   UNL     1       9.297  12.627  -7.631  1.00  0.00    -0.014 A 
BRANCH  45  46
ATOM     46  C   UNL     1       9.618  14.069  -7.497  1.00  0.00     0.031 A 
ATOM     47  C   UNL     1      11.024  14.515  -7.799  1.00  0.00     0.074 A 
ATOM     48  C   UNL     1       8.687  14.969  -7.136  1.00  0.00     0.049 A 
ATOM     49  N   UNL     1      11.556  15.706  -7.706  1.00  0.00    -0.248 NA
ATOM     50  C   UNL     1      11.954  13.472  -8.264  1.00  0.00     0.031 C 
ATOM     51  C   UNL     1       7.281  14.676  -6.866  1.00  0.00     0.029 A 
ATOM     52  N   UNL     1       8.797  16.322  -6.928  1.00  0.00    -0.354 N 
ATOM     53  C   UNL     1      12.883  15.554  -8.090  1.00  0.00     0.074 A 
ATOM     54  C   UNL     1      13.084  14.152  -8.384  1.00  0.00     0.031 C 
ATOM     55  C   UNL     1       6.659  15.818  -6.522  1.00  0.00     0.029 A 
ATOM     56  C   UNL     1       7.629  16.911  -6.511  1.00  0.00     0.049 A 
ATOM     57  H   UNL     1       9.634  16.822  -7.066  1.00  0.00     0.167 HD
ATOM     58  C   UNL     1      13.849  16.496  -8.196  1.00  0.00     0.031 A 
ATOM     59  C   UNL     1       7.381  18.183  -6.140  1.00  0.00     0.031 A 
ATOM     60  C   UNL     1      13.657  17.887  -7.888  1.00  0.00     0.049 A 
ATOM     61  C   UNL     1       8.496  19.196  -6.178  1.00  0.00     0.074 A 
ATOM     62  C   UNL     1      14.570  18.923  -7.973  1.00  0.00     0.029 A 
ATOM     63  N   UNL     1      12.470  18.435  -7.427  1.00  0.00    -0.354 N 
ATOM     64  N   UNL     1       9.740  19.047  -6.566  1.00  0.00    -0.248 NA
ATOM     65  C   UNL     1       8.168  20.559  -5.732  1.00  0.00     0.031 C 
ATOM     66  C   UNL     1      13.955  20.086  -7.500  1.00  0.00     0.029 A 
ATOM     67  C   UNL     1      12.637  19.789  -7.192  1.00  0.00     0.049 A 
ATOM     68  H   UNL     1      11.633  17.935  -7.287  1.00  0.00     0.167 HD
ATOM     69  C   UNL     1      10.330  20.300  -6.445  1.00  0.00     0.074 A 
ATOM     70  C   UNL     1       9.305  21.201  -5.962  1.00  0.00     0.031 C 
ATOM     71  C   UNL     1      11.606  20.674  -6.714  1.00  0.00     0.031 A 
BRANCH  58  72
ATOM     72  C   UNL     1      15.216  16.039  -8.626  1.00  0.00    -0.014 A 
ATOM     73  C   UNL     1      15.465  15.600  -9.936  1.00  0.00     0.009 A 
ATOM     74  C   UNL     1      16.279  16.073  -7.709  1.00  0.00     0.009 A 
ATOM     75  C   UNL     1      16.740  15.169 -10.308  1.00  0.00     0.001 A 
ATOM     76  C   UNL     1      17.560  15.673  -8.092  1.00  0.00     0.001 A 
ATOM     77  C   UNL     1      17.787  15.212  -9.388  1.00  0.00     0.000 A 
ENDBRANCH  58  72
BRANCH  59  78
ATOM     78  C   UNL     1       6.023  18.577  -5.674  1.00  0.00    -0.014 A 
ATOM     79  C   UNL     1       5.238  19.467  -6.423  1.00  0.00     0.009 A 
ATOM     80  C   UNL     1       5.520  18.091  -4.457  1.00  0.00     0.009 A 
ATOM     81  C   UNL     1       3.992  19.885  -5.948  1.00  0.00     0.001 A 
ATOM     82  C   UNL     1       4.260  18.485  -4.000  1.00  0.00     0.001 A 
ATOM     83  C   UNL     1       3.502  19.390  -4.740  1.00  0.00     0.000 A 
ENDBRANCH  59  78
BRANCH  71  84
ATOM     84  C   UNL     1      11.956  22.128  -6.540  1.00  0.00    -0.014 A 
ATOM     85  C   UNL     1      12.046  22.716  -5.269  1.00  0.00     0.009 A 
ATOM     86  C   UNL     1      12.249  22.908  -7.670  1.00  0.00     0.009 A 
ATOM     87  C   UNL     1      12.386  24.065  -5.138  1.00  0.00     0.001 A 
ATOM     88  C   UNL     1      12.622  24.246  -7.534  1.00  0.00     0.001 A 
ATOM     89  C   UNL     1      12.680  24.826  -6.269  1.00  0.00     0.000 A 
ENDBRANCH  71  84
ENDBRANCH  45  46
ENDBRANCH  38  40
ENDBRANCH  37  38
ENDBRANCH  36  37
ENDBRANCH  35  36
ENDBRANCH  34  35
ENDBRANCH  33  34
ENDBRANCH  32  33
ENDBRANCH  31  32
ENDBRANCH   1  31
TORSDOF 24
