REMARK SMILES CC[NH2+][C@]1(C(=O)OCCOCCOCCOCCOC(=O)c2ccc(-c3c4nc(c(-c5ccccc5)c5ccc([nH]5)c(-c5ccccc5)c5nc(c(-c6ccccc6)c6ccc3[nH]6)C=C5)C=C4)cc2)CC[C@H](SC2COC2)C1
REMARK SMILES IDX 13 1 12 2 11 3 10 4 9 5 8 6 7 7 5 8 6 9 4 10 70 11 78 12
REMARK SMILES IDX 71 13 72 14 3 15 2 18 1 19 73 20 74 21 75 22 77 23 76 24
REMARK SMILES IDX 14 25 15 26 16 27 17 28 18 29 19 30 20 31 21 32 22 33 23 34
REMARK SMILES IDX 69 35 24 36 68 37 25 38 26 39 27 40 62 41 28 42 67 43 61 44
REMARK SMILES IDX 63 45 29 46 66 47 60 48 59 49 30 51 52 52 37 53 51 54 38 55
REMARK SMILES IDX 41 56 50 57 64 58 39 59 40 60 49 62 65 63 42 64 31 65 32 66
REMARK SMILES IDX 36 67 33 68 35 69 34 70 53 71 54 72 58 73 55 74 57 75 56 76
REMARK SMILES IDX 43 77 44 78 48 79 45 80 47 81 46 82
REMARK H PARENT 3 16 3 17 63 50 41 61
REMARK Flexibility Score: inf
ROOT
ATOM      1  O   UNL     1       1.245   1.008   1.081  1.00  0.00    -0.377 OA
ENDROOT
BRANCH   1   2
ATOM      2  C   UNL     1       0.234   0.736   0.130  1.00  0.00     0.188 C 
BRANCH   2   3
ATOM      3  C   UNL     1       0.746   0.478  -1.298  1.00  0.00     0.188 C 
BRANCH   3   4
ATOM      4  O   UNL     1       1.978  -0.188  -1.484  1.00  0.00    -0.376 OA
BRANCH   4   5
ATOM      5  C   UNL     1       3.257   0.390  -1.282  1.00  0.00     0.202 C 
BRANCH   5   6
ATOM      6  C   UNL     1       3.600   1.858  -1.006  1.00  0.00     0.261 C 
BRANCH   6   7
ATOM      7  O   UNL     1       2.600   2.674  -0.422  1.00  0.00    -0.459 OA
BRANCH   7   8
ATOM      8  C   UNL     1       1.898   3.414  -1.313  1.00  0.00     0.368 C 
ATOM      9  O   UNL     1       2.028   3.327  -2.531  1.00  0.00    -0.245 OA
BRANCH   8  10
ATOM     10  C   UNL     1       0.976   4.430  -0.636  1.00  0.00     0.195 C 
ATOM     11  C   UNL     1       1.562   5.796  -1.000  1.00  0.00     0.082 C 
ATOM     12  C   UNL     1      -0.403   4.481  -1.334  1.00  0.00     0.095 C 
ATOM     13  C   UNL     1       0.399   6.745  -0.859  1.00  0.00     0.022 C 
ATOM     14  C   UNL     1      -0.838   5.964  -1.304  1.00  0.00     0.054 C 
BRANCH  10  15
ATOM     15  N   UNL     1       0.686   4.161   0.794  1.00  0.00    -0.332 N 
ATOM     16  H   UNL     1      -0.252   4.514   0.984  1.00  0.00     0.347 HD
ATOM     17  H   UNL     1       0.814   3.154   0.890  1.00  0.00     0.347 HD
BRANCH  15  18
ATOM     18  C   UNL     1       1.570   4.730   1.799  1.00  0.00     0.257 C 
ATOM     19  C   UNL     1       1.011   4.392   3.179  1.00  0.00     0.071 C 
ENDBRANCH  15  18
ENDBRANCH  10  15
BRANCH  14  20
ATOM     20  S   UNL     1      -2.250   6.232  -0.187  1.00  0.00    -0.150 SA
BRANCH  20  21
ATOM     21  C   UNL     1      -2.682   7.984  -0.376  1.00  0.00     0.098 C 
ATOM     22  C   UNL     1      -1.673   9.040   0.078  1.00  0.00     0.177 C 
ATOM     23  C   UNL     1      -2.537   8.635  -1.748  1.00  0.00     0.177 C 
ATOM     24  O   UNL     1      -1.856   9.780  -1.162  1.00  0.00    -0.379 OA
ENDBRANCH  20  21
ENDBRANCH  14  20
ENDBRANCH   8  10
ENDBRANCH   7   8
ENDBRANCH   6   7
ENDBRANCH   5   6
ENDBRANCH   4   5
ENDBRANCH   3   4
ENDBRANCH   2   3
ENDBRANCH   1   2
BRANCH   1  25
ATOM     25  C   UNL     1       1.888  -0.092   1.724  1.00  0.00     0.188 C 
BRANCH  25  26
ATOM     26  C   UNL     1       1.813  -1.530   1.156  1.00  0.00     0.188 C 
BRANCH  26  27
ATOM     27  O   UNL     1       0.554  -1.885   0.613  1.00  0.00    -0.376 OA
BRANCH  27  28
ATOM     28  C   UNL     1      -0.266  -2.764   1.365  1.00  0.00     0.202 C 
BRANCH  28  29
ATOM     29  C   UNL     1      -0.810  -2.198   2.684  1.00  0.00     0.261 C 
BRANCH  29  30
ATOM     30  O   UNL     1       0.185  -1.804   3.646  1.00  0.00    -0.460 OA
BRANCH  30  31
ATOM     31  C   UNL     1       1.006  -2.771   4.112  1.00  0.00     0.338 C 
ATOM     32  O   UNL     1       0.977  -3.954   3.846  1.00  0.00    -0.246 OA
BRANCH  31  33
ATOM     33  C   UNL     1       2.096  -2.114   4.867  1.00  0.00     0.060 A 
ATOM     34  C   UNL     1       3.417  -2.297   4.440  1.00  0.00     0.016 A 
ATOM     35  C   UNL     1       1.817  -1.341   5.996  1.00  0.00     0.016 A 
ATOM     36  C   UNL     1       4.467  -1.738   5.168  1.00  0.00     0.010 A 
ATOM     37  C   UNL     1       2.873  -0.795   6.733  1.00  0.00     0.010 A 
ATOM     38  C   UNL     1       4.204  -1.020   6.342  1.00  0.00    -0.014 A 
BRANCH  38  39
ATOM     39  C   UNL     1       5.328  -0.645   7.235  1.00  0.00     0.031 A 
ATOM     40  C   UNL     1       5.618  -1.501   8.439  1.00  0.00     0.074 A 
ATOM     41  C   UNL     1       6.112   0.412   6.959  1.00  0.00     0.049 A 
ATOM     42  N   UNL     1       6.562  -1.378   9.338  1.00  0.00    -0.248 NA
ATOM     43  C   UNL     1       4.725  -2.651   8.656  1.00  0.00     0.031 C 
ATOM     44  C   UNL     1       5.964   1.299   5.806  1.00  0.00     0.029 A 
ATOM     45  N   UNL     1       7.197   0.913   7.634  1.00  0.00    -0.354 N 
ATOM     46  C   UNL     1       6.375  -2.430  10.227  1.00  0.00     0.074 A 
ATOM     47  C   UNL     1       5.208  -3.159   9.780  1.00  0.00     0.031 C 
ATOM     48  C   UNL     1       6.928   2.235   5.852  1.00  0.00     0.029 A 
ATOM     49  C   UNL     1       7.739   2.033   7.051  1.00  0.00     0.049 A 
ATOM     50  H   UNL     1       7.554   0.509   8.457  1.00  0.00     0.167 HD
ATOM     51  C   UNL     1       7.112  -2.766  11.313  1.00  0.00     0.031 A 
ATOM     52  C   UNL     1       8.764   2.812   7.446  1.00  0.00     0.031 A 
ATOM     53  C   UNL     1       8.259  -2.030  11.775  1.00  0.00     0.049 A 
ATOM     54  C   UNL     1       9.518   2.462   8.702  1.00  0.00     0.074 A 
ATOM     55  C   UNL     1       9.078  -2.298  12.859  1.00  0.00     0.029 A 
ATOM     56  N   UNL     1       8.744  -0.872  11.186  1.00  0.00    -0.354 N 
ATOM     57  N   UNL     1       9.352   1.446   9.515  1.00  0.00    -0.248 NA
ATOM     58  C   UNL     1      10.614   3.364   9.085  1.00  0.00     0.031 C 
ATOM     59  C   UNL     1      10.017  -1.266  12.964  1.00  0.00     0.029 A 
ATOM     60  C   UNL     1       9.831  -0.396  11.902  1.00  0.00     0.049 A 
ATOM     61  H   UNL     1       8.371  -0.450  10.379  1.00  0.00     0.167 HD
ATOM     62  C   UNL     1      10.340   1.571  10.486  1.00  0.00     0.074 A 
ATOM     63  C   UNL     1      11.114   2.747  10.146  1.00  0.00     0.031 C 
ATOM     64  C   UNL     1      10.585   0.783  11.563  1.00  0.00     0.031 A 
BRANCH  51  65
ATOM     65  C   UNL     1       6.669  -3.968  12.103  1.00  0.00    -0.014 A 
ATOM     66  C   UNL     1       6.788  -5.269  11.588  1.00  0.00     0.009 A 
ATOM     67  C   UNL     1       6.152  -3.798  13.397  1.00  0.00     0.009 A 
ATOM     68  C   UNL     1       6.365  -6.370  12.337  1.00  0.00     0.001 A 
ATOM     69  C   UNL     1       5.760  -4.901  14.156  1.00  0.00     0.001 A 
ATOM     70  C   UNL     1       5.857  -6.185  13.623  1.00  0.00     0.000 A 
ENDBRANCH  51  65
BRANCH  52  71
ATOM     71  C   UNL     1       9.138   4.015   6.655  1.00  0.00    -0.014 A 
ATOM     72  C   UNL     1      10.366   4.079   5.978  1.00  0.00     0.009 A 
ATOM     73  C   UNL     1       8.277   5.123   6.600  1.00  0.00     0.009 A 
ATOM     74  C   UNL     1      10.736   5.237   5.289  1.00  0.00     0.001 A 
ATOM     75  C   UNL     1       8.635   6.266   5.882  1.00  0.00     0.001 A 
ATOM     76  C   UNL     1       9.868   6.327   5.237  1.00  0.00     0.000 A 
ENDBRANCH  52  71
BRANCH  64  77
ATOM     77  C   UNL     1      11.763   1.151  12.427  1.00  0.00    -0.014 A 
ATOM     78  C   UNL     1      11.764   2.313  13.214  1.00  0.00     0.009 A 
ATOM     79  C   UNL     1      12.890   0.313  12.458  1.00  0.00     0.009 A 
ATOM     80  C   UNL     1      12.889   2.658  13.968  1.00  0.00     0.001 A 
ATOM     81  C   UNL     1      13.998   0.640  13.241  1.00  0.00     0.001 A 
ATOM     82  C   UNL     1      14.003   1.820  13.982  1.00  0.00     0.000 A 
ENDBRANCH  64  77
ENDBRANCH  38  39
ENDBRANCH  31  33
ENDBRANCH  30  31
ENDBRANCH  29  30
ENDBRANCH  28  29
ENDBRANCH  27  28
ENDBRANCH  26  27
ENDBRANCH  25  26
ENDBRANCH   1  25
TORSDOF 24
