REMARK SMILES CCN(C(=O)Cc1c(C(=O)OCCOCCOCCOCCOC(=O)c2ccc(-c3c4nc(c(-c5ccccc5)c5ccc([nH]5)c(-c5ccccc5)c5nc(c(-c6ccccc6)c6ccc3[nH]6)C=C5)C=C4)cc2)[nH]c2ccc(Cl)cc12)c1ccc(C)c(C)c1
REMARK SMILES IDX 16 1 15 2 14 3 13 4 12 5 11 6 9 7 10 8 8 9 7 10 81 11 74 12
REMARK SMILES IDX 75 13 80 14 76 16 78 17 77 18 79 19 6 20 4 21 5 22 3 23 2 24
REMARK SMILES IDX 1 25 82 26 83 27 89 28 84 29 87 30 85 31 88 32 86 33 17 34
REMARK SMILES IDX 18 35 19 36 20 37 21 38 22 39 23 40 24 41 25 42 26 43 27 44
REMARK SMILES IDX 73 45 28 46 72 47 29 48 30 49 31 50 66 51 32 52 71 53 65 54
REMARK SMILES IDX 67 55 33 56 70 57 64 58 63 59 34 61 56 62 41 63 55 64 42 65
REMARK SMILES IDX 45 66 54 67 68 68 43 69 44 70 53 72 69 73 46 74 35 75 36 76
REMARK SMILES IDX 40 77 37 78 39 79 38 80 57 81 58 82 62 83 59 84 61 85 60 86
REMARK SMILES IDX 47 87 48 88 52 89 49 90 51 91 50 92
REMARK H PARENT 74 15 67 60 45 71
REMARK Flexibility Score: inf
ROOT
ATOM      1  C   UNL     1      -2.259   0.641  -2.846  1.00  0.00     0.188 C 
ENDROOT
BRANCH   1   2
ATOM      2  C   UNL     1      -1.005   1.404  -3.298  1.00  0.00     0.188 C 
BRANCH   2   3
ATOM      3  O   UNL     1       0.102   0.586  -3.666  1.00  0.00    -0.376 OA
BRANCH   3   4
ATOM      4  C   UNL     1       1.072   0.371  -2.652  1.00  0.00     0.202 C 
BRANCH   4   5
ATOM      5  C   UNL     1       0.813  -0.887  -1.823  1.00  0.00     0.261 C 
BRANCH   5   6
ATOM      6  O   UNL     1      -0.298  -0.914  -0.905  1.00  0.00    -0.459 OA
BRANCH   6   7
ATOM      7  C   UNL     1      -0.576   0.146  -0.118  1.00  0.00     0.355 C 
ATOM      8  O   UNL     1      -0.161   1.290  -0.269  1.00  0.00    -0.244 OA
BRANCH   7   9
ATOM      9  C   UNL     1      -1.366  -0.250   1.024  1.00  0.00     0.129 A 
ATOM     10  C   UNL     1      -1.413  -1.423   1.790  1.00  0.00     0.002 A 
ATOM     11  C   UNL     1      -2.439  -1.209   2.782  1.00  0.00     0.005 A 
ATOM     12  N   UNL     1      -2.173   0.675   1.639  1.00  0.00    -0.349 N 
ATOM     13  C   UNL     1      -2.875   0.111   2.665  1.00  0.00     0.046 A 
ATOM     14  C   UNL     1      -3.045  -2.018   3.767  1.00  0.00     0.031 A 
ATOM     15  H   UNL     1      -2.237   1.621   1.374  1.00  0.00     0.167 HD
ATOM     16  C   UNL     1      -3.856   0.681   3.483  1.00  0.00     0.028 A 
ATOM     17  C   UNL     1      -4.053  -1.471   4.573  1.00  0.00     0.041 A 
ATOM     18  C   UNL     1      -4.447  -0.142   4.441  1.00  0.00     0.022 A 
ATOM     19  Cl  UNL     1      -4.833  -2.463   5.745  1.00  0.00    -0.084 Cl
BRANCH  10  20
ATOM     20  C   UNL     1      -0.623  -2.700   1.587  1.00  0.00     0.139 C 
BRANCH  20  21
ATOM     21  C   UNL     1       0.627  -2.987   2.462  1.00  0.00     0.231 C 
ATOM     22  O   UNL     1       0.640  -4.031   3.128  1.00  0.00    -0.274 OA
BRANCH  21  23
ATOM     23  N   UNL     1       1.777  -2.170   2.337  1.00  0.00    -0.312 N 
BRANCH  23  24
ATOM     24  C   UNL     1       1.616  -0.783   1.921  1.00  0.00     0.122 C 
ATOM     25  C   UNL     1       2.732   0.167   1.500  1.00  0.00     0.028 C 
ENDBRANCH  23  24
BRANCH  23  26
ATOM     26  C   UNL     1       3.095  -2.736   2.382  1.00  0.00     0.044 A 
ATOM     27  C   UNL     1       3.355  -4.002   1.856  1.00  0.00     0.026 A 
ATOM     28  C   UNL     1       4.190  -1.954   2.756  1.00  0.00     0.030 A 
ATOM     29  C   UNL     1       4.670  -4.386   1.560  1.00  0.00     0.006 A 
ATOM     30  C   UNL     1       5.499  -2.266   2.361  1.00  0.00    -0.046 A 
ATOM     31  C   UNL     1       5.745  -3.500   1.744  1.00  0.00    -0.048 A 
ATOM     32  C   UNL     1       6.566  -1.224   2.563  1.00  0.00     0.044 C 
ATOM     33  C   UNL     1       7.122  -3.923   1.316  1.00  0.00     0.044 C 
ENDBRANCH  23  26
ENDBRANCH  21  23
ENDBRANCH  20  21
ENDBRANCH  10  20
ENDBRANCH   7   9
ENDBRANCH   6   7
ENDBRANCH   5   6
ENDBRANCH   4   5
ENDBRANCH   3   4
ENDBRANCH   2   3
ENDBRANCH   1   2
BRANCH   1  34
ATOM     34  O   UNL     1      -2.335  -0.753  -3.105  1.00  0.00    -0.377 OA
BRANCH  34  35
ATOM     35  C   UNL     1      -1.962  -1.248  -4.386  1.00  0.00     0.188 C 
BRANCH  35  36
ATOM     36  C   UNL     1      -2.148  -0.361  -5.627  1.00  0.00     0.188 C 
BRANCH  36  37
ATOM     37  O   UNL     1      -3.167   0.625  -5.497  1.00  0.00    -0.376 OA
BRANCH  37  38
ATOM     38  C   UNL     1      -4.406   0.333  -6.131  1.00  0.00     0.202 C 
BRANCH  38  39
ATOM     39  C   UNL     1      -5.256  -0.699  -5.381  1.00  0.00     0.261 C 
BRANCH  39  40
ATOM     40  O   UNL     1      -4.735  -2.037  -5.423  1.00  0.00    -0.460 OA
BRANCH  40  41
ATOM     41  C   UNL     1      -4.594  -2.597  -6.643  1.00  0.00     0.338 C 
ATOM     42  O   UNL     1      -4.916  -2.133  -7.720  1.00  0.00    -0.246 OA
BRANCH  41  43
ATOM     43  C   UNL     1      -3.819  -3.836  -6.478  1.00  0.00     0.060 A 
ATOM     44  C   UNL     1      -2.603  -3.963  -7.159  1.00  0.00     0.016 A 
ATOM     45  C   UNL     1      -4.314  -4.875  -5.687  1.00  0.00     0.016 A 
ATOM     46  C   UNL     1      -1.897  -5.163  -7.090  1.00  0.00     0.010 A 
ATOM     47  C   UNL     1      -3.621  -6.083  -5.640  1.00  0.00     0.010 A 
ATOM     48  C   UNL     1      -2.434  -6.242  -6.374  1.00  0.00    -0.014 A 
BRANCH  48  49
ATOM     49  C   UNL     1      -1.897  -7.603  -6.587  1.00  0.00     0.031 A 
ATOM     50  C   UNL     1      -2.416  -8.389  -7.760  1.00  0.00     0.074 A 
ATOM     51  C   UNL     1      -0.994  -8.140  -5.751  1.00  0.00     0.049 A 
ATOM     52  N   UNL     1      -2.132  -9.610  -8.131  1.00  0.00    -0.248 NA
ATOM     53  C   UNL     1      -3.386  -7.702  -8.631  1.00  0.00     0.031 C 
ATOM     54  C   UNL     1      -0.395  -7.469  -4.599  1.00  0.00     0.029 A 
ATOM     55  N   UNL     1      -0.436  -9.393  -5.744  1.00  0.00    -0.354 N 
ATOM     56  C   UNL     1      -2.875  -9.831  -9.282  1.00  0.00     0.074 A 
ATOM     57  C   UNL     1      -3.637  -8.630  -9.541  1.00  0.00     0.031 C 
ATOM     58  C   UNL     1       0.438  -8.328  -3.983  1.00  0.00     0.029 A 
ATOM     59  C   UNL     1       0.408  -9.610  -4.685  1.00  0.00     0.049 A 
ATOM     60  H   UNL     1      -0.624 -10.071  -6.432  1.00  0.00     0.167 HD
ATOM     61  C   UNL     1      -2.924 -10.937 -10.059  1.00  0.00     0.031 A 
ATOM     62  C   UNL     1       1.062 -10.727  -4.316  1.00  0.00     0.031 A 
ATOM     63  C   UNL     1      -2.213 -12.151  -9.780  1.00  0.00     0.049 A 
ATOM     64  C   UNL     1       0.911 -11.980  -5.138  1.00  0.00     0.074 A 
ATOM     65  C   UNL     1      -2.201 -13.331 -10.501  1.00  0.00     0.029 A 
ATOM     66  N   UNL     1      -1.402 -12.344  -8.674  1.00  0.00    -0.354 N 
ATOM     67  N   UNL     1       0.235 -12.165  -6.245  1.00  0.00    -0.248 NA
ATOM     68  C   UNL     1       1.612 -13.178  -4.652  1.00  0.00     0.031 C 
ATOM     69  C   UNL     1      -1.412 -14.255  -9.806  1.00  0.00     0.029 A 
ATOM     70  C   UNL     1      -0.906 -13.634  -8.675  1.00  0.00     0.049 A 
ATOM     71  H   UNL     1      -1.208 -11.664  -7.989  1.00  0.00     0.167 HD
ATOM     72  C   UNL     1       0.443 -13.493  -6.598  1.00  0.00     0.074 A 
ATOM     73  C   UNL     1       1.315 -14.064  -5.593  1.00  0.00     0.031 C 
ATOM     74  C   UNL     1      -0.043 -14.180  -7.661  1.00  0.00     0.031 A 
BRANCH  61  75
ATOM     75  C   UNL     1      -3.812 -10.877 -11.264  1.00  0.00    -0.014 A 
ATOM     76  C   UNL     1      -3.414 -10.181 -12.416  1.00  0.00     0.009 A 
ATOM     77  C   UNL     1      -5.063 -11.511 -11.244  1.00  0.00     0.009 A 
ATOM     78  C   UNL     1      -4.266 -10.099 -13.518  1.00  0.00     0.001 A 
ATOM     79  C   UNL     1      -5.905 -11.440 -12.354  1.00  0.00     0.001 A 
ATOM     80  C   UNL     1      -5.510 -10.729 -13.487  1.00  0.00     0.000 A 
ENDBRANCH  61  75
BRANCH  62  81
ATOM     81  C   UNL     1       1.902 -10.731  -3.092  1.00  0.00    -0.014 A 
ATOM     82  C   UNL     1       3.301 -10.757  -3.189  1.00  0.00     0.009 A 
ATOM     83  C   UNL     1       1.306 -10.735  -1.822  1.00  0.00     0.009 A 
ATOM     84  C   UNL     1       4.087 -10.808  -2.035  1.00  0.00     0.001 A 
ATOM     85  C   UNL     1       2.095 -10.766  -0.671  1.00  0.00     0.001 A 
ATOM     86  C   UNL     1       3.484 -10.810  -0.778  1.00  0.00     0.000 A 
ENDBRANCH  62  81
BRANCH  74  87
ATOM     87  C   UNL     1       0.374 -15.613  -7.800  1.00  0.00    -0.014 A 
ATOM     88  C   UNL     1      -0.216 -16.616  -7.016  1.00  0.00     0.009 A 
ATOM     89  C   UNL     1       1.331 -15.970  -8.763  1.00  0.00     0.009 A 
ATOM     90  C   UNL     1       0.162 -17.949  -7.180  1.00  0.00     0.001 A 
ATOM     91  C   UNL     1       1.691 -17.306  -8.938  1.00  0.00     0.001 A 
ATOM     92  C   UNL     1       1.111 -18.294  -8.143  1.00  0.00     0.000 A 
ENDBRANCH  74  87
ENDBRANCH  48  49
ENDBRANCH  41  43
ENDBRANCH  40  41
ENDBRANCH  39  40
ENDBRANCH  38  39
ENDBRANCH  37  38
ENDBRANCH  36  37
ENDBRANCH  35  36
ENDBRANCH  34  35
ENDBRANCH   1  34
TORSDOF 25
