REMARK SMILES C[C@]1(C(=O)N2CCC(CC(=O)OCCOCCOCCOCCOC(=O)c3ccc(-c4c5nc(c(-c6ccccc6)c6ccc([nH]6)c(-c6ccccc6)c6nc(c(-c7ccccc7)c7ccc4[nH]7)C=C6)C=C5)cc3)CC2)CCC[NH2+]1
REMARK SMILES IDX 18 1 17 2 16 3 15 4 14 5 13 6 12 7 10 8 11 9 9 10 8 11 3 12
REMARK SMILES IDX 4 13 5 14 6 15 76 16 7 17 75 18 2 19 1 20 77 21 80 22 78 23
REMARK SMILES IDX 79 24 19 27 20 28 21 29 22 30 23 31 24 32 25 33 26 34 27 35
REMARK SMILES IDX 28 36 74 37 29 38 73 39 30 40 31 41 32 42 67 43 33 44 72 45
REMARK SMILES IDX 66 46 68 47 34 48 71 49 65 50 64 51 35 53 57 54 42 55 56 56
REMARK SMILES IDX 43 57 46 58 55 59 69 60 44 61 45 62 54 64 70 65 47 66 36 67
REMARK SMILES IDX 37 68 41 69 38 70 40 71 39 72 58 73 59 74 63 75 60 76 62 77
REMARK SMILES IDX 61 78 48 79 49 80 53 81 50 82 52 83 51 84
REMARK H PARENT 80 25 80 26 68 52 46 63
REMARK Flexibility Score: inf
ROOT
ATOM      1  O   UNL     1       5.970  -3.680   0.772  1.00  0.00    -0.377 OA
ENDROOT
BRANCH   1   2
ATOM      2  C   UNL     1       5.819  -4.670   1.775  1.00  0.00     0.188 C 
BRANCH   2   3
ATOM      3  C   UNL     1       6.145  -6.125   1.420  1.00  0.00     0.188 C 
BRANCH   3   4
ATOM      4  O   UNL     1       7.157  -6.343   0.464  1.00  0.00    -0.376 OA
BRANCH   4   5
ATOM      5  C   UNL     1       6.870  -6.295  -0.924  1.00  0.00     0.202 C 
BRANCH   5   6
ATOM      6  C   UNL     1       5.476  -6.076  -1.545  1.00  0.00     0.261 C 
BRANCH   6   7
ATOM      7  O   UNL     1       4.522  -5.305  -0.798  1.00  0.00    -0.463 OA
BRANCH   7   8
ATOM      8  C   UNL     1       3.356  -5.924  -0.503  1.00  0.00     0.306 C 
ATOM      9  O   UNL     1       3.117  -7.100  -0.765  1.00  0.00    -0.252 OA
BRANCH   8  10
ATOM     10  C   UNL     1       2.338  -5.080   0.245  1.00  0.00     0.126 C 
BRANCH  10  11
ATOM     11  C   UNL     1       2.591  -3.603   0.574  1.00  0.00     0.003 C 
ATOM     12  C   UNL     1       1.062   0.069  -0.013  1.00  0.00     0.283 C 
ATOM     13  O   UNL     1       0.792  -0.050  -1.213  1.00  0.00    -0.268 OA
ATOM     14  N   UNL     1       1.966  -0.788   0.598  1.00  0.00    -0.337 N 
ATOM     15  C   UNL     1       3.085  -1.278  -0.190  1.00  0.00     0.120 C 
ATOM     16  C   UNL     1       1.643  -1.569   1.784  1.00  0.00     0.120 C 
ATOM     17  C   UNL     1       2.850  -2.714  -0.648  1.00  0.00     0.026 C 
ATOM     18  C   UNL     1       1.405  -3.034   1.393  1.00  0.00     0.026 C 
BRANCH  12  19
ATOM     19  C   UNL     1       0.471   1.227   0.851  1.00  0.00     0.173 C 
ATOM     20  C   UNL     1      -0.940   0.879   1.341  1.00  0.00     0.090 C 
ATOM     21  C   UNL     1       1.403   1.691   1.975  1.00  0.00     0.084 C 
ATOM     22  N   UNL     1       0.443   2.435  -0.010  1.00  0.00    -0.334 N 
ATOM     23  C   UNL     1       1.080   3.165   2.154  1.00  0.00     0.068 C 
ATOM     24  C   UNL     1       0.657   3.634   0.776  1.00  0.00     0.261 C 
ATOM     25  H   UNL     1      -0.465   2.496  -0.471  1.00  0.00     0.347 HD
ATOM     26  H   UNL     1       1.189   2.360  -0.701  1.00  0.00     0.347 HD
ENDBRANCH  12  19
ENDBRANCH  10  11
ENDBRANCH   8  10
ENDBRANCH   7   8
ENDBRANCH   6   7
ENDBRANCH   5   6
ENDBRANCH   4   5
ENDBRANCH   3   4
ENDBRANCH   2   3
ENDBRANCH   1   2
BRANCH   1  27
ATOM     27  C   UNL     1       7.272  -3.283   0.351  1.00  0.00     0.188 C 
BRANCH  27  28
ATOM     28  C   UNL     1       8.537  -3.754   1.096  1.00  0.00     0.188 C 
BRANCH  28  29
ATOM     29  O   UNL     1       8.355  -4.029   2.474  1.00  0.00    -0.376 OA
BRANCH  29  30
ATOM     30  C   UNL     1       8.633  -2.998   3.411  1.00  0.00     0.202 C 
BRANCH  30  31
ATOM     31  C   UNL     1       7.833  -1.692   3.283  1.00  0.00     0.261 C 
BRANCH  31  32
ATOM     32  O   UNL     1       8.047  -0.943   2.074  1.00  0.00    -0.460 OA
BRANCH  32  33
ATOM     33  C   UNL     1       9.312  -0.557   1.797  1.00  0.00     0.338 C 
ATOM     34  O   UNL     1      10.298  -0.705   2.490  1.00  0.00    -0.246 OA
BRANCH  33  35
ATOM     35  C   UNL     1       9.345  -0.081   0.400  1.00  0.00     0.060 A 
ATOM     36  C   UNL     1      10.151  -0.763  -0.518  1.00  0.00     0.016 A 
ATOM     37  C   UNL     1       8.615   1.043   0.007  1.00  0.00     0.016 A 
ATOM     38  C   UNL     1      10.262  -0.296  -1.826  1.00  0.00     0.010 A 
ATOM     39  C   UNL     1       8.741   1.520  -1.302  1.00  0.00     0.010 A 
ATOM     40  C   UNL     1       9.594   0.874  -2.213  1.00  0.00    -0.014 A 
BRANCH  40  41
ATOM     41  C   UNL     1       9.921   1.486  -3.524  1.00  0.00     0.031 A 
ATOM     42  C   UNL     1      10.893   2.633  -3.572  1.00  0.00     0.074 A 
ATOM     43  C   UNL     1       9.414   0.987  -4.664  1.00  0.00     0.049 A 
ATOM     44  N   UNL     1      11.373   3.272  -4.609  1.00  0.00    -0.248 NA
ATOM     45  C   UNL     1      11.393   3.123  -2.277  1.00  0.00     0.031 C 
ATOM     46  C   UNL     1       8.488  -0.140  -4.756  1.00  0.00     0.029 A 
ATOM     47  N   UNL     1       9.617   1.365  -5.967  1.00  0.00    -0.354 N 
ATOM     48  C   UNL     1      12.226   4.241  -4.093  1.00  0.00     0.074 A 
ATOM     49  C   UNL     1      12.172   4.127  -2.652  1.00  0.00     0.031 C 
ATOM     50  C   UNL     1       8.207  -0.366  -6.050  1.00  0.00     0.029 A 
ATOM     51  C   UNL     1       8.909   0.616  -6.873  1.00  0.00     0.049 A 
ATOM     52  H   UNL     1      10.215   2.103  -6.228  1.00  0.00     0.167 HD
ATOM     53  C   UNL     1      12.989   5.141  -4.758  1.00  0.00     0.031 A 
ATOM     54  C   UNL     1       8.827   0.718  -8.214  1.00  0.00     0.031 A 
ATOM     55  C   UNL     1      13.026   5.271  -6.192  1.00  0.00     0.049 A 
ATOM     56  C   UNL     1       9.638   1.767  -8.927  1.00  0.00     0.074 A 
ATOM     57  C   UNL     1      13.785   6.136  -6.961  1.00  0.00     0.029 A 
ATOM     58  N   UNL     1      12.257   4.525  -7.073  1.00  0.00    -0.354 N 
ATOM     59  N   UNL     1      10.475   2.646  -8.432  1.00  0.00    -0.248 NA
ATOM     60  C   UNL     1       9.503   1.822 -10.389  1.00  0.00     0.031 C 
ATOM     61  C   UNL     1      13.423   5.963  -8.301  1.00  0.00     0.029 A 
ATOM     62  C   UNL     1      12.496   4.936  -8.375  1.00  0.00     0.049 A 
ATOM     63  H   UNL     1      11.633   3.809  -6.812  1.00  0.00     0.167 HD
ATOM     64  C   UNL     1      10.985   3.342  -9.523  1.00  0.00     0.074 A 
ATOM     65  C   UNL     1      10.382   2.762 -10.705  1.00  0.00     0.031 C 
ATOM     66  C   UNL     1      11.874   4.366  -9.544  1.00  0.00     0.031 A 
BRANCH  53  67
ATOM     67  C   UNL     1      13.812   6.092  -3.931  1.00  0.00    -0.014 A 
ATOM     68  C   UNL     1      14.916   5.654  -3.182  1.00  0.00     0.009 A 
ATOM     69  C   UNL     1      13.485   7.457  -3.917  1.00  0.00     0.009 A 
ATOM     70  C   UNL     1      15.649   6.556  -2.406  1.00  0.00     0.001 A 
ATOM     71  C   UNL     1      14.239   8.362  -3.167  1.00  0.00     0.001 A 
ATOM     72  C   UNL     1      15.312   7.909  -2.403  1.00  0.00     0.000 A 
ENDBRANCH  53  67
BRANCH  54  73
ATOM     73  C   UNL     1       7.930  -0.194  -8.973  1.00  0.00    -0.014 A 
ATOM     74  C   UNL     1       8.452  -1.167  -9.838  1.00  0.00     0.009 A 
ATOM     75  C   UNL     1       6.536  -0.085  -8.840  1.00  0.00     0.009 A 
ATOM     76  C   UNL     1       7.598  -1.995 -10.571  1.00  0.00     0.001 A 
ATOM     77  C   UNL     1       5.685  -0.935  -9.548  1.00  0.00     0.001 A 
ATOM     78  C   UNL     1       6.216  -1.883 -10.420  1.00  0.00     0.000 A 
ENDBRANCH  54  73
BRANCH  66  79
ATOM     79  C   UNL     1      12.268   4.903 -10.896  1.00  0.00    -0.014 A 
ATOM     80  C   UNL     1      11.357   5.600 -11.706  1.00  0.00     0.009 A 
ATOM     81  C   UNL     1      13.578   4.710 -11.365  1.00  0.00     0.009 A 
ATOM     82  C   UNL     1      11.732   6.040 -12.978  1.00  0.00     0.001 A 
ATOM     83  C   UNL     1      13.961   5.184 -12.621  1.00  0.00     0.001 A 
ATOM     84  C   UNL     1      13.033   5.833 -13.433  1.00  0.00     0.000 A 
ENDBRANCH  66  79
ENDBRANCH  40  41
ENDBRANCH  33  35
ENDBRANCH  32  33
ENDBRANCH  31  32
ENDBRANCH  30  31
ENDBRANCH  29  30
ENDBRANCH  28  29
ENDBRANCH  27  28
ENDBRANCH   1  27
TORSDOF 22
