REMARK SMILES Cc1cc(Cl)ccc1Oc1cc(C)c(N)c(C(=O)OCCOCCOCCOCCOC(=O)c2ccc(-c3c4nc(c(-c5ccccc5)c5ccc([nH]5)c(-c5ccccc5)c5nc(c(-c6ccccc6)c6ccc3[nH]6)C=C5)C=C4)cc2)c1
REMARK SMILES IDX 25 1 24 2 23 3 22 4 21 5 20 6 19 7 17 8 18 9 16 10 10 11
REMARK SMILES IDX 11 12 82 13 12 14 13 15 14 16 9 17 8 18 1 19 2 20 3 21 4 22
REMARK SMILES IDX 7 23 5 24 6 25 15 26 26 29 27 30 28 31 29 32 30 33 31 34
REMARK SMILES IDX 32 35 33 36 34 37 35 38 81 39 36 40 80 41 37 42 38 43 39 44
REMARK SMILES IDX 74 45 40 46 79 47 73 48 75 49 41 50 78 51 72 52 71 53 42 55
REMARK SMILES IDX 64 56 49 57 63 58 50 59 53 60 62 61 76 62 51 63 52 64 61 66
REMARK SMILES IDX 77 67 54 68 43 69 44 70 48 71 45 72 47 73 46 74 65 75 66 76
REMARK SMILES IDX 70 77 67 78 69 79 68 80 55 81 56 82 60 83 57 84 59 85 58 86
REMARK H PARENT 15 27 15 28 75 54 53 65
REMARK Flexibility Score: inf
ROOT
ATOM      1  O   UNL     1      -5.543   1.425   4.463  1.00  0.00    -0.377 OA
ENDROOT
BRANCH   1   2
ATOM      2  C   UNL     1      -6.045   2.145   3.343  1.00  0.00     0.188 C 
BRANCH   2   3
ATOM      3  C   UNL     1      -7.559   2.419   3.204  1.00  0.00     0.188 C 
BRANCH   3   4
ATOM      4  O   UNL     1      -8.341   1.940   4.285  1.00  0.00    -0.376 OA
BRANCH   4   5
ATOM      5  C   UNL     1      -9.184   0.826   4.059  1.00  0.00     0.202 C 
BRANCH   5   6
ATOM      6  C   UNL     1      -8.515  -0.504   3.686  1.00  0.00     0.261 C 
BRANCH   6   7
ATOM      7  O   UNL     1      -7.533  -0.441   2.641  1.00  0.00    -0.460 OA
BRANCH   7   8
ATOM      8  C   UNL     1      -7.983  -0.202   1.387  1.00  0.00     0.340 C 
ATOM      9  O   UNL     1      -9.151  -0.063   1.061  1.00  0.00    -0.246 OA
BRANCH   8  10
ATOM     10  C   UNL     1      -6.817   0.053   0.493  1.00  0.00     0.086 A 
ATOM     11  C   UNL     1      -4.527  -0.442  -0.135  1.00  0.00     0.128 A 
ATOM     12  C   UNL     1      -4.627   0.461  -1.188  1.00  0.00     0.052 A 
ATOM     13  C   UNL     1      -5.642  -0.693   0.663  1.00  0.00     0.065 A 
ATOM     14  C   UNL     1      -5.763   1.281  -1.318  1.00  0.00    -0.024 A 
ATOM     15  C   UNL     1      -5.724   2.399  -2.326  1.00  0.00     0.047 C 
ATOM     16  C   UNL     1      -6.872   1.094  -0.463  1.00  0.00     0.049 A 
BRANCH  11  17
ATOM     17  O   UNL     1      -3.409  -1.167   0.169  1.00  0.00    -0.457 OA
BRANCH  17  18
ATOM     18  C   UNL     1      -2.124  -0.672   0.074  1.00  0.00     0.130 A 
ATOM     19  C   UNL     1      -2.503   1.865   0.469  1.00  0.00     0.048 C 
ATOM     20  C   UNL     1      -1.657   0.648   0.219  1.00  0.00    -0.007 A 
ATOM     21  C   UNL     1      -0.265   0.884   0.117  1.00  0.00     0.027 A 
ATOM     22  C   UNL     1       0.641  -0.163  -0.041  1.00  0.00     0.041 A 
ATOM     23  C   UNL     1      -1.188  -1.715  -0.073  1.00  0.00     0.049 A 
ATOM     24  Cl  UNL     1       2.328   0.165  -0.106  1.00  0.00    -0.084 Cl
ATOM     25  C   UNL     1       0.184  -1.469  -0.123  1.00  0.00     0.024 A 
ENDBRANCH  17  18
ENDBRANCH  11  17
BRANCH  16  26
ATOM     26  N   UNL     1      -7.900   2.041  -0.437  1.00  0.00    -0.398 N 
ATOM     27  H   UNL     1      -7.924   2.760  -1.109  1.00  0.00     0.156 HD
ATOM     28  H   UNL     1      -8.599   1.990   0.254  1.00  0.00     0.156 HD
ENDBRANCH  16  26
ENDBRANCH   8  10
ENDBRANCH   7   8
ENDBRANCH   6   7
ENDBRANCH   5   6
ENDBRANCH   4   5
ENDBRANCH   3   4
ENDBRANCH   2   3
ENDBRANCH   1   2
BRANCH   1  29
ATOM     29  C   UNL     1      -6.115   1.622   5.752  1.00  0.00     0.188 C 
BRANCH  29  30
ATOM     30  C   UNL     1      -6.646   3.011   6.175  1.00  0.00     0.188 C 
BRANCH  30  31
ATOM     31  O   UNL     1      -6.465   4.029   5.206  1.00  0.00    -0.376 OA
BRANCH  31  32
ATOM     32  C   UNL     1      -5.462   5.000   5.439  1.00  0.00     0.202 C 
BRANCH  32  33
ATOM     33  C   UNL     1      -4.011   4.507   5.541  1.00  0.00     0.261 C 
BRANCH  33  34
ATOM     34  O   UNL     1      -3.768   3.446   6.477  1.00  0.00    -0.460 OA
BRANCH  34  35
ATOM     35  C   UNL     1      -3.938   3.732   7.782  1.00  0.00     0.338 C 
ATOM     36  O   UNL     1      -4.261   4.807   8.268  1.00  0.00    -0.246 OA
BRANCH  35  37
ATOM     37  C   UNL     1      -3.861   2.469   8.541  1.00  0.00     0.060 A 
ATOM     38  C   UNL     1      -4.963   2.080   9.315  1.00  0.00     0.016 A 
ATOM     39  C   UNL     1      -2.711   1.677   8.496  1.00  0.00     0.016 A 
ATOM     40  C   UNL     1      -4.894   0.927  10.091  1.00  0.00     0.010 A 
ATOM     41  C   UNL     1      -2.636   0.529   9.290  1.00  0.00     0.010 A 
ATOM     42  C   UNL     1      -3.710   0.178  10.127  1.00  0.00    -0.014 A 
BRANCH  42  43
ATOM     43  C   UNL     1      -3.546  -0.839  11.192  1.00  0.00     0.031 A 
ATOM     44  C   UNL     1      -2.780  -0.464  12.431  1.00  0.00     0.074 A 
ATOM     45  C   UNL     1      -4.129  -2.046  11.096  1.00  0.00     0.049 A 
ATOM     46  N   UNL     1      -2.579  -1.155  13.524  1.00  0.00    -0.248 NA
ATOM     47  C   UNL     1      -2.157   0.869  12.438  1.00  0.00     0.031 C 
ATOM     48  C   UNL     1      -4.919  -2.516   9.961  1.00  0.00     0.029 A 
ATOM     49  N   UNL     1      -4.148  -3.093  11.982  1.00  0.00    -0.354 N 
ATOM     50  C   UNL     1      -1.800  -0.345  14.342  1.00  0.00     0.074 A 
ATOM     51  C   UNL     1      -1.536   0.872  13.607  1.00  0.00     0.031 C 
ATOM     52  C   UNL     1      -5.351  -3.762  10.221  1.00  0.00     0.029 A 
ATOM     53  C   UNL     1      -4.847  -4.183  11.527  1.00  0.00     0.049 A 
ATOM     54  H   UNL     1      -3.704  -3.066  12.861  1.00  0.00     0.167 HD
ATOM     55  C   UNL     1      -1.351  -0.588  15.596  1.00  0.00     0.031 A 
ATOM     56  C   UNL     1      -5.048  -5.388  12.095  1.00  0.00     0.031 A 
ATOM     57  C   UNL     1      -1.599  -1.808  16.318  1.00  0.00     0.049 A 
ATOM     58  C   UNL     1      -4.499  -5.657  13.471  1.00  0.00     0.074 A 
ATOM     59  C   UNL     1      -1.216  -2.140  17.605  1.00  0.00     0.029 A 
ATOM     60  N   UNL     1      -2.281  -2.902  15.808  1.00  0.00    -0.354 N 
ATOM     61  N   UNL     1      -3.810  -4.864  14.257  1.00  0.00    -0.248 NA
ATOM     62  C   UNL     1      -4.774  -6.981  14.045  1.00  0.00     0.031 C 
ATOM     63  C   UNL     1      -1.599  -3.463  17.846  1.00  0.00     0.029 A 
ATOM     64  C   UNL     1      -2.296  -3.926  16.741  1.00  0.00     0.049 A 
ATOM     65  H   UNL     1      -2.692  -2.945  14.915  1.00  0.00     0.167 HD
ATOM     66  C   UNL     1      -3.596  -5.581  15.429  1.00  0.00     0.074 A 
ATOM     67  C   UNL     1      -4.242  -6.866  15.254  1.00  0.00     0.031 C 
ATOM     68  C   UNL     1      -2.931  -5.206  16.551  1.00  0.00     0.031 A 
BRANCH  55  69
ATOM     69  C   UNL     1      -0.493   0.469  16.237  1.00  0.00    -0.014 A 
ATOM     70  C   UNL     1      -1.014   1.719  16.612  1.00  0.00     0.009 A 
ATOM     71  C   UNL     1       0.865   0.204  16.476  1.00  0.00     0.009 A 
ATOM     72  C   UNL     1      -0.183   2.695  17.167  1.00  0.00     0.001 A 
ATOM     73  C   UNL     1       1.685   1.169  17.064  1.00  0.00     0.001 A 
ATOM     74  C   UNL     1       1.164   2.418  17.396  1.00  0.00     0.000 A 
ENDBRANCH  55  69
BRANCH  56  75
ATOM     75  C   UNL     1      -5.800  -6.434  11.353  1.00  0.00    -0.014 A 
ATOM     76  C   UNL     1      -7.075  -6.845  11.769  1.00  0.00     0.009 A 
ATOM     77  C   UNL     1      -5.240  -7.021  10.206  1.00  0.00     0.009 A 
ATOM     78  C   UNL     1      -7.765  -7.834  11.062  1.00  0.00     0.001 A 
ATOM     79  C   UNL     1      -5.945  -7.985   9.484  1.00  0.00     0.001 A 
ATOM     80  C   UNL     1      -7.203  -8.397   9.917  1.00  0.00     0.000 A 
ENDBRANCH  56  75
BRANCH  68  81
ATOM     81  C   UNL     1      -2.904  -6.183  17.697  1.00  0.00    -0.014 A 
ATOM     82  C   UNL     1      -2.177  -7.382  17.629  1.00  0.00     0.009 A 
ATOM     83  C   UNL     1      -3.595  -5.877  18.880  1.00  0.00     0.009 A 
ATOM     84  C   UNL     1      -2.183  -8.274  18.704  1.00  0.00     0.001 A 
ATOM     85  C   UNL     1      -3.569  -6.753  19.967  1.00  0.00     0.001 A 
ATOM     86  C   UNL     1      -2.875  -7.957  19.873  1.00  0.00     0.000 A 
ENDBRANCH  68  81
ENDBRANCH  42  43
ENDBRANCH  35  37
ENDBRANCH  34  35
ENDBRANCH  33  34
ENDBRANCH  32  33
ENDBRANCH  31  32
ENDBRANCH  30  31
ENDBRANCH  29  30
ENDBRANCH   1  29
TORSDOF 23
