REMARK SMILES O=C(OCCOCCOCCOCCOC(=O)[C@H]1CC=CC[C@H]1C(=O)Nc1ccc(S(=O)(=O)N2CCCC2)cc1)c1ccc(-c2c3nc(c(-c4ccccc4)c4ccc([nH]4)c(-c4ccccc4)c4nc(c(-c5ccccc5)c5ccc2[nH]5)C=C4)C=C3)cc1
REMARK SMILES IDX 10 1 9 2 8 3 7 4 6 5 5 6 4 7 3 8 2 9 1 10 41 11 42 12 88 13
REMARK SMILES IDX 43 14 87 15 44 16 45 17 46 18 81 19 47 20 86 21 80 22 82 23
REMARK SMILES IDX 48 24 85 25 79 26 78 27 49 29 71 30 56 31 70 32 57 33 60 34
REMARK SMILES IDX 69 35 83 36 58 37 59 38 68 40 84 41 61 42 50 43 51 44 55 45
REMARK SMILES IDX 52 46 54 47 53 48 72 49 73 50 77 51 74 52 76 53 75 54 62 55
REMARK SMILES IDX 63 56 67 57 64 58 66 59 65 60 11 61 12 62 13 63 14 64 15 65
REMARK SMILES IDX 16 66 17 67 18 68 19 69 23 70 20 71 22 72 21 73 24 74 25 75
REMARK SMILES IDX 26 76 27 78 28 79 40 80 29 81 39 82 30 83 31 84 32 85 33 86
REMARK SMILES IDX 34 87 35 88 38 89 36 90 37 91
REMARK H PARENT 82 28 60 39 26 77
REMARK Flexibility Score: inf
ROOT
ATOM      1  C   UNL     1       5.016  -1.547  -0.662  1.00  0.00     0.188 C 
ENDROOT
BRANCH   1   2
ATOM      2  O   UNL     1       4.411  -2.067   0.536  1.00  0.00    -0.377 OA
BRANCH   2   3
ATOM      3  C   UNL     1       3.062  -1.677   0.867  1.00  0.00     0.188 C 
BRANCH   3   4
ATOM      4  C   UNL     1       2.733  -0.210   0.899  1.00  0.00     0.188 C 
BRANCH   4   5
ATOM      5  O   UNL     1       3.934   0.497   0.792  1.00  0.00    -0.376 OA
BRANCH   5   6
ATOM      6  C   UNL     1       4.554   0.883   1.998  1.00  0.00     0.202 C 
BRANCH   6   7
ATOM      7  C   UNL     1       3.904   2.179   2.472  1.00  0.00     0.261 C 
BRANCH   7   8
ATOM      8  O   UNL     1       3.824   3.069   1.335  1.00  0.00    -0.460 OA
BRANCH   8   9
ATOM      9  C   UNL     1       2.675   2.968   0.613  1.00  0.00     0.338 C 
ATOM     10  O   UNL     1       1.552   2.761   1.045  1.00  0.00    -0.246 OA
BRANCH   9  11
ATOM     11  C   UNL     1       2.994   2.995  -0.833  1.00  0.00     0.060 A 
ATOM     12  C   UNL     1       4.090   2.262  -1.318  1.00  0.00     0.016 A 
ATOM     13  C   UNL     1       2.189   3.709  -1.719  1.00  0.00     0.016 A 
ATOM     14  C   UNL     1       4.398   2.224  -2.658  1.00  0.00     0.010 A 
ATOM     15  C   UNL     1       2.577   3.796  -3.057  1.00  0.00     0.010 A 
ATOM     16  C   UNL     1       3.715   3.093  -3.496  1.00  0.00    -0.014 A 
BRANCH  16  17
ATOM     17  C   UNL     1       4.499   3.576  -4.637  1.00  0.00     0.031 A 
ATOM     18  C   UNL     1       5.361   4.777  -4.382  1.00  0.00     0.074 A 
ATOM     19  C   UNL     1       4.577   2.863  -5.767  1.00  0.00     0.049 A 
ATOM     20  N   UNL     1       6.004   5.534  -5.224  1.00  0.00    -0.248 NA
ATOM     21  C   UNL     1       5.527   5.178  -2.971  1.00  0.00     0.031 C 
ATOM     22  C   UNL     1       3.965   1.553  -5.985  1.00  0.00     0.029 A 
ATOM     23  N   UNL     1       5.218   3.145  -6.937  1.00  0.00    -0.354 N 
ATOM     24  C   UNL     1       6.577   6.538  -4.452  1.00  0.00     0.074 A 
ATOM     25  C   UNL     1       6.254   6.274  -3.074  1.00  0.00     0.031 C 
ATOM     26  C   UNL     1       4.235   1.155  -7.240  1.00  0.00     0.029 A 
ATOM     27  C   UNL     1       4.949   2.230  -7.923  1.00  0.00     0.049 A 
ATOM     28  H   UNL     1       5.809   3.921  -7.061  1.00  0.00     0.167 HD
ATOM     29  C   UNL     1       7.263   7.618  -4.883  1.00  0.00     0.031 A 
ATOM     30  C   UNL     1       5.179   2.324  -9.244  1.00  0.00     0.031 A 
ATOM     31  C   UNL     1       7.514   7.838  -6.277  1.00  0.00     0.049 A 
ATOM     32  C   UNL     1       5.825   3.592  -9.739  1.00  0.00     0.074 A 
ATOM     33  C   UNL     1       8.098   8.920  -6.901  1.00  0.00     0.029 A 
ATOM     34  N   UNL     1       7.168   6.927  -7.271  1.00  0.00    -0.354 N 
ATOM     35  N   UNL     1       6.251   4.626  -9.045  1.00  0.00    -0.248 NA
ATOM     36  C   UNL     1       5.998   3.727 -11.188  1.00  0.00     0.031 C 
ATOM     37  C   UNL     1       8.044   8.689  -8.281  1.00  0.00     0.029 A 
ATOM     38  C   UNL     1       7.501   7.429  -8.509  1.00  0.00     0.049 A 
ATOM     39  H   UNL     1       6.748   6.051  -7.111  1.00  0.00     0.167 HD
ATOM     40  C   UNL     1       6.759   5.528  -9.969  1.00  0.00     0.074 A 
ATOM     41  C   UNL     1       6.592   4.911 -11.274  1.00  0.00     0.031 C 
ATOM     42  C   UNL     1       7.313   6.751  -9.770  1.00  0.00     0.031 A 
BRANCH  29  43
ATOM     43  C   UNL     1       7.594   8.663  -3.854  1.00  0.00    -0.014 A 
ATOM     44  C   UNL     1       8.516   8.437  -2.818  1.00  0.00     0.009 A 
ATOM     45  C   UNL     1       6.867   9.864  -3.856  1.00  0.00     0.009 A 
ATOM     46  C   UNL     1       8.649   9.358  -1.774  1.00  0.00     0.001 A 
ATOM     47  C   UNL     1       7.027  10.799  -2.831  1.00  0.00     0.001 A 
ATOM     48  C   UNL     1       7.903  10.537  -1.780  1.00  0.00     0.000 A 
ENDBRANCH  29  43
BRANCH  30  49
ATOM     49  C   UNL     1       4.683   1.263 -10.158  1.00  0.00    -0.014 A 
ATOM     50  C   UNL     1       5.569   0.443 -10.869  1.00  0.00     0.009 A 
ATOM     51  C   UNL     1       3.301   1.029 -10.285  1.00  0.00     0.009 A 
ATOM     52  C   UNL     1       5.083  -0.582 -11.688  1.00  0.00     0.001 A 
ATOM     53  C   UNL     1       2.820  -0.015 -11.078  1.00  0.00     0.001 A 
ATOM     54  C   UNL     1       3.712  -0.816 -11.784  1.00  0.00     0.000 A 
ENDBRANCH  30  49
BRANCH  42  55
ATOM     55  C   UNL     1       7.830   7.469 -10.979  1.00  0.00    -0.014 A 
ATOM     56  C   UNL     1       6.962   8.106 -11.876  1.00  0.00     0.009 A 
ATOM     57  C   UNL     1       9.217   7.609 -11.141  1.00  0.00     0.009 A 
ATOM     58  C   UNL     1       7.479   8.867 -12.924  1.00  0.00     0.001 A 
ATOM     59  C   UNL     1       9.729   8.396 -12.170  1.00  0.00     0.001 A 
ATOM     60  C   UNL     1       8.860   9.021 -13.062  1.00  0.00     0.000 A 
ENDBRANCH  42  55
ENDBRANCH  16  17
ENDBRANCH   9  11
ENDBRANCH   8   9
ENDBRANCH   7   8
ENDBRANCH   6   7
ENDBRANCH   5   6
ENDBRANCH   4   5
ENDBRANCH   3   4
ENDBRANCH   2   3
ENDBRANCH   1   2
BRANCH   1  61
ATOM     61  C   UNL     1       5.552  -2.580  -1.715  1.00  0.00     0.188 C 
BRANCH  61  62
ATOM     62  O   UNL     1       4.670  -3.260  -2.784  1.00  0.00    -0.376 OA
BRANCH  62  63
ATOM     63  C   UNL     1       3.251  -4.566  -3.297  1.00  0.00     0.202 C 
BRANCH  63  64
ATOM     64  C   UNL     1       2.529  -5.934  -2.589  1.00  0.00     0.261 C 
BRANCH  64  65
ATOM     65  O   UNL     1       2.920  -6.495  -1.323  1.00  0.00    -0.463 OA
BRANCH  65  66
ATOM     66  C   UNL     1       3.872  -7.451  -1.307  1.00  0.00     0.310 C 
ATOM     67  O   UNL     1       4.097  -8.178  -2.266  1.00  0.00    -0.252 OA
BRANCH  66  68
ATOM     68  C   UNL     1       4.679  -7.464   0.017  1.00  0.00     0.116 C 
ATOM     69  C   UNL     1       6.035  -8.176  -0.224  1.00  0.00     0.043 C 
ATOM     70  C   UNL     1       4.892  -6.152   0.852  1.00  0.00     0.097 C 
ATOM     71  C   UNL     1       7.175  -7.275  -0.611  1.00  0.00    -0.030 C 
ATOM     72  C   UNL     1       6.260  -5.415   0.772  1.00  0.00     0.041 C 
ATOM     73  C   UNL     1       7.290  -6.028  -0.137  1.00  0.00    -0.030 C 
BRANCH  70  74
ATOM     74  C   UNL     1       3.687  -5.208   0.950  1.00  0.00     0.228 C 
ATOM     75  O   UNL     1       3.040  -5.199   2.010  1.00  0.00    -0.274 OA
ATOM     76  N   UNL     1       3.223  -4.373  -0.019  1.00  0.00    -0.326 N 
ATOM     77  H   UNL     1       2.391  -3.913   0.234  1.00  0.00     0.169 HD
BRANCH  76  78
ATOM     78  C   UNL     1       3.676  -4.025  -1.304  1.00  0.00     0.041 A 
ATOM     79  C   UNL     1       2.916  -2.678  -2.288  1.00  0.00     0.027 A 
ATOM     80  C   UNL     1       4.975  -5.022  -2.074  1.00  0.00     0.027 A 
ATOM     81  C   UNL     1       3.472  -2.413  -4.011  1.00  0.00     0.024 A 
ATOM     82  C   UNL     1       5.497  -4.750  -3.732  1.00  0.00     0.024 A 
ATOM     83  C   UNL     1       4.752  -3.473  -4.707  1.00  0.00     0.082 A 
BRANCH  83  84
ATOM     84  S   UNL     1       5.096  -3.584  -6.446  1.00  0.00     0.243 S 
ATOM     85  O   UNL     1       3.898  -3.072  -7.113  1.00  0.00    -0.207 OA
ATOM     86  O   UNL     1       6.390  -3.020  -6.665  1.00  0.00    -0.207 OA
BRANCH  84  87
ATOM     87  N   UNL     1       5.167  -5.250  -6.796  1.00  0.00    -0.198 NA
ATOM     88  C   UNL     1       3.984  -6.117  -6.754  1.00  0.00     0.102 C 
ATOM     89  C   UNL     1       6.374  -6.067  -6.549  1.00  0.00     0.102 C 
ATOM     90  C   UNL     1       4.369  -7.250  -5.814  1.00  0.00     0.018 C 
ATOM     91  C   UNL     1       5.875  -7.389  -5.947  1.00  0.00     0.018 C 
ENDBRANCH  84  87
ENDBRANCH  83  84
ENDBRANCH  76  78
ENDBRANCH  70  74
ENDBRANCH  66  68
ENDBRANCH  65  66
ENDBRANCH  64  65
ENDBRANCH  63  64
ENDBRANCH  62  63
ENDBRANCH  61  62
ENDBRANCH   1  61
TORSDOF 24
