REMARK SMILES O=C(OCCOCCOCCOCCOC(=O)c1cc(-c2ccoc2)n[nH]1)c1ccc(-c2c3nc(c(-c4ccccc4)c4ccc([nH]4)c(-c4ccccc4)c4nc(c(-c5ccccc5)c5ccc2[nH]5)C=C4)C=C3)cc1
REMARK SMILES IDX 8 1 7 2 6 3 5 4 4 5 3 6 2 7 1 8 28 9 29 10 75 11 30 12 74 13
REMARK SMILES IDX 31 14 32 15 33 16 68 17 34 18 73 19 67 20 69 21 35 22 72 23
REMARK SMILES IDX 66 24 65 25 36 27 58 28 43 29 57 30 44 31 47 32 56 33 70 34
REMARK SMILES IDX 45 35 46 36 55 38 71 39 48 40 37 41 38 42 42 43 39 44 41 45
REMARK SMILES IDX 40 46 59 47 60 48 64 49 61 50 63 51 62 52 49 53 50 54 54 55
REMARK SMILES IDX 51 56 53 57 52 58 9 59 10 60 11 61 12 62 13 63 14 64 15 65
REMARK SMILES IDX 16 66 17 67 18 68 19 69 27 70 20 71 26 72 21 74 22 75 25 76
REMARK SMILES IDX 23 77 24 78
REMARK H PARENT 69 26 47 37 27 73
REMARK Flexibility Score: inf
ROOT
ATOM      1  C   UNL     1       1.913  -2.660  -1.004  1.00  0.00     0.188 C 
ENDROOT
BRANCH   1   2
ATOM      2  C   UNL     1       2.385  -1.699   0.091  1.00  0.00     0.188 C 
BRANCH   2   3
ATOM      3  O   UNL     1       3.696  -1.206  -0.210  1.00  0.00    -0.376 OA
BRANCH   3   4
ATOM      4  C   UNL     1       4.544  -0.998   0.920  1.00  0.00     0.202 C 
BRANCH   4   5
ATOM      5  C   UNL     1       4.391   0.375   1.575  1.00  0.00     0.261 C 
BRANCH   5   6
ATOM      6  O   UNL     1       3.022   0.794   1.627  1.00  0.00    -0.460 OA
BRANCH   6   7
ATOM      7  C   UNL     1       2.350   1.549   0.724  1.00  0.00     0.338 C 
ATOM      8  O   UNL     1       1.178   1.834   0.971  1.00  0.00    -0.246 OA
BRANCH   7   9
ATOM      9  C   UNL     1       2.939   2.086  -0.547  1.00  0.00     0.060 A 
ATOM     10  C   UNL     1       4.050   1.578  -1.228  1.00  0.00     0.016 A 
ATOM     11  C   UNL     1       2.270   3.183  -1.121  1.00  0.00     0.016 A 
ATOM     12  C   UNL     1       4.538   2.176  -2.385  1.00  0.00     0.010 A 
ATOM     13  C   UNL     1       2.741   3.784  -2.290  1.00  0.00     0.010 A 
ATOM     14  C   UNL     1       3.905   3.302  -2.896  1.00  0.00    -0.014 A 
BRANCH  14  15
ATOM     15  C   UNL     1       4.596   4.101  -3.918  1.00  0.00     0.031 A 
ATOM     16  C   UNL     1       5.349   5.307  -3.449  1.00  0.00     0.074 A 
ATOM     17  C   UNL     1       4.604   3.718  -5.203  1.00  0.00     0.049 A 
ATOM     18  N   UNL     1       5.905   6.261  -4.143  1.00  0.00    -0.248 NA
ATOM     19  C   UNL     1       5.495   5.452  -1.990  1.00  0.00     0.031 C 
ATOM     20  C   UNL     1       4.018   2.482  -5.721  1.00  0.00     0.029 A 
ATOM     21  N   UNL     1       5.125   4.337  -6.306  1.00  0.00    -0.354 N 
ATOM     22  C   UNL     1       6.421   7.144  -3.204  1.00  0.00     0.074 A 
ATOM     23  C   UNL     1       6.128   6.609  -1.895  1.00  0.00     0.031 C 
ATOM     24  C   UNL     1       4.200   2.441  -7.052  1.00  0.00     0.029 A 
ATOM     25  C   UNL     1       4.851   3.677  -7.478  1.00  0.00     0.049 A 
ATOM     26  H   UNL     1       5.646   5.172  -6.264  1.00  0.00     0.167 HD
ATOM     27  C   UNL     1       7.058   8.316  -3.425  1.00  0.00     0.031 A 
ATOM     28  C   UNL     1       5.057   4.067  -8.749  1.00  0.00     0.031 A 
ATOM     29  C   UNL     1       7.306   8.830  -4.741  1.00  0.00     0.049 A 
ATOM     30  C   UNL     1       5.686   5.414  -8.983  1.00  0.00     0.074 A 
ATOM     31  C   UNL     1       7.878  10.030  -5.114  1.00  0.00     0.029 A 
ATOM     32  N   UNL     1       6.982   8.152  -5.910  1.00  0.00    -0.354 N 
ATOM     33  N   UNL     1       6.108   6.290  -8.099  1.00  0.00    -0.248 NA
ATOM     34  C   UNL     1       5.855   5.837 -10.378  1.00  0.00     0.031 C 
ATOM     35  C   UNL     1       7.859  10.096  -6.512  1.00  0.00     0.029 A 
ATOM     36  C   UNL     1       7.326   8.914  -7.008  1.00  0.00     0.049 A 
ATOM     37  H   UNL     1       6.567   7.260  -5.949  1.00  0.00     0.167 HD
ATOM     38  C   UNL     1       6.606   7.360  -8.827  1.00  0.00     0.074 A 
ATOM     39  C   UNL     1       6.442   7.018 -10.228  1.00  0.00     0.031 C 
ATOM     40  C   UNL     1       7.149   8.522  -8.385  1.00  0.00     0.031 A 
BRANCH  27  41
ATOM     41  C   UNL     1       7.404   9.132  -2.212  1.00  0.00    -0.014 A 
ATOM     42  C   UNL     1       8.414   8.738  -1.319  1.00  0.00     0.009 A 
ATOM     43  C   UNL     1       6.640  10.270  -1.913  1.00  0.00     0.009 A 
ATOM     44  C   UNL     1       8.611   9.436  -0.124  1.00  0.00     0.001 A 
ATOM     45  C   UNL     1       6.858  10.982  -0.732  1.00  0.00     0.001 A 
ATOM     46  C   UNL     1       7.832  10.555   0.169  1.00  0.00     0.000 A 
ENDBRANCH  27  41
BRANCH  28  47
ATOM     47  C   UNL     1       4.598   3.203  -9.868  1.00  0.00    -0.014 A 
ATOM     48  C   UNL     1       5.516   2.540 -10.694  1.00  0.00     0.009 A 
ATOM     49  C   UNL     1       3.224   2.997 -10.085  1.00  0.00     0.009 A 
ATOM     50  C   UNL     1       5.069   1.692 -11.713  1.00  0.00     0.001 A 
ATOM     51  C   UNL     1       2.780   2.130 -11.085  1.00  0.00     0.001 A 
ATOM     52  C   UNL     1       3.703   1.480 -11.901  1.00  0.00     0.000 A 
ENDBRANCH  28  47
BRANCH  40  53
ATOM     53  C   UNL     1       7.642   9.485  -9.423  1.00  0.00    -0.014 A 
ATOM     54  C   UNL     1       6.753  10.304 -10.133  1.00  0.00     0.009 A 
ATOM     55  C   UNL     1       9.024   9.640  -9.613  1.00  0.00     0.009 A 
ATOM     56  C   UNL     1       7.243  11.258 -11.025  1.00  0.00     0.001 A 
ATOM     57  C   UNL     1       9.510  10.609 -10.488  1.00  0.00     0.001 A 
ATOM     58  C   UNL     1       8.619  11.415 -11.196  1.00  0.00     0.000 A 
ENDBRANCH  40  53
ENDBRANCH  14  15
ENDBRANCH   7   9
ENDBRANCH   6   7
ENDBRANCH   5   6
ENDBRANCH   4   5
ENDBRANCH   3   4
ENDBRANCH   2   3
ENDBRANCH   1   2
BRANCH   1  59
ATOM     59  O   UNL     1       2.552  -3.942  -1.010  1.00  0.00    -0.377 OA
BRANCH  59  60
ATOM     60  C   UNL     1       3.970  -3.947  -0.870  1.00  0.00     0.188 C 
BRANCH  60  61
ATOM     61  C   UNL     1       4.797  -3.308  -2.004  1.00  0.00     0.188 C 
BRANCH  61  62
ATOM     62  O   UNL     1       4.015  -2.562  -2.913  1.00  0.00    -0.376 OA
BRANCH  62  63
ATOM     63  C   UNL     1       3.691  -3.120  -4.175  1.00  0.00     0.202 C 
BRANCH  63  64
ATOM     64  C   UNL     1       3.148  -4.555  -4.354  1.00  0.00     0.261 C 
BRANCH  64  65
ATOM     65  O   UNL     1       3.516  -5.550  -3.395  1.00  0.00    -0.459 OA
BRANCH  65  66
ATOM     66  C   UNL     1       4.735  -6.125  -3.518  1.00  0.00     0.356 C 
ATOM     67  O   UNL     1       5.561  -5.858  -4.381  1.00  0.00    -0.244 OA
BRANCH  66  68
ATOM     68  C   UNL     1       4.987  -6.928  -2.358  1.00  0.00     0.144 A 
ATOM     69  C   UNL     1       4.174  -7.751  -1.599  1.00  0.00     0.066 A 
ATOM     70  N   UNL     1       6.197  -6.931  -1.718  1.00  0.00    -0.271 N 
ATOM     71  C   UNL     1       4.994  -8.192  -0.541  1.00  0.00     0.096 A 
ATOM     72  N   UNL     1       6.214  -7.651  -0.585  1.00  0.00    -0.175 NA
ATOM     73  H   UNL     1       6.984  -6.448  -2.059  1.00  0.00     0.190 HD
BRANCH  71  74
ATOM     74  C   UNL     1       4.617  -9.209   0.420  1.00  0.00     0.040 A 
ATOM     75  C   UNL     1       4.754 -10.597   0.179  1.00  0.00     0.052 A 
ATOM     76  C   UNL     1       4.115  -9.075   1.691  1.00  0.00     0.205 A 
ATOM     77  C   UNL     1       4.319 -11.222   1.324  1.00  0.00     0.195 A 
ATOM     78  O   UNL     1       3.922 -10.305   2.247  1.00  0.00    -0.472 OA
ENDBRANCH  71  74
ENDBRANCH  66  68
ENDBRANCH  65  66
ENDBRANCH  64  65
ENDBRANCH  63  64
ENDBRANCH  62  63
ENDBRANCH  61  62
ENDBRANCH  60  61
ENDBRANCH  59  60
ENDBRANCH   1  59
TORSDOF 21
