REMARK SMILES C=C(C)C(=O)OCC[C@@H](C(C)=O)C(=O)OCCOCCOCCOCCOC(=O)c1ccc(-c2c3nc(c(-c4ccccc4)c4ccc([nH]4)c(-c4ccccc4)c4nc(c(-c5ccccc5)c5ccc2[nH]5)C=C4)C=C3)cc1
REMARK SMILES IDX 19 1 18 2 17 3 16 4 15 5 13 6 14 7 9 8 8 9 7 10 6 11 4 12
REMARK SMILES IDX 5 13 2 14 1 15 3 16 10 17 11 18 12 19 20 20 21 21 22 22
REMARK SMILES IDX 23 23 24 24 25 25 26 26 27 27 28 28 29 29 30 30 31 31 77 32
REMARK SMILES IDX 32 33 76 34 33 35 34 36 35 37 70 38 36 39 75 40 69 41 71 42
REMARK SMILES IDX 37 43 74 44 68 45 67 46 38 48 60 49 45 50 59 51 46 52 49 53
REMARK SMILES IDX 58 54 72 55 47 56 48 57 57 59 73 60 50 61 39 62 40 63 44 64
REMARK SMILES IDX 41 65 43 66 42 67 61 68 62 69 66 70 63 71 65 72 64 73 51 74
REMARK SMILES IDX 52 75 56 76 53 77 55 78 54 79
REMARK H PARENT 71 47 49 58
REMARK Flexibility Score: inf
ROOT
ATOM      1  C   UNL     1       3.065   1.417   5.232  1.00  0.00     0.188 C 
ENDROOT
BRANCH   1   2
ATOM      2  O   UNL     1       4.232   1.341   6.026  1.00  0.00    -0.376 OA
BRANCH   2   3
ATOM      3  C   UNL     1       5.305   2.259   5.905  1.00  0.00     0.202 C 
BRANCH   3   4
ATOM      4  C   UNL     1       5.755   2.941   4.600  1.00  0.00     0.261 C 
BRANCH   4   5
ATOM      5  O   UNL     1       4.770   3.558   3.754  1.00  0.00    -0.463 OA
BRANCH   5   6
ATOM      6  C   UNL     1       4.441   2.846   2.651  1.00  0.00     0.316 C 
ATOM      7  O   UNL     1       4.852   1.709   2.429  1.00  0.00    -0.251 OA
BRANCH   6   8
ATOM      8  C   UNL     1       3.656   3.606   1.607  1.00  0.00     0.169 C 
BRANCH   8   9
ATOM      9  C   UNL     1       2.513   4.530   2.066  1.00  0.00     0.065 C 
BRANCH   9  10
ATOM     10  C   UNL     1       1.265   4.439   1.168  1.00  0.00     0.234 C 
BRANCH  10  11
ATOM     11  O   UNL     1       0.655   3.132   1.195  1.00  0.00    -0.462 OA
BRANCH  11  12
ATOM     12  C   UNL     1       0.907   2.332   0.124  1.00  0.00     0.333 C 
ATOM     13  O   UNL     1       1.690   2.562  -0.784  1.00  0.00    -0.247 OA
BRANCH  12  14
ATOM     14  C   UNL     1       0.124   1.079   0.223  1.00  0.00     0.027 C 
ATOM     15  C   UNL     1       0.771  -0.077   0.006  1.00  0.00     0.020 C 
ATOM     16  C   UNL     1      -1.348   1.189   0.437  1.00  0.00     0.051 C 
ENDBRANCH  12  14
ENDBRANCH  11  12
ENDBRANCH  10  11
ENDBRANCH   9  10
ENDBRANCH   8   9
BRANCH   8  17
ATOM     17  C   UNL     1       4.546   4.364   0.641  1.00  0.00     0.144 C 
ATOM     18  C   UNL     1       6.024   4.083   0.615  1.00  0.00     0.088 C 
ATOM     19  O   UNL     1       4.065   5.160  -0.172  1.00  0.00    -0.299 OA
ENDBRANCH   8  17
ENDBRANCH   6   8
ENDBRANCH   5   6
ENDBRANCH   4   5
ENDBRANCH   3   4
ENDBRANCH   2   3
ENDBRANCH   1   2
BRANCH   1  20
ATOM     20  C   UNL     1       2.229   2.699   5.189  1.00  0.00     0.188 C 
BRANCH  20  21
ATOM     21  O   UNL     1       2.920   3.881   5.541  1.00  0.00    -0.377 OA
BRANCH  21  22
ATOM     22  C   UNL     1       2.936   4.278   6.909  1.00  0.00     0.188 C 
BRANCH  22  23
ATOM     23  C   UNL     1       2.667   3.236   8.016  1.00  0.00     0.188 C 
BRANCH  23  24
ATOM     24  O   UNL     1       1.565   2.381   7.759  1.00  0.00    -0.376 OA
BRANCH  24  25
ATOM     25  C   UNL     1       0.293   2.721   8.291  1.00  0.00     0.202 C 
BRANCH  25  26
ATOM     26  C   UNL     1      -0.342   4.051   7.851  1.00  0.00     0.261 C 
BRANCH  26  27
ATOM     27  O   UNL     1       0.390   5.248   8.161  1.00  0.00    -0.460 OA
BRANCH  27  28
ATOM     28  C   UNL     1       0.735   5.470   9.443  1.00  0.00     0.338 C 
ATOM     29  O   UNL     1       0.428   4.800  10.418  1.00  0.00    -0.246 OA
BRANCH  28  30
ATOM     30  C   UNL     1       1.725   6.564   9.468  1.00  0.00     0.060 A 
ATOM     31  C   UNL     1       2.984   6.326  10.037  1.00  0.00     0.016 A 
ATOM     32  C   UNL     1       1.402   7.827   8.966  1.00  0.00     0.016 A 
ATOM     33  C   UNL     1       3.899   7.369  10.168  1.00  0.00     0.010 A 
ATOM     34  C   UNL     1       2.313   8.876   9.116  1.00  0.00     0.010 A 
ATOM     35  C   UNL     1       3.542   8.662   9.766  1.00  0.00    -0.014 A 
BRANCH  35  36
ATOM     36  C   UNL     1       4.330   9.818  10.258  1.00  0.00     0.031 A 
ATOM     37  C   UNL     1       3.826  10.547  11.476  1.00  0.00     0.074 A 
ATOM     38  C   UNL     1       5.481  10.193   9.674  1.00  0.00     0.049 A 
ATOM     39  N   UNL     1       4.312  11.602  12.076  1.00  0.00    -0.248 NA
ATOM     40  C   UNL     1       2.604  10.009  12.100  1.00  0.00     0.031 C 
ATOM     41  C   UNL     1       6.107   9.535   8.530  1.00  0.00     0.029 A 
ATOM     42  N   UNL     1       6.326  11.232   9.973  1.00  0.00    -0.354 N 
ATOM     43  C   UNL     1       3.450  11.862  13.135  1.00  0.00     0.074 A 
ATOM     44  C   UNL     1       2.394  10.877  13.076  1.00  0.00     0.031 C 
ATOM     45  C   UNL     1       7.239  10.192   8.218  1.00  0.00     0.029 A 
ATOM     46  C   UNL     1       7.395  11.335   9.117  1.00  0.00     0.049 A 
ATOM     47  H   UNL     1       6.181  11.844  10.730  1.00  0.00     0.167 HD
ATOM     48  C   UNL     1       3.530  12.831  14.077  1.00  0.00     0.031 A 
ATOM     49  C   UNL     1       8.373  12.260   9.056  1.00  0.00     0.031 A 
ATOM     50  C   UNL     1       4.571  13.821  14.127  1.00  0.00     0.049 A 
ATOM     51  C   UNL     1       8.394  13.381  10.064  1.00  0.00     0.074 A 
ATOM     52  C   UNL     1       4.746  14.844  15.042  1.00  0.00     0.029 A 
ATOM     53  N   UNL     1       5.611  13.916  13.215  1.00  0.00    -0.354 N 
ATOM     54  N   UNL     1       7.581  13.611  11.068  1.00  0.00    -0.248 NA
ATOM     55  C   UNL     1       9.480  14.364   9.936  1.00  0.00     0.031 C 
ATOM     56  C   UNL     1       5.856  15.597  14.647  1.00  0.00     0.029 A 
ATOM     57  C   UNL     1       6.418  14.995  13.533  1.00  0.00     0.049 A 
ATOM     58  H   UNL     1       5.755  13.307  12.455  1.00  0.00     0.167 HD
ATOM     59  C   UNL     1       8.083  14.735  11.715  1.00  0.00     0.074 A 
ATOM     60  C   UNL     1       9.274  15.134  10.994  1.00  0.00     0.031 C 
ATOM     61  C   UNL     1       7.606  15.376  12.811  1.00  0.00     0.031 A 
BRANCH  48  62
ATOM     62  C   UNL     1       2.432  12.889  15.103  1.00  0.00    -0.014 A 
ATOM     63  C   UNL     1       2.289  11.895  16.085  1.00  0.00     0.009 A 
ATOM     64  C   UNL     1       1.533  13.967  15.096  1.00  0.00     0.009 A 
ATOM     65  C   UNL     1       1.246  11.961  17.013  1.00  0.00     0.001 A 
ATOM     66  C   UNL     1       0.513  14.049  16.045  1.00  0.00     0.001 A 
ATOM     67  C   UNL     1       0.363  13.040  16.995  1.00  0.00     0.000 A 
ENDBRANCH  48  62
BRANCH  49  68
ATOM     68  C   UNL     1       9.411  12.183   7.993  1.00  0.00    -0.014 A 
ATOM     69  C   UNL     1      10.752  11.918   8.315  1.00  0.00     0.009 A 
ATOM     70  C   UNL     1       9.071  12.408   6.650  1.00  0.00     0.009 A 
ATOM     71  C   UNL     1      11.732  11.912   7.320  1.00  0.00     0.001 A 
ATOM     72  C   UNL     1      10.048  12.369   5.653  1.00  0.00     0.001 A 
ATOM     73  C   UNL     1      11.379  12.133   5.990  1.00  0.00     0.000 A 
ENDBRANCH  49  68
BRANCH  61  74
ATOM     74  C   UNL     1       8.408  16.533  13.343  1.00  0.00    -0.014 A 
ATOM     75  C   UNL     1       8.503  17.751  12.651  1.00  0.00     0.009 A 
ATOM     76  C   UNL     1       9.051  16.409  14.586  1.00  0.00     0.009 A 
ATOM     77  C   UNL     1       9.263  18.801  13.172  1.00  0.00     0.001 A 
ATOM     78  C   UNL     1       9.779  17.472  15.121  1.00  0.00     0.001 A 
ATOM     79  C   UNL     1       9.895  18.663  14.407  1.00  0.00     0.000 A 
ENDBRANCH  61  74
ENDBRANCH  35  36
ENDBRANCH  28  30
ENDBRANCH  27  28
ENDBRANCH  26  27
ENDBRANCH  25  26
ENDBRANCH  24  25
ENDBRANCH  23  24
ENDBRANCH  22  23
ENDBRANCH  21  22
ENDBRANCH  20  21
ENDBRANCH   1  20
TORSDOF 26
