REMARK SMILES Cc1cc(=O)c(Oc2ccc(C(=O)OCCOCCOCCOCCOC(=O)c3ccc(-c4c5nc(c(-c6ccccc6)c6ccc([nH]6)c(-c6ccccc6)c6nc(c(-c7ccccc7)c7ccc4[nH]7)C=C6)C=C5)cc3)cc2)c(-c2ccc(S(C)(=O)=O)cc2)o1
REMARK SMILES IDX 19 1 18 2 17 3 16 4 15 5 14 6 12 7 13 8 11 9 8 10 9 11 78 12
REMARK SMILES IDX 10 13 77 14 7 15 6 16 1 17 2 18 3 19 90 20 4 21 79 22 5 23
REMARK SMILES IDX 80 24 81 25 89 26 82 27 88 28 83 29 84 30 85 31 86 32 87 33
REMARK SMILES IDX 20 34 21 35 22 36 23 37 24 38 25 39 26 40 27 41 28 42 29 43
REMARK SMILES IDX 30 44 76 45 31 46 75 47 32 48 33 49 34 50 69 51 35 52 74 53
REMARK SMILES IDX 68 54 70 55 36 56 73 57 67 58 66 59 37 61 59 62 44 63 58 64
REMARK SMILES IDX 45 65 48 66 57 67 71 68 46 69 47 70 56 72 72 73 49 74 38 75
REMARK SMILES IDX 39 76 43 77 40 78 42 79 41 80 60 81 61 82 65 83 62 84 64 85
REMARK SMILES IDX 63 86 50 87 51 88 55 89 52 90 54 91 53 92
REMARK H PARENT 70 60 48 71
REMARK Flexibility Score: inf
ROOT
ATOM      1  C   UNL     1      -1.620   8.059  -3.927  1.00  0.00     0.188 C 
ENDROOT
BRANCH   1   2
ATOM      2  C   UNL     1      -1.277   8.362  -5.358  1.00  0.00     0.188 C 
BRANCH   2   3
ATOM      3  O   UNL     1      -1.129   9.745  -5.649  1.00  0.00    -0.376 OA
BRANCH   3   4
ATOM      4  C   UNL     1      -0.433   9.981  -6.880  1.00  0.00     0.202 C 
BRANCH   4   5
ATOM      5  C   UNL     1      -1.030   9.257  -8.105  1.00  0.00     0.261 C 
BRANCH   5   6
ATOM      6  O   UNL     1      -1.010   7.809  -8.016  1.00  0.00    -0.460 OA
BRANCH   6   7
ATOM      7  C   UNL     1       0.192   7.184  -7.923  1.00  0.00     0.338 C 
ATOM      8  O   UNL     1       1.270   7.688  -8.186  1.00  0.00    -0.246 OA
BRANCH   7   9
ATOM      9  C   UNL     1       0.024   5.847  -7.251  1.00  0.00     0.060 A 
ATOM     10  C   UNL     1      -0.208   3.450  -5.762  1.00  0.00     0.127 A 
ATOM     11  C   UNL     1       1.048   3.959  -6.072  1.00  0.00     0.048 A 
ATOM     12  C   UNL     1      -1.347   4.113  -6.237  1.00  0.00     0.048 A 
ATOM     13  C   UNL     1       1.163   5.167  -6.788  1.00  0.00     0.019 A 
ATOM     14  C   UNL     1      -1.237   5.298  -6.977  1.00  0.00     0.019 A 
BRANCH  10  15
ATOM     15  O   UNL     1      -0.440   2.228  -5.195  1.00  0.00    -0.449 OA
BRANCH  15  16
ATOM     16  C   UNL     1       0.085   1.706  -4.027  1.00  0.00     0.217 A 
ATOM     17  C   UNL     1       1.028  -0.244  -0.278  1.00  0.00     0.088 C 
ATOM     18  C   UNL     1       0.700   0.290  -1.635  1.00  0.00     0.105 A 
ATOM     19  C   UNL     1       0.021  -0.394  -2.558  1.00  0.00     0.098 A 
ATOM     20  O   UNL     1       1.155   1.568  -1.859  1.00  0.00    -0.457 OA
ATOM     21  C   UNL     1      -0.279   0.257  -3.843  1.00  0.00     0.228 A 
ATOM     22  C   UNL     1       0.784   2.262  -3.006  1.00  0.00     0.180 A 
ATOM     23  O   UNL     1      -0.849  -0.390  -4.718  1.00  0.00    -0.285 OA
BRANCH  22  24
ATOM     24  C   UNL     1       1.245   3.649  -2.883  1.00  0.00     0.021 A 
ATOM     25  C   UNL     1       2.623   3.918  -2.777  1.00  0.00     0.013 A 
ATOM     26  C   UNL     1       0.333   4.693  -2.752  1.00  0.00     0.013 A 
ATOM     27  C   UNL     1       3.091   5.228  -2.644  1.00  0.00     0.021 A 
ATOM     28  C   UNL     1       0.803   5.992  -2.589  1.00  0.00     0.021 A 
ATOM     29  C   UNL     1       2.170   6.266  -2.574  1.00  0.00     0.067 A 
BRANCH  29  30
ATOM     30  S   UNL     1       2.713   7.960  -2.629  1.00  0.00     0.175 S 
ATOM     31  C   UNL     1       2.696   8.484  -0.937  1.00  0.00     0.163 C 
ATOM     32  O   UNL     1       4.090   7.955  -3.087  1.00  0.00    -0.224 OA
ATOM     33  O   UNL     1       1.702   8.700  -3.358  1.00  0.00    -0.224 OA
ENDBRANCH  29  30
ENDBRANCH  22  24
ENDBRANCH  15  16
ENDBRANCH  10  15
ENDBRANCH   7   9
ENDBRANCH   6   7
ENDBRANCH   5   6
ENDBRANCH   4   5
ENDBRANCH   3   4
ENDBRANCH   2   3
ENDBRANCH   1   2
BRANCH   1  34
ATOM     34  O   UNL     1      -2.824   8.638  -3.467  1.00  0.00    -0.377 OA
BRANCH  34  35
ATOM     35  C   UNL     1      -2.662   9.995  -3.092  1.00  0.00     0.188 C 
BRANCH  35  36
ATOM     36  C   UNL     1      -1.648  10.340  -1.974  1.00  0.00     0.188 C 
BRANCH  36  37
ATOM     37  O   UNL     1      -0.968   9.345  -1.206  1.00  0.00    -0.376 OA
BRANCH  37  38
ATOM     38  C   UNL     1      -1.638   8.207  -0.684  1.00  0.00     0.202 C 
BRANCH  38  39
ATOM     39  C   UNL     1      -2.391   8.402   0.624  1.00  0.00     0.261 C 
BRANCH  39  40
ATOM     40  O   UNL     1      -3.742   8.752   0.315  1.00  0.00    -0.460 OA
BRANCH  40  41
ATOM     41  C   UNL     1      -4.020  10.069   0.332  1.00  0.00     0.338 C 
ATOM     42  O   UNL     1      -3.365  10.953   0.868  1.00  0.00    -0.246 OA
BRANCH  41  43
ATOM     43  C   UNL     1      -5.127  10.315  -0.615  1.00  0.00     0.060 A 
ATOM     44  C   UNL     1      -6.035   9.307  -0.966  1.00  0.00     0.016 A 
ATOM     45  C   UNL     1      -5.175  11.565  -1.252  1.00  0.00     0.016 A 
ATOM     46  C   UNL     1      -7.008   9.560  -1.929  1.00  0.00     0.010 A 
ATOM     47  C   UNL     1      -6.134  11.812  -2.230  1.00  0.00     0.010 A 
ATOM     48  C   UNL     1      -7.077  10.823  -2.541  1.00  0.00    -0.014 A 
BRANCH  48  49
ATOM     49  C   UNL     1      -8.312  11.204  -3.252  1.00  0.00     0.031 A 
ATOM     50  C   UNL     1      -8.442  11.146  -4.736  1.00  0.00     0.074 A 
ATOM     51  C   UNL     1      -9.329  11.611  -2.470  1.00  0.00     0.049 A 
ATOM     52  N   UNL     1      -9.507  11.368  -5.460  1.00  0.00    -0.248 NA
ATOM     53  C   UNL     1      -7.241  10.802  -5.510  1.00  0.00     0.031 C 
ATOM     54  C   UNL     1      -9.269  11.700  -1.007  1.00  0.00     0.029 A 
ATOM     55  N   UNL     1     -10.601  12.007  -2.776  1.00  0.00    -0.354 N 
ATOM     56  C   UNL     1      -9.118  11.170  -6.777  1.00  0.00     0.074 A 
ATOM     57  C   UNL     1      -7.706  10.849  -6.755  1.00  0.00     0.031 C 
ATOM     58  C   UNL     1     -10.460  12.094  -0.542  1.00  0.00     0.029 A 
ATOM     59  C   UNL     1     -11.354  12.316  -1.671  1.00  0.00     0.049 A 
ATOM     60  H   UNL     1     -10.944  12.064  -3.698  1.00  0.00     0.167 HD
ATOM     61  C   UNL     1      -9.889  11.241  -7.888  1.00  0.00     0.031 A 
ATOM     62  C   UNL     1     -12.630  12.726  -1.571  1.00  0.00     0.031 A 
ATOM     63  C   UNL     1     -11.288  11.594  -7.874  1.00  0.00     0.049 A 
ATOM     64  C   UNL     1     -13.440  12.841  -2.827  1.00  0.00     0.074 A 
ATOM     65  C   UNL     1     -12.165  11.663  -8.942  1.00  0.00     0.029 A 
ATOM     66  N   UNL     1     -12.009  11.949  -6.742  1.00  0.00    -0.354 N 
ATOM     67  N   UNL     1     -13.083  12.572  -4.059  1.00  0.00    -0.248 NA
ATOM     68  C   UNL     1     -14.828  13.294  -2.682  1.00  0.00     0.031 C 
ATOM     69  C   UNL     1     -13.392  12.133  -8.470  1.00  0.00     0.029 A 
ATOM     70  C   UNL     1     -13.308  12.277  -7.094  1.00  0.00     0.049 A 
ATOM     71  H   UNL     1     -11.650  11.966  -5.825  1.00  0.00     0.167 HD
ATOM     72  C   UNL     1     -14.206  12.804  -4.838  1.00  0.00     0.074 A 
ATOM     73  C   UNL     1     -15.263  13.214  -3.933  1.00  0.00     0.031 C 
ATOM     74  C   UNL     1     -14.346  12.690  -6.181  1.00  0.00     0.031 A 
BRANCH  61  75
ATOM     75  C   UNL     1      -9.264  10.930  -9.221  1.00  0.00    -0.014 A 
ATOM     76  C   UNL     1      -9.159  11.933 -10.199  1.00  0.00     0.009 A 
ATOM     77  C   UNL     1      -8.915   9.614  -9.563  1.00  0.00     0.009 A 
ATOM     78  C   UNL     1      -8.745  11.623 -11.496  1.00  0.00     0.001 A 
ATOM     79  C   UNL     1      -8.475   9.311 -10.855  1.00  0.00     0.001 A 
ATOM     80  C   UNL     1      -8.403  10.312 -11.823  1.00  0.00     0.000 A 
ENDBRANCH  61  75
BRANCH  62  81
ATOM     81  C   UNL     1     -13.201  12.998  -0.227  1.00  0.00    -0.014 A 
ATOM     82  C   UNL     1     -12.713  14.060   0.553  1.00  0.00     0.009 A 
ATOM     83  C   UNL     1     -14.172  12.147   0.320  1.00  0.00     0.009 A 
ATOM     84  C   UNL     1     -13.163  14.247   1.861  1.00  0.00     0.001 A 
ATOM     85  C   UNL     1     -14.647  12.358   1.616  1.00  0.00     0.001 A 
ATOM     86  C   UNL     1     -14.135  13.399   2.389  1.00  0.00     0.000 A 
ENDBRANCH  62  81
BRANCH  74  87
ATOM     87  C   UNL     1     -15.692  13.009  -6.770  1.00  0.00    -0.014 A 
ATOM     88  C   UNL     1     -16.452  11.989  -7.365  1.00  0.00     0.009 A 
ATOM     89  C   UNL     1     -16.158  14.331  -6.834  1.00  0.00     0.009 A 
ATOM     90  C   UNL     1     -17.638  12.290  -8.036  1.00  0.00     0.001 A 
ATOM     91  C   UNL     1     -17.363  14.623  -7.475  1.00  0.00     0.001 A 
ATOM     92  C   UNL     1     -18.095  13.605  -8.086  1.00  0.00     0.000 A 
ENDBRANCH  74  87
ENDBRANCH  48  49
ENDBRANCH  41  43
ENDBRANCH  40  41
ENDBRANCH  39  40
ENDBRANCH  38  39
ENDBRANCH  37  38
ENDBRANCH  36  37
ENDBRANCH  35  36
ENDBRANCH  34  35
ENDBRANCH   1  34
TORSDOF 24
