REMARK SMILES Cc1ccc(S(=O)(=O)n2cc(C(=O)C(=O)N[C@@H](Cc3c[nH]c4ccccc34)C(=O)OCCOCCOCCOCCOC(=O)c3ccc(-c4c5nc(c(-c6ccccc6)c6ccc([nH]6)c(-c6ccccc6)c6nc(c(-c7ccccc7)c7ccc4[nH]7)C=C6)C=C5)cc3)c3ccccc32)cc1
REMARK SMILES IDX 34 1 33 2 32 3 31 4 30 5 28 6 29 7 17 8 16 9 14 10 15 11
REMARK SMILES IDX 12 13 13 14 11 15 9 16 10 17 98 18 93 19 97 20 94 21 96 22
REMARK SMILES IDX 95 23 6 24 7 25 8 26 5 27 1 28 2 29 3 30 100 31 4 32 99 33
REMARK SMILES IDX 18 34 19 35 20 36 27 37 21 38 22 39 26 40 23 42 25 43 24 44
REMARK SMILES IDX 35 45 36 46 37 47 38 48 39 49 40 50 41 51 42 52 43 53 44 54
REMARK SMILES IDX 45 55 46 56 92 57 47 58 91 59 48 60 49 61 50 62 85 63 51 64
REMARK SMILES IDX 90 65 84 66 86 67 52 68 89 69 83 70 82 71 53 73 75 74 60 75
REMARK SMILES IDX 74 76 61 77 64 78 73 79 87 80 62 81 63 82 72 84 88 85 65 86
REMARK SMILES IDX 54 87 55 88 59 89 56 90 58 91 57 92 76 93 77 94 81 95 78 96
REMARK SMILES IDX 80 97 79 98 66 99 67 100 71 101 68 102 70 103 69 104
REMARK H PARENT 16 12 21 41 86 72 64 83
REMARK Flexibility Score: inf
ROOT
ATOM      1  C   UNL     1      -9.053   0.519  -2.822  1.00  0.00     0.188 C 
ENDROOT
BRANCH   1   2
ATOM      2  O   UNL     1     -10.378   0.592  -3.328  1.00  0.00    -0.376 OA
BRANCH   2   3
ATOM      3  C   UNL     1     -11.215  -0.434  -2.800  1.00  0.00     0.202 C 
BRANCH   3   4
ATOM      4  C   UNL     1     -11.882  -0.139  -1.446  1.00  0.00     0.261 C 
BRANCH   4   5
ATOM      5  O   UNL     1     -11.122   0.658  -0.533  1.00  0.00    -0.462 OA
BRANCH   5   6
ATOM      6  C   UNL     1     -11.357   0.353   0.772  1.00  0.00     0.329 C 
ATOM      7  O   UNL     1     -12.044  -0.593   1.154  1.00  0.00    -0.250 OA
BRANCH   6   8
ATOM      8  C   UNL     1     -10.647   1.292   1.770  1.00  0.00     0.197 C 
BRANCH   8   9
ATOM      9  N   UNL     1      -9.725   2.356   1.286  1.00  0.00    -0.335 N 
ATOM     10  C   UNL     1      -8.361   2.239   1.016  1.00  0.00     0.293 C 
ATOM     11  O   UNL     1      -7.632   3.220   0.902  1.00  0.00    -0.265 OA
ATOM     12  H   UNL     1     -10.124   3.244   1.141  1.00  0.00     0.164 HD
BRANCH  10  13
ATOM     13  C   UNL     1      -7.831   0.842   0.703  1.00  0.00     0.252 C 
ATOM     14  O   UNL     1      -8.722   0.004   0.541  1.00  0.00    -0.283 OA
BRANCH  13  15
ATOM     15  C   UNL     1      -6.459   0.358   0.535  1.00  0.00     0.054 A 
ATOM     16  N   UNL     1      -4.360  -0.324   0.887  1.00  0.00    -0.240 N 
ATOM     17  C   UNL     1      -5.147   0.827   0.677  1.00  0.00     0.117 A 
ATOM     18  C   UNL     1      -5.254  -1.413   0.932  1.00  0.00     0.065 A 
ATOM     19  C   UNL     1      -6.290  -0.995   0.128  1.00  0.00     0.012 A 
ATOM     20  C   UNL     1      -5.090  -2.768   1.259  1.00  0.00     0.028 A 
ATOM     21  C   UNL     1      -7.030  -1.954  -0.591  1.00  0.00     0.011 A 
ATOM     22  C   UNL     1      -5.811  -3.702   0.511  1.00  0.00     0.002 A 
ATOM     23  C   UNL     1      -6.726  -3.302  -0.451  1.00  0.00     0.001 A 
BRANCH  16  24
ATOM     24  S   UNL     1      -2.898  -0.831   0.103  1.00  0.00     0.268 S 
ATOM     25  O   UNL     1      -3.300  -1.042  -1.278  1.00  0.00    -0.201 OA
ATOM     26  O   UNL     1      -2.539  -1.956   0.964  1.00  0.00    -0.201 OA
BRANCH  24  27
ATOM     27  C   UNL     1      -1.336  -0.054   0.008  1.00  0.00     0.088 A 
ATOM     28  C   UNL     1       2.899   0.741  -0.037  1.00  0.00     0.044 C 
ATOM     29  C   UNL     1       1.415   0.526  -0.095  1.00  0.00    -0.051 A 
ATOM     30  C   UNL     1       0.990  -0.769  -0.335  1.00  0.00     0.005 A 
ATOM     31  C   UNL     1       0.452   1.537   0.136  1.00  0.00     0.005 A 
ATOM     32  C   UNL     1      -0.359  -1.036  -0.310  1.00  0.00     0.022 A 
ATOM     33  C   UNL     1      -0.939   1.255   0.196  1.00  0.00     0.022 A 
ENDBRANCH  24  27
ENDBRANCH  16  24
ENDBRANCH  13  15
ENDBRANCH  10  13
ENDBRANCH   8   9
BRANCH   8  34
ATOM     34  C   UNL     1     -11.687   1.774   2.808  1.00  0.00     0.074 C 
BRANCH  34  35
ATOM     35  C   UNL     1     -12.500   2.988   2.476  1.00  0.00    -0.020 A 
ATOM     36  C   UNL     1     -13.857   3.006   2.214  1.00  0.00     0.087 A 
ATOM     37  C   UNL     1     -12.065   4.354   2.466  1.00  0.00     0.003 A 
ATOM     38  N   UNL     1     -14.251   4.307   2.054  1.00  0.00    -0.361 N 
ATOM     39  C   UNL     1     -13.171   5.149   2.164  1.00  0.00     0.046 A 
ATOM     40  C   UNL     1     -10.826   4.992   2.684  1.00  0.00     0.010 A 
ATOM     41  H   UNL     1     -15.176   4.598   1.885  1.00  0.00     0.166 HD
ATOM     42  C   UNL     1     -13.091   6.540   2.035  1.00  0.00     0.026 A 
ATOM     43  C   UNL     1     -10.714   6.372   2.499  1.00  0.00     0.001 A 
ATOM     44  C   UNL     1     -11.833   7.134   2.184  1.00  0.00     0.002 A 
ENDBRANCH  34  35
ENDBRANCH   8  34
ENDBRANCH   6   8
ENDBRANCH   5   6
ENDBRANCH   4   5
ENDBRANCH   3   4
ENDBRANCH   2   3
ENDBRANCH   1   2
BRANCH   1  45
ATOM     45  C   UNL     1      -8.639   1.781  -2.077  1.00  0.00     0.188 C 
BRANCH  45  46
ATOM     46  O   UNL     1      -8.247   2.889  -2.854  1.00  0.00    -0.377 OA
BRANCH  46  47
ATOM     47  C   UNL     1      -9.365   3.628  -3.329  1.00  0.00     0.188 C 
BRANCH  47  48
ATOM     48  C   UNL     1      -8.882   4.323  -4.571  1.00  0.00     0.188 C 
BRANCH  48  49
ATOM     49  O   UNL     1      -8.484   3.271  -5.452  1.00  0.00    -0.376 OA
BRANCH  49  50
ATOM     50  C   UNL     1      -7.100   3.244  -5.772  1.00  0.00     0.202 C 
BRANCH  50  51
ATOM     51  C   UNL     1      -6.807   4.315  -6.824  1.00  0.00     0.261 C 
BRANCH  51  52
ATOM     52  O   UNL     1      -7.749   4.148  -7.912  1.00  0.00    -0.460 OA
BRANCH  52  53
ATOM     53  C   UNL     1      -8.790   5.016  -7.900  1.00  0.00     0.338 C 
ATOM     54  O   UNL     1      -8.681   6.240  -7.742  1.00  0.00    -0.246 OA
BRANCH  53  55
ATOM     55  C   UNL     1     -10.108   4.313  -7.822  1.00  0.00     0.060 A 
ATOM     56  C   UNL     1     -11.262   5.071  -7.555  1.00  0.00     0.016 A 
ATOM     57  C   UNL     1     -10.143   2.932  -7.630  1.00  0.00     0.016 A 
ATOM     58  C   UNL     1     -12.372   4.481  -6.934  1.00  0.00     0.010 A 
ATOM     59  C   UNL     1     -11.188   2.381  -6.897  1.00  0.00     0.010 A 
ATOM     60  C   UNL     1     -12.293   3.153  -6.497  1.00  0.00    -0.014 A 
BRANCH  60  61
ATOM     61  C   UNL     1     -13.096   2.620  -5.373  1.00  0.00     0.031 A 
ATOM     62  C   UNL     1     -13.595   1.188  -5.306  1.00  0.00     0.074 A 
ATOM     63  C   UNL     1     -12.968   3.301  -4.210  1.00  0.00     0.049 A 
ATOM     64  N   UNL     1     -14.247   0.645  -4.315  1.00  0.00    -0.248 NA
ATOM     65  C   UNL     1     -13.451   0.259  -6.428  1.00  0.00     0.031 C 
ATOM     66  C   UNL     1     -12.703   2.633  -2.958  1.00  0.00     0.029 A 
ATOM     67  N   UNL     1     -12.773   4.612  -3.855  1.00  0.00    -0.354 N 
ATOM     68  C   UNL     1     -14.328  -0.725  -4.541  1.00  0.00     0.074 A 
ATOM     69  C   UNL     1     -13.939  -0.879  -5.922  1.00  0.00     0.031 C 
ATOM     70  C   UNL     1     -12.546   3.489  -1.950  1.00  0.00     0.029 A 
ATOM     71  C   UNL     1     -12.870   4.779  -2.469  1.00  0.00     0.049 A 
ATOM     72  H   UNL     1     -12.588   5.340  -4.492  1.00  0.00     0.167 HD
ATOM     73  C   UNL     1     -14.557  -1.623  -3.526  1.00  0.00     0.031 A 
ATOM     74  C   UNL     1     -13.806   5.574  -1.894  1.00  0.00     0.031 A 
ATOM     75  C   UNL     1     -14.966  -1.001  -2.244  1.00  0.00     0.049 A 
ATOM     76  C   UNL     1     -14.979   4.805  -1.289  1.00  0.00     0.074 A 
ATOM     77  C   UNL     1     -14.751  -1.277  -0.900  1.00  0.00     0.029 A 
ATOM     78  N   UNL     1     -15.680   0.202  -2.247  1.00  0.00    -0.354 N 
ATOM     79  N   UNL     1     -15.066   3.491  -1.216  1.00  0.00    -0.248 NA
ATOM     80  C   UNL     1     -16.173   5.444  -0.743  1.00  0.00     0.031 C 
ATOM     81  C   UNL     1     -15.200  -0.165  -0.126  1.00  0.00     0.029 A 
ATOM     82  C   UNL     1     -15.821   0.731  -0.981  1.00  0.00     0.049 A 
ATOM     83  H   UNL     1     -16.040   0.624  -3.061  1.00  0.00     0.167 HD
ATOM     84  C   UNL     1     -16.312   3.113  -0.765  1.00  0.00     0.074 A 
ATOM     85  C   UNL     1     -16.931   4.381  -0.414  1.00  0.00     0.031 C 
ATOM     86  C   UNL     1     -16.772   1.817  -0.750  1.00  0.00     0.031 A 
BRANCH  73  87
ATOM     87  C   UNL     1     -14.215  -3.132  -3.633  1.00  0.00    -0.014 A 
ATOM     88  C   UNL     1     -14.586  -4.035  -2.613  1.00  0.00     0.009 A 
ATOM     89  C   UNL     1     -13.422  -3.707  -4.651  1.00  0.00     0.009 A 
ATOM     90  C   UNL     1     -14.175  -5.385  -2.593  1.00  0.00     0.001 A 
ATOM     91  C   UNL     1     -13.064  -5.070  -4.676  1.00  0.00     0.001 A 
ATOM     92  C   UNL     1     -13.424  -5.908  -3.635  1.00  0.00     0.000 A 
ENDBRANCH  73  87
BRANCH  74  93
ATOM     93  C   UNL     1     -13.518   7.002  -2.256  1.00  0.00    -0.014 A 
ATOM     94  C   UNL     1     -12.335   7.471  -1.629  1.00  0.00     0.009 A 
ATOM     95  C   UNL     1     -13.736   7.406  -3.587  1.00  0.00     0.009 A 
ATOM     96  C   UNL     1     -11.269   7.971  -2.390  1.00  0.00     0.001 A 
ATOM     97  C   UNL     1     -12.666   7.923  -4.346  1.00  0.00     0.001 A 
ATOM     98  C   UNL     1     -11.415   8.133  -3.763  1.00  0.00     0.000 A 
ENDBRANCH  74  93
BRANCH  86  99
ATOM     99  C   UNL     1     -18.218   1.351  -0.530  1.00  0.00    -0.014 A 
ATOM    100  C   UNL     1     -19.340   2.181  -0.477  1.00  0.00     0.009 A 
ATOM    101  C   UNL     1     -18.498  -0.043  -0.503  1.00  0.00     0.009 A 
ATOM    102  C   UNL     1     -20.642   1.661  -0.362  1.00  0.00     0.001 A 
ATOM    103  C   UNL     1     -19.790  -0.571  -0.430  1.00  0.00     0.001 A 
ATOM    104  C   UNL     1     -20.868   0.289  -0.348  1.00  0.00     0.000 A 
ENDBRANCH  86  99
ENDBRANCH  60  61
ENDBRANCH  53  55
ENDBRANCH  52  53
ENDBRANCH  51  52
ENDBRANCH  50  51
ENDBRANCH  49  50
ENDBRANCH  48  49
ENDBRANCH  47  48
ENDBRANCH  46  47
ENDBRANCH  45  46
ENDBRANCH   1  45
TORSDOF 27
