REMARK SMILES O=C(OCCOCCOCCOCCOC(=O)[C@@H]1C[C@@H](Br)C[NH2+]1)c1ccc(-c2c3nc(c(-c4ccccc4)c4ccc([nH]4)c(-c4ccccc4)c4nc(c(-c5ccccc5)c5ccc2[nH]5)C=C4)C=C3)cc1
REMARK SMILES IDX 8 1 7 2 6 3 5 4 4 5 3 6 2 7 1 8 24 9 25 10 71 11 26 12 70 13
REMARK SMILES IDX 27 14 28 15 29 16 64 17 30 18 69 19 63 20 65 21 31 22 68 23
REMARK SMILES IDX 62 24 61 25 32 27 54 28 39 29 53 30 40 31 43 32 52 33 66 34
REMARK SMILES IDX 41 35 42 36 51 38 67 39 44 40 33 41 34 42 38 43 35 44 37 45
REMARK SMILES IDX 36 46 55 47 56 48 60 49 57 50 59 51 58 52 45 53 46 54 50 55
REMARK SMILES IDX 47 56 49 57 48 58 9 59 10 60 11 61 12 62 13 63 14 64 15 65
REMARK SMILES IDX 16 66 17 67 18 68 19 69 23 70 20 71 22 72 21 75
REMARK H PARENT 65 26 43 37 23 73 23 74
REMARK Flexibility Score: inf
ROOT
ATOM      1  C   UNL     1       2.079   2.521   1.678  1.00  0.00     0.188 C 
ENDROOT
BRANCH   1   2
ATOM      2  C   UNL     1       2.490   1.636   0.501  1.00  0.00     0.188 C 
BRANCH   2   3
ATOM      3  O   UNL     1       3.805   1.127   0.677  1.00  0.00    -0.376 OA
BRANCH   3   4
ATOM      4  C   UNL     1       4.666   1.051  -0.457  1.00  0.00     0.202 C 
BRANCH   4   5
ATOM      5  C   UNL     1       4.182   0.196  -1.627  1.00  0.00     0.261 C 
BRANCH   5   6
ATOM      6  O   UNL     1       2.803  -0.215  -1.560  1.00  0.00    -0.460 OA
BRANCH   6   7
ATOM      7  C   UNL     1       2.241  -1.281  -0.939  1.00  0.00     0.338 C 
ATOM      8  O   UNL     1       1.048  -1.516  -1.117  1.00  0.00    -0.246 OA
BRANCH   7   9
ATOM      9  C   UNL     1       3.004  -2.196  -0.050  1.00  0.00     0.060 A 
ATOM     10  C   UNL     1       4.068  -1.788   0.738  1.00  0.00     0.016 A 
ATOM     11  C   UNL     1       2.573  -3.521   0.086  1.00  0.00     0.016 A 
ATOM     12  C   UNL     1       4.812  -2.659   1.492  1.00  0.00     0.010 A 
ATOM     13  C   UNL     1       3.248  -4.403   0.940  1.00  0.00     0.010 A 
ATOM     14  C   UNL     1       4.399  -3.972   1.612  1.00  0.00    -0.014 A 
BRANCH  14  15
ATOM     15  C   UNL     1       5.320  -4.857   2.334  1.00  0.00     0.031 A 
ATOM     16  C   UNL     1       6.126  -5.817   1.520  1.00  0.00     0.074 A 
ATOM     17  C   UNL     1       5.588  -4.609   3.631  1.00  0.00     0.049 A 
ATOM     18  N   UNL     1       7.003  -6.696   1.915  1.00  0.00    -0.248 NA
ATOM     19  C   UNL     1       5.940  -5.763   0.057  1.00  0.00     0.031 C 
ATOM     20  C   UNL     1       4.981  -3.539   4.437  1.00  0.00     0.029 A 
ATOM     21  N   UNL     1       6.485  -5.189   4.482  1.00  0.00    -0.354 N 
ATOM     22  C   UNL     1       7.441  -7.323   0.757  1.00  0.00     0.074 A 
ATOM     23  C   UNL     1       6.737  -6.734  -0.356  1.00  0.00     0.031 C 
ATOM     24  C   UNL     1       5.548  -3.526   5.653  1.00  0.00     0.029 A 
ATOM     25  C   UNL     1       6.480  -4.639   5.741  1.00  0.00     0.049 A 
ATOM     26  H   UNL     1       7.077  -5.931   4.219  1.00  0.00     0.167 HD
ATOM     27  C   UNL     1       8.352  -8.313   0.648  1.00  0.00     0.031 A 
ATOM     28  C   UNL     1       7.125  -5.039   6.851  1.00  0.00     0.031 A 
ATOM     29  C   UNL     1       9.022  -8.876   1.785  1.00  0.00     0.049 A 
ATOM     30  C   UNL     1       8.012  -6.247   6.726  1.00  0.00     0.074 A 
ATOM     31  C   UNL     1       9.884  -9.953   1.840  1.00  0.00     0.029 A 
ATOM     32  N   UNL     1       8.898  -8.386   3.079  1.00  0.00    -0.354 N 
ATOM     33  N   UNL     1       8.341  -6.921   5.648  1.00  0.00    -0.248 NA
ATOM     34  C   UNL     1       8.604  -6.759   7.965  1.00  0.00     0.031 C 
ATOM     35  C   UNL     1      10.239 -10.148   3.179  1.00  0.00     0.029 A 
ATOM     36  C   UNL     1       9.653  -9.150   3.947  1.00  0.00     0.049 A 
ATOM     37  H   UNL     1       8.352  -7.609   3.339  1.00  0.00     0.167 HD
ATOM     38  C   UNL     1       9.191  -7.930   6.076  1.00  0.00     0.074 A 
ATOM     39  C   UNL     1       9.354  -7.750   7.506  1.00  0.00     0.031 C 
ATOM     40  C   UNL     1       9.778  -8.924   5.364  1.00  0.00     0.031 A 
BRANCH  27  41
ATOM     41  C   UNL     1       8.578  -8.885  -0.719  1.00  0.00    -0.014 A 
ATOM     42  C   UNL     1       9.267  -8.173  -1.714  1.00  0.00     0.009 A 
ATOM     43  C   UNL     1       8.051 -10.148  -1.029  1.00  0.00     0.009 A 
ATOM     44  C   UNL     1       9.397  -8.704  -3.000  1.00  0.00     0.001 A 
ATOM     45  C   UNL     1       8.206 -10.688  -2.307  1.00  0.00     0.001 A 
ATOM     46  C   UNL     1       8.871  -9.962  -3.293  1.00  0.00     0.000 A 
ENDBRANCH  27  41
BRANCH  28  47
ATOM     47  C   UNL     1       6.875  -4.386   8.166  1.00  0.00    -0.014 A 
ATOM     48  C   UNL     1       7.913  -3.788   8.896  1.00  0.00     0.009 A 
ATOM     49  C   UNL     1       5.589  -4.415   8.734  1.00  0.00     0.009 A 
ATOM     50  C   UNL     1       7.679  -3.279  10.177  1.00  0.00     0.001 A 
ATOM     51  C   UNL     1       5.348  -3.872   9.997  1.00  0.00     0.001 A 
ATOM     52  C   UNL     1       6.398  -3.320  10.726  1.00  0.00     0.000 A 
ENDBRANCH  28  47
BRANCH  40  53
ATOM     53  C   UNL     1      10.674  -9.851   6.131  1.00  0.00    -0.014 A 
ATOM     54  C   UNL     1      10.151 -10.780   7.043  1.00  0.00     0.009 A 
ATOM     55  C   UNL     1      12.058  -9.808   5.909  1.00  0.00     0.009 A 
ATOM     56  C   UNL     1      11.007 -11.619   7.755  1.00  0.00     0.001 A 
ATOM     57  C   UNL     1      12.907 -10.676   6.593  1.00  0.00     0.001 A 
ATOM     58  C   UNL     1      12.382 -11.570   7.525  1.00  0.00     0.000 A 
ENDBRANCH  40  53
ENDBRANCH  14  15
ENDBRANCH   7   9
ENDBRANCH   6   7
ENDBRANCH   5   6
ENDBRANCH   4   5
ENDBRANCH   3   4
ENDBRANCH   2   3
ENDBRANCH   1   2
BRANCH   1  59
ATOM     59  O   UNL     1       2.893   3.668   1.914  1.00  0.00    -0.377 OA
BRANCH  59  60
ATOM     60  C   UNL     1       4.300   3.467   1.871  1.00  0.00     0.188 C 
BRANCH  60  61
ATOM     61  C   UNL     1       4.991   2.613   2.966  1.00  0.00     0.188 C 
BRANCH  61  62
ATOM     62  O   UNL     1       4.253   1.505   3.441  1.00  0.00    -0.376 OA
BRANCH  62  63
ATOM     63  C   UNL     1       3.530   1.577   4.666  1.00  0.00     0.202 C 
BRANCH  63  64
ATOM     64  C   UNL     1       3.106   2.892   5.361  1.00  0.00     0.261 C 
BRANCH  64  65
ATOM     65  O   UNL     1       3.328   4.080   4.604  1.00  0.00    -0.459 OA
BRANCH  65  66
ATOM     66  C   UNL     1       4.147   5.035   5.117  1.00  0.00     0.364 C 
ATOM     67  O   UNL     1       4.601   5.050   6.262  1.00  0.00    -0.245 OA
BRANCH  66  68
ATOM     68  C   UNL     1       4.567   6.008   4.017  1.00  0.00     0.294 C 
ATOM     69  C   UNL     1       6.077   5.910   3.725  1.00  0.00     0.098 C 
ATOM     70  N   UNL     1       4.318   7.429   4.358  1.00  0.00    -0.334 N 
ATOM     71  C   UNL     1       6.547   7.350   3.667  1.00  0.00     0.118 C 
ATOM     72  C   UNL     1       5.264   8.135   3.476  1.00  0.00     0.276 C 
ATOM     73  H   UNL     1       4.520   7.615   5.340  1.00  0.00     0.347 HD
ATOM     74  H   UNL     1       3.348   7.717   4.228  1.00  0.00     0.347 HD
ATOM     75  Br  UNL     1       7.804   7.646   2.228  1.00  0.00    -0.083 Br
ENDBRANCH  66  68
ENDBRANCH  65  66
ENDBRANCH  64  65
ENDBRANCH  63  64
ENDBRANCH  62  63
ENDBRANCH  61  62
ENDBRANCH  60  61
ENDBRANCH  59  60
ENDBRANCH   1  59
TORSDOF 20
