REMARK SMILES O=C(OCCOCCOCCOCCOC(=O)c1ccc(-c2c3nc(c(-c4ccccc4)c4ccc([nH]4)c(-c4ccccc4)c4nc(c(-c5ccccc5)c5ccc2[nH]5)C=C4)C=C3)cc1)C1=N[C@@H]2NC=NN2[C@@H]([C@H]2C=NN=C2c2ccc(F)cc2)C1
REMARK SMILES IDX 9 1 8 2 7 3 6 4 5 5 4 6 3 7 2 8 1 9 66 10 67 11 86 12 68 13
REMARK SMILES IDX 73 14 69 15 72 16 70 17 71 19 74 20 75 21 78 22 76 23 77 24
REMARK SMILES IDX 79 25 80 26 85 27 81 28 84 29 82 30 83 31 10 32 11 33 12 34
REMARK SMILES IDX 13 35 14 36 15 37 16 38 17 39 18 40 19 41 65 42 20 43 64 44
REMARK SMILES IDX 21 45 22 46 23 47 58 48 24 49 63 50 57 51 59 52 25 53 62 54
REMARK SMILES IDX 56 55 55 56 26 58 48 59 33 60 47 61 34 62 37 63 46 64 60 65
REMARK SMILES IDX 35 66 36 67 45 69 61 70 38 71 27 72 28 73 32 74 29 75 31 76
REMARK SMILES IDX 30 77 49 78 50 79 54 80 51 81 53 82 52 83 39 84 40 85 44 86
REMARK SMILES IDX 41 87 43 88 42 89
REMARK H PARENT 69 18 59 57 37 68
REMARK Flexibility Score: inf
ROOT
ATOM      1  O   UNL     1       8.500   6.774  -3.214  1.00  0.00    -0.377 OA
ENDROOT
BRANCH   1   2
ATOM      2  C   UNL     1       9.075   5.483  -3.076  1.00  0.00     0.188 C 
BRANCH   2   3
ATOM      3  C   UNL     1       8.318   4.517  -2.158  1.00  0.00     0.188 C 
BRANCH   3   4
ATOM      4  O   UNL     1       8.390   4.705  -0.736  1.00  0.00    -0.376 OA
BRANCH   4   5
ATOM      5  C   UNL     1       9.634   5.055  -0.147  1.00  0.00     0.202 C 
BRANCH   5   6
ATOM      6  C   UNL     1      10.621   3.918   0.045  1.00  0.00     0.261 C 
BRANCH   6   7
ATOM      7  O   UNL     1      10.444   2.857  -0.888  1.00  0.00    -0.459 OA
BRANCH   7   8
ATOM      8  C   UNL     1       9.676   1.792  -0.634  1.00  0.00     0.352 C 
ATOM      9  O   UNL     1       9.983   0.687  -1.067  1.00  0.00    -0.245 OA
BRANCH   8  10
ATOM     10  C   UNL     1       8.278   1.919   0.021  1.00  0.00     0.126 C 
ATOM     11  N   UNL     1       7.288   1.439  -0.661  1.00  0.00    -0.236 NA
ATOM     12  C   UNL     1       8.153   2.362   1.454  1.00  0.00     0.092 C 
ATOM     13  C   UNL     1       6.118   1.014   0.085  1.00  0.00     0.319 C 
ATOM     14  C   UNL     1       6.678   2.688   1.722  1.00  0.00     0.127 C 
ATOM     15  N   UNL     1       4.846   1.284  -0.516  1.00  0.00    -0.335 N 
ATOM     16  N   UNL     1       5.944   1.426   1.507  1.00  0.00    -0.249 NA
ATOM     17  C   UNL     1       4.011   1.480   0.537  1.00  0.00     0.217 C 
ATOM     18  H   UNL     1       4.628   1.320  -1.475  1.00  0.00     0.165 HD
ATOM     19  N   UNL     1       4.558   1.543   1.722  1.00  0.00    -0.164 NA
BRANCH  14  20
ATOM     20  C   UNL     1       6.357   3.287   3.107  1.00  0.00     0.109 C 
ATOM     21  C   UNL     1       7.412   3.004   4.117  1.00  0.00     0.120 C 
ATOM     22  C   UNL     1       6.493   4.787   3.111  1.00  0.00     0.081 C 
ATOM     23  N   UNL     1       8.091   4.050   4.456  1.00  0.00    -0.162 NA
ATOM     24  N   UNL     1       7.513   5.186   3.814  1.00  0.00    -0.155 NA
BRANCH  22  25
ATOM     25  C   UNL     1       5.556   5.704   2.415  1.00  0.00    -0.001 A 
ATOM     26  C   UNL     1       4.322   5.260   1.918  1.00  0.00     0.013 A 
ATOM     27  C   UNL     1       5.902   7.058   2.292  1.00  0.00     0.013 A 
ATOM     28  C   UNL     1       3.453   6.159   1.293  1.00  0.00     0.040 A 
ATOM     29  C   UNL     1       5.030   7.954   1.668  1.00  0.00     0.040 A 
ATOM     30  C   UNL     1       3.813   7.496   1.176  1.00  0.00     0.123 A 
ATOM     31  F   UNL     1       2.982   8.351   0.566  1.00  0.00    -0.207 F 
ENDBRANCH  22  25
ENDBRANCH  14  20
ENDBRANCH   8  10
ENDBRANCH   7   8
ENDBRANCH   6   7
ENDBRANCH   5   6
ENDBRANCH   4   5
ENDBRANCH   3   4
ENDBRANCH   2   3
ENDBRANCH   1   2
BRANCH   1  32
ATOM     32  C   UNL     1       8.629   7.631  -2.088  1.00  0.00     0.188 C 
BRANCH  32  33
ATOM     33  C   UNL     1       7.469   7.521  -1.086  1.00  0.00     0.188 C 
BRANCH  33  34
ATOM     34  O   UNL     1       6.354   6.808  -1.606  1.00  0.00    -0.376 OA
BRANCH  34  35
ATOM     35  C   UNL     1       5.291   7.599  -2.127  1.00  0.00     0.202 C 
BRANCH  35  36
ATOM     36  C   UNL     1       5.612   8.407  -3.391  1.00  0.00     0.261 C 
BRANCH  36  37
ATOM     37  O   UNL     1       6.574   9.469  -3.233  1.00  0.00    -0.460 OA
BRANCH  37  38
ATOM     38  C   UNL     1       6.405  10.394  -2.261  1.00  0.00     0.338 C 
ATOM     39  O   UNL     1       5.439  10.545  -1.537  1.00  0.00    -0.246 OA
BRANCH  38  40
ATOM     40  C   UNL     1       7.731  11.024  -2.038  1.00  0.00     0.060 A 
ATOM     41  C   UNL     1       8.254  11.059  -0.736  1.00  0.00     0.016 A 
ATOM     42  C   UNL     1       8.513  11.444  -3.119  1.00  0.00     0.016 A 
ATOM     43  C   UNL     1       9.561  11.504  -0.515  1.00  0.00     0.010 A 
ATOM     44  C   UNL     1       9.809  11.910  -2.894  1.00  0.00     0.010 A 
ATOM     45  C   UNL     1      10.337  11.955  -1.591  1.00  0.00    -0.014 A 
BRANCH  45  46
ATOM     46  C   UNL     1      11.621  12.660  -1.365  1.00  0.00     0.031 A 
ATOM     47  C   UNL     1      11.585  14.159  -1.261  1.00  0.00     0.074 A 
ATOM     48  C   UNL     1      12.796  12.006  -1.321  1.00  0.00     0.049 A 
ATOM     49  N   UNL     1      12.574  15.011  -1.217  1.00  0.00    -0.248 NA
ATOM     50  C   UNL     1      10.248  14.778  -1.211  1.00  0.00     0.031 C 
ATOM     51  C   UNL     1      12.968  10.555  -1.372  1.00  0.00     0.029 A 
ATOM     52  N   UNL     1      14.079  12.494  -1.250  1.00  0.00    -0.354 N 
ATOM     53  C   UNL     1      11.981  16.266  -1.156  1.00  0.00     0.074 A 
ATOM     54  C   UNL     1      10.550  16.067  -1.173  1.00  0.00     0.031 C 
ATOM     55  C   UNL     1      14.285  10.273  -1.363  1.00  0.00     0.029 A 
ATOM     56  C   UNL     1      15.046  11.521  -1.348  1.00  0.00     0.049 A 
ATOM     57  H   UNL     1      14.287  13.450  -1.140  1.00  0.00     0.167 HD
ATOM     58  C   UNL     1      12.577  17.478  -1.100  1.00  0.00     0.031 A 
ATOM     59  C   UNL     1      16.386  11.632  -1.459  1.00  0.00     0.031 A 
ATOM     60  C   UNL     1      13.998  17.682  -1.098  1.00  0.00     0.049 A 
ATOM     61  C   UNL     1      17.019  13.002  -1.482  1.00  0.00     0.074 A 
ATOM     62  C   UNL     1      14.694  18.874  -1.002  1.00  0.00     0.029 A 
ATOM     63  N   UNL     1      14.938  16.673  -1.215  1.00  0.00    -0.354 N 
ATOM     64  N   UNL     1      16.452  14.179  -1.364  1.00  0.00    -0.248 NA
ATOM     65  C   UNL     1      18.479  13.058  -1.662  1.00  0.00     0.031 C 
ATOM     66  C   UNL     1      16.056  18.592  -1.129  1.00  0.00     0.029 A 
ATOM     67  C   UNL     1      16.209  17.219  -1.242  1.00  0.00     0.049 A 
ATOM     68  H   UNL     1      14.733  15.712  -1.271  1.00  0.00     0.167 HD
ATOM     69  C   UNL     1      17.485  15.108  -1.434  1.00  0.00     0.074 A 
ATOM     70  C   UNL     1      18.715  14.360  -1.583  1.00  0.00     0.031 C 
ATOM     71  C   UNL     1      17.422  16.461  -1.385  1.00  0.00     0.031 A 
BRANCH  58  72
ATOM     72  C   UNL     1      11.691  18.689  -1.085  1.00  0.00    -0.014 A 
ATOM     73  C   UNL     1      10.973  19.053   0.063  1.00  0.00     0.009 A 
ATOM     74  C   UNL     1      11.625  19.508  -2.223  1.00  0.00     0.009 A 
ATOM     75  C   UNL     1      10.191  20.210   0.065  1.00  0.00     0.001 A 
ATOM     76  C   UNL     1      10.862  20.676  -2.209  1.00  0.00     0.001 A 
ATOM     77  C   UNL     1      10.143  21.024  -1.067  1.00  0.00     0.000 A 
ENDBRANCH  58  72
BRANCH  59  78
ATOM     78  C   UNL     1      17.237  10.422  -1.632  1.00  0.00    -0.014 A 
ATOM     79  C   UNL     1      18.167  10.048  -0.649  1.00  0.00     0.009 A 
ATOM     80  C   UNL     1      17.176   9.676  -2.821  1.00  0.00     0.009 A 
ATOM     81  C   UNL     1      19.041   8.980  -0.869  1.00  0.00     0.001 A 
ATOM     82  C   UNL     1      18.029   8.588  -3.023  1.00  0.00     0.001 A 
ATOM     83  C   UNL     1      18.970   8.250  -2.054  1.00  0.00     0.000 A 
ENDBRANCH  59  78
BRANCH  71  84
ATOM     84  C   UNL     1      18.714  17.224  -1.466  1.00  0.00    -0.014 A 
ATOM     85  C   UNL     1      19.414  17.339  -2.677  1.00  0.00     0.009 A 
ATOM     86  C   UNL     1      19.199  17.895  -0.333  1.00  0.00     0.009 A 
ATOM     87  C   UNL     1      20.588  18.093  -2.744  1.00  0.00     0.001 A 
ATOM     88  C   UNL     1      20.356  18.671  -0.410  1.00  0.00     0.001 A 
ATOM     89  C   UNL     1      21.053  18.763  -1.613  1.00  0.00     0.000 A 
ENDBRANCH  71  84
ENDBRANCH  45  46
ENDBRANCH  38  40
ENDBRANCH  37  38
ENDBRANCH  36  37
ENDBRANCH  35  36
ENDBRANCH  34  35
ENDBRANCH  33  34
ENDBRANCH  32  33
ENDBRANCH   1  32
TORSDOF 22
