REMARK SMILES CCc1cccc(-c2ccc([C@@H](C)C(=O)OCCOCCOCCOCCOC(=O)c3ccc(-c4c5nc(c(-c6ccccc6)c6ccc([nH]6)c(-c6ccccc6)c6nc(c(-c7ccccc7)c7ccc4[nH]7)C=C6)C=C5)cc3)cc2)c1
REMARK SMILES IDX 21 1 20 2 19 3 18 4 17 5 16 6 14 7 15 8 12 9 13 10 11 11
REMARK SMILES IDX 8 12 9 13 80 14 10 15 79 16 7 17 3 18 4 19 81 20 5 21 6 22
REMARK SMILES IDX 2 23 1 24 22 25 23 26 24 27 25 28 26 29 27 30 28 31 29 32
REMARK SMILES IDX 30 33 31 34 32 35 78 36 33 37 77 38 34 39 35 40 36 41 71 42
REMARK SMILES IDX 37 43 76 44 70 45 72 46 38 47 75 48 69 49 68 50 39 52 61 53
REMARK SMILES IDX 46 54 60 55 47 56 50 57 59 58 73 59 48 60 49 61 58 63 74 64
REMARK SMILES IDX 51 65 40 66 41 67 45 68 42 69 44 70 43 71 62 72 63 73 67 74
REMARK SMILES IDX 64 75 66 76 65 77 52 78 53 79 57 80 54 81 56 82 55 83
REMARK H PARENT 72 51 50 62
REMARK Flexibility Score: inf
ROOT
ATOM      1  C   UNL     1       3.755   2.790   6.322  1.00  0.00     0.188 C 
ENDROOT
BRANCH   1   2
ATOM      2  C   UNL     1       3.768   4.059   7.186  1.00  0.00     0.188 C 
BRANCH   2   3
ATOM      3  O   UNL     1       4.974   4.535   7.768  1.00  0.00    -0.376 OA
BRANCH   3   4
ATOM      4  C   UNL     1       5.934   3.630   8.293  1.00  0.00     0.202 C 
BRANCH   4   5
ATOM      5  C   UNL     1       5.535   2.512   9.277  1.00  0.00     0.261 C 
BRANCH   5   6
ATOM      6  O   UNL     1       4.409   1.687   8.913  1.00  0.00    -0.463 OA
BRANCH   6   7
ATOM      7  C   UNL     1       3.261   1.909   9.591  1.00  0.00     0.313 C 
ATOM      8  O   UNL     1       3.163   2.739  10.495  1.00  0.00    -0.252 OA
BRANCH   7   9
ATOM      9  C   UNL     1       2.064   1.046   9.194  1.00  0.00     0.126 C 
ATOM     10  C   UNL     1       1.770   0.083  10.340  1.00  0.00     0.025 C 
BRANCH   9  11
ATOM     11  C   UNL     1       2.000   0.327   7.846  1.00  0.00    -0.034 A 
ATOM     12  C   UNL     1       1.736  -0.994   5.307  1.00  0.00    -0.018 A 
ATOM     13  C   UNL     1       2.829  -1.235   6.161  1.00  0.00     0.009 A 
ATOM     14  C   UNL     1       0.788  -0.057   5.737  1.00  0.00     0.009 A 
ATOM     15  C   UNL     1       2.959  -0.594   7.410  1.00  0.00     0.005 A 
ATOM     16  C   UNL     1       0.911   0.579   6.984  1.00  0.00     0.005 A 
BRANCH  12  17
ATOM     17  C   UNL     1       1.535  -1.773   4.062  1.00  0.00    -0.018 A 
ATOM     18  C   UNL     1       1.022  -1.946   1.657  1.00  0.00    -0.048 A 
ATOM     19  C   UNL     1       1.019  -3.344   1.776  1.00  0.00     0.004 A 
ATOM     20  C   UNL     1       1.274  -1.173   2.810  1.00  0.00     0.012 A 
ATOM     21  C   UNL     1       1.279  -3.956   2.998  1.00  0.00     0.001 A 
ATOM     22  C   UNL     1       1.535  -3.178   4.125  1.00  0.00     0.009 A 
BRANCH  18  23
ATOM     23  C   UNL     1       0.662  -1.367   0.304  1.00  0.00     0.032 C 
ATOM     24  C   UNL     1       1.149   0.041  -0.003  1.00  0.00     0.009 C 
ENDBRANCH  18  23
ENDBRANCH  12  17
ENDBRANCH   9  11
ENDBRANCH   7   9
ENDBRANCH   6   7
ENDBRANCH   5   6
ENDBRANCH   4   5
ENDBRANCH   3   4
ENDBRANCH   2   3
ENDBRANCH   1   2
BRANCH   1  25
ATOM     25  O   UNL     1       4.955   2.045   6.332  1.00  0.00    -0.377 OA
BRANCH  25  26
ATOM     26  C   UNL     1       5.801   2.185   5.203  1.00  0.00     0.188 C 
BRANCH  26  27
ATOM     27  C   UNL     1       5.938   3.593   4.596  1.00  0.00     0.188 C 
BRANCH  27  28
ATOM     28  O   UNL     1       4.696   4.210   4.282  1.00  0.00    -0.376 OA
BRANCH  28  29
ATOM     29  C   UNL     1       4.189   4.104   2.960  1.00  0.00     0.202 C 
BRANCH  29  30
ATOM     30  C   UNL     1       3.791   2.714   2.430  1.00  0.00     0.261 C 
BRANCH  30  31
ATOM     31  O   UNL     1       4.809   1.701   2.420  1.00  0.00    -0.460 OA
BRANCH  31  32
ATOM     32  C   UNL     1       5.951   1.943   1.749  1.00  0.00     0.338 C 
ATOM     33  O   UNL     1       6.210   2.921   1.066  1.00  0.00    -0.246 OA
BRANCH  32  34
ATOM     34  C   UNL     1       6.937   0.912   2.140  1.00  0.00     0.060 A 
ATOM     35  C   UNL     1       8.141   1.316   2.733  1.00  0.00     0.016 A 
ATOM     36  C   UNL     1       6.678  -0.444   1.927  1.00  0.00     0.016 A 
ATOM     37  C   UNL     1       9.107   0.369   3.075  1.00  0.00     0.010 A 
ATOM     38  C   UNL     1       7.659  -1.390   2.244  1.00  0.00     0.010 A 
ATOM     39  C   UNL     1       8.892  -0.984   2.785  1.00  0.00    -0.014 A 
BRANCH  39  40
ATOM     40  C   UNL     1      10.026  -1.939   2.852  1.00  0.00     0.031 A 
ATOM     41  C   UNL     1      10.756  -2.267   1.576  1.00  0.00     0.074 A 
ATOM     42  C   UNL     1      10.424  -2.486   4.014  1.00  0.00     0.049 A 
ATOM     43  N   UNL     1      11.740  -3.105   1.372  1.00  0.00    -0.248 NA
ATOM     44  C   UNL     1      10.313  -1.553   0.366  1.00  0.00     0.031 C 
ATOM     45  C   UNL     1       9.843  -2.207   5.326  1.00  0.00     0.029 A 
ATOM     46  N   UNL     1      11.415  -3.401   4.271  1.00  0.00    -0.354 N 
ATOM     47  C   UNL     1      12.024  -3.027   0.014  1.00  0.00     0.074 A 
ATOM     48  C   UNL     1      11.094  -2.082  -0.563  1.00  0.00     0.031 C 
ATOM     49  C   UNL     1      10.484  -2.946   6.250  1.00  0.00     0.029 A 
ATOM     50  C   UNL     1      11.490  -3.776   5.590  1.00  0.00     0.049 A 
ATOM     51  H   UNL     1      12.015  -3.754   3.575  1.00  0.00     0.167 HD
ATOM     52  C   UNL     1      12.976  -3.682  -0.692  1.00  0.00     0.031 A 
ATOM     53  C   UNL     1      12.265  -4.703   6.189  1.00  0.00     0.031 A 
ATOM     54  C   UNL     1      13.893  -4.633  -0.123  1.00  0.00     0.049 A 
ATOM     55  C   UNL     1      13.253  -5.488   5.362  1.00  0.00     0.074 A 
ATOM     56  C   UNL     1      14.901  -5.339  -0.754  1.00  0.00     0.029 A 
ATOM     57  N   UNL     1      13.905  -5.017   1.208  1.00  0.00    -0.354 N 
ATOM     58  N   UNL     1      13.530  -5.389   4.084  1.00  0.00    -0.248 NA
ATOM     59  C   UNL     1      14.042  -6.510   6.067  1.00  0.00     0.031 C 
ATOM     60  C   UNL     1      15.479  -6.202   0.181  1.00  0.00     0.029 A 
ATOM     61  C   UNL     1      14.883  -5.976   1.411  1.00  0.00     0.049 A 
ATOM     62  H   UNL     1      13.308  -4.662   1.905  1.00  0.00     0.167 HD
ATOM     63  C   UNL     1      14.547  -6.305   3.842  1.00  0.00     0.074 A 
ATOM     64  C   UNL     1      14.849  -6.940   5.108  1.00  0.00     0.031 C 
ATOM     65  C   UNL     1      15.178  -6.595   2.678  1.00  0.00     0.031 A 
BRANCH  52  66
ATOM     66  C   UNL     1      13.048  -3.423  -2.171  1.00  0.00    -0.014 A 
ATOM     67  C   UNL     1      13.504  -2.197  -2.680  1.00  0.00     0.009 A 
ATOM     68  C   UNL     1      12.695  -4.442  -3.070  1.00  0.00     0.009 A 
ATOM     69  C   UNL     1      13.578  -1.988  -4.060  1.00  0.00     0.001 A 
ATOM     70  C   UNL     1      12.799  -4.241  -4.447  1.00  0.00     0.001 A 
ATOM     71  C   UNL     1      13.233  -3.012  -4.941  1.00  0.00     0.000 A 
ENDBRANCH  52  66
BRANCH  53  72
ATOM     72  C   UNL     1      12.124  -4.976   7.646  1.00  0.00    -0.014 A 
ATOM     73  C   UNL     1      13.173  -4.694   8.535  1.00  0.00     0.009 A 
ATOM     74  C   UNL     1      10.954  -5.569   8.148  1.00  0.00     0.009 A 
ATOM     75  C   UNL     1      13.067  -5.033   9.887  1.00  0.00     0.001 A 
ATOM     76  C   UNL     1      10.838  -5.875   9.506  1.00  0.00     0.001 A 
ATOM     77  C   UNL     1      11.899  -5.619  10.372  1.00  0.00     0.000 A 
ENDBRANCH  53  72
BRANCH  65  78
ATOM     78  C   UNL     1      16.296  -7.602   2.722  1.00  0.00    -0.014 A 
ATOM     79  C   UNL     1      16.049  -8.966   2.937  1.00  0.00     0.009 A 
ATOM     80  C   UNL     1      17.616  -7.179   2.495  1.00  0.00     0.009 A 
ATOM     81  C   UNL     1      17.107  -9.880   2.962  1.00  0.00     0.001 A 
ATOM     82  C   UNL     1      18.665  -8.098   2.484  1.00  0.00     0.001 A 
ATOM     83  C   UNL     1      18.412  -9.446   2.729  1.00  0.00     0.000 A 
ENDBRANCH  65  78
ENDBRANCH  39  40
ENDBRANCH  32  34
ENDBRANCH  31  32
ENDBRANCH  30  31
ENDBRANCH  29  30
ENDBRANCH  28  29
ENDBRANCH  27  28
ENDBRANCH  26  27
ENDBRANCH  25  26
ENDBRANCH   1  25
TORSDOF 23
