REMARK SMILES Cc1cc(NC(=O)c2ccc(Br)cc2N)ccc1C(=O)OCCOCCOCCOCCOC(=O)c1ccc(-c2c3nc(c(-c4ccccc4)c4ccc([nH]4)c(-c4ccccc4)c4nc(c(-c5ccccc5)c5ccc2[nH]5)C=C4)C=C3)cc1
REMARK SMILES IDX 26 1 25 2 24 3 23 4 22 5 21 6 19 7 20 8 18 9 1 10 2 11 3 12
REMARK SMILES IDX 4 13 17 14 16 15 5 16 6 17 7 19 8 20 9 21 14 22 10 23 13 24
REMARK SMILES IDX 11 25 12 26 15 27 27 30 28 31 29 32 30 33 31 34 32 35 33 36
REMARK SMILES IDX 34 37 35 38 36 39 37 40 83 41 38 42 82 43 39 44 40 45 41 46
REMARK SMILES IDX 76 47 42 48 81 49 75 50 77 51 43 52 80 53 74 54 73 55 44 57
REMARK SMILES IDX 66 58 51 59 65 60 52 61 55 62 64 63 78 64 53 65 54 66 63 68
REMARK SMILES IDX 79 69 56 70 45 71 46 72 50 73 47 74 49 75 48 76 67 77 68 78
REMARK SMILES IDX 72 79 69 80 71 81 70 82 57 83 58 84 62 85 59 86 61 87 60 88
REMARK H PARENT 5 18 15 28 15 29 77 56 55 67
REMARK Flexibility Score: inf
ROOT
ATOM      1  C   UNL     1      -0.250   1.452  -2.968  1.00  0.00     0.188 C 
ENDROOT
BRANCH   1   2
ATOM      2  C   UNL     1      -1.098   2.463  -2.170  1.00  0.00     0.188 C 
BRANCH   2   3
ATOM      3  O   UNL     1      -0.696   3.813  -2.021  1.00  0.00    -0.376 OA
BRANCH   3   4
ATOM      4  C   UNL     1       0.145   4.109  -0.911  1.00  0.00     0.202 C 
BRANCH   4   5
ATOM      5  C   UNL     1      -0.301   3.701   0.481  1.00  0.00     0.261 C 
BRANCH   5   6
ATOM      6  O   UNL     1      -0.017   2.317   0.629  1.00  0.00    -0.460 OA
BRANCH   6   7
ATOM      7  C   UNL     1      -0.930   1.643   1.337  1.00  0.00     0.338 C 
ATOM      8  O   UNL     1      -1.667   2.067   2.200  1.00  0.00    -0.246 OA
BRANCH   7   9
ATOM      9  C   UNL     1      -1.159   0.378   0.612  1.00  0.00     0.063 A 
ATOM     10  C   UNL     1       1.308  -0.226   0.120  1.00  0.00     0.045 C 
ATOM     11  C   UNL     1      -0.169  -0.465   0.077  1.00  0.00    -0.035 A 
ATOM     12  C   UNL     1      -0.581  -1.699  -0.419  1.00  0.00     0.030 A 
ATOM     13  C   UNL     1      -1.913  -2.077  -0.314  1.00  0.00     0.041 A 
ATOM     14  C   UNL     1      -2.522   0.091   0.423  1.00  0.00     0.018 A 
ATOM     15  C   UNL     1      -2.909  -1.138  -0.077  1.00  0.00     0.027 A 
BRANCH  13  16
ATOM     16  N   UNL     1      -2.267  -3.415  -0.184  1.00  0.00    -0.322 N 
ATOM     17  C   UNL     1      -1.565  -4.444   0.417  1.00  0.00     0.257 C 
ATOM     18  H   UNL     1      -3.137  -3.664  -0.572  1.00  0.00     0.170 HD
ATOM     19  O   UNL     1      -2.032  -5.581   0.311  1.00  0.00    -0.269 OA
BRANCH  17  20
ATOM     20  C   UNL     1      -0.291  -4.276   1.202  1.00  0.00     0.063 A 
ATOM     21  C   UNL     1       0.655  -5.293   0.964  1.00  0.00     0.017 A 
ATOM     22  C   UNL     1       0.005  -3.282   2.170  1.00  0.00     0.045 A 
ATOM     23  C   UNL     1       1.864  -5.346   1.660  1.00  0.00     0.016 A 
ATOM     24  C   UNL     1       1.243  -3.342   2.845  1.00  0.00     0.042 A 
ATOM     25  C   UNL     1       2.155  -4.365   2.596  1.00  0.00     0.020 A 
ATOM     26  Br  UNL     1       3.766  -4.450   3.581  1.00  0.00    -0.051 Br
BRANCH  22  27
ATOM     27  N   UNL     1      -0.900  -2.333   2.647  1.00  0.00    -0.398 N 
ATOM     28  H   UNL     1      -1.783  -2.238   2.222  1.00  0.00     0.156 HD
ATOM     29  H   UNL     1      -0.656  -1.759   3.408  1.00  0.00     0.156 HD
ENDBRANCH  22  27
ENDBRANCH  17  20
ENDBRANCH  13  16
ENDBRANCH   7   9
ENDBRANCH   6   7
ENDBRANCH   5   6
ENDBRANCH   4   5
ENDBRANCH   3   4
ENDBRANCH   2   3
ENDBRANCH   1   2
BRANCH   1  30
ATOM     30  O   UNL     1       1.067   1.120  -2.564  1.00  0.00    -0.377 OA
BRANCH  30  31
ATOM     31  C   UNL     1       2.151   1.928  -3.013  1.00  0.00     0.188 C 
BRANCH  31  32
ATOM     32  C   UNL     1       2.068   2.500  -4.421  1.00  0.00     0.188 C 
BRANCH  32  33
ATOM     33  O   UNL     1       1.121   3.565  -4.419  1.00  0.00    -0.376 OA
BRANCH  33  34
ATOM     34  C   UNL     1       0.410   3.772  -5.635  1.00  0.00     0.202 C 
BRANCH  34  35
ATOM     35  C   UNL     1       1.313   4.092  -6.830  1.00  0.00     0.261 C 
BRANCH  35  36
ATOM     36  O   UNL     1       1.986   5.346  -6.602  1.00  0.00    -0.460 OA
BRANCH  36  37
ATOM     37  C   UNL     1       3.290   5.247  -6.227  1.00  0.00     0.338 C 
ATOM     38  O   UNL     1       4.140   4.581  -6.796  1.00  0.00    -0.246 OA
BRANCH  37  39
ATOM     39  C   UNL     1       3.470   5.818  -4.861  1.00  0.00     0.060 A 
ATOM     40  C   UNL     1       4.688   5.644  -4.181  1.00  0.00     0.016 A 
ATOM     41  C   UNL     1       2.339   6.181  -4.147  1.00  0.00     0.016 A 
ATOM     42  C   UNL     1       4.715   5.627  -2.777  1.00  0.00     0.010 A 
ATOM     43  C   UNL     1       2.356   6.041  -2.776  1.00  0.00     0.010 A 
ATOM     44  C   UNL     1       3.520   5.706  -2.071  1.00  0.00    -0.014 A 
BRANCH  44  45
ATOM     45  C   UNL     1       3.327   5.328  -0.655  1.00  0.00     0.031 A 
ATOM     46  C   UNL     1       2.544   6.258   0.234  1.00  0.00     0.074 A 
ATOM     47  C   UNL     1       3.499   4.024  -0.298  1.00  0.00     0.049 A 
ATOM     48  N   UNL     1       2.159   5.981   1.430  1.00  0.00    -0.248 NA
ATOM     49  C   UNL     1       2.039   7.567  -0.189  1.00  0.00     0.031 C 
ATOM     50  C   UNL     1       2.910   3.331   0.851  1.00  0.00     0.029 A 
ATOM     51  N   UNL     1       4.203   2.986  -0.897  1.00  0.00    -0.354 N 
ATOM     52  C   UNL     1       1.128   6.830   1.782  1.00  0.00     0.074 A 
ATOM     53  C   UNL     1       1.140   7.848   0.765  1.00  0.00     0.031 C 
ATOM     54  C   UNL     1       3.403   2.092   0.979  1.00  0.00     0.029 A 
ATOM     55  C   UNL     1       4.515   2.027   0.074  1.00  0.00     0.049 A 
ATOM     56  H   UNL     1       4.442   2.933  -1.851  1.00  0.00     0.167 HD
ATOM     57  C   UNL     1       0.316   6.480   2.827  1.00  0.00     0.031 A 
ATOM     58  C   UNL     1       5.789   1.821   0.520  1.00  0.00     0.031 A 
ATOM     59  C   UNL     1       0.844   5.302   3.549  1.00  0.00     0.049 A 
ATOM     60  C   UNL     1       5.856   2.316   1.977  1.00  0.00     0.074 A 
ATOM     61  C   UNL     1       0.337   4.065   3.906  1.00  0.00     0.029 A 
ATOM     62  N   UNL     1       2.213   5.240   3.829  1.00  0.00    -0.354 N 
ATOM     63  N   UNL     1       5.154   3.338   2.434  1.00  0.00    -0.248 NA
ATOM     64  C   UNL     1       6.410   1.506   3.064  1.00  0.00     0.031 C 
ATOM     65  C   UNL     1       1.445   3.212   4.210  1.00  0.00     0.029 A 
ATOM     66  C   UNL     1       2.620   3.954   4.125  1.00  0.00     0.049 A 
ATOM     67  H   UNL     1       2.814   6.019   3.817  1.00  0.00     0.167 HD
ATOM     68  C   UNL     1       4.969   3.186   3.791  1.00  0.00     0.074 A 
ATOM     69  C   UNL     1       5.845   2.074   4.146  1.00  0.00     0.031 C 
ATOM     70  C   UNL     1       3.982   3.713   4.588  1.00  0.00     0.031 A 
BRANCH  57  71
ATOM     71  C   UNL     1      -1.059   7.079   3.122  1.00  0.00    -0.014 A 
ATOM     72  C   UNL     1      -1.778   6.647   4.257  1.00  0.00     0.009 A 
ATOM     73  C   UNL     1      -1.743   7.996   2.299  1.00  0.00     0.009 A 
ATOM     74  C   UNL     1      -3.079   7.093   4.551  1.00  0.00     0.001 A 
ATOM     75  C   UNL     1      -3.034   8.474   2.604  1.00  0.00     0.001 A 
ATOM     76  C   UNL     1      -3.705   8.017   3.729  1.00  0.00     0.000 A 
ENDBRANCH  57  71
BRANCH  58  77
ATOM     77  C   UNL     1       6.745   1.814  -0.635  1.00  0.00    -0.014 A 
ATOM     78  C   UNL     1       6.564   0.708  -1.509  1.00  0.00     0.009 A 
ATOM     79  C   UNL     1       7.197   3.016  -1.204  1.00  0.00     0.009 A 
ATOM     80  C   UNL     1       6.534   0.880  -2.900  1.00  0.00     0.001 A 
ATOM     81  C   UNL     1       7.212   3.166  -2.607  1.00  0.00     0.001 A 
ATOM     82  C   UNL     1       6.803   2.128  -3.447  1.00  0.00     0.000 A 
ENDBRANCH  58  77
BRANCH  70  83
ATOM     83  C   UNL     1       4.288   4.178   5.995  1.00  0.00    -0.014 A 
ATOM     84  C   UNL     1       5.592   4.282   6.487  1.00  0.00     0.009 A 
ATOM     85  C   UNL     1       3.260   4.768   6.772  1.00  0.00     0.009 A 
ATOM     86  C   UNL     1       5.856   4.933   7.694  1.00  0.00     0.001 A 
ATOM     87  C   UNL     1       3.527   5.464   7.949  1.00  0.00     0.001 A 
ATOM     88  C   UNL     1       4.830   5.539   8.413  1.00  0.00     0.000 A 
ENDBRANCH  70  83
ENDBRANCH  44  45
ENDBRANCH  37  39
ENDBRANCH  36  37
ENDBRANCH  35  36
ENDBRANCH  34  35
ENDBRANCH  33  34
ENDBRANCH  32  33
ENDBRANCH  31  32
ENDBRANCH  30  31
ENDBRANCH   1  30
TORSDOF 23
