REMARK SMILES Cc1c(NC(=O)c2ccc(-c3cccc(Cl)c3)o2)cccc1C(=O)OCCOCCOCCOCCOC(=O)c1ccc(-c2c3nc(c(-c4ccccc4)c4ccc([nH]4)c(-c4ccccc4)c4nc(c(-c5ccccc5)c5ccc2[nH]5)C=C4)C=C3)cc1
REMARK SMILES IDX 30 1 29 2 28 3 27 4 26 5 25 6 23 7 24 8 22 9 1 10 2 11 3 12
REMARK SMILES IDX 19 13 21 14 20 15 4 16 5 17 6 19 7 20 8 21 18 22 9 23 10 24
REMARK SMILES IDX 11 25 12 26 17 27 13 28 15 29 14 30 16 31 31 32 32 33 33 34
REMARK SMILES IDX 34 35 35 36 36 37 37 38 38 39 39 40 40 41 41 42 87 43 42 44
REMARK SMILES IDX 86 45 43 46 44 47 45 48 80 49 46 50 85 51 79 52 81 53 47 54
REMARK SMILES IDX 84 55 78 56 77 57 48 59 70 60 55 61 69 62 56 63 59 64 68 65
REMARK SMILES IDX 82 66 57 67 58 68 67 70 83 71 60 72 49 73 50 74 54 75 51 76
REMARK SMILES IDX 53 77 52 78 71 79 72 80 76 81 73 82 75 83 74 84 61 85 62 86
REMARK SMILES IDX 66 87 63 88 65 89 64 90
REMARK H PARENT 4 18 81 58 59 69
REMARK Flexibility Score: inf
ROOT
ATOM      1  C   UNL     1      -0.210   1.407  -2.923  1.00  0.00     0.188 C 
ENDROOT
BRANCH   1   2
ATOM      2  C   UNL     1      -1.051   2.416  -2.120  1.00  0.00     0.188 C 
BRANCH   2   3
ATOM      3  O   UNL     1      -0.686   3.783  -2.043  1.00  0.00    -0.376 OA
BRANCH   3   4
ATOM      4  C   UNL     1       0.197   4.153  -0.992  1.00  0.00     0.202 C 
BRANCH   4   5
ATOM      5  C   UNL     1      -0.200   3.837   0.431  1.00  0.00     0.261 C 
BRANCH   5   6
ATOM      6  O   UNL     1       0.015   2.453   0.645  1.00  0.00    -0.460 OA
BRANCH   6   7
ATOM      7  C   UNL     1      -0.931   1.911   1.414  1.00  0.00     0.338 C 
ATOM      8  O   UNL     1      -1.681   2.485   2.176  1.00  0.00    -0.246 OA
BRANCH   7   9
ATOM      9  C   UNL     1      -1.200   0.548   0.940  1.00  0.00     0.065 A 
ATOM     10  C   UNL     1       1.172  -0.239   0.303  1.00  0.00     0.047 C 
ATOM     11  C   UNL     1      -0.272  -0.474   0.646  1.00  0.00    -0.013 A 
ATOM     12  C   UNL     1      -0.774  -1.780   0.640  1.00  0.00     0.045 A 
ATOM     13  C   UNL     1      -2.138  -1.962   0.896  1.00  0.00     0.026 A 
ATOM     14  C   UNL     1      -2.583   0.336   0.848  1.00  0.00     0.016 A 
ATOM     15  C   UNL     1      -3.064  -0.940   0.832  1.00  0.00     0.003 A 
BRANCH  12  16
ATOM     16  N   UNL     1       0.091  -2.878   0.412  1.00  0.00    -0.319 N 
ATOM     17  C   UNL     1      -0.201  -4.172  -0.000  1.00  0.00     0.291 C 
ATOM     18  H   UNL     1       1.046  -2.697   0.570  1.00  0.00     0.170 HD
ATOM     19  O   UNL     1       0.706  -5.004  -0.023  1.00  0.00    -0.265 OA
BRANCH  17  20
ATOM     20  C   UNL     1      -1.545  -4.443  -0.459  1.00  0.00     0.192 A 
ATOM     21  C   UNL     1      -2.243  -3.949  -1.548  1.00  0.00     0.057 A 
ATOM     22  O   UNL     1      -2.412  -5.063   0.404  1.00  0.00    -0.451 OA
ATOM     23  C   UNL     1      -3.616  -4.177  -1.278  1.00  0.00     0.052 A 
ATOM     24  C   UNL     1      -3.674  -4.830  -0.062  1.00  0.00     0.135 A 
BRANCH  24  25
ATOM     25  C   UNL     1      -4.768  -5.201   0.820  1.00  0.00     0.019 A 
ATOM     26  C   UNL     1      -5.902  -5.811   0.275  1.00  0.00     0.012 A 
ATOM     27  C   UNL     1      -4.741  -4.914   2.195  1.00  0.00     0.032 A 
ATOM     28  C   UNL     1      -6.981  -6.161   1.085  1.00  0.00     0.002 A 
ATOM     29  C   UNL     1      -5.832  -5.253   2.999  1.00  0.00     0.041 A 
ATOM     30  C   UNL     1      -6.947  -5.882   2.450  1.00  0.00     0.020 A 
ATOM     31  Cl  UNL     1      -5.812  -4.883   4.681  1.00  0.00    -0.084 Cl
ENDBRANCH  24  25
ENDBRANCH  17  20
ENDBRANCH  12  16
ENDBRANCH   7   9
ENDBRANCH   6   7
ENDBRANCH   5   6
ENDBRANCH   4   5
ENDBRANCH   3   4
ENDBRANCH   2   3
ENDBRANCH   1   2
BRANCH   1  32
ATOM     32  O   UNL     1       1.112   1.084  -2.527  1.00  0.00    -0.377 OA
BRANCH  32  33
ATOM     33  C   UNL     1       2.186   1.895  -2.995  1.00  0.00     0.188 C 
BRANCH  33  34
ATOM     34  C   UNL     1       2.089   2.482  -4.396  1.00  0.00     0.188 C 
BRANCH  34  35
ATOM     35  O   UNL     1       1.134   3.541  -4.389  1.00  0.00    -0.376 OA
BRANCH  35  36
ATOM     36  C   UNL     1       0.415   3.740  -5.603  1.00  0.00     0.202 C 
BRANCH  36  37
ATOM     37  C   UNL     1       1.308   4.059  -6.808  1.00  0.00     0.261 C 
BRANCH  37  38
ATOM     38  O   UNL     1       1.982   5.314  -6.590  1.00  0.00    -0.460 OA
BRANCH  38  39
ATOM     39  C   UNL     1       3.290   5.219  -6.230  1.00  0.00     0.338 C 
ATOM     40  O   UNL     1       4.134   4.545  -6.798  1.00  0.00    -0.246 OA
BRANCH  39  41
ATOM     41  C   UNL     1       3.485   5.806  -4.873  1.00  0.00     0.060 A 
ATOM     42  C   UNL     1       4.705   5.638  -4.197  1.00  0.00     0.016 A 
ATOM     43  C   UNL     1       2.361   6.187  -4.158  1.00  0.00     0.016 A 
ATOM     44  C   UNL     1       4.740   5.639  -2.792  1.00  0.00     0.010 A 
ATOM     45  C   UNL     1       2.389   6.077  -2.785  1.00  0.00     0.010 A 
ATOM     46  C   UNL     1       3.551   5.735  -2.079  1.00  0.00    -0.014 A 
BRANCH  46  47
ATOM     47  C   UNL     1       3.363   5.362  -0.657  1.00  0.00     0.031 A 
ATOM     48  C   UNL     1       2.584   6.295   0.236  1.00  0.00     0.074 A 
ATOM     49  C   UNL     1       3.531   4.054  -0.306  1.00  0.00     0.049 A 
ATOM     50  N   UNL     1       2.228   6.041   1.447  1.00  0.00    -0.248 NA
ATOM     51  C   UNL     1       2.054   7.591  -0.200  1.00  0.00     0.031 C 
ATOM     52  C   UNL     1       2.942   3.353   0.838  1.00  0.00     0.029 A 
ATOM     53  N   UNL     1       4.234   3.019  -0.913  1.00  0.00    -0.354 N 
ATOM     54  C   UNL     1       1.173   6.870   1.789  1.00  0.00     0.074 A 
ATOM     55  C   UNL     1       1.162   7.875   0.759  1.00  0.00     0.031 C 
ATOM     56  C   UNL     1       3.416   2.104   0.945  1.00  0.00     0.029 A 
ATOM     57  C   UNL     1       4.534   2.044   0.047  1.00  0.00     0.049 A 
ATOM     58  H   UNL     1       4.482   2.978  -1.865  1.00  0.00     0.167 HD
ATOM     59  C   UNL     1       0.354   6.514   2.829  1.00  0.00     0.031 A 
ATOM     60  C   UNL     1       5.804   1.830   0.503  1.00  0.00     0.031 A 
ATOM     61  C   UNL     1       0.878   5.333   3.547  1.00  0.00     0.049 A 
ATOM     62  C   UNL     1       5.867   2.317   1.964  1.00  0.00     0.074 A 
ATOM     63  C   UNL     1       0.360   4.105   3.918  1.00  0.00     0.029 A 
ATOM     64  N   UNL     1       2.245   5.255   3.821  1.00  0.00    -0.354 N 
ATOM     65  N   UNL     1       5.164   3.337   2.425  1.00  0.00    -0.248 NA
ATOM     66  C   UNL     1       6.421   1.504   3.050  1.00  0.00     0.031 C 
ATOM     67  C   UNL     1       1.458   3.235   4.207  1.00  0.00     0.029 A 
ATOM     68  C   UNL     1       2.639   3.965   4.116  1.00  0.00     0.049 A 
ATOM     69  H   UNL     1       2.856   6.028   3.805  1.00  0.00     0.167 HD
ATOM     70  C   UNL     1       4.981   3.183   3.781  1.00  0.00     0.074 A 
ATOM     71  C   UNL     1       5.856   2.070   4.134  1.00  0.00     0.031 C 
ATOM     72  C   UNL     1       3.997   3.712   4.580  1.00  0.00     0.031 A 
BRANCH  59  73
ATOM     73  C   UNL     1      -1.033   7.100   3.115  1.00  0.00    -0.014 A 
ATOM     74  C   UNL     1      -1.754   6.663   4.249  1.00  0.00     0.009 A 
ATOM     75  C   UNL     1      -1.724   8.012   2.293  1.00  0.00     0.009 A 
ATOM     76  C   UNL     1      -3.061   7.097   4.539  1.00  0.00     0.001 A 
ATOM     77  C   UNL     1      -3.020   8.479   2.595  1.00  0.00     0.001 A 
ATOM     78  C   UNL     1      -3.693   8.016   3.716  1.00  0.00     0.000 A 
ENDBRANCH  59  73
BRANCH  60  79
ATOM     79  C   UNL     1       6.768   1.818  -0.647  1.00  0.00    -0.014 A 
ATOM     80  C   UNL     1       6.587   0.711  -1.519  1.00  0.00     0.009 A 
ATOM     81  C   UNL     1       7.220   3.019  -1.219  1.00  0.00     0.009 A 
ATOM     82  C   UNL     1       6.549   0.882  -2.910  1.00  0.00     0.001 A 
ATOM     83  C   UNL     1       7.227   3.169  -2.622  1.00  0.00     0.001 A 
ATOM     84  C   UNL     1       6.811   2.131  -3.459  1.00  0.00     0.000 A 
ENDBRANCH  60  79
BRANCH  72  85
ATOM     85  C   UNL     1       4.298   4.172   5.990  1.00  0.00    -0.014 A 
ATOM     86  C   UNL     1       5.601   4.276   6.484  1.00  0.00     0.009 A 
ATOM     87  C   UNL     1       3.269   4.763   6.766  1.00  0.00     0.009 A 
ATOM     88  C   UNL     1       5.863   4.927   7.692  1.00  0.00     0.001 A 
ATOM     89  C   UNL     1       3.533   5.459   7.942  1.00  0.00     0.001 A 
ATOM     90  C   UNL     1       4.835   5.534   8.409  1.00  0.00     0.000 A 
ENDBRANCH  72  85
ENDBRANCH  46  47
ENDBRANCH  39  41
ENDBRANCH  38  39
ENDBRANCH  37  38
ENDBRANCH  36  37
ENDBRANCH  35  36
ENDBRANCH  34  35
ENDBRANCH  33  34
ENDBRANCH  32  33
ENDBRANCH   1  32
TORSDOF 23
