REMARK SMILES C#CCOc1ccccc1/C=C(\C#N)C(=O)OCCOCCOCCOCCOC(=O)c1ccc(-c2c3nc(c(-c4ccccc4)c4ccc([nH]4)c(-c4ccccc4)c4nc(c(-c5ccccc5)c5ccc2[nH]5)C=C4)C=C3)cc1
REMARK SMILES IDX 22 1 21 2 20 3 19 4 18 5 17 6 15 7 16 8 12 9 11 10 10 11
REMARK SMILES IDX 5 12 6 13 7 14 9 15 8 16 4 17 3 18 2 19 1 20 13 21 14 22
REMARK SMILES IDX 23 23 24 24 25 25 26 26 27 27 28 28 29 29 30 30 31 31 32 32
REMARK SMILES IDX 33 33 79 34 34 35 78 36 35 37 36 38 37 39 72 40 38 41 77 42
REMARK SMILES IDX 71 43 73 44 39 45 76 46 70 47 69 48 40 50 62 51 47 52 61 53
REMARK SMILES IDX 48 54 51 55 60 56 74 57 49 58 50 59 59 61 75 62 52 63 41 64
REMARK SMILES IDX 42 65 46 66 43 67 45 68 44 69 63 70 64 71 68 72 65 73 67 74
REMARK SMILES IDX 66 75 53 76 54 77 58 78 55 79 57 80 56 81
REMARK H PARENT 73 49 51 60
REMARK Flexibility Score: inf
ROOT
ATOM      1  C   UNL     1       2.205  -1.069   3.501  1.00  0.00     0.188 C 
ENDROOT
BRANCH   1   2
ATOM      2  C   UNL     1       2.389  -2.089   2.346  1.00  0.00     0.188 C 
BRANCH   2   3
ATOM      3  O   UNL     1       3.715  -2.537   2.076  1.00  0.00    -0.376 OA
BRANCH   3   4
ATOM      4  C   UNL     1       4.378  -1.948   0.962  1.00  0.00     0.202 C 
BRANCH   4   5
ATOM      5  C   UNL     1       4.792  -0.491   1.177  1.00  0.00     0.261 C 
BRANCH   5   6
ATOM      6  O   UNL     1       3.655   0.261   1.621  1.00  0.00    -0.459 OA
BRANCH   6   7
ATOM      7  C   UNL     1       3.043   1.032   0.713  1.00  0.00     0.348 C 
ATOM      8  O   UNL     1       3.506   1.349  -0.377  1.00  0.00    -0.245 OA
BRANCH   7   9
ATOM      9  C   UNL     1       1.617   1.448   1.165  1.00  0.00     0.138 C 
ATOM     10  C   UNL     1       0.392   1.440   1.845  1.00  0.00     0.039 C 
BRANCH  10  11
ATOM     11  C   UNL     1      -0.747   2.442   1.548  1.00  0.00     0.018 A 
ATOM     12  C   UNL     1      -1.823   2.290   0.624  1.00  0.00     0.128 A 
ATOM     13  C   UNL     1      -2.712   3.362   0.382  1.00  0.00     0.047 A 
ATOM     14  C   UNL     1      -2.573   4.590   1.010  1.00  0.00     0.004 A 
ATOM     15  C   UNL     1      -0.684   3.687   2.217  1.00  0.00     0.012 A 
ATOM     16  C   UNL     1      -1.553   4.752   1.929  1.00  0.00     0.001 A 
BRANCH  12  17
ATOM     17  O   UNL     1      -2.188   1.257  -0.204  1.00  0.00    -0.480 OA
BRANCH  17  18
ATOM     18  C   UNL     1      -1.752  -0.067   0.020  1.00  0.00     0.318 C 
BRANCH  18  19
ATOM     19  C   UNL     1      -0.232  -0.067   0.020  1.00  0.00    -0.065 C 
ATOM     20  C   UNL     1       1.072  -0.067   0.020  1.00  0.00     0.007 C 
ENDBRANCH  18  19
ENDBRANCH  17  18
ENDBRANCH  12  17
ENDBRANCH  10  11
BRANCH   9  21
ATOM     21  C   UNL     1       2.110   2.786   1.693  1.00  0.00     0.107 C 
ATOM     22  N   UNL     1       2.519   3.896   2.130  1.00  0.00    -0.192 NA
ENDBRANCH   9  21
ENDBRANCH   7   9
ENDBRANCH   6   7
ENDBRANCH   5   6
ENDBRANCH   4   5
ENDBRANCH   3   4
ENDBRANCH   2   3
ENDBRANCH   1   2
BRANCH   1  23
ATOM     23  O   UNL     1       3.242  -0.812   4.431  1.00  0.00    -0.377 OA
BRANCH  23  24
ATOM     24  C   UNL     1       4.181  -1.841   4.663  1.00  0.00     0.188 C 
BRANCH  24  25
ATOM     25  C   UNL     1       3.615  -3.246   4.943  1.00  0.00     0.188 C 
BRANCH  25  26
ATOM     26  O   UNL     1       2.197  -3.341   4.864  1.00  0.00    -0.376 OA
BRANCH  26  27
ATOM     27  C   UNL     1       1.463  -3.321   6.079  1.00  0.00     0.202 C 
BRANCH  27  28
ATOM     28  C   UNL     1       1.486  -2.025   6.907  1.00  0.00     0.261 C 
BRANCH  28  29
ATOM     29  O   UNL     1       2.778  -1.555   7.315  1.00  0.00    -0.460 OA
BRANCH  29  30
ATOM     30  C   UNL     1       3.550  -2.382   8.050  1.00  0.00     0.338 C 
ATOM     31  O   UNL     1       3.261  -3.489   8.471  1.00  0.00    -0.246 OA
BRANCH  30  32
ATOM     32  C   UNL     1       4.909  -1.805   8.068  1.00  0.00     0.060 A 
ATOM     33  C   UNL     1       5.973  -2.565   7.559  1.00  0.00     0.016 A 
ATOM     34  C   UNL     1       5.118  -0.496   8.510  1.00  0.00     0.016 A 
ATOM     35  C   UNL     1       7.253  -2.019   7.497  1.00  0.00     0.010 A 
ATOM     36  C   UNL     1       6.410   0.031   8.499  1.00  0.00     0.010 A 
ATOM     37  C   UNL     1       7.484  -0.741   8.021  1.00  0.00    -0.014 A 
BRANCH  37  38
ATOM     38  C   UNL     1       8.872  -0.342   8.342  1.00  0.00     0.031 A 
ATOM     39  C   UNL     1       9.395  -0.724   9.701  1.00  0.00     0.074 A 
ATOM     40  C   UNL     1       9.652   0.316   7.468  1.00  0.00     0.049 A 
ATOM     41  N   UNL     1      10.555  -0.471  10.247  1.00  0.00    -0.248 NA
ATOM     42  C   UNL     1       8.481  -1.500  10.561  1.00  0.00     0.031 C 
ATOM     43  C   UNL     1       9.276   0.698   6.108  1.00  0.00     0.029 A 
ATOM     44  N   UNL     1      10.934   0.785   7.610  1.00  0.00    -0.354 N 
ATOM     45  C   UNL     1      10.504  -1.046  11.510  1.00  0.00     0.074 A 
ATOM     46  C   UNL     1       9.200  -1.648  11.661  1.00  0.00     0.031 C 
ATOM     47  C   UNL     1      10.304   1.362   5.545  1.00  0.00     0.029 A 
ATOM     48  C   UNL     1      11.392   1.476   6.514  1.00  0.00     0.049 A 
ATOM     49  H   UNL     1      11.473   0.641   8.420  1.00  0.00     0.167 HD
ATOM     50  C   UNL     1      11.461  -1.070  12.464  1.00  0.00     0.031 A 
ATOM     51  C   UNL     1      12.550   2.143   6.335  1.00  0.00     0.031 A 
ATOM     52  C   UNL     1      12.751  -0.458  12.324  1.00  0.00     0.049 A 
ATOM     53  C   UNL     1      13.567   2.168   7.449  1.00  0.00     0.074 A 
ATOM     54  C   UNL     1      13.797  -0.441  13.229  1.00  0.00     0.029 A 
ATOM     55  N   UNL     1      13.165   0.256  11.212  1.00  0.00    -0.354 N 
ATOM     56  N   UNL     1      13.528   1.582   8.622  1.00  0.00    -0.248 NA
ATOM     57  C   UNL     1      14.794   2.944   7.209  1.00  0.00     0.031 C 
ATOM     58  C   UNL     1      14.825   0.334  12.686  1.00  0.00     0.029 A 
ATOM     59  C   UNL     1      14.441   0.745  11.419  1.00  0.00     0.049 A 
ATOM     60  H   UNL     1      12.630   0.395  10.396  1.00  0.00     0.167 HD
ATOM     61  C   UNL     1      14.735   1.889   9.241  1.00  0.00     0.074 A 
ATOM     62  C   UNL     1      15.491   2.699   8.310  1.00  0.00     0.031 C 
ATOM     63  C   UNL     1      15.181   1.535  10.471  1.00  0.00     0.031 A 
BRANCH  50  64
ATOM     64  C   UNL     1      11.131  -1.746  13.762  1.00  0.00    -0.014 A 
ATOM     65  C   UNL     1      11.062  -3.144  13.859  1.00  0.00     0.009 A 
ATOM     66  C   UNL     1      10.935  -0.970  14.914  1.00  0.00     0.009 A 
ATOM     67  C   UNL     1      10.788  -3.751  15.086  1.00  0.00     0.001 A 
ATOM     68  C   UNL     1      10.686  -1.580  16.143  1.00  0.00     0.001 A 
ATOM     69  C   UNL     1      10.609  -2.969  16.227  1.00  0.00     0.000 A 
ENDBRANCH  50  64
BRANCH  51  70
ATOM     70  C   UNL     1      12.811   2.886   5.072  1.00  0.00    -0.014 A 
ATOM     71  C   UNL     1      13.843   2.494   4.205  1.00  0.00     0.009 A 
ATOM     72  C   UNL     1      12.073   4.040   4.763  1.00  0.00     0.009 A 
ATOM     73  C   UNL     1      14.158   3.264   3.082  1.00  0.00     0.001 A 
ATOM     74  C   UNL     1      12.367   4.790   3.622  1.00  0.00     0.001 A 
ATOM     75  C   UNL     1      13.419   4.410   2.791  1.00  0.00     0.000 A 
ENDBRANCH  51  70
BRANCH  63  76
ATOM     76  C   UNL     1      16.565   1.972  10.862  1.00  0.00    -0.014 A 
ATOM     77  C   UNL     1      16.851   3.311  11.168  1.00  0.00     0.009 A 
ATOM     78  C   UNL     1      17.584   1.013  10.980  1.00  0.00     0.009 A 
ATOM     79  C   UNL     1      18.140   3.685  11.552  1.00  0.00     0.001 A 
ATOM     80  C   UNL     1      18.862   1.385  11.395  1.00  0.00     0.001 A 
ATOM     81  C   UNL     1      19.142   2.722  11.671  1.00  0.00     0.000 A 
ENDBRANCH  63  76
ENDBRANCH  37  38
ENDBRANCH  30  32
ENDBRANCH  29  30
ENDBRANCH  28  29
ENDBRANCH  27  28
ENDBRANCH  26  27
ENDBRANCH  25  26
ENDBRANCH  24  25
ENDBRANCH  23  24
ENDBRANCH   1  23
TORSDOF 25
