REMARK SMILES O=C(OCCOCCOCCOCCOC(=O)c1cncc(Nc2cccnc2)n1)c1ccc(-c2c3nc(c(-c4ccccc4)c4ccc([nH]4)c(-c4ccccc4)c4nc(c(-c5ccccc5)c5ccc2[nH]5)C=C4)C=C3)cc1
REMARK SMILES IDX 9 1 8 2 7 3 6 4 5 5 4 6 3 7 2 8 1 9 31 10 32 11 78 12 33 13
REMARK SMILES IDX 77 14 34 15 35 16 36 17 71 18 37 19 76 20 70 21 72 22 38 23
REMARK SMILES IDX 75 24 69 25 68 26 39 28 61 29 46 30 60 31 47 32 50 33 59 34
REMARK SMILES IDX 73 35 48 36 49 37 58 39 74 40 51 41 40 42 41 43 45 44 42 45
REMARK SMILES IDX 44 46 43 47 62 48 63 49 67 50 64 51 66 52 65 53 52 54 53 55
REMARK SMILES IDX 57 56 54 57 56 58 55 59 10 60 11 61 12 62 13 63 14 64 15 65
REMARK SMILES IDX 16 66 17 67 18 68 19 69 30 70 20 71 22 72 21 73 23 74 24 76
REMARK SMILES IDX 25 77 29 78 26 79 28 80 27 81
REMARK H PARENT 72 27 50 38 23 75
REMARK Flexibility Score: inf
ROOT
ATOM      1  O   UNL     1       2.641  -0.843  -3.917  1.00  0.00    -0.377 OA
ENDROOT
BRANCH   1   2
ATOM      2  C   UNL     1       1.934  -0.306  -2.796  1.00  0.00     0.188 C 
BRANCH   2   3
ATOM      3  C   UNL     1       2.355  -0.858  -1.433  1.00  0.00     0.188 C 
BRANCH   3   4
ATOM      4  O   UNL     1       3.664  -0.399  -1.076  1.00  0.00    -0.376 OA
BRANCH   4   5
ATOM      5  C   UNL     1       4.478  -1.355  -0.395  1.00  0.00     0.202 C 
BRANCH   5   6
ATOM      6  C   UNL     1       4.223  -1.444   1.111  1.00  0.00     0.261 C 
BRANCH   6   7
ATOM      7  O   UNL     1       2.841  -1.245   1.443  1.00  0.00    -0.460 OA
BRANCH   7   8
ATOM      8  C   UNL     1       2.223  -0.081   1.766  1.00  0.00     0.338 C 
ATOM      9  O   UNL     1       1.030  -0.117   2.064  1.00  0.00    -0.246 OA
BRANCH   8  10
ATOM     10  C   UNL     1       2.911   1.248   1.822  1.00  0.00     0.060 A 
ATOM     11  C   UNL     1       4.060   1.601   1.112  1.00  0.00     0.016 A 
ATOM     12  C   UNL     1       2.318   2.233   2.633  1.00  0.00     0.016 A 
ATOM     13  C   UNL     1       4.674   2.833   1.283  1.00  0.00     0.010 A 
ATOM     14  C   UNL     1       2.908   3.491   2.788  1.00  0.00     0.010 A 
ATOM     15  C   UNL     1       4.122   3.767   2.152  1.00  0.00    -0.014 A 
BRANCH  15  16
ATOM     16  C   UNL     1       4.969   4.904   2.546  1.00  0.00     0.031 A 
ATOM     17  C   UNL     1       5.675   4.812   3.867  1.00  0.00     0.074 A 
ATOM     18  C   UNL     1       5.236   5.888   1.671  1.00  0.00     0.049 A 
ATOM     19  N   UNL     1       6.473   5.667   4.445  1.00  0.00    -0.248 NA
ATOM     20  C   UNL     1       5.464   3.570   4.634  1.00  0.00     0.031 C 
ATOM     21  C   UNL     1       4.723   5.962   0.301  1.00  0.00     0.029 A 
ATOM     22  N   UNL     1       6.045   6.984   1.787  1.00  0.00    -0.354 N 
ATOM     23  C   UNL     1       6.822   5.086   5.658  1.00  0.00     0.074 A 
ATOM     24  C   UNL     1       6.155   3.808   5.735  1.00  0.00     0.031 C 
ATOM     25  C   UNL     1       5.260   7.033  -0.308  1.00  0.00     0.029 A 
ATOM     26  C   UNL     1       6.096   7.750   0.649  1.00  0.00     0.049 A 
ATOM     27  H   UNL     1       6.543   7.203   2.608  1.00  0.00     0.167 HD
ATOM     28  C   UNL     1       7.620   5.588   6.628  1.00  0.00     0.031 A 
ATOM     29  C   UNL     1       6.732   8.915   0.427  1.00  0.00     0.031 A 
ATOM     30  C   UNL     1       8.264   6.867   6.525  1.00  0.00     0.049 A 
ATOM     31  C   UNL     1       7.527   9.507   1.560  1.00  0.00     0.074 A 
ATOM     32  C   UNL     1       9.034   7.531   7.459  1.00  0.00     0.029 A 
ATOM     33  N   UNL     1       8.207   7.674   5.396  1.00  0.00    -0.354 N 
ATOM     34  N   UNL     1       7.778   9.002   2.745  1.00  0.00    -0.248 NA
ATOM     35  C   UNL     1       8.111  10.834   1.331  1.00  0.00     0.031 C 
ATOM     36  C   UNL     1       9.402   8.766   6.911  1.00  0.00     0.029 A 
ATOM     37  C   UNL     1       8.912   8.842   5.614  1.00  0.00     0.049 A 
ATOM     38  H   UNL     1       7.733   7.448   4.563  1.00  0.00     0.167 HD
ATOM     39  C   UNL     1       8.566   9.938   3.399  1.00  0.00     0.074 A 
ATOM     40  C   UNL     1       8.764  11.034   2.469  1.00  0.00     0.031 C 
ATOM     41  C   UNL     1       9.082   9.903   4.653  1.00  0.00     0.031 A 
BRANCH  28  42
ATOM     42  C   UNL     1       7.725   4.787   7.894  1.00  0.00    -0.014 A 
ATOM     43  C   UNL     1       8.422   3.569   7.950  1.00  0.00     0.009 A 
ATOM     44  C   UNL     1       7.036   5.226   9.036  1.00  0.00     0.009 A 
ATOM     45  C   UNL     1       8.380   2.783   9.105  1.00  0.00     0.001 A 
ATOM     46  C   UNL     1       7.020   4.452  10.198  1.00  0.00     0.001 A 
ATOM     47  C   UNL     1       7.678   3.224  10.226  1.00  0.00     0.000 A 
ENDBRANCH  28  42
BRANCH  29  48
ATOM     48  C   UNL     1       6.606   9.606  -0.884  1.00  0.00    -0.014 A 
ATOM     49  C   UNL     1       7.716   9.766  -1.726  1.00  0.00     0.009 A 
ATOM     50  C   UNL     1       5.364  10.113  -1.303  1.00  0.00     0.009 A 
ATOM     51  C   UNL     1       7.588  10.430  -2.951  1.00  0.00     0.001 A 
ATOM     52  C   UNL     1       5.232  10.749  -2.539  1.00  0.00     0.001 A 
ATOM     53  C   UNL     1       6.346  10.915  -3.359  1.00  0.00     0.000 A 
ENDBRANCH  29  48
BRANCH  41  54
ATOM     54  C   UNL     1       9.942  11.062   5.062  1.00  0.00    -0.014 A 
ATOM     55  C   UNL     1       9.383  12.312   5.368  1.00  0.00     0.009 A 
ATOM     56  C   UNL     1      11.327  10.879   5.188  1.00  0.00     0.009 A 
ATOM     57  C   UNL     1      10.205  13.368   5.763  1.00  0.00     0.001 A 
ATOM     58  C   UNL     1      12.141  11.928   5.612  1.00  0.00     0.001 A 
ATOM     59  C   UNL     1      11.581  13.174   5.889  1.00  0.00     0.000 A 
ENDBRANCH  41  54
ENDBRANCH  15  16
ENDBRANCH   8  10
ENDBRANCH   7   8
ENDBRANCH   6   7
ENDBRANCH   5   6
ENDBRANCH   4   5
ENDBRANCH   3   4
ENDBRANCH   2   3
ENDBRANCH   1   2
BRANCH   1  60
ATOM     60  C   UNL     1       4.060  -0.906  -3.800  1.00  0.00     0.188 C 
BRANCH  60  61
ATOM     61  C   UNL     1       4.838   0.421  -3.683  1.00  0.00     0.188 C 
BRANCH  61  62
ATOM     62  O   UNL     1       4.005   1.532  -3.397  1.00  0.00    -0.376 OA
BRANCH  62  63
ATOM     63  C   UNL     1       3.794   2.469  -4.444  1.00  0.00     0.202 C 
BRANCH  63  64
ATOM     64  C   UNL     1       3.191   2.002  -5.784  1.00  0.00     0.261 C 
BRANCH  64  65
ATOM     65  O   UNL     1       3.597   0.718  -6.269  1.00  0.00    -0.458 OA
BRANCH  65  66
ATOM     66  C   UNL     1       4.761   0.608  -6.956  1.00  0.00     0.358 C 
ATOM     67  O   UNL     1       5.525   1.513  -7.242  1.00  0.00    -0.244 OA
BRANCH  66  68
ATOM     68  C   UNL     1       4.999  -0.844  -7.148  1.00  0.00     0.169 A 
ATOM     69  C   UNL     1       4.038  -1.611  -7.788  1.00  0.00     0.147 A 
ATOM     70  N   UNL     1       6.078  -1.389  -6.505  1.00  0.00    -0.220 NA
ATOM     71  N   UNL     1       4.117  -2.961  -7.845  1.00  0.00    -0.258 NA
ATOM     72  C   UNL     1       6.145  -2.741  -6.510  1.00  0.00     0.149 A 
ATOM     73  C   UNL     1       5.174  -3.498  -7.183  1.00  0.00     0.158 A 
BRANCH  72  74
ATOM     74  N   UNL     1       7.159  -3.346  -5.759  1.00  0.00    -0.338 N 
ATOM     75  H   UNL     1       7.532  -2.821  -5.015  1.00  0.00     0.168 HD
BRANCH  74  76
ATOM     76  C   UNL     1       7.698  -4.622  -5.959  1.00  0.00     0.058 A 
ATOM     77  C   UNL     1       8.300  -4.959  -7.172  1.00  0.00     0.029 A 
ATOM     78  C   UNL     1       7.727  -5.583  -4.952  1.00  0.00     0.137 A 
ATOM     79  C   UNL     1       8.823  -6.235  -7.361  1.00  0.00     0.022 A 
ATOM     80  N   UNL     1       8.225  -6.835  -5.104  1.00  0.00    -0.263 NA
ATOM     81  C   UNL     1       8.750  -7.135  -6.312  1.00  0.00     0.111 A 
ENDBRANCH  74  76
ENDBRANCH  72  74
ENDBRANCH  66  68
ENDBRANCH  65  66
ENDBRANCH  64  65
ENDBRANCH  63  64
ENDBRANCH  62  63
ENDBRANCH  61  62
ENDBRANCH  60  61
ENDBRANCH   1  60
TORSDOF 22
