REMARK SMILES Cc1ccn2c([C@@H]3CCCC[C@@H]3C(=O)OCCOCCOCCOCCOC(=O)c3ccc(-c4c5nc(c(-c6ccccc6)c6ccc([nH]6)c(-c6ccccc6)c6nc(c(-c7ccccc7)c7ccc4[nH]7)C=C6)C=C5)cc3)nnc2c1
REMARK SMILES IDX 22 1 21 2 20 3 19 4 18 5 17 6 16 7 15 8 13 9 14 10 12 11
REMARK SMILES IDX 7 12 8 13 9 14 11 15 10 16 6 17 1 18 2 19 3 20 81 21 4 22
REMARK SMILES IDX 80 23 5 24 79 25 78 26 23 27 24 28 25 29 26 30 27 31 28 32
REMARK SMILES IDX 29 33 30 34 31 35 77 36 32 37 76 38 33 39 34 40 35 41 70 42
REMARK SMILES IDX 36 43 75 44 69 45 71 46 37 47 74 48 68 49 67 50 38 52 60 53
REMARK SMILES IDX 45 54 59 55 46 56 49 57 58 58 72 59 47 60 48 61 57 63 73 64
REMARK SMILES IDX 50 65 39 66 40 67 44 68 41 69 43 70 42 71 61 72 62 73 66 74
REMARK SMILES IDX 63 75 65 76 64 77 51 78 52 79 56 80 53 81 55 82 54 83
REMARK H PARENT 71 51 49 62
REMARK Flexibility Score: inf
ROOT
ATOM      1  C   UNL     1       3.658  -2.917  -3.566  1.00  0.00     0.188 C 
ENDROOT
BRANCH   1   2
ATOM      2  O   UNL     1       2.464  -3.472  -4.103  1.00  0.00    -0.377 OA
BRANCH   2   3
ATOM      3  C   UNL     1       1.534  -3.837  -3.103  1.00  0.00     0.188 C 
BRANCH   3   4
ATOM      4  C   UNL     1       2.225  -4.633  -2.019  1.00  0.00     0.188 C 
BRANCH   4   5
ATOM      5  O   UNL     1       3.064  -3.892  -1.149  1.00  0.00    -0.376 OA
BRANCH   5   6
ATOM      6  C   UNL     1       3.914  -4.605  -0.255  1.00  0.00     0.202 C 
BRANCH   6   7
ATOM      7  C   UNL     1       4.307  -6.060  -0.562  1.00  0.00     0.261 C 
BRANCH   7   8
ATOM      8  O   UNL     1       3.235  -6.936  -0.968  1.00  0.00    -0.463 OA
BRANCH   8   9
ATOM      9  C   UNL     1       2.081  -6.914  -0.248  1.00  0.00     0.309 C 
ATOM     10  O   UNL     1       1.999  -6.516   0.902  1.00  0.00    -0.252 OA
BRANCH   9  11
ATOM     11  C   UNL     1       0.910  -7.347  -1.150  1.00  0.00     0.110 C 
ATOM     12  C   UNL     1      -0.506  -6.899  -0.699  1.00  0.00     0.072 C 
ATOM     13  C   UNL     1      -0.872  -7.457   0.668  1.00  0.00     0.012 C 
ATOM     14  C   UNL     1      -0.694  -8.986   0.680  1.00  0.00     0.001 C 
ATOM     15  C   UNL     1       0.964  -8.871  -1.249  1.00  0.00     0.016 C 
ATOM     16  C   UNL     1       0.630  -9.497   0.100  1.00  0.00     0.001 C 
BRANCH  12  17
ATOM     17  C   UNL     1      -0.969  -5.479  -0.993  1.00  0.00     0.141 A 
ATOM     18  C   UNL     1       0.366  -0.181   0.275  1.00  0.00     0.044 C 
ATOM     19  C   UNL     1      -0.122  -1.589   0.071  1.00  0.00    -0.046 A 
ATOM     20  C   UNL     1       0.397  -2.623   0.966  1.00  0.00     0.022 A 
ATOM     21  C   UNL     1      -0.963  -1.923  -0.929  1.00  0.00     0.053 A 
ATOM     22  C   UNL     1       0.113  -3.920   0.731  1.00  0.00     0.095 A 
ATOM     23  C   UNL     1      -1.262  -3.293  -1.179  1.00  0.00     0.161 A 
ATOM     24  N   UNL     1      -0.672  -4.266  -0.368  1.00  0.00    -0.286 N 
ATOM     25  N   UNL     1      -1.938  -3.869  -2.143  1.00  0.00    -0.130 NA
ATOM     26  N   UNL     1      -1.754  -5.220  -2.031  1.00  0.00    -0.134 NA
ENDBRANCH  12  17
ENDBRANCH   9  11
ENDBRANCH   8   9
ENDBRANCH   7   8
ENDBRANCH   6   7
ENDBRANCH   5   6
ENDBRANCH   4   5
ENDBRANCH   3   4
ENDBRANCH   2   3
ENDBRANCH   1   2
BRANCH   1  27
ATOM     27  C   UNL     1       3.510  -1.616  -2.752  1.00  0.00     0.188 C 
BRANCH  27  28
ATOM     28  O   UNL     1       2.216  -1.041  -2.825  1.00  0.00    -0.376 OA
BRANCH  28  29
ATOM     29  C   UNL     1       2.006  -0.111  -3.882  1.00  0.00     0.202 C 
BRANCH  29  30
ATOM     30  C   UNL     1       2.260  -0.574  -5.332  1.00  0.00     0.261 C 
BRANCH  30  31
ATOM     31  O   UNL     1       3.610  -1.007  -5.624  1.00  0.00    -0.460 OA
BRANCH  31  32
ATOM     32  C   UNL     1       4.641  -0.123  -5.601  1.00  0.00     0.338 C 
ATOM     33  O   UNL     1       4.555   1.080  -5.629  1.00  0.00    -0.246 OA
BRANCH  32  34
ATOM     34  C   UNL     1       5.855  -0.893  -5.148  1.00  0.00     0.060 A 
ATOM     35  C   UNL     1       6.111  -2.199  -5.580  1.00  0.00     0.016 A 
ATOM     36  C   UNL     1       6.504  -0.412  -3.997  1.00  0.00     0.016 A 
ATOM     37  C   UNL     1       6.839  -3.061  -4.747  1.00  0.00     0.010 A 
ATOM     38  C   UNL     1       7.254  -1.274  -3.181  1.00  0.00     0.010 A 
ATOM     39  C   UNL     1       7.379  -2.622  -3.515  1.00  0.00    -0.014 A 
BRANCH  39  40
ATOM     40  C   UNL     1       8.213  -3.584  -2.756  1.00  0.00     0.031 A 
ATOM     41  C   UNL     1       9.255  -4.238  -3.605  1.00  0.00     0.074 A 
ATOM     42  C   UNL     1       8.303  -3.826  -1.427  1.00  0.00     0.049 A 
ATOM     43  N   UNL     1       9.467  -5.497  -3.813  1.00  0.00    -0.248 NA
ATOM     44  C   UNL     1      10.105  -3.333  -4.395  1.00  0.00     0.031 C 
ATOM     45  C   UNL     1       7.697  -3.100  -0.312  1.00  0.00     0.029 A 
ATOM     46  N   UNL     1       9.095  -4.756  -0.790  1.00  0.00    -0.354 N 
ATOM     47  C   UNL     1      10.536  -5.556  -4.704  1.00  0.00     0.074 A 
ATOM     48  C   UNL     1      10.819  -4.200  -5.105  1.00  0.00     0.031 C 
ATOM     49  C   UNL     1       8.319  -3.454   0.839  1.00  0.00     0.029 A 
ATOM     50  C   UNL     1       9.283  -4.510   0.564  1.00  0.00     0.049 A 
ATOM     51  H   UNL     1       9.492  -5.528  -1.254  1.00  0.00     0.167 HD
ATOM     52  C   UNL     1      11.218  -6.696  -4.996  1.00  0.00     0.031 A 
ATOM     53  C   UNL     1      10.220  -5.066   1.375  1.00  0.00     0.031 A 
ATOM     54  C   UNL     1      10.525  -7.885  -4.596  1.00  0.00     0.049 A 
ATOM     55  C   UNL     1      10.738  -6.298   0.738  1.00  0.00     0.074 A 
ATOM     56  C   UNL     1       9.319  -8.462  -4.938  1.00  0.00     0.029 A 
ATOM     57  N   UNL     1      10.941  -8.538  -3.462  1.00  0.00    -0.354 N 
ATOM     58  N   UNL     1      10.074  -7.411   0.632  1.00  0.00    -0.248 NA
ATOM     59  C   UNL     1      11.932  -6.203  -0.086  1.00  0.00     0.031 C 
ATOM     60  C   UNL     1       8.848  -9.075  -3.743  1.00  0.00     0.029 A 
ATOM     61  C   UNL     1       9.808  -8.854  -2.755  1.00  0.00     0.049 A 
ATOM     62  H   UNL     1      11.870  -8.739  -3.207  1.00  0.00     0.167 HD
ATOM     63  C   UNL     1      10.508  -7.971  -0.559  1.00  0.00     0.074 A 
ATOM     64  C   UNL     1      11.735  -7.252  -0.886  1.00  0.00     0.031 C 
ATOM     65  C   UNL     1       9.692  -8.765  -1.313  1.00  0.00     0.031 A 
BRANCH  52  66
ATOM     66  C   UNL     1      12.643  -6.699  -5.466  1.00  0.00    -0.014 A 
ATOM     67  C   UNL     1      13.529  -5.635  -5.201  1.00  0.00     0.009 A 
ATOM     68  C   UNL     1      13.197  -7.867  -6.013  1.00  0.00     0.009 A 
ATOM     69  C   UNL     1      14.889  -5.709  -5.507  1.00  0.00     0.001 A 
ATOM     70  C   UNL     1      14.569  -7.963  -6.275  1.00  0.00     0.001 A 
ATOM     71  C   UNL     1      15.412  -6.882  -6.030  1.00  0.00     0.000 A 
ENDBRANCH  52  66
BRANCH  53  72
ATOM     72  C   UNL     1      10.909  -4.479   2.551  1.00  0.00    -0.014 A 
ATOM     73  C   UNL     1      11.074  -3.087   2.654  1.00  0.00     0.009 A 
ATOM     74  C   UNL     1      11.650  -5.287   3.432  1.00  0.00     0.009 A 
ATOM     75  C   UNL     1      11.965  -2.523   3.573  1.00  0.00     0.001 A 
ATOM     76  C   UNL     1      12.551  -4.723   4.348  1.00  0.00     0.001 A 
ATOM     77  C   UNL     1      12.717  -3.342   4.408  1.00  0.00     0.000 A 
ENDBRANCH  53  72
BRANCH  65  78
ATOM     78  C   UNL     1       8.413  -9.304  -0.703  1.00  0.00    -0.014 A 
ATOM     79  C   UNL     1       8.063 -10.642  -0.954  1.00  0.00     0.009 A 
ATOM     80  C   UNL     1       7.479  -8.503  -0.026  1.00  0.00     0.009 A 
ATOM     81  C   UNL     1       6.822 -11.154  -0.562  1.00  0.00     0.001 A 
ATOM     82  C   UNL     1       6.260  -9.031   0.415  1.00  0.00     0.001 A 
ATOM     83  C   UNL     1       5.922 -10.348   0.127  1.00  0.00     0.000 A 
ENDBRANCH  65  78
ENDBRANCH  39  40
ENDBRANCH  32  34
ENDBRANCH  31  32
ENDBRANCH  30  31
ENDBRANCH  29  30
ENDBRANCH  28  29
ENDBRANCH  27  28
ENDBRANCH   1  27
TORSDOF 21
