REMARK SMILES CCCN1CCC[C@@]2(CCN(c3ccc(C(=O)OCCOCCOCCOCCOC(=O)c4ccc(-c5c6nc(c(-c7ccccc7)c7ccc([nH]7)c(-c7ccccc7)c7nc(c(-c8ccccc8)c8ccc5[nH]8)C=C7)C=C6)cc4)cn3)C2)C1=O
REMARK SMILES IDX 23 1 22 2 21 3 20 4 19 5 18 6 16 7 17 8 15 9 12 10 13 11
REMARK SMILES IDX 82 12 14 13 81 14 11 15 4 16 5 17 84 18 6 19 8 20 85 21 7 22
REMARK SMILES IDX 9 23 83 24 10 25 3 26 2 27 1 28 24 29 25 30 26 31 27 32
REMARK SMILES IDX 28 33 29 34 30 35 31 36 32 37 33 38 34 39 80 40 35 41 79 42
REMARK SMILES IDX 36 43 37 44 38 45 73 46 39 47 78 48 72 49 74 50 40 51 77 52
REMARK SMILES IDX 71 53 70 54 41 56 63 57 48 58 62 59 49 60 52 61 61 62 75 63
REMARK SMILES IDX 50 64 51 65 60 67 76 68 53 69 42 70 43 71 47 72 44 73 46 74
REMARK SMILES IDX 45 75 64 76 65 77 69 78 66 79 68 80 67 81 54 82 55 83 59 84
REMARK SMILES IDX 56 85 58 86 57 87
REMARK H PARENT 74 55 52 66
REMARK Flexibility Score: inf
ROOT
ATOM      1  C   UNL     1       7.720  -0.842  -9.593  1.00  0.00     0.188 C 
ENDROOT
BRANCH   1   2
ATOM      2  C   UNL     1       8.210   0.617  -9.499  1.00  0.00     0.188 C 
BRANCH   2   3
ATOM      3  O   UNL     1       9.622   0.730  -9.556  1.00  0.00    -0.376 OA
BRANCH   3   4
ATOM      4  C   UNL     1      10.361   0.974  -8.375  1.00  0.00     0.202 C 
BRANCH   4   5
ATOM      5  C   UNL     1      10.191   0.088  -7.131  1.00  0.00     0.261 C 
BRANCH   5   6
ATOM      6  O   UNL     1       8.869  -0.357  -6.826  1.00  0.00    -0.460 OA
BRANCH   6   7
ATOM      7  C   UNL     1       8.007   0.537  -6.300  1.00  0.00     0.339 C 
ATOM      8  O   UNL     1       8.230   1.704  -6.036  1.00  0.00    -0.246 OA
BRANCH   7   9
ATOM      9  C   UNL     1       6.677  -0.097  -6.279  1.00  0.00     0.078 A 
ATOM     10  C   UNL     1       4.136  -1.159  -6.363  1.00  0.00     0.128 A 
ATOM     11  C   UNL     1       5.212  -1.964  -5.983  1.00  0.00     0.048 A 
ATOM     12  N   UNL     1       4.313   0.120  -6.754  1.00  0.00    -0.238 NA
ATOM     13  C   UNL     1       6.498  -1.437  -5.949  1.00  0.00     0.021 A 
ATOM     14  C   UNL     1       5.569   0.630  -6.686  1.00  0.00     0.129 A 
BRANCH  10  15
ATOM     15  N   UNL     1       2.857  -1.655  -6.178  1.00  0.00    -0.356 N 
ATOM     16  N   UNL     1       0.298  -0.420  -2.807  1.00  0.00    -0.342 N 
ATOM     17  C   UNL     1      -0.179  -1.600  -2.104  1.00  0.00     0.119 C 
ATOM     18  C   UNL     1       0.365  -0.445  -4.201  1.00  0.00     0.230 C 
ATOM     19  C   UNL     1       0.612  -2.824  -2.521  1.00  0.00     0.023 C 
ATOM     20  C   UNL     1       0.901  -1.757  -4.799  1.00  0.00     0.069 C 
ATOM     21  O   UNL     1       0.210   0.566  -4.885  1.00  0.00    -0.274 OA
ATOM     22  C   UNL     1       0.449  -3.006  -4.028  1.00  0.00     0.021 C 
ATOM     23  C   UNL     1       0.562  -1.865  -6.302  1.00  0.00     0.040 C 
ATOM     24  C   UNL     1       2.444  -1.634  -4.773  1.00  0.00     0.135 C 
ATOM     25  C   UNL     1       1.751  -1.206  -7.006  1.00  0.00     0.119 C 
BRANCH  16  26
ATOM     26  C   UNL     1       0.701   0.817  -2.134  1.00  0.00     0.119 C 
BRANCH  26  27
ATOM     27  C   UNL     1       0.285   1.048  -0.682  1.00  0.00     0.018 C 
ATOM     28  C   UNL     1       1.211   0.396   0.339  1.00  0.00     0.006 C 
ENDBRANCH  26  27
ENDBRANCH  16  26
ENDBRANCH  10  15
ENDBRANCH   7   9
ENDBRANCH   6   7
ENDBRANCH   5   6
ENDBRANCH   4   5
ENDBRANCH   3   4
ENDBRANCH   2   3
ENDBRANCH   1   2
BRANCH   1  29
ATOM     29  O   UNL     1       8.702  -1.845  -9.379  1.00  0.00    -0.377 OA
BRANCH  29  30
ATOM     30  C   UNL     1       9.799  -1.961 -10.287  1.00  0.00     0.188 C 
BRANCH  30  31
ATOM     31  C   UNL     1       9.935  -1.105 -11.572  1.00  0.00     0.188 C 
BRANCH  31  32
ATOM     32  O   UNL     1       8.726  -0.539 -12.048  1.00  0.00    -0.376 OA
BRANCH  32  33
ATOM     33  C   UNL     1       8.151  -1.080 -13.223  1.00  0.00     0.202 C 
BRANCH  33  34
ATOM     34  C   UNL     1       7.630  -2.519 -13.121  1.00  0.00     0.261 C 
BRANCH  34  35
ATOM     35  O   UNL     1       8.583  -3.497 -12.677  1.00  0.00    -0.460 OA
BRANCH  35  36
ATOM     36  C   UNL     1       9.635  -3.744 -13.484  1.00  0.00     0.338 C 
ATOM     37  O   UNL     1       9.872  -3.236 -14.569  1.00  0.00    -0.246 OA
BRANCH  36  38
ATOM     38  C   UNL     1      10.572  -4.613 -12.745  1.00  0.00     0.060 A 
ATOM     39  C   UNL     1      11.867  -4.151 -12.479  1.00  0.00     0.016 A 
ATOM     40  C   UNL     1      10.165  -5.875 -12.306  1.00  0.00     0.016 A 
ATOM     41  C   UNL     1      12.770  -4.965 -11.796  1.00  0.00     0.010 A 
ATOM     42  C   UNL     1      11.077  -6.697 -11.640  1.00  0.00     0.010 A 
ATOM     43  C   UNL     1      12.393  -6.258 -11.410  1.00  0.00    -0.014 A 
BRANCH  43  44
ATOM     44  C   UNL     1      13.420  -7.212 -10.926  1.00  0.00     0.031 A 
ATOM     45  C   UNL     1      13.986  -8.212 -11.897  1.00  0.00     0.074 A 
ATOM     46  C   UNL     1      13.862  -7.180  -9.656  1.00  0.00     0.049 A 
ATOM     47  N   UNL     1      14.866  -9.159 -11.695  1.00  0.00    -0.248 NA
ATOM     48  C   UNL     1      13.492  -8.131 -13.281  1.00  0.00     0.031 C 
ATOM     49  C   UNL     1      13.427  -6.234  -8.630  1.00  0.00     0.029 A 
ATOM     50  N   UNL     1      14.778  -7.976  -9.015  1.00  0.00    -0.354 N 
ATOM     51  C   UNL     1      15.028  -9.787 -12.924  1.00  0.00     0.074 A 
ATOM     52  C   UNL     1      14.131  -9.139 -13.855  1.00  0.00     0.031 C 
ATOM     53  C   UNL     1      14.073  -6.510  -7.484  1.00  0.00     0.029 A 
ATOM     54  C   UNL     1      14.937  -7.672  -7.686  1.00  0.00     0.049 A 
ATOM     55  H   UNL     1      15.275  -8.697  -9.466  1.00  0.00     0.167 HD
ATOM     56  C   UNL     1      15.856 -10.808 -13.252  1.00  0.00     0.031 A 
ATOM     57  C   UNL     1      15.676  -8.278  -6.736  1.00  0.00     0.031 A 
ATOM     58  C   UNL     1      16.731 -11.470 -12.322  1.00  0.00     0.049 A 
ATOM     59  C   UNL     1      16.519  -9.472  -7.105  1.00  0.00     0.074 A 
ATOM     60  C   UNL     1      17.611 -12.511 -12.559  1.00  0.00     0.029 A 
ATOM     61  N   UNL     1      16.828 -11.161 -10.975  1.00  0.00    -0.354 N 
ATOM     62  N   UNL     1      16.684 -10.041  -8.275  1.00  0.00    -0.248 NA
ATOM     63  C   UNL     1      17.286 -10.101  -6.019  1.00  0.00     0.031 C 
ATOM     64  C   UNL     1      18.193 -12.876 -11.341  1.00  0.00     0.029 A 
ATOM     65  C   UNL     1      17.731 -12.013 -10.360  1.00  0.00     0.049 A 
ATOM     66  H   UNL     1      16.330 -10.443 -10.521  1.00  0.00     0.167 HD
ATOM     67  C   UNL     1      17.593 -11.074  -8.071  1.00  0.00     0.074 A 
ATOM     68  C   UNL     1      17.960 -11.038  -6.671  1.00  0.00     0.031 C 
ATOM     69  C   UNL     1      18.082 -11.970  -8.963  1.00  0.00     0.031 A 
BRANCH  56  70
ATOM     70  C   UNL     1      15.823 -11.294 -14.675  1.00  0.00    -0.014 A 
ATOM     71  C   UNL     1      16.328 -10.512 -15.727  1.00  0.00     0.009 A 
ATOM     72  C   UNL     1      15.306 -12.566 -14.964  1.00  0.00     0.009 A 
ATOM     73  C   UNL     1      16.285 -10.982 -17.041  1.00  0.00     0.001 A 
ATOM     74  C   UNL     1      15.294 -13.047 -16.274  1.00  0.00     0.001 A 
ATOM     75  C   UNL     1      15.774 -12.251 -17.313  1.00  0.00     0.000 A 
ENDBRANCH  56  70
BRANCH  57  76
ATOM     76  C   UNL     1      15.635  -7.790  -5.331  1.00  0.00    -0.014 A 
ATOM     77  C   UNL     1      16.767  -7.213  -4.735  1.00  0.00     0.009 A 
ATOM     78  C   UNL     1      14.466  -7.930  -4.566  1.00  0.00     0.009 A 
ATOM     79  C   UNL     1      16.738  -6.816  -3.395  1.00  0.00     0.001 A 
ATOM     80  C   UNL     1      14.429  -7.501  -3.238  1.00  0.00     0.001 A 
ATOM     81  C   UNL     1      15.568  -6.955  -2.650  1.00  0.00     0.000 A 
ENDBRANCH  57  76
BRANCH  69  82
ATOM     82  C   UNL     1      19.096 -12.964  -8.461  1.00  0.00    -0.014 A 
ATOM     83  C   UNL     1      18.736 -14.000  -7.585  1.00  0.00     0.009 A 
ATOM     84  C   UNL     1      20.427 -12.881  -8.902  1.00  0.00     0.009 A 
ATOM     85  C   UNL     1      19.698 -14.906  -7.130  1.00  0.00     0.001 A 
ATOM     86  C   UNL     1      21.377 -13.808  -8.474  1.00  0.00     0.001 A 
ATOM     87  C   UNL     1      21.015 -14.813  -7.578  1.00  0.00     0.000 A 
ENDBRANCH  69  82
ENDBRANCH  43  44
ENDBRANCH  36  38
ENDBRANCH  35  36
ENDBRANCH  34  35
ENDBRANCH  33  34
ENDBRANCH  32  33
ENDBRANCH  31  32
ENDBRANCH  30  31
ENDBRANCH  29  30
ENDBRANCH   1  29
TORSDOF 23
