REMARK SMILES CC/C=C/C/C=C/C/C=C/C/C=C/CCSCCCC(=O)OCCOCCOCCOCCOC(=O)c1ccc(-c2c3nc(c(-c4ccccc4)c4ccc([nH]4)c(-c4ccccc4)c4nc(c(-c5ccccc5)c5ccc2[nH]5)C=C4)C=C3)cc1
REMARK SMILES IDX 23 1 22 2 20 3 21 4 19 5 18 6 17 7 16 8 15 9 14 10 13 11
REMARK SMILES IDX 12 12 11 13 10 14 9 15 8 16 7 17 6 18 5 19 4 20 3 21 2 22
REMARK SMILES IDX 1 23 24 24 25 25 26 26 27 27 28 28 29 29 30 30 31 31 32 32
REMARK SMILES IDX 33 33 34 34 35 35 36 36 37 37 38 38 84 39 39 40 83 41 40 42
REMARK SMILES IDX 41 43 42 44 77 45 43 46 82 47 76 48 78 49 44 50 81 51 75 52
REMARK SMILES IDX 74 53 45 55 67 56 52 57 66 58 53 59 56 60 65 61 79 62 54 63
REMARK SMILES IDX 55 64 64 66 80 67 57 68 46 69 47 70 51 71 48 72 50 73 49 74
REMARK SMILES IDX 68 75 69 76 73 77 70 78 72 79 71 80 58 81 59 82 63 83 60 84
REMARK SMILES IDX 62 85 61 86
REMARK H PARENT 78 54 56 65
REMARK Flexibility Score: inf
ROOT
ATOM      1  C   UNL     1      -6.401   8.075   3.999  1.00  0.00     0.261 C 
ENDROOT
BRANCH   1   2
ATOM      2  O   UNL     1      -5.801   9.162   4.715  1.00  0.00    -0.463 OA
BRANCH   2   3
ATOM      3  C   UNL     1      -4.650   9.176   5.406  1.00  0.00     0.305 C 
ATOM      4  O   UNL     1      -3.844   8.270   5.482  1.00  0.00    -0.252 OA
BRANCH   3   5
ATOM      5  C   UNL     1      -4.333  10.535   5.986  1.00  0.00     0.123 C 
BRANCH   5   6
ATOM      6  C   UNL     1      -5.429  11.594   6.041  1.00  0.00     0.023 C 
BRANCH   6   7
ATOM      7  C   UNL     1      -6.912  11.217   6.094  1.00  0.00     0.070 C 
BRANCH   7   8
ATOM      8  S   UNL     1      -7.716  10.041   7.262  1.00  0.00    -0.162 SA
BRANCH   8   9
ATOM      9  C   UNL     1      -6.407   9.248   8.264  1.00  0.00     0.073 C 
BRANCH   9  10
ATOM     10  C   UNL     1      -6.575   7.715   8.407  1.00  0.00     0.038 C 
BRANCH  10  11
ATOM     11  C   UNL     1      -6.151   6.859   7.233  1.00  0.00    -0.030 C 
ATOM     12  C   UNL     1      -5.005   6.159   7.087  1.00  0.00    -0.027 C 
BRANCH  12  13
ATOM     13  C   UNL     1      -4.612   5.330   5.863  1.00  0.00     0.054 C 
BRANCH  13  14
ATOM     14  C   UNL     1      -3.225   5.652   5.327  1.00  0.00    -0.027 C 
ATOM     15  C   UNL     1      -2.827   5.649   4.036  1.00  0.00    -0.027 C 
BRANCH  15  16
ATOM     16  C   UNL     1      -1.467   6.088   3.541  1.00  0.00     0.054 C 
BRANCH  16  17
ATOM     17  C   UNL     1      -0.459   5.044   3.896  1.00  0.00    -0.027 C 
ATOM     18  C   UNL     1       0.179   4.260   3.015  1.00  0.00    -0.027 C 
BRANCH  18  19
ATOM     19  C   UNL     1       0.921   3.029   3.446  1.00  0.00     0.054 C 
BRANCH  19  20
ATOM     20  C   UNL     1       0.347   1.832   2.743  1.00  0.00    -0.027 C 
ATOM     21  C   UNL     1       1.083   0.925   2.084  1.00  0.00    -0.031 C 
BRANCH  21  22
ATOM     22  C   UNL     1       0.496  -0.220   1.313  1.00  0.00     0.023 C 
ATOM     23  C   UNL     1       0.925  -0.152  -0.144  1.00  0.00     0.008 C 
ENDBRANCH  21  22
ENDBRANCH  19  20
ENDBRANCH  18  19
ENDBRANCH  16  17
ENDBRANCH  15  16
ENDBRANCH  13  14
ENDBRANCH  12  13
ENDBRANCH  10  11
ENDBRANCH   9  10
ENDBRANCH   8   9
ENDBRANCH   7   8
ENDBRANCH   6   7
ENDBRANCH   5   6
ENDBRANCH   3   5
ENDBRANCH   2   3
ENDBRANCH   1   2
BRANCH   1  24
ATOM     24  C   UNL     1      -5.646   7.282   2.939  1.00  0.00     0.202 C 
BRANCH  24  25
ATOM     25  O   UNL     1      -4.757   7.855   2.014  1.00  0.00    -0.376 OA
BRANCH  25  26
ATOM     26  C   UNL     1      -3.793   8.824   2.357  1.00  0.00     0.188 C 
BRANCH  26  27
ATOM     27  C   UNL     1      -4.314  10.264   2.447  1.00  0.00     0.188 C 
BRANCH  27  28
ATOM     28  O   UNL     1      -5.214  10.741   1.464  1.00  0.00    -0.377 OA
BRANCH  28  29
ATOM     29  C   UNL     1      -6.213   9.853   1.002  1.00  0.00     0.188 C 
BRANCH  29  30
ATOM     30  C   UNL     1      -5.821   8.997  -0.224  1.00  0.00     0.188 C 
BRANCH  30  31
ATOM     31  O   UNL     1      -4.677   9.307  -1.005  1.00  0.00    -0.376 OA
BRANCH  31  32
ATOM     32  C   UNL     1      -4.138  10.614  -0.981  1.00  0.00     0.202 C 
BRANCH  32  33
ATOM     33  C   UNL     1      -5.024  11.819  -1.367  1.00  0.00     0.261 C 
BRANCH  33  34
ATOM     34  O   UNL     1      -6.416  11.785  -1.000  1.00  0.00    -0.460 OA
BRANCH  34  35
ATOM     35  C   UNL     1      -7.264  11.194  -1.881  1.00  0.00     0.338 C 
ATOM     36  O   UNL     1      -6.986  10.750  -2.973  1.00  0.00    -0.246 OA
BRANCH  35  37
ATOM     37  C   UNL     1      -8.591  10.982  -1.230  1.00  0.00     0.060 A 
ATOM     38  C   UNL     1      -9.137   9.687  -1.221  1.00  0.00     0.016 A 
ATOM     39  C   UNL     1      -9.299  12.035  -0.648  1.00  0.00     0.016 A 
ATOM     40  C   UNL     1     -10.400   9.447  -0.680  1.00  0.00     0.010 A 
ATOM     41  C   UNL     1     -10.591  11.807  -0.153  1.00  0.00     0.010 A 
ATOM     42  C   UNL     1     -11.164  10.521  -0.216  1.00  0.00    -0.014 A 
BRANCH  42  43
ATOM     43  C   UNL     1     -12.636  10.357  -0.117  1.00  0.00     0.031 A 
ATOM     44  C   UNL     1     -13.454  10.736  -1.325  1.00  0.00     0.074 A 
ATOM     45  C   UNL     1     -13.237   9.846   0.971  1.00  0.00     0.049 A 
ATOM     46  N   UNL     1     -14.753  10.758  -1.482  1.00  0.00    -0.248 NA
ATOM     47  C   UNL     1     -12.698  11.150  -2.521  1.00  0.00     0.031 C 
ATOM     48  C   UNL     1     -12.559   9.362   2.170  1.00  0.00     0.029 A 
ATOM     49  N   UNL     1     -14.572   9.658   1.237  1.00  0.00    -0.354 N 
ATOM     50  C   UNL     1     -14.965  11.200  -2.782  1.00  0.00     0.074 A 
ATOM     51  C   UNL     1     -13.668  11.462  -3.363  1.00  0.00     0.031 C 
ATOM     52  C   UNL     1     -13.485   8.950   3.056  1.00  0.00     0.029 A 
ATOM     53  C   UNL     1     -14.819   9.179   2.500  1.00  0.00     0.049 A 
ATOM     54  H   UNL     1     -15.283   9.848   0.584  1.00  0.00     0.167 HD
ATOM     55  C   UNL     1     -16.135  11.374  -3.440  1.00  0.00     0.031 A 
ATOM     56  C   UNL     1     -15.988   8.980   3.141  1.00  0.00     0.031 A 
ATOM     57  C   UNL     1     -17.426  11.132  -2.857  1.00  0.00     0.049 A 
ATOM     58  C   UNL     1     -17.282   9.280   2.426  1.00  0.00     0.074 A 
ATOM     59  C   UNL     1     -18.674  11.284  -3.433  1.00  0.00     0.029 A 
ATOM     60  N   UNL     1     -17.632  10.695  -1.558  1.00  0.00    -0.354 N 
ATOM     61  N   UNL     1     -17.474   9.700   1.198  1.00  0.00    -0.248 NA
ATOM     62  C   UNL     1     -18.524   9.073   3.188  1.00  0.00     0.031 C 
ATOM     63  C   UNL     1     -19.638  10.999  -2.461  1.00  0.00     0.029 A 
ATOM     64  C   UNL     1     -18.989  10.598  -1.304  1.00  0.00     0.049 A 
ATOM     65  H   UNL     1     -16.919  10.484  -0.912  1.00  0.00     0.167 HD
ATOM     66  C   UNL     1     -18.853   9.774   1.030  1.00  0.00     0.074 A 
ATOM     67  C   UNL     1     -19.449   9.342   2.277  1.00  0.00     0.031 C 
ATOM     68  C   UNL     1     -19.564  10.163  -0.058  1.00  0.00     0.031 A 
BRANCH  55  69
ATOM     69  C   UNL     1     -16.066  11.897  -4.848  1.00  0.00    -0.014 A 
ATOM     70  C   UNL     1     -15.564  11.114  -5.899  1.00  0.00     0.009 A 
ATOM     71  C   UNL     1     -16.527  13.193  -5.128  1.00  0.00     0.009 A 
ATOM     72  C   UNL     1     -15.493  11.631  -7.195  1.00  0.00     0.001 A 
ATOM     73  C   UNL     1     -16.486  13.695  -6.430  1.00  0.00     0.001 A 
ATOM     74  C   UNL     1     -15.960  12.918  -7.460  1.00  0.00     0.000 A 
ENDBRANCH  55  69
BRANCH  56  75
ATOM     75  C   UNL     1     -15.999   8.511   4.554  1.00  0.00    -0.014 A 
ATOM     76  C   UNL     1     -16.514   7.250   4.892  1.00  0.00     0.009 A 
ATOM     77  C   UNL     1     -15.522   9.343   5.581  1.00  0.00     0.009 A 
ATOM     78  C   UNL     1     -16.576   6.845   6.229  1.00  0.00     0.001 A 
ATOM     79  C   UNL     1     -15.555   8.921   6.912  1.00  0.00     0.001 A 
ATOM     80  C   UNL     1     -16.092   7.677   7.236  1.00  0.00     0.000 A 
ENDBRANCH  56  75
BRANCH  68  81
ATOM     81  C   UNL     1     -21.064  10.092   0.031  1.00  0.00    -0.014 A 
ATOM     82  C   UNL     1     -21.796  10.983   0.831  1.00  0.00     0.009 A 
ATOM     83  C   UNL     1     -21.758   9.148  -0.743  1.00  0.00     0.009 A 
ATOM     84  C   UNL     1     -23.190  10.903   0.883  1.00  0.00     0.001 A 
ATOM     85  C   UNL     1     -23.152   9.093  -0.716  1.00  0.00     0.001 A 
ATOM     86  C   UNL     1     -23.866   9.964   0.105  1.00  0.00     0.000 A 
ENDBRANCH  68  81
ENDBRANCH  42  43
ENDBRANCH  35  37
ENDBRANCH  34  35
ENDBRANCH  33  34
ENDBRANCH  32  33
ENDBRANCH  31  32
ENDBRANCH  30  31
ENDBRANCH  29  30
ENDBRANCH  28  29
ENDBRANCH  27  28
ENDBRANCH  26  27
ENDBRANCH  25  26
ENDBRANCH  24  25
ENDBRANCH   1  24
TORSDOF 33
