REMARK SMILES CC(C)[C@H](NC(=O)[C@H](C)NC(=O)CNC(=O)OCc1ccccc1)C(=O)OCCOCCOCCOCCOC(=O)c1ccc(-c2c3nc(c(-c4ccccc4)c4ccc([nH]4)c(-c4ccccc4)c4nc(c(-c5ccccc5)c5ccc2[nH]5)C=C4)C=C3)cc1
REMARK SMILES IDX 30 1 29 2 28 3 27 4 25 5 26 6 4 7 2 8 1 9 3 10 5 11 6 12
REMARK SMILES IDX 7 14 8 15 9 16 10 17 11 18 12 20 13 21 14 22 15 23 16 25
REMARK SMILES IDX 17 26 18 27 19 28 20 29 24 30 21 31 23 32 22 33 31 34 32 35
REMARK SMILES IDX 33 36 34 37 35 38 36 39 37 40 38 41 39 42 40 43 41 44 42 45
REMARK SMILES IDX 43 46 89 47 44 48 88 49 45 50 46 51 47 52 82 53 48 54 87 55
REMARK SMILES IDX 81 56 83 57 49 58 86 59 80 60 79 61 50 63 72 64 57 65 71 66
REMARK SMILES IDX 58 67 61 68 70 69 84 70 59 71 60 72 69 74 85 75 62 76 51 77
REMARK SMILES IDX 52 78 56 79 53 80 55 81 54 82 73 83 74 84 78 85 75 86 77 87
REMARK SMILES IDX 76 88 63 89 64 90 68 91 65 92 67 93 66 94
REMARK H PARENT 5 13 10 19 14 24 83 62 61 73
REMARK Flexibility Score: inf
ROOT
ATOM      1  O   UNL     1       3.563  -0.229   1.055  1.00  0.00    -0.376 OA
ENDROOT
BRANCH   1   2
ATOM      2  C   UNL     1       3.009  -0.770  -0.140  1.00  0.00     0.202 C 
BRANCH   2   3
ATOM      3  C   UNL     1       1.853   0.044  -0.744  1.00  0.00     0.261 C 
BRANCH   3   4
ATOM      4  O   UNL     1       0.592   0.073  -0.018  1.00  0.00    -0.462 OA
BRANCH   4   5
ATOM      5  C   UNL     1      -0.097  -1.060   0.242  1.00  0.00     0.328 C 
ATOM      6  O   UNL     1       0.261  -2.174  -0.119  1.00  0.00    -0.250 OA
BRANCH   5   7
ATOM      7  C   UNL     1      -1.479  -0.779   0.932  1.00  0.00     0.194 C 
BRANCH   7   8
ATOM      8  C   UNL     1      -2.506  -0.229  -0.147  1.00  0.00     0.017 C 
ATOM      9  C   UNL     1      -3.111   1.155   0.134  1.00  0.00     0.010 C 
ATOM     10  C   UNL     1      -1.972  -0.207  -1.593  1.00  0.00     0.010 C 
ENDBRANCH   7   8
BRANCH   7  11
ATOM     11  N   UNL     1      -1.533  -0.019   2.237  1.00  0.00    -0.341 N 
ATOM     12  C   UNL     1      -1.695  -0.474   3.535  1.00  0.00     0.242 C 
ATOM     13  H   UNL     1      -1.438   0.957   2.151  1.00  0.00     0.164 HD
ATOM     14  O   UNL     1      -2.540   0.120   4.217  1.00  0.00    -0.273 OA
BRANCH  12  15
ATOM     15  C   UNL     1      -0.694  -1.462   4.236  1.00  0.00     0.168 C 
ATOM     16  C   UNL     1       0.031  -2.355   3.268  1.00  0.00     0.041 C 
BRANCH  15  17
ATOM     17  N   UNL     1      -1.230  -2.325   5.296  1.00  0.00    -0.343 N 
ATOM     18  C   UNL     1      -0.463  -3.035   6.198  1.00  0.00     0.240 C 
ATOM     19  H   UNL     1      -2.209  -2.402   5.370  1.00  0.00     0.164 HD
ATOM     20  O   UNL     1      -0.732  -4.225   6.374  1.00  0.00    -0.273 OA
BRANCH  18  21
ATOM     21  C   UNL     1       0.734  -2.366   6.917  1.00  0.00     0.219 C 
BRANCH  21  22
ATOM     22  N   UNL     1       2.043  -2.532   6.302  1.00  0.00    -0.312 N 
ATOM     23  C   UNL     1       3.219  -1.925   6.673  1.00  0.00     0.407 C 
ATOM     24  H   UNL     1       2.091  -3.147   5.535  1.00  0.00     0.167 HD
ATOM     25  O   UNL     1       4.194  -1.956   5.935  1.00  0.00    -0.225 OA
BRANCH  23  26
ATOM     26  O   UNL     1       3.175  -1.295   7.877  1.00  0.00    -0.445 OA
BRANCH  26  27
ATOM     27  C   UNL     1       3.903  -0.055   7.983  1.00  0.00     0.270 C 
BRANCH  27  28
ATOM     28  C   UNL     1       5.351   0.055   8.412  1.00  0.00    -0.011 A 
ATOM     29  C   UNL     1       6.324  -0.904   8.135  1.00  0.00     0.007 A 
ATOM     30  C   UNL     1       5.774   1.305   8.916  1.00  0.00     0.007 A 
ATOM     31  C   UNL     1       7.679  -0.618   8.352  1.00  0.00     0.000 A 
ATOM     32  C   UNL     1       7.123   1.593   9.125  1.00  0.00     0.000 A 
ATOM     33  C   UNL     1       8.079   0.628   8.839  1.00  0.00     0.000 A 
ENDBRANCH  27  28
ENDBRANCH  26  27
ENDBRANCH  23  26
ENDBRANCH  21  22
ENDBRANCH  18  21
ENDBRANCH  15  17
ENDBRANCH  12  15
ENDBRANCH   7  11
ENDBRANCH   5   7
ENDBRANCH   4   5
ENDBRANCH   3   4
ENDBRANCH   2   3
ENDBRANCH   1   2
BRANCH   1  34
ATOM     34  C   UNL     1       2.678  -0.297   2.164  1.00  0.00     0.188 C 
BRANCH  34  35
ATOM     35  C   UNL     1       1.897   1.004   2.325  1.00  0.00     0.188 C 
BRANCH  35  36
ATOM     36  O   UNL     1       2.743   2.116   2.132  1.00  0.00    -0.377 OA
BRANCH  36  37
ATOM     37  C   UNL     1       3.293   2.651   3.317  1.00  0.00     0.188 C 
BRANCH  37  38
ATOM     38  C   UNL     1       3.822   1.674   4.376  1.00  0.00     0.188 C 
BRANCH  38  39
ATOM     39  O   UNL     1       2.905   0.819   5.051  1.00  0.00    -0.376 OA
BRANCH  39  40
ATOM     40  C   UNL     1       1.703   1.198   5.696  1.00  0.00     0.202 C 
BRANCH  40  41
ATOM     41  C   UNL     1       1.530   2.384   6.627  1.00  0.00     0.261 C 
BRANCH  41  42
ATOM     42  O   UNL     1       1.986   3.591   6.057  1.00  0.00    -0.460 OA
BRANCH  42  43
ATOM     43  C   UNL     1       3.202   3.993   6.512  1.00  0.00     0.338 C 
ATOM     44  O   UNL     1       3.908   3.476   7.322  1.00  0.00    -0.246 OA
BRANCH  43  45
ATOM     45  C   UNL     1       3.570   5.104   5.624  1.00  0.00     0.060 A 
ATOM     46  C   UNL     1       4.770   5.017   4.910  1.00  0.00     0.016 A 
ATOM     47  C   UNL     1       2.653   6.136   5.419  1.00  0.00     0.016 A 
ATOM     48  C   UNL     1       5.043   5.965   3.940  1.00  0.00     0.010 A 
ATOM     49  C   UNL     1       2.948   7.110   4.488  1.00  0.00     0.010 A 
ATOM     50  C   UNL     1       4.149   7.027   3.767  1.00  0.00    -0.014 A 
BRANCH  50  51
ATOM     51  C   UNL     1       4.584   8.213   3.030  1.00  0.00     0.031 A 
ATOM     52  C   UNL     1       5.277   9.271   3.828  1.00  0.00     0.074 A 
ATOM     53  C   UNL     1       4.298   8.335   1.728  1.00  0.00     0.049 A 
ATOM     54  N   UNL     1       5.651  10.465   3.467  1.00  0.00    -0.248 NA
ATOM     55  C   UNL     1       5.575   8.939   5.235  1.00  0.00     0.031 C 
ATOM     56  C   UNL     1       3.652   7.316   0.900  1.00  0.00     0.029 A 
ATOM     57  N   UNL     1       4.499   9.387   0.882  1.00  0.00    -0.354 N 
ATOM     58  C   UNL     1       6.218  11.028   4.602  1.00  0.00     0.074 A 
ATOM     59  C   UNL     1       6.120  10.062   5.669  1.00  0.00     0.031 C 
ATOM     60  C   UNL     1       3.489   7.807  -0.340  1.00  0.00     0.029 A 
ATOM     61  C   UNL     1       3.985   9.180  -0.372  1.00  0.00     0.049 A 
ATOM     62  H   UNL     1       4.965  10.213   1.146  1.00  0.00     0.167 HD
ATOM     63  C   UNL     1       6.765  12.255   4.732  1.00  0.00     0.031 A 
ATOM     64  C   UNL     1       3.906  10.033  -1.408  1.00  0.00     0.031 A 
ATOM     65  C   UNL     1       6.794  13.206   3.658  1.00  0.00     0.049 A 
ATOM     66  C   UNL     1       4.464  11.418  -1.219  1.00  0.00     0.074 A 
ATOM     67  C   UNL     1       7.307  14.487   3.647  1.00  0.00     0.029 A 
ATOM     68  N   UNL     1       6.264  12.967   2.395  1.00  0.00    -0.354 N 
ATOM     69  N   UNL     1       5.024  11.945  -0.154  1.00  0.00    -0.248 NA
ATOM     70  C   UNL     1       4.386  12.322  -2.371  1.00  0.00     0.031 C 
ATOM     71  C   UNL     1       7.038  15.043   2.392  1.00  0.00     0.029 A 
ATOM     72  C   UNL     1       6.417  14.086   1.601  1.00  0.00     0.049 A 
ATOM     73  H   UNL     1       5.842  12.124   2.110  1.00  0.00     0.167 HD
ATOM     74  C   UNL     1       5.393  13.233  -0.513  1.00  0.00     0.074 A 
ATOM     75  C   UNL     1       5.000  13.400  -1.901  1.00  0.00     0.031 C 
ATOM     76  C   UNL     1       6.001  14.196   0.225  1.00  0.00     0.031 A 
BRANCH  63  77
ATOM     77  C   UNL     1       7.298  12.626   6.086  1.00  0.00    -0.014 A 
ATOM     78  C   UNL     1       8.436  12.001   6.622  1.00  0.00     0.009 A 
ATOM     79  C   UNL     1       6.630  13.591   6.855  1.00  0.00     0.009 A 
ATOM     80  C   UNL     1       8.870  12.305   7.915  1.00  0.00     0.001 A 
ATOM     81  C   UNL     1       7.084  13.915   8.135  1.00  0.00     0.001 A 
ATOM     82  C   UNL     1       8.195  13.265   8.668  1.00  0.00     0.000 A 
ENDBRANCH  63  77
BRANCH  64  83
ATOM     83  C   UNL     1       3.277   9.603  -2.683  1.00  0.00    -0.014 A 
ATOM     84  C   UNL     1       4.054   9.415  -3.835  1.00  0.00     0.009 A 
ATOM     85  C   UNL     1       1.897   9.353  -2.750  1.00  0.00     0.009 A 
ATOM     86  C   UNL     1       3.459   9.006  -5.032  1.00  0.00     0.001 A 
ATOM     87  C   UNL     1       1.309   8.917  -3.940  1.00  0.00     0.001 A 
ATOM     88  C   UNL     1       2.089   8.752  -5.082  1.00  0.00     0.000 A 
ENDBRANCH  64  83
BRANCH  76  89
ATOM     89  C   UNL     1       6.308  15.488  -0.474  1.00  0.00    -0.014 A 
ATOM     90  C   UNL     1       5.294  16.404  -0.792  1.00  0.00     0.009 A 
ATOM     91  C   UNL     1       7.642  15.812  -0.764  1.00  0.00     0.009 A 
ATOM     92  C   UNL     1       5.610  17.608  -1.420  1.00  0.00     0.001 A 
ATOM     93  C   UNL     1       7.958  17.031  -1.361  1.00  0.00     0.001 A 
ATOM     94  C   UNL     1       6.941  17.923  -1.698  1.00  0.00     0.000 A 
ENDBRANCH  76  89
ENDBRANCH  50  51
ENDBRANCH  43  45
ENDBRANCH  42  43
ENDBRANCH  41  42
ENDBRANCH  40  41
ENDBRANCH  39  40
ENDBRANCH  38  39
ENDBRANCH  37  38
ENDBRANCH  36  37
ENDBRANCH  35  36
ENDBRANCH  34  35
ENDBRANCH   1  34
TORSDOF 29
