REMARK SMILES CC[C@H](C)CN(CC)C(=O)NC[C@@](C)(O)C(=O)OCCOCCOCCOCCOC(=O)c1ccc(-c2c3nc(c(-c4ccccc4)c4ccc([nH]4)c(-c4ccccc4)c4nc(c(-c5ccccc5)c5ccc2[nH]5)C=C4)C=C3)cc1
REMARK SMILES IDX 22 1 21 2 20 3 19 4 18 5 16 6 17 7 13 8 14 9 12 10 11 11
REMARK SMILES IDX 9 12 10 13 6 15 5 16 3 17 4 18 2 19 1 20 7 21 8 22 15 23
REMARK SMILES IDX 23 25 24 26 25 27 26 28 27 29 28 30 29 31 30 32 31 33 32 34
REMARK SMILES IDX 33 35 34 36 80 37 35 38 79 39 36 40 37 41 38 42 73 43 39 44
REMARK SMILES IDX 78 45 72 46 74 47 40 48 77 49 71 50 70 51 41 53 63 54 48 55
REMARK SMILES IDX 62 56 49 57 52 58 61 59 75 60 50 61 51 62 60 64 76 65 53 66
REMARK SMILES IDX 42 67 43 68 47 69 44 70 46 71 45 72 64 73 65 74 69 75 66 76
REMARK SMILES IDX 68 77 67 78 54 79 55 80 59 81 56 82 58 83 57 84
REMARK H PARENT 11 14 15 24 74 52 52 63
REMARK Flexibility Score: inf
ROOT
ATOM      1  C   UNL     1      -0.806  -6.952  -2.739  1.00  0.00     0.188 C 
ENDROOT
BRANCH   1   2
ATOM      2  O   UNL     1      -2.130  -7.414  -2.982  1.00  0.00    -0.376 OA
BRANCH   2   3
ATOM      3  C   UNL     1      -2.910  -6.602  -3.848  1.00  0.00     0.202 C 
BRANCH   3   4
ATOM      4  C   UNL     1      -2.461  -6.550  -5.314  1.00  0.00     0.261 C 
BRANCH   4   5
ATOM      5  O   UNL     1      -1.056  -6.316  -5.500  1.00  0.00    -0.461 OA
BRANCH   5   6
ATOM      6  C   UNL     1      -0.624  -5.038  -5.630  1.00  0.00     0.339 C 
ATOM      7  O   UNL     1      -1.355  -4.055  -5.589  1.00  0.00    -0.249 OA
BRANCH   6   8
ATOM      8  C   UNL     1       0.917  -4.966  -5.844  1.00  0.00     0.176 C 
ATOM      9  C   UNL     1       1.157  -4.064  -7.055  1.00  0.00     0.057 C 
BRANCH   8  10
ATOM     10  C   UNL     1       1.633  -4.432  -4.562  1.00  0.00     0.164 C 
BRANCH  10  11
ATOM     11  N   UNL     1       0.899  -3.422  -3.825  1.00  0.00    -0.334 N 
ATOM     12  C   UNL     1       0.441  -3.352  -2.561  1.00  0.00     0.317 C 
ATOM     13  O   UNL     1      -0.627  -2.746  -2.437  1.00  0.00    -0.249 OA
ATOM     14  H   UNL     1       0.692  -2.621  -4.360  1.00  0.00     0.165 HD
BRANCH  12  15
ATOM     15  N   UNL     1       1.119  -3.858  -1.482  1.00  0.00    -0.325 N 
BRANCH  15  16
ATOM     16  C   UNL     1       0.509  -3.603  -0.159  1.00  0.00     0.124 C 
BRANCH  16  17
ATOM     17  C   UNL     1       1.017  -2.296   0.514  1.00  0.00     0.005 C 
ATOM     18  C   UNL     1       0.592  -1.038  -0.251  1.00  0.00     0.009 C 
BRANCH  17  19
ATOM     19  C   UNL     1       0.531  -2.242   1.979  1.00  0.00     0.002 C 
ATOM     20  C   UNL     1       1.032  -1.022   2.744  1.00  0.00     0.004 C 
ENDBRANCH  17  19
ENDBRANCH  16  17
ENDBRANCH  15  16
BRANCH  15  21
ATOM     21  C   UNL     1       2.475  -4.418  -1.447  1.00  0.00     0.118 C 
ATOM     22  C   UNL     1       2.495  -5.931  -1.277  1.00  0.00     0.027 C 
ENDBRANCH  15  21
ENDBRANCH  12  15
ENDBRANCH  10  11
ENDBRANCH   8  10
BRANCH   8  23
ATOM     23  O   UNL     1       1.499  -6.228  -6.208  1.00  0.00    -0.377 OA
ATOM     24  H   UNL     1       2.455  -6.121  -6.327  1.00  0.00     0.212 HD
ENDBRANCH   8  23
ENDBRANCH   6   8
ENDBRANCH   5   6
ENDBRANCH   4   5
ENDBRANCH   3   4
ENDBRANCH   2   3
ENDBRANCH   1   2
BRANCH   1  25
ATOM     25  C   UNL     1       0.269  -7.832  -3.402  1.00  0.00     0.188 C 
BRANCH  25  26
ATOM     26  O   UNL     1      -0.159  -8.948  -4.155  1.00  0.00    -0.377 OA
BRANCH  26  27
ATOM     27  C   UNL     1      -1.030  -9.884  -3.539  1.00  0.00     0.188 C 
BRANCH  27  28
ATOM     28  C   UNL     1      -1.137 -10.000  -2.000  1.00  0.00     0.188 C 
BRANCH  28  29
ATOM     29  O   UNL     1      -0.051  -9.450  -1.264  1.00  0.00    -0.376 OA
BRANCH  29  30
ATOM     30  C   UNL     1       0.836 -10.368  -0.642  1.00  0.00     0.202 C 
BRANCH  30  31
ATOM     31  C   UNL     1       1.825 -11.035  -1.603  1.00  0.00     0.261 C 
BRANCH  31  32
ATOM     32  O   UNL     1       1.225 -11.837  -2.629  1.00  0.00    -0.460 OA
BRANCH  32  33
ATOM     33  C   UNL     1       0.461 -12.882  -2.244  1.00  0.00     0.338 C 
ATOM     34  O   UNL     1       0.237 -13.267  -1.110  1.00  0.00    -0.246 OA
BRANCH  33  35
ATOM     35  C   UNL     1      -0.216 -13.377  -3.454  1.00  0.00     0.060 A 
ATOM     36  C   UNL     1      -1.617 -13.366  -3.513  1.00  0.00     0.016 A 
ATOM     37  C   UNL     1       0.546 -13.785  -4.550  1.00  0.00     0.016 A 
ATOM     38  C   UNL     1      -2.264 -13.778  -4.678  1.00  0.00     0.010 A 
ATOM     39  C   UNL     1      -0.101 -14.228  -5.699  1.00  0.00     0.010 A 
ATOM     40  C   UNL     1      -1.505 -14.253  -5.754  1.00  0.00    -0.014 A 
BRANCH  40  41
ATOM     41  C   UNL     1      -2.140 -15.037  -6.834  1.00  0.00     0.031 A 
ATOM     42  C   UNL     1      -2.196 -16.526  -6.654  1.00  0.00     0.074 A 
ATOM     43  C   UNL     1      -2.581 -14.462  -7.965  1.00  0.00     0.049 A 
ATOM     44  N   UNL     1      -2.534 -17.456  -7.506  1.00  0.00    -0.248 NA
ATOM     45  C   UNL     1      -1.795 -17.034  -5.330  1.00  0.00     0.031 C 
ATOM     46  C   UNL     1      -2.632 -13.026  -8.228  1.00  0.00     0.029 A 
ATOM     47  N   UNL     1      -3.052 -15.037  -9.117  1.00  0.00    -0.354 N 
ATOM     48  C   UNL     1      -2.360 -18.657  -6.831  1.00  0.00     0.074 A 
ATOM     49  C   UNL     1      -1.875 -18.341  -5.507  1.00  0.00     0.031 C 
ATOM     50  C   UNL     1      -3.100 -12.832  -9.475  1.00  0.00     0.029 A 
ATOM     51  C   UNL     1      -3.329 -14.129 -10.109  1.00  0.00     0.049 A 
ATOM     52  H   UNL     1      -3.180 -16.008  -9.223  1.00  0.00     0.167 HD
ATOM     53  C   UNL     1      -2.572 -19.914  -7.280  1.00  0.00     0.031 A 
ATOM     54  C   UNL     1      -3.693 -14.334 -11.390  1.00  0.00     0.031 A 
ATOM     55  C   UNL     1      -3.024 -20.221  -8.607  1.00  0.00     0.049 A 
ATOM     56  C   UNL     1      -3.829 -15.746 -11.900  1.00  0.00     0.074 A 
ATOM     57  C   UNL     1      -3.289 -21.458  -9.163  1.00  0.00     0.029 A 
ATOM     58  N   UNL     1      -3.262 -19.274  -9.592  1.00  0.00    -0.354 N 
ATOM     59  N   UNL     1      -3.685 -16.878 -11.253  1.00  0.00    -0.248 NA
ATOM     60  C   UNL     1      -4.171 -15.909 -13.321  1.00  0.00     0.031 C 
ATOM     61  C   UNL     1      -3.628 -21.264 -10.505  1.00  0.00     0.029 A 
ATOM     62  C   UNL     1      -3.640 -19.901 -10.764  1.00  0.00     0.049 A 
ATOM     63  H   UNL     1      -3.175 -18.300  -9.473  1.00  0.00     0.167 HD
ATOM     64  C   UNL     1      -3.960 -17.883 -12.174  1.00  0.00     0.074 A 
ATOM     65  C   UNL     1      -4.273 -17.227 -13.427  1.00  0.00     0.031 C 
ATOM     66  C   UNL     1      -3.964 -19.227 -11.995  1.00  0.00     0.031 A 
BRANCH  53  67
ATOM     67  C   UNL     1      -2.247 -21.040  -6.341  1.00  0.00    -0.014 A 
ATOM     68  C   UNL     1      -3.016 -21.285  -5.192  1.00  0.00     0.009 A 
ATOM     69  C   UNL     1      -1.139 -21.860  -6.605  1.00  0.00     0.009 A 
ATOM     70  C   UNL     1      -2.654 -22.300  -4.303  1.00  0.00     0.001 A 
ATOM     71  C   UNL     1      -0.798 -22.893  -5.732  1.00  0.00     0.001 A 
ATOM     72  C   UNL     1      -1.548 -23.104  -4.576  1.00  0.00     0.000 A 
ENDBRANCH  53  67
BRANCH  54  73
ATOM     73  C   UNL     1      -3.946 -13.178 -12.290  1.00  0.00    -0.014 A 
ATOM     74  C   UNL     1      -5.249 -12.894 -12.727  1.00  0.00     0.009 A 
ATOM     75  C   UNL     1      -2.892 -12.358 -12.725  1.00  0.00     0.009 A 
ATOM     76  C   UNL     1      -5.489 -11.826 -13.594  1.00  0.00     0.001 A 
ATOM     77  C   UNL     1      -3.139 -11.275 -13.572  1.00  0.00     0.001 A 
ATOM     78  C   UNL     1      -4.436 -11.014 -14.011  1.00  0.00     0.000 A 
ENDBRANCH  54  73
BRANCH  66  79
ATOM     79  C   UNL     1      -4.382 -20.087 -13.154  1.00  0.00    -0.014 A 
ATOM     80  C   UNL     1      -3.530 -20.314 -14.245  1.00  0.00     0.009 A 
ATOM     81  C   UNL     1      -5.614 -20.759 -13.098  1.00  0.00     0.009 A 
ATOM     82  C   UNL     1      -3.913 -21.188 -15.265  1.00  0.00     0.001 A 
ATOM     83  C   UNL     1      -5.982 -21.652 -14.105  1.00  0.00     0.001 A 
ATOM     84  C   UNL     1      -5.133 -21.863 -15.189  1.00  0.00     0.000 A 
ENDBRANCH  66  79
ENDBRANCH  40  41
ENDBRANCH  33  35
ENDBRANCH  32  33
ENDBRANCH  31  32
ENDBRANCH  30  31
ENDBRANCH  29  30
ENDBRANCH  28  29
ENDBRANCH  27  28
ENDBRANCH  26  27
ENDBRANCH  25  26
ENDBRANCH   1  25
TORSDOF 28
