REMARK SMILES Cc1cccc(-n2ncc(C(=O)Nc3cccc(C(=O)OCCOCCOCCOCCOC(=O)c4ccc(-c5c6nc(c(-c7ccccc7)c7ccc([nH]7)c(-c7ccccc7)c7nc(c(-c8ccccc8)c8ccc5[nH]8)C=C7)C=C6)cc4)c3C)c2C)c1
REMARK SMILES IDX 26 1 25 2 24 3 23 4 22 5 21 6 19 7 20 8 18 9 14 10 15 11
REMARK SMILES IDX 84 12 16 13 85 14 17 15 13 16 11 17 12 18 10 20 7 21 8 22
REMARK SMILES IDX 86 23 9 24 87 25 6 26 1 27 2 28 3 29 88 30 4 31 5 32 27 33
REMARK SMILES IDX 28 34 29 35 30 36 31 37 32 38 33 39 34 40 35 41 36 42 37 43
REMARK SMILES IDX 83 44 38 45 82 46 39 47 40 48 41 49 76 50 42 51 81 52 75 53
REMARK SMILES IDX 77 54 43 55 80 56 74 57 73 58 44 60 66 61 51 62 65 63 52 64
REMARK SMILES IDX 55 65 64 66 78 67 53 68 54 69 63 71 79 72 56 73 45 74 46 75
REMARK SMILES IDX 50 76 47 77 49 78 48 79 67 80 68 81 72 82 69 83 71 84 70 85
REMARK SMILES IDX 57 86 58 87 62 88 59 89 61 90 60 91
REMARK H PARENT 13 19 77 59 55 70
REMARK Flexibility Score: inf
ROOT
ATOM      1  C   UNL     1      -5.822   9.864  -2.435  1.00  0.00     0.188 C 
ENDROOT
BRANCH   1   2
ATOM      2  C   UNL     1      -5.729   9.903  -0.891  1.00  0.00     0.188 C 
BRANCH   2   3
ATOM      3  O   UNL     1      -5.240  11.077  -0.240  1.00  0.00    -0.376 OA
BRANCH   3   4
ATOM      4  C   UNL     1      -3.965  11.568  -0.637  1.00  0.00     0.202 C 
BRANCH   4   5
ATOM      5  C   UNL     1      -2.759  10.635  -0.610  1.00  0.00     0.261 C 
BRANCH   5   6
ATOM      6  O   UNL     1      -3.019   9.397  -1.249  1.00  0.00    -0.460 OA
BRANCH   6   7
ATOM      7  C   UNL     1      -2.229   8.351  -0.979  1.00  0.00     0.338 C 
ATOM      8  O   UNL     1      -1.159   8.290  -0.418  1.00  0.00    -0.246 OA
BRANCH   7   9
ATOM      9  C   UNL     1      -3.148   7.224  -1.127  1.00  0.00     0.065 A 
ATOM     10  C   UNL     1      -4.656   5.686  -0.110  1.00  0.00     0.045 A 
ATOM     11  C   UNL     1      -4.853   5.060  -1.346  1.00  0.00     0.026 A 
ATOM     12  C   UNL     1      -3.856   6.821   0.018  1.00  0.00    -0.013 A 
ATOM     13  C   UNL     1      -4.199   5.536  -2.483  1.00  0.00     0.003 A 
ATOM     14  C   UNL     1      -3.662   7.489   1.359  1.00  0.00     0.047 C 
ATOM     15  C   UNL     1      -3.319   6.609  -2.373  1.00  0.00     0.016 A 
BRANCH  10  16
ATOM     16  N   UNL     1      -5.125   5.074   1.050  1.00  0.00    -0.322 N 
ATOM     17  C   UNL     1      -4.425   4.123   1.769  1.00  0.00     0.259 C 
ATOM     18  O   UNL     1      -4.869   3.799   2.871  1.00  0.00    -0.269 OA
ATOM     19  H   UNL     1      -6.016   5.335   1.379  1.00  0.00     0.170 HD
BRANCH  17  20
ATOM     20  C   UNL     1      -3.211   3.521   1.216  1.00  0.00     0.081 A 
ATOM     21  N   UNL     1      -1.657   2.021   0.675  1.00  0.00    -0.237 N 
ATOM     22  N   UNL     1      -1.188   3.190   0.188  1.00  0.00    -0.175 NA
ATOM     23  C   UNL     1      -2.786   2.220   1.454  1.00  0.00     0.054 A 
ATOM     24  C   UNL     1      -2.136   4.072   0.486  1.00  0.00     0.149 A 
ATOM     25  C   UNL     1      -3.330   1.248   2.438  1.00  0.00     0.068 C 
BRANCH  21  26
ATOM     26  C   UNL     1      -0.965   0.824   0.372  1.00  0.00     0.065 A 
ATOM     27  C   UNL     1       2.638  -0.235  -0.226  1.00  0.00     0.044 C 
ATOM     28  C   UNL     1       1.146  -0.285  -0.087  1.00  0.00    -0.049 A 
ATOM     29  C   UNL     1       0.472  -1.512  -0.114  1.00  0.00     0.003 A 
ATOM     30  C   UNL     1       0.415   0.886   0.128  1.00  0.00     0.031 A 
ATOM     31  C   UNL     1      -0.912  -1.568   0.061  1.00  0.00     0.002 A 
ATOM     32  C   UNL     1      -1.634  -0.401   0.307  1.00  0.00     0.028 A 
ENDBRANCH  21  26
ENDBRANCH  17  20
ENDBRANCH  10  16
ENDBRANCH   7   9
ENDBRANCH   6   7
ENDBRANCH   5   6
ENDBRANCH   4   5
ENDBRANCH   3   4
ENDBRANCH   2   3
ENDBRANCH   1   2
BRANCH   1  33
ATOM     33  O   UNL     1      -4.589  10.156  -3.069  1.00  0.00    -0.377 OA
BRANCH  33  34
ATOM     34  C   UNL     1      -4.590  10.846  -4.314  1.00  0.00     0.188 C 
BRANCH  34  35
ATOM     35  C   UNL     1      -5.562  12.026  -4.425  1.00  0.00     0.188 C 
BRANCH  35  36
ATOM     36  O   UNL     1      -5.505  12.809  -3.238  1.00  0.00    -0.376 OA
BRANCH  36  37
ATOM     37  C   UNL     1      -6.753  13.313  -2.768  1.00  0.00     0.202 C 
BRANCH  37  38
ATOM     38  C   UNL     1      -7.218  14.524  -3.577  1.00  0.00     0.261 C 
BRANCH  38  39
ATOM     39  O   UNL     1      -6.242  15.573  -3.439  1.00  0.00    -0.460 OA
BRANCH  39  40
ATOM     40  C   UNL     1      -5.299  15.586  -4.418  1.00  0.00     0.338 C 
ATOM     41  O   UNL     1      -5.529  15.551  -5.617  1.00  0.00    -0.246 OA
BRANCH  40  42
ATOM     42  C   UNL     1      -3.943  15.409  -3.825  1.00  0.00     0.060 A 
ATOM     43  C   UNL     1      -2.852  15.136  -4.663  1.00  0.00     0.016 A 
ATOM     44  C   UNL     1      -3.798  15.254  -2.449  1.00  0.00     0.016 A 
ATOM     45  C   UNL     1      -1.661  14.606  -4.136  1.00  0.00     0.010 A 
ATOM     46  C   UNL     1      -2.651  14.652  -1.951  1.00  0.00     0.010 A 
ATOM     47  C   UNL     1      -1.573  14.284  -2.777  1.00  0.00    -0.014 A 
BRANCH  47  48
ATOM     48  C   UNL     1      -0.538  13.402  -2.172  1.00  0.00     0.031 A 
ATOM     49  C   UNL     1      -0.032  13.632  -0.762  1.00  0.00     0.074 A 
ATOM     50  C   UNL     1      -0.322  12.167  -2.709  1.00  0.00     0.049 A 
ATOM     51  N   UNL     1       0.789  12.838  -0.152  1.00  0.00    -0.248 NA
ATOM     52  C   UNL     1      -0.391  14.762   0.104  1.00  0.00     0.031 C 
ATOM     53  C   UNL     1       0.060  10.972  -1.941  1.00  0.00     0.029 A 
ATOM     54  N   UNL     1      -0.421  11.654  -4.006  1.00  0.00    -0.354 N 
ATOM     55  C   UNL     1       0.656  13.047   1.199  1.00  0.00     0.074 A 
ATOM     56  C   UNL     1       0.049  14.349   1.301  1.00  0.00     0.031 C 
ATOM     57  C   UNL     1       0.266   9.932  -2.749  1.00  0.00     0.029 A 
ATOM     58  C   UNL     1       0.355  10.481  -4.069  1.00  0.00     0.049 A 
ATOM     59  H   UNL     1      -0.942  12.044  -4.745  1.00  0.00     0.167 HD
ATOM     60  C   UNL     1       0.928  12.032   2.071  1.00  0.00     0.031 A 
ATOM     61  C   UNL     1       1.444  10.287  -4.867  1.00  0.00     0.031 A 
ATOM     62  C   UNL     1       1.551  10.869   1.430  1.00  0.00     0.049 A 
ATOM     63  C   UNL     1       2.696   9.995  -4.056  1.00  0.00     0.074 A 
ATOM     64  C   UNL     1       1.242   9.520   1.367  1.00  0.00     0.029 A 
ATOM     65  N   UNL     1       2.631  11.059   0.571  1.00  0.00    -0.354 N 
ATOM     66  N   UNL     1       2.777  10.283  -2.784  1.00  0.00    -0.248 NA
ATOM     67  C   UNL     1       3.920   9.354  -4.533  1.00  0.00     0.031 C 
ATOM     68  C   UNL     1       2.120   8.912   0.426  1.00  0.00     0.029 A 
ATOM     69  C   UNL     1       2.983   9.884  -0.052  1.00  0.00     0.049 A 
ATOM     70  H   UNL     1       3.083  11.921   0.429  1.00  0.00     0.167 HD
ATOM     71  C   UNL     1       3.930   9.791  -2.253  1.00  0.00     0.074 A 
ATOM     72  C   UNL     1       4.657   9.285  -3.402  1.00  0.00     0.031 C 
ATOM     73  C   UNL     1       4.162   9.824  -0.909  1.00  0.00     0.031 A 
BRANCH  60  74
ATOM     74  C   UNL     1       0.504  11.999   3.528  1.00  0.00    -0.014 A 
ATOM     75  C   UNL     1       1.002  10.985   4.374  1.00  0.00     0.009 A 
ATOM     76  C   UNL     1      -0.438  12.868   4.107  1.00  0.00     0.009 A 
ATOM     77  C   UNL     1       0.605  10.863   5.714  1.00  0.00     0.001 A 
ATOM     78  C   UNL     1      -0.808  12.777   5.459  1.00  0.00     0.001 A 
ATOM     79  C   UNL     1      -0.287  11.773   6.263  1.00  0.00     0.000 A 
ENDBRANCH  60  74
BRANCH  61  80
ATOM     80  C   UNL     1       1.295  10.905  -6.202  1.00  0.00    -0.014 A 
ATOM     81  C   UNL     1       0.406  10.242  -7.074  1.00  0.00     0.009 A 
ATOM     82  C   UNL     1       1.508  12.281  -6.373  1.00  0.00     0.009 A 
ATOM     83  C   UNL     1      -0.378  10.963  -7.976  1.00  0.00     0.001 A 
ATOM     84  C   UNL     1       0.714  13.000  -7.278  1.00  0.00     0.001 A 
ATOM     85  C   UNL     1      -0.253  12.348  -8.047  1.00  0.00     0.000 A 
ENDBRANCH  61  80
BRANCH  73  86
ATOM     86  C   UNL     1       5.505   9.757  -0.230  1.00  0.00    -0.014 A 
ATOM     87  C   UNL     1       6.715  10.016  -0.882  1.00  0.00     0.009 A 
ATOM     88  C   UNL     1       5.552   9.654   1.182  1.00  0.00     0.009 A 
ATOM     89  C   UNL     1       7.909  10.159  -0.160  1.00  0.00     0.001 A 
ATOM     90  C   UNL     1       6.730   9.835   1.906  1.00  0.00     0.001 A 
ATOM     91  C   UNL     1       7.913  10.086   1.231  1.00  0.00     0.000 A 
ENDBRANCH  73  86
ENDBRANCH  47  48
ENDBRANCH  40  42
ENDBRANCH  39  40
ENDBRANCH  38  39
ENDBRANCH  37  38
ENDBRANCH  36  37
ENDBRANCH  35  36
ENDBRANCH  34  35
ENDBRANCH  33  34
ENDBRANCH   1  33
TORSDOF 23
