REMARK SMILES CC[C@@](C[C@@H]1CCOC1)(C(=O)OCCOCCOCCOCCOC(=O)c1ccc(-c2c3nc(c(-c4ccccc4)c4ccc([nH]4)c(-c4ccccc4)c4nc(c(-c5ccccc5)c5ccc2[nH]5)C=C4)C=C3)cc1)c1ccccc1
REMARK SMILES IDX 18 1 17 2 16 3 15 4 14 5 13 6 12 7 10 8 11 9 3 10 2 11 1 12
REMARK SMILES IDX 4 13 5 14 6 15 9 16 7 17 8 18 75 19 76 20 80 21 77 22 79 23
REMARK SMILES IDX 78 24 19 25 20 26 21 27 22 28 23 29 24 30 25 31 26 32 27 33
REMARK SMILES IDX 28 34 74 35 29 36 73 37 30 38 31 39 32 40 67 41 33 42 72 43
REMARK SMILES IDX 66 44 68 45 34 46 71 47 65 48 64 49 35 51 57 52 42 53 56 54
REMARK SMILES IDX 43 55 46 56 55 57 69 58 44 59 45 60 54 62 70 63 47 64 36 65
REMARK SMILES IDX 37 66 41 67 38 68 40 69 39 70 58 71 59 72 63 73 60 74 62 75
REMARK SMILES IDX 61 76 48 77 49 78 53 79 50 80 52 81 51 82
REMARK H PARENT 68 50 46 61
REMARK Flexibility Score: inf
ROOT
ATOM      1  O   UNL     1      -0.226  -0.504   4.210  1.00  0.00    -0.377 OA
ENDROOT
BRANCH   1   2
ATOM      2  C   UNL     1       1.166  -0.298   4.389  1.00  0.00     0.188 C 
BRANCH   2   3
ATOM      3  C   UNL     1       1.708   0.818   5.296  1.00  0.00     0.188 C 
BRANCH   3   4
ATOM      4  O   UNL     1       0.856   1.232   6.335  1.00  0.00    -0.376 OA
BRANCH   4   5
ATOM      5  C   UNL     1      -0.089   2.261   6.122  1.00  0.00     0.202 C 
BRANCH   5   6
ATOM      6  C   UNL     1      -0.576   2.737   4.744  1.00  0.00     0.261 C 
BRANCH   6   7
ATOM      7  O   UNL     1      -0.184   2.001   3.571  1.00  0.00    -0.463 OA
BRANCH   7   8
ATOM      8  C   UNL     1       0.726   2.611   2.787  1.00  0.00     0.316 C 
ATOM      9  O   UNL     1       1.220   3.695   3.106  1.00  0.00    -0.251 OA
BRANCH   8  10
ATOM     10  C   UNL     1       1.048   1.934   1.399  1.00  0.00     0.093 C 
BRANCH  10  11
ATOM     11  C   UNL     1       0.540   0.509   0.964  1.00  0.00     0.020 C 
ATOM     12  C   UNL     1       0.896   0.117  -0.484  1.00  0.00     0.005 C 
ENDBRANCH  10  11
BRANCH  10  13
ATOM     13  C   UNL     1       0.351   2.970   0.443  1.00  0.00     0.029 C 
BRANCH  13  14
ATOM     14  C   UNL     1      -1.226   3.086   0.410  1.00  0.00     0.019 C 
ATOM     15  C   UNL     1      -1.728   4.487   0.762  1.00  0.00     0.034 C 
ATOM     16  C   UNL     1      -2.173   2.196   1.237  1.00  0.00     0.163 C 
ATOM     17  C   UNL     1      -2.412   4.322   2.096  1.00  0.00     0.160 C 
ATOM     18  O   UNL     1      -3.004   3.030   2.056  1.00  0.00    -0.381 OA
ENDBRANCH  13  14
ENDBRANCH  10  13
BRANCH  10  19
ATOM     19  C   UNL     1       2.635   1.912   1.374  1.00  0.00    -0.031 A 
ATOM     20  C   UNL     1       3.375   0.730   1.626  1.00  0.00     0.005 A 
ATOM     21  C   UNL     1       3.381   3.103   1.317  1.00  0.00     0.005 A 
ATOM     22  C   UNL     1       4.756   0.739   1.851  1.00  0.00     0.000 A 
ATOM     23  C   UNL     1       4.762   3.116   1.561  1.00  0.00     0.000 A 
ATOM     24  C   UNL     1       5.449   1.938   1.835  1.00  0.00     0.000 A 
ENDBRANCH  10  19
ENDBRANCH   8  10
ENDBRANCH   7   8
ENDBRANCH   6   7
ENDBRANCH   5   6
ENDBRANCH   4   5
ENDBRANCH   3   4
ENDBRANCH   2   3
ENDBRANCH   1   2
BRANCH   1  25
ATOM     25  C   UNL     1      -1.065  -0.749   5.332  1.00  0.00     0.188 C 
BRANCH  25  26
ATOM     26  C   UNL     1      -0.464  -1.266   6.653  1.00  0.00     0.188 C 
BRANCH  26  27
ATOM     27  O   UNL     1       0.852  -1.774   6.548  1.00  0.00    -0.376 OA
BRANCH  27  28
ATOM     28  C   UNL     1       1.029  -3.165   6.338  1.00  0.00     0.202 C 
BRANCH  28  29
ATOM     29  C   UNL     1       0.322  -3.836   5.148  1.00  0.00     0.261 C 
BRANCH  29  30
ATOM     30  O   UNL     1      -1.108  -3.711   5.089  1.00  0.00    -0.460 OA
BRANCH  30  31
ATOM     31  C   UNL     1      -1.829  -4.159   6.135  1.00  0.00     0.338 C 
ATOM     32  O   UNL     1      -1.415  -4.711   7.142  1.00  0.00    -0.246 OA
BRANCH  31  33
ATOM     33  C   UNL     1      -3.219  -3.704   5.944  1.00  0.00     0.060 A 
ATOM     34  C   UNL     1      -3.781  -2.805   6.861  1.00  0.00     0.016 A 
ATOM     35  C   UNL     1      -3.964  -4.174   4.861  1.00  0.00     0.016 A 
ATOM     36  C   UNL     1      -5.108  -2.404   6.720  1.00  0.00     0.010 A 
ATOM     37  C   UNL     1      -5.301  -3.792   4.736  1.00  0.00     0.010 A 
ATOM     38  C   UNL     1      -5.888  -2.938   5.687  1.00  0.00    -0.014 A 
BRANCH  38  39
ATOM     39  C   UNL     1      -7.360  -2.788   5.732  1.00  0.00     0.031 A 
ATOM     40  C   UNL     1      -8.169  -3.921   6.302  1.00  0.00     0.074 A 
ATOM     41  C   UNL     1      -7.967  -1.670   5.300  1.00  0.00     0.049 A 
ATOM     42  N   UNL     1      -9.467  -4.053   6.393  1.00  0.00    -0.248 NA
ATOM     43  C   UNL     1      -7.407  -5.060   6.842  1.00  0.00     0.031 C 
ATOM     44  C   UNL     1      -7.291  -0.482   4.782  1.00  0.00     0.029 A 
ATOM     45  N   UNL     1      -9.302  -1.360   5.226  1.00  0.00    -0.354 N 
ATOM     46  C   UNL     1      -9.675  -5.292   6.987  1.00  0.00     0.074 A 
ATOM     47  C   UNL     1      -8.375  -5.885   7.206  1.00  0.00     0.031 C 
ATOM     48  C   UNL     1      -8.219   0.425   4.429  1.00  0.00     0.029 A 
ATOM     49  C   UNL     1      -9.550  -0.134   4.660  1.00  0.00     0.049 A 
ATOM     50  H   UNL     1     -10.013  -1.960   5.547  1.00  0.00     0.167 HD
ATOM     51  C   UNL     1     -10.846  -5.882   7.325  1.00  0.00     0.031 A 
ATOM     52  C   UNL     1     -10.719   0.454   4.340  1.00  0.00     0.031 A 
ATOM     53  C   UNL     1     -12.138  -5.299   7.086  1.00  0.00     0.049 A 
ATOM     54  C   UNL     1     -12.010  -0.265   4.637  1.00  0.00     0.074 A 
ATOM     55  C   UNL     1     -13.386  -5.813   7.392  1.00  0.00     0.029 A 
ATOM     56  N   UNL     1     -12.348  -4.074   6.471  1.00  0.00    -0.354 N 
ATOM     57  N   UNL     1     -12.199  -1.428   5.213  1.00  0.00    -0.248 NA
ATOM     58  C   UNL     1     -13.252   0.418   4.245  1.00  0.00     0.031 C 
ATOM     59  C   UNL     1     -14.352  -4.929   6.902  1.00  0.00     0.029 A 
ATOM     60  C   UNL     1     -13.706  -3.829   6.361  1.00  0.00     0.049 A 
ATOM     61  H   UNL     1     -11.637  -3.469   6.160  1.00  0.00     0.167 HD
ATOM     62  C   UNL     1     -13.577  -1.600   5.282  1.00  0.00     0.074 A 
ATOM     63  C   UNL     1     -14.175  -0.415   4.703  1.00  0.00     0.031 C 
ATOM     64  C   UNL     1     -14.285  -2.644   5.782  1.00  0.00     0.031 A 
BRANCH  51  65
ATOM     65  C   UNL     1     -10.775  -7.249   7.949  1.00  0.00    -0.014 A 
ATOM     66  C   UNL     1     -10.264  -7.440   9.243  1.00  0.00     0.009 A 
ATOM     67  C   UNL     1     -11.245  -8.362   7.235  1.00  0.00     0.009 A 
ATOM     68  C   UNL     1     -10.191  -8.722   9.792  1.00  0.00     0.001 A 
ATOM     69  C   UNL     1     -11.202  -9.638   7.800  1.00  0.00     0.001 A 
ATOM     70  C   UNL     1     -10.665  -9.818   9.073  1.00  0.00     0.000 A 
ENDBRANCH  51  65
BRANCH  52  71
ATOM     71  C   UNL     1     -10.728   1.782   3.670  1.00  0.00    -0.014 A 
ATOM     72  C   UNL     1     -11.236   2.915   4.325  1.00  0.00     0.009 A 
ATOM     73  C   UNL     1     -10.248   1.919   2.358  1.00  0.00     0.009 A 
ATOM     74  C   UNL     1     -11.289   4.148   3.669  1.00  0.00     0.001 A 
ATOM     75  C   UNL     1     -10.271   3.159   1.717  1.00  0.00     0.001 A 
ATOM     76  C   UNL     1     -10.802   4.271   2.369  1.00  0.00     0.000 A 
ENDBRANCH  52  71
BRANCH  64  77
ATOM     77  C   UNL     1     -15.786  -2.534   5.769  1.00  0.00    -0.014 A 
ATOM     78  C   UNL     1     -16.518  -2.597   4.573  1.00  0.00     0.009 A 
ATOM     79  C   UNL     1     -16.480  -2.412   6.984  1.00  0.00     0.009 A 
ATOM     80  C   UNL     1     -17.912  -2.502   4.593  1.00  0.00     0.001 A 
ATOM     81  C   UNL     1     -17.874  -2.353   7.003  1.00  0.00     0.001 A 
ATOM     82  C   UNL     1     -18.588  -2.386   5.807  1.00  0.00     0.000 A 
ENDBRANCH  64  77
ENDBRANCH  38  39
ENDBRANCH  31  33
ENDBRANCH  30  31
ENDBRANCH  29  30
ENDBRANCH  28  29
ENDBRANCH  27  28
ENDBRANCH  26  27
ENDBRANCH  25  26
ENDBRANCH   1  25
TORSDOF 24
