REMARK SMILES O=C(OCCOCCOCCOCCOC(=O)c1nnn(-c2cccc(C(F)(F)F)c2)c1[C@@H]1COc2ccccc2O1)c1ccc(-c2c3nc(c(-c4ccccc4)c4ccc([nH]4)c(-c4ccccc4)c4nc(c(-c5ccccc5)c5ccc2[nH]5)C=C4)C=C3)cc1
REMARK SMILES IDX 9 1 8 2 7 3 6 4 5 5 4 6 3 7 2 8 1 9 43 10 44 11 90 12 45 13
REMARK SMILES IDX 89 14 46 15 47 16 48 17 83 18 49 19 88 20 82 21 84 22 50 23
REMARK SMILES IDX 87 24 81 25 80 26 51 28 73 29 58 30 72 31 59 32 62 33 71 34
REMARK SMILES IDX 85 35 60 36 61 37 70 39 86 40 63 41 52 42 53 43 57 44 54 45
REMARK SMILES IDX 56 46 55 47 74 48 75 49 79 50 76 51 78 52 77 53 64 54 65 55
REMARK SMILES IDX 69 56 66 57 68 58 67 59 10 60 11 61 12 62 13 63 14 64 15 65
REMARK SMILES IDX 16 66 17 67 18 68 19 69 32 70 20 71 21 72 33 73 34 74 42 75
REMARK SMILES IDX 35 76 41 77 36 78 40 79 37 80 39 81 38 82 22 83 23 84 31 85
REMARK SMILES IDX 24 86 26 87 25 88 27 89 28 90 29 91 30 92
REMARK H PARENT 84 27 62 38
REMARK Flexibility Score: inf
ROOT
ATOM      1  O   UNL     1       3.096  -3.061  -1.449  1.00  0.00    -0.377 OA
ENDROOT
BRANCH   1   2
ATOM      2  C   UNL     1       2.621  -1.888  -0.799  1.00  0.00     0.188 C 
BRANCH   2   3
ATOM      3  C   UNL     1       3.141  -0.566  -1.388  1.00  0.00     0.188 C 
BRANCH   3   4
ATOM      4  O   UNL     1       4.179   0.210  -0.787  1.00  0.00    -0.376 OA
BRANCH   4   5
ATOM      5  C   UNL     1       5.109  -0.313   0.135  1.00  0.00     0.202 C 
BRANCH   5   6
ATOM      6  C   UNL     1       4.706  -0.254   1.612  1.00  0.00     0.261 C 
BRANCH   6   7
ATOM      7  O   UNL     1       3.334  -0.558   1.892  1.00  0.00    -0.460 OA
BRANCH   7   8
ATOM      8  C   UNL     1       2.210   0.145   1.635  1.00  0.00     0.338 C 
ATOM      9  O   UNL     1       1.130  -0.418   1.819  1.00  0.00    -0.246 OA
BRANCH   8  10
ATOM     10  C   UNL     1       2.176   1.547   1.122  1.00  0.00     0.060 A 
ATOM     11  C   UNL     1       3.276   2.392   0.967  1.00  0.00     0.016 A 
ATOM     12  C   UNL     1       0.899   2.051   0.803  1.00  0.00     0.016 A 
ATOM     13  C   UNL     1       3.110   3.723   0.624  1.00  0.00     0.010 A 
ATOM     14  C   UNL     1       0.722   3.384   0.453  1.00  0.00     0.010 A 
ATOM     15  C   UNL     1       1.829   4.226   0.439  1.00  0.00    -0.014 A 
BRANCH  15  16
ATOM     16  C   UNL     1       1.710   5.672   0.380  1.00  0.00     0.031 A 
ATOM     17  C   UNL     1       2.224   6.375  -0.820  1.00  0.00     0.074 A 
ATOM     18  C   UNL     1       1.148   6.351   1.397  1.00  0.00     0.049 A 
ATOM     19  N   UNL     1       3.132   7.296  -0.873  1.00  0.00    -0.248 NA
ATOM     20  C   UNL     1       1.671   5.990  -2.123  1.00  0.00     0.031 C 
ATOM     21  C   UNL     1       0.377   5.804   2.517  1.00  0.00     0.029 A 
ATOM     22  N   UNL     1       1.052   7.697   1.570  1.00  0.00    -0.354 N 
ATOM     23  C   UNL     1       3.166   7.723  -2.197  1.00  0.00     0.074 A 
ATOM     24  C   UNL     1       2.306   6.832  -2.939  1.00  0.00     0.031 C 
ATOM     25  C   UNL     1      -0.308   6.807   3.104  1.00  0.00     0.029 A 
ATOM     26  C   UNL     1       0.085   8.063   2.488  1.00  0.00     0.049 A 
ATOM     27  H   UNL     1       1.616   8.347   1.090  1.00  0.00     0.167 HD
ATOM     28  C   UNL     1       3.759   8.887  -2.580  1.00  0.00     0.031 A 
ATOM     29  C   UNL     1      -0.428   9.299   2.673  1.00  0.00     0.031 A 
ATOM     30  C   UNL     1       4.667   9.407  -1.599  1.00  0.00     0.049 A 
ATOM     31  C   UNL     1       0.516  10.287   2.108  1.00  0.00     0.074 A 
ATOM     32  C   UNL     1       5.836   8.966  -1.013  1.00  0.00     0.029 A 
ATOM     33  N   UNL     1       4.256  10.483  -0.853  1.00  0.00    -0.354 N 
ATOM     34  N   UNL     1       1.676  10.564   2.631  1.00  0.00    -0.248 NA
ATOM     35  C   UNL     1       0.334  10.728   0.734  1.00  0.00     0.031 C 
ATOM     36  C   UNL     1       5.821   9.507   0.305  1.00  0.00     0.029 A 
ATOM     37  C   UNL     1       4.645  10.247   0.440  1.00  0.00     0.049 A 
ATOM     38  H   UNL     1       3.775  11.276  -1.184  1.00  0.00     0.167 HD
ATOM     39  C   UNL     1       2.501  10.830   1.548  1.00  0.00     0.074 A 
ATOM     40  C   UNL     1       1.593  11.052   0.429  1.00  0.00     0.031 C 
ATOM     41  C   UNL     1       3.840  10.565   1.599  1.00  0.00     0.031 A 
BRANCH  28  42
ATOM     42  C   UNL     1       3.264   9.728  -3.725  1.00  0.00    -0.014 A 
ATOM     43  C   UNL     1       4.051  10.799  -4.186  1.00  0.00     0.009 A 
ATOM     44  C   UNL     1       1.933   9.671  -4.181  1.00  0.00     0.009 A 
ATOM     45  C   UNL     1       3.518  11.781  -5.031  1.00  0.00     0.001 A 
ATOM     46  C   UNL     1       1.411  10.626  -5.057  1.00  0.00     0.001 A 
ATOM     47  C   UNL     1       2.198  11.694  -5.465  1.00  0.00     0.000 A 
ENDBRANCH  28  42
BRANCH  29  48
ATOM     48  C   UNL     1      -1.801   9.635   3.092  1.00  0.00    -0.014 A 
ATOM     49  C   UNL     1      -2.110  10.903   3.600  1.00  0.00     0.009 A 
ATOM     50  C   UNL     1      -2.869   8.769   2.785  1.00  0.00     0.009 A 
ATOM     51  C   UNL     1      -3.443  11.294   3.778  1.00  0.00     0.001 A 
ATOM     52  C   UNL     1      -4.198   9.155   2.973  1.00  0.00     0.001 A 
ATOM     53  C   UNL     1      -4.485  10.424   3.459  1.00  0.00     0.000 A 
ENDBRANCH  29  48
BRANCH  41  54
ATOM     54  C   UNL     1       4.447  10.251   2.943  1.00  0.00    -0.014 A 
ATOM     55  C   UNL     1       4.036   9.150   3.716  1.00  0.00     0.009 A 
ATOM     56  C   UNL     1       5.561  10.987   3.374  1.00  0.00     0.009 A 
ATOM     57  C   UNL     1       4.693   8.822   4.905  1.00  0.00     0.001 A 
ATOM     58  C   UNL     1       6.231  10.646   4.552  1.00  0.00     0.001 A 
ATOM     59  C   UNL     1       5.793   9.569   5.320  1.00  0.00     0.000 A 
ENDBRANCH  41  54
ENDBRANCH  15  16
ENDBRANCH   8  10
ENDBRANCH   7   8
ENDBRANCH   6   7
ENDBRANCH   5   6
ENDBRANCH   4   5
ENDBRANCH   3   4
ENDBRANCH   2   3
ENDBRANCH   1   2
BRANCH   1  60
ATOM     60  C   UNL     1       4.422  -3.429  -1.138  1.00  0.00     0.188 C 
BRANCH  60  61
ATOM     61  C   UNL     1       5.478  -3.103  -2.211  1.00  0.00     0.188 C 
BRANCH  61  62
ATOM     62  O   UNL     1       5.146  -2.816  -3.564  1.00  0.00    -0.376 OA
BRANCH  62  63
ATOM     63  C   UNL     1       3.874  -3.108  -4.113  1.00  0.00     0.202 C 
BRANCH  63  64
ATOM     64  C   UNL     1       3.525  -4.579  -4.356  1.00  0.00     0.261 C 
BRANCH  64  65
ATOM     65  O   UNL     1       3.795  -5.439  -3.244  1.00  0.00    -0.458 OA
BRANCH  65  66
ATOM     66  C   UNL     1       5.000  -6.090  -3.289  1.00  0.00     0.361 C 
ATOM     67  O   UNL     1       5.776  -6.039  -4.220  1.00  0.00    -0.244 OA
BRANCH  66  68
ATOM     68  C   UNL     1       5.295  -6.782  -2.036  1.00  0.00     0.198 A 
ATOM     69  N   UNL     1       6.588  -6.856  -1.576  1.00  0.00    -0.122 NA
ATOM     70  C   UNL     1       4.450  -7.342  -1.084  1.00  0.00     0.123 A 
ATOM     71  N   UNL     1       6.576  -7.455  -0.397  1.00  0.00    -0.061 NA
ATOM     72  N   UNL     1       5.331  -7.944  -0.196  1.00  0.00    -0.213 N 
BRANCH  70  73
ATOM     73  C   UNL     1       2.958  -7.300  -0.910  1.00  0.00     0.262 C 
ATOM     74  C   UNL     1       2.490  -6.492   0.310  1.00  0.00     0.281 C 
ATOM     75  O   UNL     1       2.418  -8.624  -0.969  1.00  0.00    -0.477 OA
ATOM     76  O   UNL     1       2.684  -7.199   1.536  1.00  0.00    -0.485 OA
ATOM     77  C   UNL     1       1.949  -9.104   0.228  1.00  0.00     0.162 A 
ATOM     78  C   UNL     1       2.102  -8.436   1.445  1.00  0.00     0.161 A 
ATOM     79  C   UNL     1       1.358 -10.365   0.202  1.00  0.00     0.050 A 
ATOM     80  C   UNL     1       1.716  -9.043   2.638  1.00  0.00     0.050 A 
ATOM     81  C   UNL     1       0.947 -10.967   1.393  1.00  0.00     0.004 A 
ATOM     82  C   UNL     1       1.135 -10.310   2.611  1.00  0.00     0.004 A 
ENDBRANCH  70  73
BRANCH  72  83
ATOM     83  C   UNL     1       5.229  -9.217   0.390  1.00  0.00     0.067 A 
ATOM     84  C   UNL     1       5.392  -9.369   1.766  1.00  0.00     0.028 A 
ATOM     85  C   UNL     1       5.026 -10.322  -0.447  1.00  0.00     0.041 A 
ATOM     86  C   UNL     1       5.259 -10.642   2.319  1.00  0.00     0.003 A 
ATOM     87  C   UNL     1       4.946 -11.606   0.101  1.00  0.00     0.058 A 
ATOM     88  C   UNL     1       5.033 -11.751   1.495  1.00  0.00     0.013 A 
BRANCH  87  89
ATOM     89  C   UNL     1       4.740 -12.801  -0.793  1.00  0.00     0.416 C 
ATOM     90  F   UNL     1       5.462 -13.887  -0.401  1.00  0.00    -0.166 F 
ATOM     91  F   UNL     1       3.441 -13.206  -0.831  1.00  0.00    -0.166 F 
ATOM     92  F   UNL     1       5.095 -12.571  -2.090  1.00  0.00    -0.166 F 
ENDBRANCH  87  89
ENDBRANCH  72  83
ENDBRANCH  66  68
ENDBRANCH  65  66
ENDBRANCH  64  65
ENDBRANCH  63  64
ENDBRANCH  62  63
ENDBRANCH  61  62
ENDBRANCH  60  61
ENDBRANCH   1  60
TORSDOF 23
