REMARK SMILES C[C@@H]1[C@@H](C(=O)OCCOCCOCCOCCOC(=O)c2ccc(-c3c4nc(c(-c5ccccc5)c5ccc([nH]5)c(-c5ccccc5)c5nc(c(-c6ccccc6)c6ccc3[nH]6)C=C5)C=C4)cc2)CCN1C(=O)N1CCCCC1
REMARK SMILES IDX 13 1 12 2 11 3 10 4 9 5 8 6 7 7 6 8 4 9 5 10 3 11 1 12 2 13
REMARK SMILES IDX 71 14 69 15 70 16 72 17 73 18 74 19 75 20 79 21 76 22 78 23
REMARK SMILES IDX 77 24 14 25 15 26 16 27 17 28 18 29 19 30 20 31 21 32 22 33
REMARK SMILES IDX 68 34 23 35 67 36 24 37 25 38 26 39 61 40 27 41 66 42 60 43
REMARK SMILES IDX 62 44 28 45 65 46 59 47 58 48 29 50 51 51 36 52 50 53 37 54
REMARK SMILES IDX 40 55 49 56 63 57 38 58 39 59 48 61 64 62 41 63 30 64 31 65
REMARK SMILES IDX 35 66 32 67 34 68 33 69 52 70 53 71 57 72 54 73 56 74 55 75
REMARK SMILES IDX 42 76 43 77 47 78 44 79 46 80 45 81
REMARK H PARENT 62 49 40 60
REMARK Flexibility Score: inf
ROOT
ATOM      1  C   UNL     1      -1.236   4.867  -3.379  1.00  0.00     0.188 C 
ENDROOT
BRANCH   1   2
ATOM      2  O   UNL     1      -1.080   3.784  -2.469  1.00  0.00    -0.377 OA
BRANCH   2   3
ATOM      3  C   UNL     1       0.241   3.337  -2.240  1.00  0.00     0.188 C 
BRANCH   3   4
ATOM      4  C   UNL     1       0.650   2.182  -3.168  1.00  0.00     0.188 C 
BRANCH   4   5
ATOM      5  O   UNL     1      -0.028   2.044  -4.401  1.00  0.00    -0.376 OA
BRANCH   5   6
ATOM      6  C   UNL     1      -1.391   1.670  -4.542  1.00  0.00     0.202 C 
BRANCH   6   7
ATOM      7  C   UNL     1      -2.393   1.273  -3.439  1.00  0.00     0.261 C 
BRANCH   7   8
ATOM      8  O   UNL     1      -1.945   1.277  -2.093  1.00  0.00    -0.463 OA
BRANCH   8   9
ATOM      9  C   UNL     1      -1.264   0.171  -1.714  1.00  0.00     0.311 C 
ATOM     10  O   UNL     1      -1.098  -0.814  -2.416  1.00  0.00    -0.252 OA
BRANCH   9  11
ATOM     11  C   UNL     1      -0.650   0.420  -0.349  1.00  0.00     0.123 C 
ATOM     12  C   UNL     1       1.563   0.194   0.816  1.00  0.00     0.032 C 
ATOM     13  C   UNL     1       0.583  -0.463  -0.163  1.00  0.00     0.098 C 
ATOM     14  N   UNL     1      -0.009  -1.716   0.325  1.00  0.00    -0.321 N 
ATOM     15  C   UNL     1      -1.572   0.017   0.784  1.00  0.00     0.039 C 
ATOM     16  C   UNL     1      -1.347  -1.483   0.865  1.00  0.00     0.122 C 
BRANCH  14  17
ATOM     17  C   UNL     1       0.219  -2.941  -0.294  1.00  0.00     0.320 C 
ATOM     18  O   UNL     1      -0.647  -3.813  -0.364  1.00  0.00    -0.248 OA
ATOM     19  N   UNL     1       1.448  -3.089  -0.903  1.00  0.00    -0.325 N 
ATOM     20  C   UNL     1       1.540  -3.842  -2.144  1.00  0.00     0.121 C 
ATOM     21  C   UNL     1       2.683  -2.917  -0.157  1.00  0.00     0.121 C 
ATOM     22  C   UNL     1       2.180  -5.206  -1.918  1.00  0.00     0.022 C 
ATOM     23  C   UNL     1       3.364  -4.262   0.091  1.00  0.00     0.022 C 
ATOM     24  C   UNL     1       3.522  -5.060  -1.202  1.00  0.00     0.004 C 
ENDBRANCH  14  17
ENDBRANCH   9  11
ENDBRANCH   8   9
ENDBRANCH   7   8
ENDBRANCH   6   7
ENDBRANCH   5   6
ENDBRANCH   4   5
ENDBRANCH   3   4
ENDBRANCH   2   3
ENDBRANCH   1   2
BRANCH   1  25
ATOM     25  C   UNL     1      -0.266   5.030  -4.575  1.00  0.00     0.188 C 
BRANCH  25  26
ATOM     26  O   UNL     1       1.105   4.821  -4.264  1.00  0.00    -0.376 OA
BRANCH  26  27
ATOM     27  C   UNL     1       1.959   5.945  -4.132  1.00  0.00     0.202 C 
BRANCH  27  28
ATOM     28  C   UNL     1       1.725   6.851  -2.914  1.00  0.00     0.261 C 
BRANCH  28  29
ATOM     29  O   UNL     1       0.399   7.380  -2.777  1.00  0.00    -0.460 OA
BRANCH  29  30
ATOM     30  C   UNL     1      -0.038   8.201  -3.753  1.00  0.00     0.338 C 
ATOM     31  O   UNL     1       0.587   8.585  -4.728  1.00  0.00    -0.246 OA
BRANCH  30  32
ATOM     32  C   UNL     1      -1.486   8.410  -3.554  1.00  0.00     0.060 A 
ATOM     33  C   UNL     1      -2.370   8.038  -4.576  1.00  0.00     0.016 A 
ATOM     34  C   UNL     1      -1.969   8.961  -2.365  1.00  0.00     0.016 A 
ATOM     35  C   UNL     1      -3.739   8.255  -4.428  1.00  0.00     0.010 A 
ATOM     36  C   UNL     1      -3.339   9.200  -2.228  1.00  0.00     0.010 A 
ATOM     37  C   UNL     1      -4.224   8.883  -3.274  1.00  0.00    -0.014 A 
BRANCH  37  38
ATOM     38  C   UNL     1      -5.612   9.402  -3.251  1.00  0.00     0.031 A 
ATOM     39  C   UNL     1      -5.830  10.857  -3.568  1.00  0.00     0.074 A 
ATOM     40  C   UNL     1      -6.659   8.604  -2.981  1.00  0.00     0.049 A 
ATOM     41  N   UNL     1      -6.940  11.550  -3.570  1.00  0.00    -0.248 NA
ATOM     42  C   UNL     1      -4.633  11.634  -3.932  1.00  0.00     0.031 C 
ATOM     43  C   UNL     1      -6.587   7.170  -2.713  1.00  0.00     0.029 A 
ATOM     44  N   UNL     1      -7.996   8.900  -2.886  1.00  0.00    -0.354 N 
ATOM     45  C   UNL     1      -6.572  12.843  -3.923  1.00  0.00     0.074 A 
ATOM     46  C   UNL     1      -5.137  12.847  -4.096  1.00  0.00     0.031 C 
ATOM     47  C   UNL     1      -7.828   6.710  -2.474  1.00  0.00     0.029 A 
ATOM     48  C   UNL     1      -8.774   7.824  -2.536  1.00  0.00     0.049 A 
ATOM     49  H   UNL     1      -8.363   9.799  -3.052  1.00  0.00     0.167 HD
ATOM     50  C   UNL     1      -7.359  13.931  -4.092  1.00  0.00     0.031 A 
ATOM     51  C   UNL     1     -10.093   7.754  -2.273  1.00  0.00     0.031 A 
ATOM     52  C   UNL     1      -8.784  13.933  -3.901  1.00  0.00     0.049 A 
ATOM     53  C   UNL     1     -10.935   9.001  -2.375  1.00  0.00     0.074 A 
ATOM     54  C   UNL     1      -9.673  14.982  -4.057  1.00  0.00     0.029 A 
ATOM     55  N   UNL     1      -9.527  12.834  -3.502  1.00  0.00    -0.354 N 
ATOM     56  N   UNL     1     -10.582  10.213  -2.732  1.00  0.00    -0.248 NA
ATOM     57  C   UNL     1     -12.361   8.865  -2.045  1.00  0.00     0.031 C 
ATOM     58  C   UNL     1     -10.944  14.534  -3.686  1.00  0.00     0.029 A 
ATOM     59  C   UNL     1     -10.860  13.187  -3.373  1.00  0.00     0.049 A 
ATOM     60  H   UNL     1      -9.162  11.935  -3.334  1.00  0.00     0.167 HD
ATOM     61  C   UNL     1     -11.747  10.972  -2.703  1.00  0.00     0.074 A 
ATOM     62  C   UNL     1     -12.817  10.081  -2.308  1.00  0.00     0.031 C 
ATOM     63  C   UNL     1     -11.916  12.289  -2.981  1.00  0.00     0.031 A 
BRANCH  50  64
ATOM     64  C   UNL     1      -6.684  15.223  -4.463  1.00  0.00    -0.014 A 
ATOM     65  C   UNL     1      -6.106  15.413  -5.728  1.00  0.00     0.009 A 
ATOM     66  C   UNL     1      -6.650  16.277  -3.537  1.00  0.00     0.009 A 
ATOM     67  C   UNL     1      -5.477  16.619  -6.044  1.00  0.00     0.001 A 
ATOM     68  C   UNL     1      -6.050  17.493  -3.867  1.00  0.00     0.001 A 
ATOM     69  C   UNL     1      -5.455  17.660  -5.116  1.00  0.00     0.000 A 
ENDBRANCH  50  64
BRANCH  51  70
ATOM     70  C   UNL     1     -10.708   6.463  -1.859  1.00  0.00    -0.014 A 
ATOM     71  C   UNL     1     -11.637   5.812  -2.685  1.00  0.00     0.009 A 
ATOM     72  C   UNL     1     -10.392   5.892  -0.616  1.00  0.00     0.009 A 
ATOM     73  C   UNL     1     -12.259   4.635  -2.262  1.00  0.00     0.001 A 
ATOM     74  C   UNL     1     -10.991   4.697  -0.209  1.00  0.00     0.001 A 
ATOM     75  C   UNL     1     -11.932   4.076  -1.027  1.00  0.00     0.000 A 
ENDBRANCH  51  70
BRANCH  63  76
ATOM     76  C   UNL     1     -13.316  12.838  -2.917  1.00  0.00    -0.014 A 
ATOM     77  C   UNL     1     -13.988  12.999  -1.696  1.00  0.00     0.009 A 
ATOM     78  C   UNL     1     -13.953  13.245  -4.101  1.00  0.00     0.009 A 
ATOM     79  C   UNL     1     -15.284  13.520  -1.667  1.00  0.00     0.001 A 
ATOM     80  C   UNL     1     -15.234  13.797  -4.065  1.00  0.00     0.001 A 
ATOM     81  C   UNL     1     -15.903  13.924  -2.850  1.00  0.00     0.000 A 
ENDBRANCH  63  76
ENDBRANCH  37  38
ENDBRANCH  30  32
ENDBRANCH  29  30
ENDBRANCH  28  29
ENDBRANCH  27  28
ENDBRANCH  26  27
ENDBRANCH  25  26
ENDBRANCH   1  25
TORSDOF 21
