REMARK SMILES CCCOc1ccccc1O[C@@H]1CC[C@@]([NH3+])(C(=O)OCCOCCOCCOCCOC(=O)c2ccc(-c3c4nc(c(-c5ccccc5)c5ccc([nH]5)c(-c5ccccc5)c5nc(c(-c6ccccc6)c6ccc3[nH]6)C=C5)C=C4)cc2)C1
REMARK SMILES IDX 23 1 22 2 21 3 20 4 19 5 17 6 18 7 15 8 12 9 13 10 82 11
REMARK SMILES IDX 14 12 11 13 10 14 5 15 6 16 7 17 9 18 8 19 4 20 3 21 2 22
REMARK SMILES IDX 1 23 16 24 24 28 25 29 26 30 27 31 28 32 29 33 30 34 31 35
REMARK SMILES IDX 32 36 33 37 34 38 35 39 81 40 36 41 80 42 37 43 38 44 39 45
REMARK SMILES IDX 74 46 40 47 79 48 73 49 75 50 41 51 78 52 72 53 71 54 42 56
REMARK SMILES IDX 64 57 49 58 63 59 50 60 53 61 62 62 76 63 51 64 52 65 61 67
REMARK SMILES IDX 77 68 54 69 43 70 44 71 48 72 45 73 47 74 46 75 65 76 66 77
REMARK SMILES IDX 70 78 67 79 69 80 68 81 55 82 56 83 60 84 57 85 59 86 58 87
REMARK H PARENT 16 25 16 26 16 27 75 55 53 66
REMARK Flexibility Score: inf
ROOT
ATOM      1  C   UNL     1      -0.130  -3.497  -2.940  1.00  0.00     0.188 C 
ENDROOT
BRANCH   1   2
ATOM      2  O   UNL     1       0.451  -4.462  -3.790  1.00  0.00    -0.376 OA
BRANCH   2   3
ATOM      3  C   UNL     1       0.757  -5.723  -3.222  1.00  0.00     0.202 C 
BRANCH   3   4
ATOM      4  C   UNL     1       1.413  -5.901  -1.818  1.00  0.00     0.261 C 
BRANCH   4   5
ATOM      5  O   UNL     1       1.208  -4.933  -0.759  1.00  0.00    -0.459 OA
BRANCH   5   6
ATOM      6  C   UNL     1       2.252  -4.158  -0.315  1.00  0.00     0.368 C 
ATOM      7  O   UNL     1       3.373  -4.154  -0.812  1.00  0.00    -0.245 OA
BRANCH   6   8
ATOM      8  C   UNL     1       1.858  -3.263   1.054  1.00  0.00     0.196 C 
ATOM      9  C   UNL     1       0.610  -0.212   1.019  1.00  0.00     0.180 C 
ATOM     10  C   UNL     1      -0.871  -1.498   1.525  1.00  0.00     0.052 C 
ATOM     11  C   UNL     1       2.337  -1.302   0.843  1.00  0.00     0.126 C 
ATOM     12  C   UNL     1      -0.112  -3.344   1.453  1.00  0.00     0.085 C 
BRANCH   9  13
ATOM     13  O   UNL     1       0.688   1.132   1.419  1.00  0.00    -0.486 OA
BRANCH  13  14
ATOM     14  C   UNL     1       1.120   1.331   2.670  1.00  0.00     0.161 A 
ATOM     15  C   UNL     1       1.092   0.328   3.610  1.00  0.00     0.161 A 
ATOM     16  C   UNL     1       1.447   0.610   4.921  1.00  0.00     0.050 A 
ATOM     17  C   UNL     1       1.840   1.910   5.266  1.00  0.00     0.004 A 
ATOM     18  C   UNL     1       1.479   2.633   3.002  1.00  0.00     0.050 A 
ATOM     19  C   UNL     1       1.843   2.926   4.308  1.00  0.00     0.004 A 
BRANCH  15  20
ATOM     20  O   UNL     1       0.444  -0.826   3.308  1.00  0.00    -0.490 OA
BRANCH  20  21
ATOM     21  C   UNL     1       1.010  -1.759   2.255  1.00  0.00     0.229 C 
BRANCH  21  22
ATOM     22  C   UNL     1       0.587  -1.932   0.116  1.00  0.00     0.038 C 
ATOM     23  C   UNL     1       1.275  -1.121  -1.296  1.00  0.00     0.007 C 
ENDBRANCH  21  22
ENDBRANCH  20  21
ENDBRANCH  15  20
ENDBRANCH  13  14
ENDBRANCH   9  13
BRANCH   8  24
ATOM     24  N   UNL     1       2.632  -4.015   2.085  1.00  0.00    -0.343 N 
ATOM     25  H   UNL     1       2.314  -4.984   2.109  1.00  0.00     0.345 HD
ATOM     26  H   UNL     1       2.486  -3.587   2.999  1.00  0.00     0.345 HD
ATOM     27  H   UNL     1       3.624  -3.988   1.852  1.00  0.00     0.345 HD
ENDBRANCH   8  24
ENDBRANCH   6   8
ENDBRANCH   5   6
ENDBRANCH   4   5
ENDBRANCH   3   4
ENDBRANCH   2   3
ENDBRANCH   1   2
BRANCH   1  28
ATOM     28  C   UNL     1      -1.258  -3.929  -1.997  1.00  0.00     0.188 C 
BRANCH  28  29
ATOM     29  O   UNL     1      -1.811  -5.180  -2.335  1.00  0.00    -0.377 OA
BRANCH  29  30
ATOM     30  C   UNL     1      -3.068  -5.097  -2.967  1.00  0.00     0.188 C 
BRANCH  30  31
ATOM     31  C   UNL     1      -3.172  -4.093  -4.132  1.00  0.00     0.188 C 
BRANCH  31  32
ATOM     32  O   UNL     1      -2.745  -2.781  -3.793  1.00  0.00    -0.376 OA
BRANCH  32  33
ATOM     33  C   UNL     1      -3.648  -1.742  -3.467  1.00  0.00     0.202 C 
BRANCH  33  34
ATOM     34  C   UNL     1      -4.595  -1.853  -2.260  1.00  0.00     0.261 C 
BRANCH  34  35
ATOM     35  O   UNL     1      -5.165  -3.133  -1.991  1.00  0.00    -0.460 OA
BRANCH  35  36
ATOM     36  C   UNL     1      -6.117  -3.571  -2.842  1.00  0.00     0.338 C 
ATOM     37  O   UNL     1      -6.544  -3.000  -3.827  1.00  0.00    -0.246 OA
BRANCH  36  38
ATOM     38  C   UNL     1      -6.395  -4.979  -2.487  1.00  0.00     0.060 A 
ATOM     39  C   UNL     1      -6.109  -5.973  -3.432  1.00  0.00     0.016 A 
ATOM     40  C   UNL     1      -6.862  -5.319  -1.214  1.00  0.00     0.016 A 
ATOM     41  C   UNL     1      -6.292  -7.314  -3.110  1.00  0.00     0.010 A 
ATOM     42  C   UNL     1      -7.100  -6.661  -0.911  1.00  0.00     0.010 A 
ATOM     43  C   UNL     1      -6.842  -7.656  -1.870  1.00  0.00    -0.014 A 
BRANCH  43  44
ATOM     44  C   UNL     1      -7.405  -9.012  -1.701  1.00  0.00     0.031 A 
ATOM     45  C   UNL     1      -8.853  -9.204  -2.055  1.00  0.00     0.074 A 
ATOM     46  C   UNL     1      -6.651 -10.049  -1.302  1.00  0.00     0.049 A 
ATOM     47  N   UNL     1      -9.592 -10.280  -1.982  1.00  0.00    -0.248 NA
ATOM     48  C   UNL     1      -9.563  -8.018  -2.567  1.00  0.00     0.031 C 
ATOM     49  C   UNL     1      -5.221  -9.997  -1.004  1.00  0.00     0.029 A 
ATOM     50  N   UNL     1      -6.997 -11.358  -1.083  1.00  0.00    -0.354 N 
ATOM     51  C   UNL     1     -10.849  -9.897  -2.431  1.00  0.00     0.074 A 
ATOM     52  C   UNL     1     -10.785  -8.489  -2.746  1.00  0.00     0.031 C 
ATOM     53  C   UNL     1      -4.813 -11.223  -0.627  1.00  0.00     0.029 A 
ATOM     54  C   UNL     1      -5.959 -12.131  -0.626  1.00  0.00     0.049 A 
ATOM     55  H   UNL     1      -7.903 -11.709  -1.237  1.00  0.00     0.167 HD
ATOM     56  C   UNL     1     -11.961 -10.655  -2.572  1.00  0.00     0.031 A 
ATOM     57  C   UNL     1      -5.950 -13.419  -0.231  1.00  0.00     0.031 A 
ATOM     58  C   UNL     1     -12.027 -12.048  -2.230  1.00  0.00     0.049 A 
ATOM     59  C   UNL     1      -7.230 -14.213  -0.293  1.00  0.00     0.074 A 
ATOM     60  C   UNL     1     -13.105 -12.908  -2.327  1.00  0.00     0.029 A 
ATOM     61  N   UNL     1     -10.970 -12.781  -1.713  1.00  0.00    -0.354 N 
ATOM     62  N   UNL     1      -8.412 -13.850  -0.732  1.00  0.00    -0.248 NA
ATOM     63  C   UNL     1      -7.171 -15.600   0.191  1.00  0.00     0.031 C 
ATOM     64  C   UNL     1     -12.719 -14.146  -1.805  1.00  0.00     0.029 A 
ATOM     65  C   UNL     1     -11.379 -14.077  -1.456  1.00  0.00     0.049 A 
ATOM     66  H   UNL     1     -10.064 -12.431  -1.553  1.00  0.00     0.167 HD
ATOM     67  C   UNL     1      -9.225 -14.972  -0.612  1.00  0.00     0.074 A 
ATOM     68  C   UNL     1      -8.396 -16.031  -0.073  1.00  0.00     0.031 C 
ATOM     69  C   UNL     1     -10.537 -15.117  -0.923  1.00  0.00     0.031 A 
BRANCH  56  70
ATOM     70  C   UNL     1     -13.201  -9.970  -3.072  1.00  0.00    -0.014 A 
ATOM     71  C   UNL     1     -13.307  -9.518  -4.397  1.00  0.00     0.009 A 
ATOM     72  C   UNL     1     -14.288  -9.787  -2.204  1.00  0.00     0.009 A 
ATOM     73  C   UNL     1     -14.464  -8.868  -4.832  1.00  0.00     0.001 A 
ATOM     74  C   UNL     1     -15.455  -9.166  -2.650  1.00  0.00     0.001 A 
ATOM     75  C   UNL     1     -15.539  -8.698  -3.960  1.00  0.00     0.000 A 
ENDBRANCH  56  70
BRANCH  57  76
ATOM     76  C   UNL     1      -4.700 -14.039   0.287  1.00  0.00    -0.014 A 
ATOM     77  C   UNL     1      -4.073 -15.082  -0.410  1.00  0.00     0.009 A 
ATOM     78  C   UNL     1      -4.150 -13.616   1.508  1.00  0.00     0.009 A 
ATOM     79  C   UNL     1      -2.942 -15.710   0.119  1.00  0.00     0.001 A 
ATOM     80  C   UNL     1      -3.001 -14.222   2.018  1.00  0.00     0.001 A 
ATOM     81  C   UNL     1      -2.405 -15.277   1.330  1.00  0.00     0.000 A 
ENDBRANCH  57  76
BRANCH  69  82
ATOM     82  C   UNL     1     -11.147 -16.480  -0.738  1.00  0.00    -0.014 A 
ATOM     83  C   UNL     1     -11.381 -17.015   0.538  1.00  0.00     0.009 A 
ATOM     84  C   UNL     1     -11.541 -17.218  -1.867  1.00  0.00     0.009 A 
ATOM     85  C   UNL     1     -11.963 -18.277   0.678  1.00  0.00     0.001 A 
ATOM     86  C   UNL     1     -12.154 -18.462  -1.723  1.00  0.00     0.001 A 
ATOM     87  C   UNL     1     -12.354 -18.996  -0.452  1.00  0.00     0.000 A 
ENDBRANCH  69  82
ENDBRANCH  43  44
ENDBRANCH  36  38
ENDBRANCH  35  36
ENDBRANCH  34  35
ENDBRANCH  33  34
ENDBRANCH  32  33
ENDBRANCH  31  32
ENDBRANCH  30  31
ENDBRANCH  29  30
ENDBRANCH  28  29
ENDBRANCH   1  28
TORSDOF 26
