REMARK SMILES O=C(Cc1c(C(=O)c2cc3c(cn2)CCCC3)[nH]c2cc(Cl)ccc12)OCCOCCOCCOCCOC(=O)c1ccc(-c2c3nc(c(-c4ccccc4)c4ccc([nH]4)c(-c4ccccc4)c4nc(c(-c5ccccc5)c5ccc2[nH]5)C=C4)C=C3)cc1
REMARK SMILES IDX 31 1 30 2 29 3 28 4 27 5 26 6 2 7 1 8 3 9 4 10 5 11 25 12
REMARK SMILES IDX 18 13 19 14 24 15 20 17 23 18 21 19 22 20 6 21 7 22 8 23
REMARK SMILES IDX 9 24 13 25 10 26 12 27 11 28 17 29 14 30 16 31 15 32 32 33
REMARK SMILES IDX 33 34 34 35 35 36 36 37 37 38 38 39 39 40 40 41 41 42 42 43
REMARK SMILES IDX 88 44 43 45 87 46 44 47 45 48 46 49 81 50 47 51 86 52 80 53
REMARK SMILES IDX 82 54 48 55 85 56 79 57 78 58 49 60 71 61 56 62 70 63 57 64
REMARK SMILES IDX 60 65 69 66 83 67 58 68 59 69 68 71 84 72 61 73 50 74 51 75
REMARK SMILES IDX 55 76 52 77 54 78 53 79 72 80 73 81 77 82 74 83 76 84 75 85
REMARK SMILES IDX 62 86 63 87 67 88 64 89 66 90 65 91
REMARK H PARENT 18 16 82 59 60 70
REMARK Flexibility Score: inf
ROOT
ATOM      1  C   UNL     1       1.869   1.963   2.008  1.00  0.00     0.188 C 
ENDROOT
BRANCH   1   2
ATOM      2  C   UNL     1       2.058   0.452   2.095  1.00  0.00     0.188 C 
BRANCH   2   3
ATOM      3  O   UNL     1       3.404   0.024   2.070  1.00  0.00    -0.376 OA
BRANCH   3   4
ATOM      4  C   UNL     1       4.168   0.122   0.870  1.00  0.00     0.202 C 
BRANCH   4   5
ATOM      5  C   UNL     1       3.599   0.675  -0.452  1.00  0.00     0.261 C 
BRANCH   5   6
ATOM      6  O   UNL     1       2.287   0.249  -0.825  1.00  0.00    -0.463 OA
BRANCH   6   7
ATOM      7  C   UNL     1       2.139  -0.957  -1.416  1.00  0.00     0.310 C 
ATOM      8  O   UNL     1       1.375  -1.099  -2.368  1.00  0.00    -0.252 OA
BRANCH   7   9
ATOM      9  C   UNL     1       2.798  -2.118  -0.728  1.00  0.00     0.161 C 
BRANCH   9  10
ATOM     10  C   UNL     1       3.937  -2.779  -1.454  1.00  0.00     0.000 A 
ATOM     11  C   UNL     1       5.147  -2.330  -2.009  1.00  0.00     0.093 A 
ATOM     12  C   UNL     1       4.007  -4.213  -1.491  1.00  0.00     0.004 A 
ATOM     13  N   UNL     1       5.673  -3.404  -2.703  1.00  0.00    -0.351 N 
ATOM     14  C   UNL     1       5.070  -4.569  -2.306  1.00  0.00     0.048 A 
ATOM     15  C   UNL     1       3.266  -5.232  -0.852  1.00  0.00     0.012 A 
ATOM     16  H   UNL     1       6.380  -3.341  -3.386  1.00  0.00     0.167 HD
ATOM     17  C   UNL     1       5.407  -5.900  -2.568  1.00  0.00     0.047 A 
ATOM     18  C   UNL     1       3.614  -6.566  -1.060  1.00  0.00     0.021 A 
ATOM     19  C   UNL     1       4.659  -6.888  -1.920  1.00  0.00     0.043 A 
ATOM     20  Cl  UNL     1       5.057  -8.543  -2.175  1.00  0.00    -0.084 Cl
BRANCH  11  21
ATOM     21  C   UNL     1       5.968  -1.142  -1.790  1.00  0.00     0.227 C 
ATOM     22  O   UNL     1       6.318  -0.829  -0.655  1.00  0.00    -0.285 OA
BRANCH  21  23
ATOM     23  C   UNL     1       6.530  -0.336  -2.927  1.00  0.00     0.113 A 
ATOM     24  C   UNL     1       6.013  -0.384  -4.213  1.00  0.00     0.036 A 
ATOM     25  N   UNL     1       7.600   0.438  -2.596  1.00  0.00    -0.252 NA
ATOM     26  C   UNL     1       6.672   0.330  -5.227  1.00  0.00    -0.041 A 
ATOM     27  C   UNL     1       8.214   1.121  -3.580  1.00  0.00     0.115 A 
ATOM     28  C   UNL     1       7.826   1.065  -4.910  1.00  0.00    -0.026 A 
ATOM     29  C   UNL     1       6.175   0.226  -6.648  1.00  0.00     0.036 C 
ATOM     30  C   UNL     1       8.628   1.787  -5.957  1.00  0.00     0.037 C 
ATOM     31  C   UNL     1       6.910   1.129  -7.641  1.00  0.00     0.005 C 
ATOM     32  C   UNL     1       8.404   1.183  -7.341  1.00  0.00     0.005 C 
ENDBRANCH  21  23
ENDBRANCH  11  21
ENDBRANCH   9  10
ENDBRANCH   7   9
ENDBRANCH   6   7
ENDBRANCH   5   6
ENDBRANCH   4   5
ENDBRANCH   3   4
ENDBRANCH   2   3
ENDBRANCH   1   2
BRANCH   1  33
ATOM     33  O   UNL     1       2.983   2.604   1.418  1.00  0.00    -0.377 OA
BRANCH  33  34
ATOM     34  C   UNL     1       3.844   3.304   2.295  1.00  0.00     0.188 C 
BRANCH  34  35
ATOM     35  C   UNL     1       4.853   2.541   3.185  1.00  0.00     0.188 C 
BRANCH  35  36
ATOM     36  O   UNL     1       4.433   1.742   4.277  1.00  0.00    -0.376 OA
BRANCH  36  37
ATOM     37  C   UNL     1       3.412   2.159   5.161  1.00  0.00     0.202 C 
BRANCH  37  38
ATOM     38  C   UNL     1       3.500   3.524   5.857  1.00  0.00     0.261 C 
BRANCH  38  39
ATOM     39  O   UNL     1       3.593   4.633   4.948  1.00  0.00    -0.460 OA
BRANCH  39  40
ATOM     40  C   UNL     1       4.790   5.269   4.894  1.00  0.00     0.338 C 
ATOM     41  O   UNL     1       5.747   5.089   5.629  1.00  0.00    -0.246 OA
BRANCH  40  42
ATOM     42  C   UNL     1       4.867   6.056   3.636  1.00  0.00     0.060 A 
ATOM     43  C   UNL     1       3.790   6.818   3.172  1.00  0.00     0.016 A 
ATOM     44  C   UNL     1       6.033   5.951   2.862  1.00  0.00     0.016 A 
ATOM     45  C   UNL     1       3.899   7.505   1.958  1.00  0.00     0.010 A 
ATOM     46  C   UNL     1       6.133   6.621   1.639  1.00  0.00     0.010 A 
ATOM     47  C   UNL     1       5.079   7.431   1.195  1.00  0.00    -0.014 A 
BRANCH  47  48
ATOM     48  C   UNL     1       5.308   8.398   0.093  1.00  0.00     0.031 A 
ATOM     49  C   UNL     1       5.089   8.065  -1.350  1.00  0.00     0.074 A 
ATOM     50  C   UNL     1       5.749   9.622   0.446  1.00  0.00     0.049 A 
ATOM     51  N   UNL     1       5.186   8.857  -2.389  1.00  0.00    -0.248 NA
ATOM     52  C   UNL     1       4.718   6.682  -1.681  1.00  0.00     0.031 C 
ATOM     53  C   UNL     1       6.023  10.044   1.822  1.00  0.00     0.029 A 
ATOM     54  N   UNL     1       6.044  10.729  -0.308  1.00  0.00    -0.354 N 
ATOM     55  C   UNL     1       4.864   8.083  -3.495  1.00  0.00     0.074 A 
ATOM     56  C   UNL     1       4.606   6.744  -3.005  1.00  0.00     0.031 C 
ATOM     57  C   UNL     1       6.439  11.318   1.815  1.00  0.00     0.029 A 
ATOM     58  C   UNL     1       6.482  11.796   0.437  1.00  0.00     0.049 A 
ATOM     59  H   UNL     1       5.950  10.756  -1.288  1.00  0.00     0.167 HD
ATOM     60  C   UNL     1       4.780   8.468  -4.791  1.00  0.00     0.031 A 
ATOM     61  C   UNL     1       6.879  13.027   0.063  1.00  0.00     0.031 A 
ATOM     62  C   UNL     1       5.058   9.802  -5.266  1.00  0.00     0.049 A 
ATOM     63  C   UNL     1       6.815  13.409  -1.386  1.00  0.00     0.074 A 
ATOM     64  C   UNL     1       4.934  10.292  -6.557  1.00  0.00     0.029 A 
ATOM     65  N   UNL     1       5.526  10.848  -4.487  1.00  0.00    -0.354 N 
ATOM     66  N   UNL     1       6.408  12.693  -2.404  1.00  0.00    -0.248 NA
ATOM     67  C   UNL     1       7.246  14.769  -1.738  1.00  0.00     0.031 C 
ATOM     68  C   UNL     1       5.395  11.609  -6.572  1.00  0.00     0.029 A 
ATOM     69  C   UNL     1       5.739  11.965  -5.279  1.00  0.00     0.049 A 
ATOM     70  H   UNL     1       5.684  10.804  -3.517  1.00  0.00     0.167 HD
ATOM     71  C   UNL     1       6.519  13.517  -3.515  1.00  0.00     0.074 A 
ATOM     72  C   UNL     1       7.011  14.794  -3.044  1.00  0.00     0.031 C 
ATOM     73  C   UNL     1       6.239  13.232  -4.809  1.00  0.00     0.031 A 
BRANCH  60  74
ATOM     74  C   UNL     1       4.348   7.462  -5.822  1.00  0.00    -0.014 A 
ATOM     75  C   UNL     1       5.254   7.035  -6.809  1.00  0.00     0.009 A 
ATOM     76  C   UNL     1       3.000   7.089  -5.933  1.00  0.00     0.009 A 
ATOM     77  C   UNL     1       4.813   6.282  -7.899  1.00  0.00     0.001 A 
ATOM     78  C   UNL     1       2.566   6.317  -7.014  1.00  0.00     0.001 A 
ATOM     79  C   UNL     1       3.470   5.927  -8.002  1.00  0.00     0.000 A 
ENDBRANCH  60  74
BRANCH  61  80
ATOM     80  C   UNL     1       7.356  13.979   1.099  1.00  0.00    -0.014 A 
ATOM     81  C   UNL     1       8.560  13.736   1.782  1.00  0.00     0.009 A 
ATOM     82  C   UNL     1       6.588  15.096   1.455  1.00  0.00     0.009 A 
ATOM     83  C   UNL     1       8.975  14.580   2.812  1.00  0.00     0.001 A 
ATOM     84  C   UNL     1       7.022  15.958   2.465  1.00  0.00     0.001 A 
ATOM     85  C   UNL     1       8.209  15.694   3.149  1.00  0.00     0.000 A 
ENDBRANCH  61  80
BRANCH  73  86
ATOM     86  C   UNL     1       6.462  14.310  -5.832  1.00  0.00    -0.014 A 
ATOM     87  C   UNL     1       5.364  14.893  -6.487  1.00  0.00     0.009 A 
ATOM     88  C   UNL     1       7.759  14.664  -6.232  1.00  0.00     0.009 A 
ATOM     89  C   UNL     1       5.561  15.790  -7.537  1.00  0.00     0.001 A 
ATOM     90  C   UNL     1       7.953  15.585  -7.264  1.00  0.00     0.001 A 
ATOM     91  C   UNL     1       6.855  16.137  -7.923  1.00  0.00     0.000 A 
ENDBRANCH  73  86
ENDBRANCH  47  48
ENDBRANCH  40  42
ENDBRANCH  39  40
ENDBRANCH  38  39
ENDBRANCH  37  38
ENDBRANCH  36  37
ENDBRANCH  35  36
ENDBRANCH  34  35
ENDBRANCH  33  34
ENDBRANCH   1  33
TORSDOF 23
