REMARK SMILES CC1=C2C(CSc3c(Cl)cccc3Cl)=CC(=O)N=C2S[C@H]1C(=O)OCCOCCOCCOCCOC(=O)c1ccc(-c2c3nc(c(-c4ccccc4)c4ccc([nH]4)c(-c4ccccc4)c4nc(c(-c5ccccc5)c5ccc2[nH]5)C=C4)C=C3)cc1
REMARK SMILES IDX 29 1 28 2 27 3 26 4 25 5 24 6 22 7 23 8 21 9 1 10 2 11 3 12
REMARK SMILES IDX 4 13 19 14 20 15 15 16 18 17 16 18 17 19 5 20 6 21 7 22 8 23
REMARK SMILES IDX 13 24 9 25 10 26 12 27 14 28 11 29 30 30 31 31 32 32 33 33
REMARK SMILES IDX 34 34 35 35 36 36 37 37 38 38 39 39 40 40 86 41 41 42 85 43
REMARK SMILES IDX 42 44 43 45 44 46 79 47 45 48 84 49 78 50 80 51 46 52 83 53
REMARK SMILES IDX 77 54 76 55 47 57 69 58 54 59 68 60 55 61 58 62 67 63 81 64
REMARK SMILES IDX 56 65 57 66 66 68 82 69 59 70 48 71 49 72 53 73 50 74 52 75
REMARK SMILES IDX 51 76 70 77 71 78 75 79 72 80 74 81 73 82 60 83 61 84 65 85
REMARK SMILES IDX 62 86 64 87 63 88
REMARK H PARENT 80 56 58 67
REMARK Flexibility Score: inf
ROOT
ATOM      1  C   UNL     1       1.970  -1.786  -2.985  1.00  0.00     0.188 C 
ENDROOT
BRANCH   1   2
ATOM      2  C   UNL     1       1.317  -3.009  -3.633  1.00  0.00     0.188 C 
BRANCH   2   3
ATOM      3  O   UNL     1       1.488  -3.212  -5.021  1.00  0.00    -0.376 OA
BRANCH   3   4
ATOM      4  C   UNL     1       0.890  -2.296  -5.932  1.00  0.00     0.202 C 
BRANCH   4   5
ATOM      5  C   UNL     1      -0.463  -1.638  -5.620  1.00  0.00     0.261 C 
BRANCH   5   6
ATOM      6  O   UNL     1      -0.442  -0.638  -4.578  1.00  0.00    -0.462 OA
BRANCH   6   7
ATOM      7  C   UNL     1      -1.262  -0.810  -3.504  1.00  0.00     0.323 C 
ATOM      8  O   UNL     1      -1.879  -1.847  -3.272  1.00  0.00    -0.251 OA
BRANCH   7   9
ATOM      9  C   UNL     1      -1.345   0.411  -2.563  1.00  0.00     0.189 C 
ATOM     10  C   UNL     1      -0.185  -0.365  -0.415  1.00  0.00     0.042 C 
ATOM     11  C   UNL     1      -0.214   0.599  -1.563  1.00  0.00    -0.039 C 
ATOM     12  C   UNL     1       0.635   1.620  -1.796  1.00  0.00     0.012 C 
ATOM     13  C   UNL     1       1.780   2.204  -1.100  1.00  0.00    -0.022 C 
ATOM     14  C   UNL     1       0.234   2.341  -3.033  1.00  0.00     0.109 C 
ATOM     15  S   UNL     1      -1.391   1.958  -3.516  1.00  0.00    -0.086 SA
ATOM     16  C   UNL     1       2.519   3.072  -1.823  1.00  0.00     0.079 C 
ATOM     17  N   UNL     1       0.943   3.181  -3.693  1.00  0.00    -0.202 NA
ATOM     18  C   UNL     1       2.223   3.396  -3.252  1.00  0.00     0.271 C 
ATOM     19  O   UNL     1       3.098   3.906  -3.939  1.00  0.00    -0.267 OA
BRANCH  13  20
ATOM     20  C   UNL     1       1.962   2.015   0.392  1.00  0.00     0.111 C 
BRANCH  20  21
ATOM     21  S   UNL     1       3.629   2.293   1.100  1.00  0.00    -0.118 SA
BRANCH  21  22
ATOM     22  C   UNL     1       4.497   0.702   1.121  1.00  0.00     0.045 A 
ATOM     23  C   UNL     1       3.944  -0.529   1.533  1.00  0.00     0.056 A 
ATOM     24  C   UNL     1       5.883   0.688   0.812  1.00  0.00     0.056 A 
ATOM     25  Cl  UNL     1       2.408  -0.685   2.316  1.00  0.00    -0.083 Cl
ATOM     26  C   UNL     1       4.679  -1.727   1.455  1.00  0.00     0.022 A 
ATOM     27  C   UNL     1       6.636  -0.501   0.836  1.00  0.00     0.022 A 
ATOM     28  Cl  UNL     1       6.762   2.110   0.337  1.00  0.00    -0.083 Cl
ATOM     29  C   UNL     1       6.021  -1.718   1.101  1.00  0.00     0.003 A 
ENDBRANCH  21  22
ENDBRANCH  20  21
ENDBRANCH  13  20
ENDBRANCH   7   9
ENDBRANCH   6   7
ENDBRANCH   5   6
ENDBRANCH   4   5
ENDBRANCH   3   4
ENDBRANCH   2   3
ENDBRANCH   1   2
BRANCH   1  30
ATOM     30  O   UNL     1       2.033  -0.605  -3.757  1.00  0.00    -0.377 OA
BRANCH  30  31
ATOM     31  C   UNL     1       3.166  -0.327  -4.576  1.00  0.00     0.188 C 
BRANCH  31  32
ATOM     32  C   UNL     1       4.183  -1.427  -4.948  1.00  0.00     0.188 C 
BRANCH  32  33
ATOM     33  O   UNL     1       4.443  -2.387  -3.937  1.00  0.00    -0.376 OA
BRANCH  33  34
ATOM     34  C   UNL     1       5.465  -2.095  -2.996  1.00  0.00     0.202 C 
BRANCH  34  35
ATOM     35  C   UNL     1       5.360  -0.764  -2.261  1.00  0.00     0.261 C 
BRANCH  35  36
ATOM     36  O   UNL     1       5.589   0.385  -3.066  1.00  0.00    -0.460 OA
BRANCH  36  37
ATOM     37  C   UNL     1       6.840   0.552  -3.530  1.00  0.00     0.338 C 
ATOM     38  O   UNL     1       7.818  -0.147  -3.351  1.00  0.00    -0.246 OA
BRANCH  37  39
ATOM     39  C   UNL     1       6.747   1.728  -4.388  1.00  0.00     0.060 A 
ATOM     40  C   UNL     1       6.624   1.557  -5.769  1.00  0.00     0.016 A 
ATOM     41  C   UNL     1       6.678   2.985  -3.787  1.00  0.00     0.016 A 
ATOM     42  C   UNL     1       6.453   2.676  -6.573  1.00  0.00     0.010 A 
ATOM     43  C   UNL     1       6.505   4.100  -4.591  1.00  0.00     0.010 A 
ATOM     44  C   UNL     1       6.420   3.948  -5.985  1.00  0.00    -0.014 A 
BRANCH  44  45
ATOM     45  C   UNL     1       6.484   5.152  -6.830  1.00  0.00     0.031 A 
ATOM     46  C   UNL     1       7.819   5.812  -6.997  1.00  0.00     0.074 A 
ATOM     47  C   UNL     1       5.375   5.644  -7.402  1.00  0.00     0.049 A 
ATOM     48  N   UNL     1       8.121   6.931  -7.598  1.00  0.00    -0.248 NA
ATOM     49  C   UNL     1       8.970   5.122  -6.387  1.00  0.00     0.031 C 
ATOM     50  C   UNL     1       4.040   5.055  -7.308  1.00  0.00     0.029 A 
ATOM     51  N   UNL     1       5.198   6.768  -8.164  1.00  0.00    -0.354 N 
ATOM     52  C   UNL     1       9.489   7.089  -7.419  1.00  0.00     0.074 A 
ATOM     53  C   UNL     1       9.956   5.969  -6.635  1.00  0.00     0.031 C 
ATOM     54  C   UNL     1       3.176   5.827  -7.989  1.00  0.00     0.029 A 
ATOM     55  C   UNL     1       3.890   6.984  -8.521  1.00  0.00     0.049 A 
ATOM     56  H   UNL     1       5.937   7.362  -8.430  1.00  0.00     0.167 HD
ATOM     57  C   UNL     1      10.282   8.085  -7.872  1.00  0.00     0.031 A 
ATOM     58  C   UNL     1       3.340   8.024  -9.175  1.00  0.00     0.031 A 
ATOM     59  C   UNL     1       9.792   9.201  -8.632  1.00  0.00     0.049 A 
ATOM     60  C   UNL     1       4.235   9.150  -9.619  1.00  0.00     0.074 A 
ATOM     61  C   UNL     1      10.498  10.269  -9.153  1.00  0.00     0.029 A 
ATOM     62  N   UNL     1       8.460   9.390  -8.973  1.00  0.00    -0.354 N 
ATOM     63  N   UNL     1       5.532   9.285  -9.470  1.00  0.00    -0.248 NA
ATOM     64  C   UNL     1       3.593  10.266 -10.327  1.00  0.00     0.031 C 
ATOM     65  C   UNL     1       9.584  11.131  -9.766  1.00  0.00     0.029 A 
ATOM     66  C   UNL     1       8.320  10.567  -9.684  1.00  0.00     0.049 A 
ATOM     67  H   UNL     1       7.725   8.777  -8.743  1.00  0.00     0.167 HD
ATOM     68  C   UNL     1       5.867  10.480 -10.093  1.00  0.00     0.074 A 
ATOM     69  C   UNL     1       4.636  11.027 -10.629  1.00  0.00     0.031 C 
ATOM     70  C   UNL     1       7.080  11.072 -10.217  1.00  0.00     0.031 A 
BRANCH  57  71
ATOM     71  C   UNL     1      11.740   8.023  -7.514  1.00  0.00    -0.014 A 
ATOM     72  C   UNL     1      12.588   7.048  -8.064  1.00  0.00     0.009 A 
ATOM     73  C   UNL     1      12.274   8.955  -6.612  1.00  0.00     0.009 A 
ATOM     74  C   UNL     1      13.931   6.984  -7.688  1.00  0.00     0.001 A 
ATOM     75  C   UNL     1      13.624   8.909  -6.261  1.00  0.00     0.001 A 
ATOM     76  C   UNL     1      14.449   7.918  -6.790  1.00  0.00     0.000 A 
ENDBRANCH  57  71
BRANCH  58  77
ATOM     77  C   UNL     1       1.876   8.056  -9.432  1.00  0.00    -0.014 A 
ATOM     78  C   UNL     1       1.377   7.939 -10.739  1.00  0.00     0.009 A 
ATOM     79  C   UNL     1       0.966   8.204  -8.373  1.00  0.00     0.009 A 
ATOM     80  C   UNL     1       0.002   7.997 -10.981  1.00  0.00     0.001 A 
ATOM     81  C   UNL     1      -0.409   8.230  -8.614  1.00  0.00     0.001 A 
ATOM     82  C   UNL     1      -0.890   8.137  -9.919  1.00  0.00     0.000 A 
ENDBRANCH  58  77
BRANCH  70  83
ATOM     83  C   UNL     1       7.148  12.343 -11.014  1.00  0.00    -0.014 A 
ATOM     84  C   UNL     1       6.660  13.556 -10.506  1.00  0.00     0.009 A 
ATOM     85  C   UNL     1       7.780  12.332 -12.269  1.00  0.00     0.009 A 
ATOM     86  C   UNL     1       6.782  14.729 -11.252  1.00  0.00     0.001 A 
ATOM     87  C   UNL     1       7.927  13.511 -12.997  1.00  0.00     0.001 A 
ATOM     88  C   UNL     1       7.422  14.707 -12.492  1.00  0.00     0.000 A 
ENDBRANCH  70  83
ENDBRANCH  44  45
ENDBRANCH  37  39
ENDBRANCH  36  37
ENDBRANCH  35  36
ENDBRANCH  34  35
ENDBRANCH  33  34
ENDBRANCH  32  33
ENDBRANCH  31  32
ENDBRANCH  30  31
ENDBRANCH   1  30
TORSDOF 23
