REMARK SMILES O=C(OCCOCCOCCOCCOC(=O)[C@@H]1CN(C(=O)[C@H]2CC=CCC2)c2ccccc2O1)c1ccc(-c2c3nc(c(-c4ccccc4)c4ccc([nH]4)c(-c4ccccc4)c4nc(c(-c5ccccc5)c5ccc2[nH]5)C=C4)C=C3)cc1
REMARK SMILES IDX 9 1 8 2 7 3 6 4 5 5 4 6 3 7 2 8 1 9 36 10 37 11 83 12 38 13
REMARK SMILES IDX 82 14 39 15 40 16 41 17 76 18 42 19 81 20 75 21 77 22 43 23
REMARK SMILES IDX 80 24 74 25 73 26 44 28 66 29 51 30 65 31 52 32 55 33 64 34
REMARK SMILES IDX 78 35 53 36 54 37 63 39 79 40 56 41 45 42 46 43 50 44 47 45
REMARK SMILES IDX 49 46 48 47 67 48 68 49 72 50 69 51 71 52 70 53 57 54 58 55
REMARK SMILES IDX 62 56 59 57 61 58 60 59 10 60 11 61 12 62 13 63 14 64 15 65
REMARK SMILES IDX 16 66 17 67 18 68 19 69 35 70 20 71 34 72 29 73 33 74 30 75
REMARK SMILES IDX 32 76 31 77 21 78 22 79 23 80 24 81 28 82 25 83 27 84 26 85
REMARK H PARENT 77 27 55 38
REMARK Flexibility Score: inf
ROOT
ATOM      1  O   UNL     1       2.582   3.290  -1.847  1.00  0.00    -0.377 OA
ENDROOT
BRANCH   1   2
ATOM      2  C   UNL     1       1.713   2.438  -1.101  1.00  0.00     0.188 C 
BRANCH   2   3
ATOM      3  C   UNL     1       2.151   0.977  -0.986  1.00  0.00     0.188 C 
BRANCH   3   4
ATOM      4  O   UNL     1       3.474   0.827  -0.468  1.00  0.00    -0.376 OA
BRANCH   4   5
ATOM      5  C   UNL     1       4.359   0.019  -1.251  1.00  0.00     0.202 C 
BRANCH   5   6
ATOM      6  C   UNL     1       4.146  -1.484  -1.098  1.00  0.00     0.261 C 
BRANCH   6   7
ATOM      7  O   UNL     1       2.802  -1.830  -0.739  1.00  0.00    -0.460 OA
BRANCH   7   8
ATOM      8  C   UNL     1       2.224  -1.812   0.486  1.00  0.00     0.338 C 
ATOM      9  O   UNL     1       1.028  -2.095   0.564  1.00  0.00    -0.246 OA
BRANCH   8  10
ATOM     10  C   UNL     1       2.936  -1.488   1.762  1.00  0.00     0.060 A 
ATOM     11  C   UNL     1       4.071  -0.686   1.888  1.00  0.00     0.016 A 
ATOM     12  C   UNL     1       2.359  -1.986   2.943  1.00  0.00     0.016 A 
ATOM     13  C   UNL     1       4.645  -0.411   3.115  1.00  0.00     0.010 A 
ATOM     14  C   UNL     1       2.928  -1.722   4.191  1.00  0.00     0.010 A 
ATOM     15  C   UNL     1       4.094  -0.955   4.266  1.00  0.00    -0.014 A 
BRANCH  15  16
ATOM     16  C   UNL     1       4.921  -0.899   5.476  1.00  0.00     0.031 A 
ATOM     17  C   UNL     1       5.702  -2.129   5.822  1.00  0.00     0.074 A 
ATOM     18  C   UNL     1       5.109   0.272   6.106  1.00  0.00     0.049 A 
ATOM     19  N   UNL     1       6.472  -2.362   6.847  1.00  0.00    -0.248 NA
ATOM     20  C   UNL     1       5.619  -3.248   4.862  1.00  0.00     0.031 C 
ATOM     21  C   UNL     1       4.530   1.556   5.699  1.00  0.00     0.029 A 
ATOM     22  N   UNL     1       5.874   0.580   7.196  1.00  0.00    -0.354 N 
ATOM     23  C   UNL     1       6.931  -3.662   6.676  1.00  0.00     0.074 A 
ATOM     24  C   UNL     1       6.357  -4.172   5.455  1.00  0.00     0.031 C 
ATOM     25  C   UNL     1       4.972   2.517   6.528  1.00  0.00     0.029 A 
ATOM     26  C   UNL     1       5.794   1.901   7.561  1.00  0.00     0.049 A 
ATOM     27  H   UNL     1       6.427  -0.081   7.672  1.00  0.00     0.167 HD
ATOM     28  C   UNL     1       7.753  -4.364   7.486  1.00  0.00     0.031 A 
ATOM     29  C   UNL     1       6.298   2.515   8.647  1.00  0.00     0.031 A 
ATOM     30  C   UNL     1       8.286  -3.820   8.702  1.00  0.00     0.049 A 
ATOM     31  C   UNL     1       7.084   1.670   9.614  1.00  0.00     0.074 A 
ATOM     32  C   UNL     1       9.053  -4.438   9.668  1.00  0.00     0.029 A 
ATOM     33  N   UNL     1       8.094  -2.505   9.111  1.00  0.00    -0.354 N 
ATOM     34  N   UNL     1       7.437   0.409   9.511  1.00  0.00    -0.248 NA
ATOM     35  C   UNL     1       7.526   2.323  10.850  1.00  0.00     0.031 C 
ATOM     36  C   UNL     1       9.276  -3.510  10.692  1.00  0.00     0.029 A 
ATOM     37  C   UNL     1       8.710  -2.295  10.328  1.00  0.00     0.049 A 
ATOM     38  H   UNL     1       7.593  -1.824   8.606  1.00  0.00     0.167 HD
ATOM     39  C   UNL     1       8.163   0.121  10.657  1.00  0.00     0.074 A 
ATOM     40  C   UNL     1       8.216   1.350  11.428  1.00  0.00     0.031 C 
ATOM     41  C   UNL     1       8.734  -1.046  11.047  1.00  0.00     0.031 A 
BRANCH  28  42
ATOM     42  C   UNL     1       8.012  -5.796   7.116  1.00  0.00    -0.014 A 
ATOM     43  C   UNL     1       8.793  -6.147   6.002  1.00  0.00     0.009 A 
ATOM     44  C   UNL     1       7.407  -6.817   7.866  1.00  0.00     0.009 A 
ATOM     45  C   UNL     1       8.923  -7.486   5.623  1.00  0.00     0.001 A 
ATOM     46  C   UNL     1       7.564  -8.155   7.503  1.00  0.00     0.001 A 
ATOM     47  C   UNL     1       8.311  -8.488   6.375  1.00  0.00     0.000 A 
ENDBRANCH  28  42
BRANCH  29  48
ATOM     48  C   UNL     1       6.006   3.949   8.916  1.00  0.00    -0.014 A 
ATOM     49  C   UNL     1       7.034   4.901   8.978  1.00  0.00     0.009 A 
ATOM     50  C   UNL     1       4.685   4.373   9.144  1.00  0.00     0.009 A 
ATOM     51  C   UNL     1       6.750   6.234   9.293  1.00  0.00     0.001 A 
ATOM     52  C   UNL     1       4.399   5.711   9.425  1.00  0.00     0.001 A 
ATOM     53  C   UNL     1       5.434   6.638   9.513  1.00  0.00     0.000 A 
ENDBRANCH  29  48
BRANCH  41  54
ATOM     54  C   UNL     1       9.500  -1.021  12.337  1.00  0.00    -0.014 A 
ATOM     55  C   UNL     1       8.845  -0.936  13.574  1.00  0.00     0.009 A 
ATOM     56  C   UNL     1      10.898  -1.140  12.305  1.00  0.00     0.009 A 
ATOM     57  C   UNL     1       9.582  -0.936  14.758  1.00  0.00     0.001 A 
ATOM     58  C   UNL     1      11.628  -1.178  13.491  1.00  0.00     0.001 A 
ATOM     59  C   UNL     1      10.971  -1.065  14.715  1.00  0.00     0.000 A 
ENDBRANCH  41  54
ENDBRANCH  15  16
ENDBRANCH   8  10
ENDBRANCH   7   8
ENDBRANCH   6   7
ENDBRANCH   5   6
ENDBRANCH   4   5
ENDBRANCH   3   4
ENDBRANCH   2   3
ENDBRANCH   1   2
BRANCH   1  60
ATOM     60  C   UNL     1       3.950   3.248  -1.480  1.00  0.00     0.188 C 
BRANCH  60  61
ATOM     61  C   UNL     1       4.360   3.594  -0.034  1.00  0.00     0.188 C 
BRANCH  61  62
ATOM     62  O   UNL     1       3.353   3.507   0.966  1.00  0.00    -0.376 OA
BRANCH  62  63
ATOM     63  C   UNL     1       3.084   4.748   1.629  1.00  0.00     0.202 C 
BRANCH  63  64
ATOM     64  C   UNL     1       2.066   5.630   0.884  1.00  0.00     0.261 C 
BRANCH  64  65
ATOM     65  O   UNL     1       2.385   5.853  -0.502  1.00  0.00    -0.460 OA
BRANCH  65  66
ATOM     66  C   UNL     1       3.477   6.630  -0.744  1.00  0.00     0.349 C 
ATOM     67  O   UNL     1       4.079   7.226   0.132  1.00  0.00    -0.248 OA
BRANCH  66  68
ATOM     68  C   UNL     1       3.927   6.488  -2.220  1.00  0.00     0.302 C 
ATOM     69  C   UNL     1       5.452   6.351  -2.298  1.00  0.00     0.183 C 
ATOM     70  O   UNL     1       3.487   7.452  -3.144  1.00  0.00    -0.475 OA
ATOM     71  N   UNL     1       6.128   7.574  -1.875  1.00  0.00    -0.304 N 
ATOM     72  C   UNL     1       4.166   8.630  -2.993  1.00  0.00     0.144 A 
ATOM     73  C   UNL     1       5.406   8.766  -2.317  1.00  0.00     0.086 A 
ATOM     74  C   UNL     1       3.466   9.712  -3.528  1.00  0.00     0.049 A 
ATOM     75  C   UNL     1       5.852  10.073  -2.122  1.00  0.00     0.030 A 
ATOM     76  C   UNL     1       3.938  10.993  -3.320  1.00  0.00     0.004 A 
ATOM     77  C   UNL     1       5.115  11.171  -2.598  1.00  0.00     0.002 A 
BRANCH  71  78
ATOM     78  C   UNL     1       7.229   7.598  -1.011  1.00  0.00     0.230 C 
ATOM     79  O   UNL     1       7.573   8.634  -0.423  1.00  0.00    -0.274 OA
BRANCH  78  80
ATOM     80  C   UNL     1       8.197   6.385  -0.784  1.00  0.00     0.083 C 
ATOM     81  C   UNL     1       7.735   4.972  -0.401  1.00  0.00     0.040 C 
ATOM     82  C   UNL     1       9.289   6.321  -1.855  1.00  0.00     0.018 C 
ATOM     83  C   UNL     1       7.677   3.988  -1.543  1.00  0.00    -0.030 C 
ATOM     84  C   UNL     1       8.851   5.551  -3.098  1.00  0.00     0.028 C 
ATOM     85  C   UNL     1       8.154   4.264  -2.766  1.00  0.00    -0.031 C 
ENDBRANCH  78  80
ENDBRANCH  71  78
ENDBRANCH  66  68
ENDBRANCH  65  66
ENDBRANCH  64  65
ENDBRANCH  63  64
ENDBRANCH  62  63
ENDBRANCH  61  62
ENDBRANCH  60  61
ENDBRANCH   1  60
TORSDOF 22
