REMARK SMILES C[C@@H](C(=O)OCCOCCOCCOCCOC(=O)c1ccc(-c2c3nc(c(-c4ccccc4)c4ccc([nH]4)c(-c4ccccc4)c4nc(c(-c5ccccc5)c5ccc2[nH]5)C=C4)C=C3)cc1)c1cc(C(=O)c2ccccc2)ccc1O
REMARK SMILES IDX 10 1 9 2 8 3 7 4 6 5 5 6 3 7 4 8 2 9 1 10 68 11 69 12 81 13
REMARK SMILES IDX 70 14 80 15 79 16 82 17 71 19 72 20 73 21 74 22 78 23 75 24
REMARK SMILES IDX 77 25 76 26 11 27 12 28 13 29 14 30 15 31 16 32 17 33 18 34
REMARK SMILES IDX 19 35 20 36 21 37 67 38 22 39 66 40 23 41 24 42 25 43 60 44
REMARK SMILES IDX 26 45 65 46 59 47 61 48 27 49 64 50 58 51 57 52 28 54 50 55
REMARK SMILES IDX 35 56 49 57 36 58 39 59 48 60 62 61 37 62 38 63 47 65 63 66
REMARK SMILES IDX 40 67 29 68 30 69 34 70 31 71 33 72 32 73 51 74 52 75 56 76
REMARK SMILES IDX 53 77 55 78 54 79 41 80 42 81 46 82 43 83 45 84 44 85
REMARK H PARENT 82 18 61 53 39 64
REMARK Flexibility Score: inf
ROOT
ATOM      1  C   UNL     1       0.750   2.895   0.360  1.00  0.00     0.188 C 
ENDROOT
BRANCH   1   2
ATOM      2  C   UNL     1       0.396   3.715   1.611  1.00  0.00     0.188 C 
BRANCH   2   3
ATOM      3  O   UNL     1       1.514   4.412   2.129  1.00  0.00    -0.376 OA
BRANCH   3   4
ATOM      4  C   UNL     1       2.110   3.892   3.300  1.00  0.00     0.202 C 
BRANCH   4   5
ATOM      5  C   UNL     1       2.570   2.421   3.377  1.00  0.00     0.261 C 
BRANCH   5   6
ATOM      6  O   UNL     1       1.905   1.444   2.555  1.00  0.00    -0.463 OA
BRANCH   6   7
ATOM      7  C   UNL     1       0.889   0.722   3.089  1.00  0.00     0.313 C 
ATOM      8  O   UNL     1       0.431   0.930   4.207  1.00  0.00    -0.252 OA
BRANCH   7   9
ATOM      9  C   UNL     1       0.379  -0.404   2.157  1.00  0.00     0.130 C 
ATOM     10  C   UNL     1       1.114  -0.577   0.814  1.00  0.00     0.025 C 
BRANCH   9  11
ATOM     11  C   UNL     1      -1.144  -0.411   1.965  1.00  0.00     0.009 A 
ATOM     12  C   UNL     1      -1.883   0.787   2.003  1.00  0.00     0.020 A 
ATOM     13  C   UNL     1      -1.879  -1.583   1.747  1.00  0.00     0.119 A 
ATOM     14  C   UNL     1      -3.281   0.829   1.885  1.00  0.00     0.023 A 
ATOM     15  C   UNL     1      -3.274  -1.560   1.626  1.00  0.00     0.047 A 
ATOM     16  C   UNL     1      -3.980  -0.358   1.693  1.00  0.00     0.016 A 
BRANCH  13  17
ATOM     17  O   UNL     1      -1.311  -2.820   1.638  1.00  0.00    -0.508 OA
ATOM     18  H   UNL     1      -0.382  -2.916   1.708  1.00  0.00     0.293 HD
ENDBRANCH  13  17
BRANCH  14  19
ATOM     19  C   UNL     1      -3.951   2.159   1.928  1.00  0.00     0.193 C 
ATOM     20  O   UNL     1      -3.347   3.148   1.519  1.00  0.00    -0.289 OA
BRANCH  19  21
ATOM     21  C   UNL     1      -5.335   2.316   2.438  1.00  0.00     0.022 A 
ATOM     22  C   UNL     1      -6.199   3.200   1.782  1.00  0.00     0.012 A 
ATOM     23  C   UNL     1      -5.775   1.620   3.570  1.00  0.00     0.012 A 
ATOM     24  C   UNL     1      -7.517   3.341   2.222  1.00  0.00     0.001 A 
ATOM     25  C   UNL     1      -7.093   1.766   4.006  1.00  0.00     0.001 A 
ATOM     26  C   UNL     1      -7.965   2.616   3.326  1.00  0.00     0.000 A 
ENDBRANCH  19  21
ENDBRANCH  14  19
ENDBRANCH   9  11
ENDBRANCH   7   9
ENDBRANCH   6   7
ENDBRANCH   5   6
ENDBRANCH   4   5
ENDBRANCH   3   4
ENDBRANCH   2   3
ENDBRANCH   1   2
BRANCH   1  27
ATOM     27  O   UNL     1       2.130   2.781   0.038  1.00  0.00    -0.377 OA
BRANCH  27  28
ATOM     28  C   UNL     1       2.873   3.978  -0.205  1.00  0.00     0.188 C 
BRANCH  28  29
ATOM     29  C   UNL     1       2.157   5.332  -0.438  1.00  0.00     0.188 C 
BRANCH  29  30
ATOM     30  O   UNL     1       0.818   5.236  -0.886  1.00  0.00    -0.376 OA
BRANCH  30  31
ATOM     31  C   UNL     1       0.554   5.373  -2.272  1.00  0.00     0.202 C 
BRANCH  31  32
ATOM     32  C   UNL     1       1.220   4.369  -3.224  1.00  0.00     0.261 C 
BRANCH  32  33
ATOM     33  O   UNL     1       2.656   4.316  -3.194  1.00  0.00    -0.460 OA
BRANCH  33  34
ATOM     34  C   UNL     1       3.339   5.458  -3.446  1.00  0.00     0.338 C 
ATOM     35  O   UNL     1       2.891   6.534  -3.765  1.00  0.00    -0.246 OA
BRANCH  34  36
ATOM     36  C   UNL     1       4.747   5.211  -3.057  1.00  0.00     0.060 A 
ATOM     37  C   UNL     1       5.320   5.985  -2.038  1.00  0.00     0.016 A 
ATOM     38  C   UNL     1       5.484   4.205  -3.684  1.00  0.00     0.016 A 
ATOM     39  C   UNL     1       6.646   5.774  -1.664  1.00  0.00     0.010 A 
ATOM     40  C   UNL     1       6.822   4.016  -3.330  1.00  0.00     0.010 A 
ATOM     41  C   UNL     1       7.416   4.824  -2.344  1.00  0.00    -0.014 A 
BRANCH  41  42
ATOM     42  C   UNL     1       8.889   4.832  -2.189  1.00  0.00     0.031 A 
ATOM     43  C   UNL     1       9.700   5.579  -3.212  1.00  0.00     0.074 A 
ATOM     44  C   UNL     1       9.494   4.215  -1.160  1.00  0.00     0.049 A 
ATOM     45  N   UNL     1      10.998   5.692  -3.324  1.00  0.00    -0.248 NA
ATOM     46  C   UNL     1       8.940   6.295  -4.252  1.00  0.00     0.031 C 
ATOM     47  C   UNL     1       8.817   3.511  -0.073  1.00  0.00     0.029 A 
ATOM     48  N   UNL     1      10.829   4.082  -0.870  1.00  0.00    -0.354 N 
ATOM     49  C   UNL     1      11.209   6.477  -4.451  1.00  0.00     0.074 A 
ATOM     50  C   UNL     1       9.910   6.790  -5.004  1.00  0.00     0.031 C 
ATOM     51  C   UNL     1       9.744   3.013   0.765  1.00  0.00     0.029 A 
ATOM     52  C   UNL     1      11.076   3.329   0.251  1.00  0.00     0.049 A 
ATOM     53  H   UNL     1      11.542   4.488  -1.415  1.00  0.00     0.167 HD
ATOM     54  C   UNL     1      12.380   6.900  -4.979  1.00  0.00     0.031 A 
ATOM     55  C   UNL     1      12.245   2.924   0.784  1.00  0.00     0.031 A 
ATOM     56  C   UNL     1      13.671   6.574  -4.437  1.00  0.00     0.049 A 
ATOM     57  C   UNL     1      13.537   3.330   0.122  1.00  0.00     0.074 A 
ATOM     58  C   UNL     1      14.919   6.965  -4.890  1.00  0.00     0.029 A 
ATOM     59  N   UNL     1      13.880   5.768  -3.329  1.00  0.00    -0.354 N 
ATOM     60  N   UNL     1      13.728   4.092  -0.929  1.00  0.00    -0.248 NA
ATOM     61  C   UNL     1      14.778   2.822   0.726  1.00  0.00     0.031 C 
ATOM     62  C   UNL     1      15.884   6.339  -4.097  1.00  0.00     0.029 A 
ATOM     63  C   UNL     1      15.237   5.620  -3.104  1.00  0.00     0.049 A 
ATOM     64  H   UNL     1      13.168   5.361  -2.784  1.00  0.00     0.167 HD
ATOM     65  C   UNL     1      15.106   4.184  -1.088  1.00  0.00     0.074 A 
ATOM     66  C   UNL     1      15.703   3.412  -0.018  1.00  0.00     0.031 C 
ATOM     67  C   UNL     1      15.815   4.851  -2.033  1.00  0.00     0.031 A 
BRANCH  54  68
ATOM     68  C   UNL     1      12.317   7.722  -6.237  1.00  0.00    -0.014 A 
ATOM     69  C   UNL     1      11.820   9.035  -6.234  1.00  0.00     0.009 A 
ATOM     70  C   UNL     1      12.789   7.178  -7.442  1.00  0.00     0.009 A 
ATOM     71  C   UNL     1      11.767   9.773  -7.419  1.00  0.00     0.001 A 
ATOM     72  C   UNL     1      12.765   7.929  -8.618  1.00  0.00     0.001 A 
ATOM     73  C   UNL     1      12.245   9.222  -8.607  1.00  0.00     0.000 A 
ENDBRANCH  54  68
BRANCH  55  74
ATOM     74  C   UNL     1      12.260   2.065   1.999  1.00  0.00    -0.014 A 
ATOM     75  C   UNL     1      12.781   2.545   3.211  1.00  0.00     0.009 A 
ATOM     76  C   UNL     1      11.787   0.744   1.943  1.00  0.00     0.009 A 
ATOM     77  C   UNL     1      12.856   1.711   4.330  1.00  0.00     0.001 A 
ATOM     78  C   UNL     1      11.833  -0.077   3.073  1.00  0.00     0.001 A 
ATOM     79  C   UNL     1      12.379   0.404   4.262  1.00  0.00     0.000 A 
ENDBRANCH  55  74
BRANCH  67  80
ATOM     80  C   UNL     1      17.316   4.818  -1.925  1.00  0.00    -0.014 A 
ATOM     81  C   UNL     1      18.048   3.650  -2.188  1.00  0.00     0.009 A 
ATOM     82  C   UNL     1      18.010   5.996  -1.602  1.00  0.00     0.009 A 
ATOM     83  C   UNL     1      19.442   3.654  -2.091  1.00  0.00     0.001 A 
ATOM     84  C   UNL     1      19.404   6.005  -1.541  1.00  0.00     0.001 A 
ATOM     85  C   UNL     1      20.118   4.832  -1.774  1.00  0.00     0.000 A 
ENDBRANCH  67  80
ENDBRANCH  41  42
ENDBRANCH  34  36
ENDBRANCH  33  34
ENDBRANCH  32  33
ENDBRANCH  31  32
ENDBRANCH  30  31
ENDBRANCH  29  30
ENDBRANCH  28  29
ENDBRANCH  27  28
ENDBRANCH   1  27
TORSDOF 24
