REMARK SMILES O=C(C[C@H](C(=O)OCCOCCOCCOCCOC(=O)c1ccc(-c2c3nc(c(-c4ccccc4)c4ccc([nH]4)c(-c4ccccc4)c4nc(c(-c5ccccc5)c5ccc2[nH]5)C=C4)C=C3)cc1)c1ccccc1)Nc1ccc(Cl)cc1Cl
REMARK SMILES IDX 12 1 11 2 10 3 9 4 8 5 7 6 5 7 6 8 4 9 3 10 2 11 1 12 76 13
REMARK SMILES IDX 77 15 78 16 83 17 79 18 82 19 84 20 80 21 81 22 70 23 71 24
REMARK SMILES IDX 75 25 72 26 74 27 73 28 13 29 14 30 15 31 16 32 17 33 18 34
REMARK SMILES IDX 19 35 20 36 21 37 22 38 23 39 69 40 24 41 68 42 25 43 26 44
REMARK SMILES IDX 27 45 62 46 28 47 67 48 61 49 63 50 29 51 66 52 60 53 59 54
REMARK SMILES IDX 30 56 52 57 37 58 51 59 38 60 41 61 50 62 64 63 39 64 40 65
REMARK SMILES IDX 49 67 65 68 42 69 31 70 32 71 36 72 33 73 35 74 34 75 53 76
REMARK SMILES IDX 54 77 58 78 55 79 57 80 56 81 43 82 44 83 48 84 45 85 47 86
REMARK SMILES IDX 46 87
REMARK H PARENT 76 14 63 55 41 66
REMARK Flexibility Score: inf
ROOT
ATOM      1  C   UNL     1       1.683  -0.976   2.750  1.00  0.00     0.188 C 
ENDROOT
BRANCH   1   2
ATOM      2  C   UNL     1       1.938   0.488   3.164  1.00  0.00     0.188 C 
BRANCH   2   3
ATOM      3  O   UNL     1       1.045   1.522   2.762  1.00  0.00    -0.376 OA
BRANCH   3   4
ATOM      4  C   UNL     1       0.625   1.639   1.409  1.00  0.00     0.202 C 
BRANCH   4   5
ATOM      5  C   UNL     1       1.631   1.556   0.251  1.00  0.00     0.261 C 
BRANCH   5   6
ATOM      6  O   UNL     1       2.489   0.409   0.300  1.00  0.00    -0.463 OA
BRANCH   6   7
ATOM      7  C   UNL     1       3.810   0.641   0.561  1.00  0.00     0.314 C 
ATOM      8  O   UNL     1       4.323   1.748   0.626  1.00  0.00    -0.252 OA
BRANCH   7   9
ATOM      9  C   UNL     1       4.530  -0.699   0.792  1.00  0.00     0.138 C 
BRANCH   9  10
ATOM     10  C   UNL     1       5.409  -1.081  -0.393  1.00  0.00     0.120 C 
BRANCH  10  11
ATOM     11  C   UNL     1       4.829  -0.545  -1.690  1.00  0.00     0.225 C 
ATOM     12  O   UNL     1       5.344   0.429  -2.230  1.00  0.00    -0.275 OA
ATOM     13  N   UNL     1       3.633  -1.140  -2.077  1.00  0.00    -0.325 N 
ATOM     14  H   UNL     1       3.299  -1.898  -1.546  1.00  0.00     0.169 HD
BRANCH  13  15
ATOM     15  C   UNL     1       2.866  -0.716  -3.194  1.00  0.00     0.060 A 
ATOM     16  C   UNL     1       1.471  -0.699  -3.020  1.00  0.00     0.029 A 
ATOM     17  C   UNL     1       3.395  -0.297  -4.429  1.00  0.00     0.066 A 
ATOM     18  C   UNL     1       0.635  -0.173  -4.012  1.00  0.00     0.023 A 
ATOM     19  C   UNL     1       2.558   0.246  -5.410  1.00  0.00     0.043 A 
ATOM     20  Cl  UNL     1       5.027  -0.615  -4.918  1.00  0.00    -0.082 Cl
ATOM     21  C   UNL     1       1.186   0.321  -5.191  1.00  0.00     0.042 A 
ATOM     22  Cl  UNL     1       0.163   0.991  -6.400  1.00  0.00    -0.084 Cl
ENDBRANCH  13  15
ENDBRANCH  10  11
ENDBRANCH   9  10
BRANCH   9  23
ATOM     23  C   UNL     1       5.175  -0.848   2.179  1.00  0.00    -0.033 A 
ATOM     24  C   UNL     1       5.285  -2.126   2.759  1.00  0.00     0.004 A 
ATOM     25  C   UNL     1       5.535   0.255   2.972  1.00  0.00     0.004 A 
ATOM     26  C   UNL     1       5.664  -2.282   4.099  1.00  0.00     0.000 A 
ATOM     27  C   UNL     1       5.894   0.100   4.315  1.00  0.00     0.000 A 
ATOM     28  C   UNL     1       5.949  -1.168   4.882  1.00  0.00     0.000 A 
ENDBRANCH   9  23
ENDBRANCH   7   9
ENDBRANCH   6   7
ENDBRANCH   5   6
ENDBRANCH   4   5
ENDBRANCH   3   4
ENDBRANCH   2   3
ENDBRANCH   1   2
BRANCH   1  29
ATOM     29  O   UNL     1       0.733  -1.137   1.712  1.00  0.00    -0.377 OA
BRANCH  29  30
ATOM     30  C   UNL     1      -0.576  -1.485   2.154  1.00  0.00     0.188 C 
BRANCH  30  31
ATOM     31  C   UNL     1      -1.120  -0.792   3.425  1.00  0.00     0.188 C 
BRANCH  31  32
ATOM     32  O   UNL     1      -0.234  -0.826   4.536  1.00  0.00    -0.376 OA
BRANCH  32  33
ATOM     33  C   UNL     1      -0.398  -1.808   5.547  1.00  0.00     0.202 C 
BRANCH  33  34
ATOM     34  C   UNL     1      -0.196  -3.288   5.178  1.00  0.00     0.261 C 
BRANCH  34  35
ATOM     35  O   UNL     1      -0.961  -3.783   4.070  1.00  0.00    -0.460 OA
BRANCH  35  36
ATOM     36  C   UNL     1      -2.305  -3.740   4.170  1.00  0.00     0.338 C 
ATOM     37  O   UNL     1      -2.961  -3.371   5.130  1.00  0.00    -0.246 OA
BRANCH  36  38
ATOM     38  C   UNL     1      -2.862  -4.019   2.830  1.00  0.00     0.060 A 
ATOM     39  C   UNL     1      -3.670  -3.051   2.218  1.00  0.00     0.016 A 
ATOM     40  C   UNL     1      -2.574  -5.218   2.173  1.00  0.00     0.016 A 
ATOM     41  C   UNL     1      -4.224  -3.294   0.963  1.00  0.00     0.010 A 
ATOM     42  C   UNL     1      -3.155  -5.474   0.928  1.00  0.00     0.010 A 
ATOM     43  C   UNL     1      -4.011  -4.528   0.337  1.00  0.00    -0.014 A 
BRANCH  43  44
ATOM     44  C   UNL     1      -4.860  -4.916  -0.814  1.00  0.00     0.031 A 
ATOM     45  C   UNL     1      -6.073  -5.763  -0.542  1.00  0.00     0.074 A 
ATOM     46  C   UNL     1      -4.583  -4.510  -2.064  1.00  0.00     0.049 A 
ATOM     47  N   UNL     1      -6.940  -6.268  -1.381  1.00  0.00    -0.248 NA
ATOM     48  C   UNL     1      -6.342  -6.086   0.870  1.00  0.00     0.031 C 
ATOM     49  C   UNL     1      -3.473  -3.640  -2.449  1.00  0.00     0.029 A 
ATOM     50  N   UNL     1      -5.221  -4.787  -3.247  1.00  0.00    -0.354 N 
ATOM     51  C   UNL     1      -7.847  -6.976  -0.601  1.00  0.00     0.074 A 
ATOM     52  C   UNL     1      -7.410  -6.861   0.773  1.00  0.00     0.031 C 
ATOM     53  C   UNL     1      -3.503  -3.463  -3.782  1.00  0.00     0.029 A 
ATOM     54  C   UNL     1      -4.608  -4.237  -4.345  1.00  0.00     0.049 A 
ATOM     55  H   UNL     1      -6.041  -5.330  -3.302  1.00  0.00     0.167 HD
ATOM     56  C   UNL     1      -8.947  -7.660  -0.992  1.00  0.00     0.031 A 
ATOM     57  C   UNL     1      -4.894  -4.367  -5.656  1.00  0.00     0.031 A 
ATOM     58  C   UNL     1      -9.370  -7.788  -2.360  1.00  0.00     0.049 A 
ATOM     59  C   UNL     1      -6.072  -5.211  -6.074  1.00  0.00     0.074 A 
ATOM     60  C   UNL     1     -10.478  -8.449  -2.860  1.00  0.00     0.029 A 
ATOM     61  N   UNL     1      -8.697  -7.254  -3.447  1.00  0.00    -0.354 N 
ATOM     62  N   UNL     1      -6.936  -5.856  -5.328  1.00  0.00    -0.248 NA
ATOM     63  C   UNL     1      -6.315  -5.338  -7.519  1.00  0.00     0.031 C 
ATOM     64  C   UNL     1     -10.436  -8.374  -4.255  1.00  0.00     0.029 A 
ATOM     65  C   UNL     1      -9.345  -7.600  -4.620  1.00  0.00     0.049 A 
ATOM     66  H   UNL     1      -7.878  -6.709  -3.393  1.00  0.00     0.167 HD
ATOM     67  C   UNL     1      -7.844  -6.434  -6.210  1.00  0.00     0.074 A 
ATOM     68  C   UNL     1      -7.432  -6.051  -7.544  1.00  0.00     0.031 C 
ATOM     69  C   UNL     1      -8.923  -7.210  -5.940  1.00  0.00     0.031 A 
BRANCH  56  70
ATOM     70  C   UNL     1      -9.741  -8.362   0.074  1.00  0.00    -0.014 A 
ATOM     71  C   UNL     1     -10.492  -7.649   1.022  1.00  0.00     0.009 A 
ATOM     72  C   UNL     1      -9.758  -9.765   0.112  1.00  0.00     0.009 A 
ATOM     73  C   UNL     1     -11.214  -8.327   2.007  1.00  0.00     0.001 A 
ATOM     74  C   UNL     1     -10.506 -10.441   1.077  1.00  0.00     0.001 A 
ATOM     75  C   UNL     1     -11.226  -9.722   2.030  1.00  0.00     0.000 A 
ENDBRANCH  56  70
BRANCH  57  76
ATOM     76  C   UNL     1      -4.038  -3.706  -6.678  1.00  0.00    -0.014 A 
ATOM     77  C   UNL     1      -4.543  -2.668  -7.476  1.00  0.00     0.009 A 
ATOM     78  C   UNL     1      -2.716  -4.133  -6.882  1.00  0.00     0.009 A 
ATOM     79  C   UNL     1      -3.752  -2.092  -8.473  1.00  0.00     0.001 A 
ATOM     80  C   UNL     1      -1.917  -3.533  -7.857  1.00  0.00     0.001 A 
ATOM     81  C   UNL     1      -2.439  -2.521  -8.660  1.00  0.00     0.000 A 
ENDBRANCH  57  76
BRANCH  69  82
ATOM     82  C   UNL     1      -9.765  -7.658  -7.105  1.00  0.00    -0.014 A 
ATOM     83  C   UNL     1      -9.300  -8.609  -8.026  1.00  0.00     0.009 A 
ATOM     84  C   UNL     1     -11.068  -7.153  -7.251  1.00  0.00     0.009 A 
ATOM     85  C   UNL     1     -10.109  -9.015  -9.091  1.00  0.00     0.001 A 
ATOM     86  C   UNL     1     -11.886  -7.587  -8.294  1.00  0.00     0.001 A 
ATOM     87  C   UNL     1     -11.402  -8.509  -9.220  1.00  0.00     0.000 A 
ENDBRANCH  69  82
ENDBRANCH  43  44
ENDBRANCH  36  38
ENDBRANCH  35  36
ENDBRANCH  34  35
ENDBRANCH  33  34
ENDBRANCH  32  33
ENDBRANCH  31  32
ENDBRANCH  30  31
ENDBRANCH  29  30
ENDBRANCH   1  29
TORSDOF 24
