REMARK SMILES Cc1ccc(CNC(=O)NC[C@@H]2CC[C@@H](C(=O)OCCOCCOCCOCCOC(=O)c3ccc(-c4c5nc(c(-c6ccccc6)c6ccc([nH]6)c(-c6ccccc6)c6nc(c(-c7ccccc7)c7ccc4[nH]7)C=C6)C=C5)cc3)O2)cn1
REMARK SMILES IDX 23 1 22 2 21 3 20 4 19 5 18 6 16 7 17 8 15 9 12 10 13 11
REMARK SMILES IDX 81 12 14 13 11 14 10 15 7 16 8 17 9 19 6 21 5 22 1 23 2 24
REMARK SMILES IDX 3 25 83 26 4 27 82 28 24 29 25 30 26 31 27 32 28 33 29 34
REMARK SMILES IDX 30 35 31 36 32 37 33 38 34 39 80 40 35 41 79 42 36 43 37 44
REMARK SMILES IDX 38 45 73 46 39 47 78 48 72 49 74 50 40 51 77 52 71 53 70 54
REMARK SMILES IDX 41 56 63 57 48 58 62 59 49 60 52 61 61 62 75 63 50 64 51 65
REMARK SMILES IDX 60 67 76 68 53 69 42 70 43 71 47 72 44 73 46 74 45 75 64 76
REMARK SMILES IDX 65 77 69 78 66 79 68 80 67 81 54 82 55 83 59 84 56 85 58 86
REMARK SMILES IDX 57 87
REMARK H PARENT 7 18 10 20 74 55 52 66
REMARK Flexibility Score: inf
ROOT
ATOM      1  C   UNL     1      -5.972   3.837  -6.389  1.00  0.00     0.188 C 
ENDROOT
BRANCH   1   2
ATOM      2  C   UNL     1      -6.907   2.957  -7.258  1.00  0.00     0.188 C 
BRANCH   2   3
ATOM      3  O   UNL     1      -8.163   3.541  -7.556  1.00  0.00    -0.376 OA
BRANCH   3   4
ATOM      4  C   UNL     1      -9.341   2.989  -7.000  1.00  0.00     0.202 C 
BRANCH   4   5
ATOM      5  C   UNL     1      -9.477   2.991  -5.473  1.00  0.00     0.261 C 
BRANCH   5   6
ATOM      6  O   UNL     1      -8.299   2.582  -4.777  1.00  0.00    -0.461 OA
BRANCH   6   7
ATOM      7  C   UNL     1      -8.018   1.252  -4.744  1.00  0.00     0.335 C 
ATOM      8  O   UNL     1      -8.738   0.371  -5.193  1.00  0.00    -0.249 OA
BRANCH   7   9
ATOM      9  C   UNL     1      -6.590   1.047  -4.228  1.00  0.00     0.228 C 
ATOM     10  C   UNL     1      -5.634   1.358  -2.114  1.00  0.00     0.138 C 
ATOM     11  C   UNL     1      -5.283  -0.036  -2.603  1.00  0.00     0.037 C 
ATOM     12  O   UNL     1      -6.188   2.023  -3.259  1.00  0.00    -0.361 OA
ATOM     13  C   UNL     1      -6.366  -0.315  -3.613  1.00  0.00     0.047 C 
BRANCH  10  14
ATOM     14  C   UNL     1      -4.455   2.187  -1.573  1.00  0.00     0.149 C 
BRANCH  14  15
ATOM     15  N   UNL     1      -4.675   2.618  -0.201  1.00  0.00    -0.336 N 
ATOM     16  N   UNL     1      -3.778   0.953   1.213  1.00  0.00    -0.334 N 
ATOM     17  C   UNL     1      -4.409   2.111   1.004  1.00  0.00     0.315 C 
ATOM     18  H   UNL     1      -3.637   0.768   2.170  1.00  0.00     0.165 HD
ATOM     19  O   UNL     1      -4.764   2.756   1.993  1.00  0.00    -0.249 OA
ATOM     20  H   UNL     1      -5.128   3.490  -0.150  1.00  0.00     0.165 HD
BRANCH  16  21
ATOM     21  C   UNL     1      -3.253  -0.090   0.367  1.00  0.00     0.155 C 
BRANCH  21  22
ATOM     22  C   UNL     1      -1.758  -0.104   0.271  1.00  0.00    -0.010 A 
ATOM     23  C   UNL     1       2.488  -0.056  -0.054  1.00  0.00     0.066 C 
ATOM     24  C   UNL     1       0.993  -0.106   0.025  1.00  0.00     0.037 A 
ATOM     25  C   UNL     1       0.320  -1.321   0.061  1.00  0.00     0.024 A 
ATOM     26  N   UNL     1       0.347   1.081   0.073  1.00  0.00    -0.261 NA
ATOM     27  C   UNL     1      -1.068  -1.316   0.177  1.00  0.00     0.009 A 
ATOM     28  C   UNL     1      -1.001   1.058   0.191  1.00  0.00     0.116 A 
ENDBRANCH  21  22
ENDBRANCH  16  21
ENDBRANCH  14  15
ENDBRANCH  10  14
ENDBRANCH   7   9
ENDBRANCH   6   7
ENDBRANCH   5   6
ENDBRANCH   4   5
ENDBRANCH   3   4
ENDBRANCH   2   3
ENDBRANCH   1   2
BRANCH   1  29
ATOM     29  O   UNL     1      -6.429   5.062  -5.834  1.00  0.00    -0.377 OA
BRANCH  29  30
ATOM     30  C   UNL     1      -7.318   5.888  -6.572  1.00  0.00     0.188 C 
BRANCH  30  31
ATOM     31  C   UNL     1      -7.168   6.018  -8.105  1.00  0.00     0.188 C 
BRANCH  31  32
ATOM     32  O   UNL     1      -6.100   5.264  -8.652  1.00  0.00    -0.376 OA
BRANCH  32  33
ATOM     33  C   UNL     1      -4.957   5.970  -9.097  1.00  0.00     0.202 C 
BRANCH  33  34
ATOM     34  C   UNL     1      -4.173   6.785  -8.058  1.00  0.00     0.261 C 
BRANCH  34  35
ATOM     35  O   UNL     1      -4.936   7.692  -7.247  1.00  0.00    -0.460 OA
BRANCH  35  36
ATOM     36  C   UNL     1      -5.492   8.757  -7.860  1.00  0.00     0.338 C 
ATOM     37  O   UNL     1      -5.420   9.049  -9.045  1.00  0.00    -0.246 OA
BRANCH  36  38
ATOM     38  C   UNL     1      -6.379   9.420  -6.884  1.00  0.00     0.060 A 
ATOM     39  C   UNL     1      -7.755   9.492  -7.146  1.00  0.00     0.016 A 
ATOM     40  C   UNL     1      -5.855   9.953  -5.705  1.00  0.00     0.016 A 
ATOM     41  C   UNL     1      -8.606  10.123  -6.240  1.00  0.00     0.010 A 
ATOM     42  C   UNL     1      -6.705  10.609  -4.811  1.00  0.00     0.010 A 
ATOM     43  C   UNL     1      -8.079  10.725  -5.091  1.00  0.00    -0.014 A 
BRANCH  43  44
ATOM     44  C   UNL     1      -8.924  11.644  -4.292  1.00  0.00     0.031 A 
ATOM     45  C   UNL     1      -8.808  13.122  -4.548  1.00  0.00     0.074 A 
ATOM     46  C   UNL     1      -9.796  11.181  -3.379  1.00  0.00     0.049 A 
ATOM     47  N   UNL     1      -9.424  14.118  -3.965  1.00  0.00    -0.248 NA
ATOM     48  C   UNL     1      -7.869  13.530  -5.607  1.00  0.00     0.031 C 
ATOM     49  C   UNL     1     -10.040   9.773  -3.074  1.00  0.00     0.029 A 
ATOM     50  N   UNL     1     -10.641  11.861  -2.537  1.00  0.00    -0.354 N 
ATOM     51  C   UNL     1      -8.937  15.268  -4.575  1.00  0.00     0.074 A 
ATOM     52  C   UNL     1      -7.958  14.850  -5.553  1.00  0.00     0.031 C 
ATOM     53  C   UNL     1     -10.975   9.693  -2.110  1.00  0.00     0.029 A 
ATOM     54  C   UNL     1     -11.365  11.043  -1.705  1.00  0.00     0.049 A 
ATOM     55  H   UNL     1     -10.721  12.842  -2.530  1.00  0.00     0.167 HD
ATOM     56  C   UNL     1      -9.277  16.558  -4.343  1.00  0.00     0.031 A 
ATOM     57  C   UNL     1     -12.228  11.352  -0.717  1.00  0.00     0.031 A 
ATOM     58  C   UNL     1     -10.240  16.974  -3.359  1.00  0.00     0.049 A 
ATOM     59  C   UNL     1     -12.519  12.801  -0.418  1.00  0.00     0.074 A 
ATOM     60  C   UNL     1     -10.670  18.256  -3.064  1.00  0.00     0.029 A 
ATOM     61  N   UNL     1     -10.912  16.118  -2.501  1.00  0.00    -0.354 N 
ATOM     62  N   UNL     1     -12.084  13.878  -1.026  1.00  0.00    -0.248 NA
ATOM     63  C   UNL     1     -13.431  13.073   0.703  1.00  0.00     0.031 C 
ATOM     64  C   UNL     1     -11.548  18.181  -1.979  1.00  0.00     0.029 A 
ATOM     65  C   UNL     1     -11.725  16.847  -1.650  1.00  0.00     0.049 A 
ATOM     66  H   UNL     1     -10.824  15.137  -2.498  1.00  0.00     0.167 HD
ATOM     67  C   UNL     1     -12.695  14.950  -0.386  1.00  0.00     0.074 A 
ATOM     68  C   UNL     1     -13.545  14.392   0.645  1.00  0.00     0.031 C 
ATOM     69  C   UNL     1     -12.568  16.278  -0.630  1.00  0.00     0.031 A 
BRANCH  56  70
ATOM     70  C   UNL     1      -8.562  17.617  -5.135  1.00  0.00    -0.014 A 
ATOM     71  C   UNL     1      -8.792  17.789  -6.510  1.00  0.00     0.009 A 
ATOM     72  C   UNL     1      -7.670  18.483  -4.484  1.00  0.00     0.009 A 
ATOM     73  C   UNL     1      -8.117  18.785  -7.220  1.00  0.00     0.001 A 
ATOM     74  C   UNL     1      -7.022  19.498  -5.189  1.00  0.00     0.001 A 
ATOM     75  C   UNL     1      -7.239  19.642  -6.558  1.00  0.00     0.000 A 
ENDBRANCH  56  70
BRANCH  57  76
ATOM     76  C   UNL     1     -12.873  10.277   0.085  1.00  0.00    -0.014 A 
ATOM     77  C   UNL     1     -14.260  10.070   0.023  1.00  0.00     0.009 A 
ATOM     78  C   UNL     1     -12.110   9.481   0.955  1.00  0.00     0.009 A 
ATOM     79  C   UNL     1     -14.872   9.114   0.837  1.00  0.00     0.001 A 
ATOM     80  C   UNL     1     -12.720   8.502   1.742  1.00  0.00     0.001 A 
ATOM     81  C   UNL     1     -14.101   8.328   1.693  1.00  0.00     0.000 A 
ENDBRANCH  57  76
BRANCH  69  82
ATOM     82  C   UNL     1     -13.402  17.218   0.198  1.00  0.00    -0.014 A 
ATOM     83  C   UNL     1     -13.147  17.422   1.563  1.00  0.00     0.009 A 
ATOM     84  C   UNL     1     -14.440  17.941  -0.412  1.00  0.00     0.009 A 
ATOM     85  C   UNL     1     -13.941  18.298   2.308  1.00  0.00     0.001 A 
ATOM     86  C   UNL     1     -15.208  18.843   0.325  1.00  0.00     0.001 A 
ATOM     87  C   UNL     1     -14.967  19.011   1.687  1.00  0.00     0.000 A 
ENDBRANCH  69  82
ENDBRANCH  43  44
ENDBRANCH  36  38
ENDBRANCH  35  36
ENDBRANCH  34  35
ENDBRANCH  33  34
ENDBRANCH  32  33
ENDBRANCH  31  32
ENDBRANCH  30  31
ENDBRANCH  29  30
ENDBRANCH   1  29
TORSDOF 24
