REMARK SMILES C=CCn1nc(C(=O)OCCOCCOCCOCCOC(=O)c2ccc(-c3c4nc(c(-c5ccccc5)c5ccc([nH]5)c(-c5ccccc5)c5nc(c(-c6ccccc6)c6ccc3[nH]6)C=C5)C=C4)cc2)c2c1CC[C@@H]([NH+]1CCC(C(C)(C)O)CC1)C2
REMARK SMILES IDX 14 1 13 2 12 3 11 4 10 5 9 6 7 7 8 8 6 9 4 10 5 11 73 12
REMARK SMILES IDX 72 13 74 14 87 15 75 16 76 17 3 18 2 19 1 20 77 21 78 22
REMARK SMILES IDX 86 23 79 25 85 26 80 27 81 28 82 29 83 30 84 31 15 33 16 34
REMARK SMILES IDX 17 35 18 36 19 37 20 38 21 39 22 40 23 41 24 42 25 43 71 44
REMARK SMILES IDX 26 45 70 46 27 47 28 48 29 49 64 50 30 51 69 52 63 53 65 54
REMARK SMILES IDX 31 55 68 56 62 57 61 58 32 60 54 61 39 62 53 63 40 64 43 65
REMARK SMILES IDX 52 66 66 67 41 68 42 69 51 71 67 72 44 73 33 74 34 75 38 76
REMARK SMILES IDX 35 77 37 78 36 79 55 80 56 81 60 82 57 83 59 84 58 85 45 86
REMARK SMILES IDX 46 87 50 88 47 89 49 90 48 91
REMARK H PARENT 77 24 84 32 65 59 43 70
REMARK Flexibility Score: inf
ROOT
ATOM      1  C   UNL     1      -1.802  -5.848  -0.407  1.00  0.00     0.188 C 
ENDROOT
BRANCH   1   2
ATOM      2  C   UNL     1      -0.497  -6.573  -0.031  1.00  0.00     0.188 C 
BRANCH   2   3
ATOM      3  O   UNL     1      -0.744  -7.887   0.468  1.00  0.00    -0.376 OA
BRANCH   3   4
ATOM      4  C   UNL     1      -0.209  -8.191   1.745  1.00  0.00     0.202 C 
BRANCH   4   5
ATOM      5  C   UNL     1      -1.238  -7.904   2.842  1.00  0.00     0.261 C 
BRANCH   5   6
ATOM      6  O   UNL     1      -1.734  -6.559   2.824  1.00  0.00    -0.458 OA
BRANCH   6   7
ATOM      7  C   UNL     1      -0.815  -5.575   3.045  1.00  0.00     0.359 C 
ATOM      8  O   UNL     1       0.349  -5.793   3.363  1.00  0.00    -0.244 OA
BRANCH   7   9
ATOM      9  C   UNL     1      -1.380  -4.241   2.807  1.00  0.00     0.174 A 
ATOM     10  N   UNL     1      -1.456  -2.123   2.539  1.00  0.00    -0.265 N 
ATOM     11  N   UNL     1      -0.593  -3.160   2.599  1.00  0.00    -0.165 NA
ATOM     12  C   UNL     1      -2.710  -2.503   2.925  1.00  0.00     0.043 A 
ATOM     13  C   UNL     1      -2.751  -3.865   2.746  1.00  0.00     0.014 A 
ATOM     14  C   UNL     1      -3.827  -1.643   3.356  1.00  0.00     0.062 C 
ATOM     15  C   UNL     1      -4.030  -4.633   2.709  1.00  0.00     0.105 C 
ATOM     16  C   UNL     1      -5.084  -2.498   3.584  1.00  0.00     0.072 C 
ATOM     17  C   UNL     1      -5.287  -3.691   2.613  1.00  0.00     0.189 C 
BRANCH  10  18
ATOM     18  C   UNL     1      -1.103  -0.826   1.949  1.00  0.00     0.171 C 
BRANCH  18  19
ATOM     19  C   UNL     1       0.343  -0.640   1.585  1.00  0.00    -0.011 C 
ATOM     20  C   UNL     1       0.781  -0.175   0.406  1.00  0.00     0.006 C 
ENDBRANCH  18  19
ENDBRANCH  10  18
BRANCH  17  21
ATOM     21  N   UNL     1      -5.768  -3.451   1.232  1.00  0.00    -0.332 N 
ATOM     22  C   UNL     1      -4.964  -2.727   0.265  1.00  0.00     0.262 C 
ATOM     23  C   UNL     1      -7.171  -3.081   1.086  1.00  0.00     0.262 C 
ATOM     24  H   UNL     1      -5.632  -4.425   0.960  1.00  0.00     0.348 HD
ATOM     25  C   UNL     1      -5.131  -1.205   0.243  1.00  0.00     0.068 C 
ATOM     26  C   UNL     1      -7.461  -1.607   1.337  1.00  0.00     0.068 C 
ATOM     27  C   UNL     1      -6.502  -0.606   0.649  1.00  0.00     0.031 C 
BRANCH  27  28
ATOM     28  C   UNL     1      -6.393   0.736   1.472  1.00  0.00     0.062 C 
ATOM     29  C   UNL     1      -5.349   1.717   0.921  1.00  0.00     0.042 C 
ATOM     30  C   UNL     1      -7.752   1.446   1.557  1.00  0.00     0.042 C 
BRANCH  28  31
ATOM     31  O   UNL     1      -6.000   0.443   2.817  1.00  0.00    -0.390 OA
ATOM     32  H   UNL     1      -5.141  -0.009   2.811  1.00  0.00     0.211 HD
ENDBRANCH  28  31
ENDBRANCH  27  28
ENDBRANCH  17  21
ENDBRANCH   7   9
ENDBRANCH   6   7
ENDBRANCH   5   6
ENDBRANCH   4   5
ENDBRANCH   3   4
ENDBRANCH   2   3
ENDBRANCH   1   2
BRANCH   1  33
ATOM     33  O   UNL     1      -2.678  -6.478  -1.335  1.00  0.00    -0.377 OA
BRANCH  33  34
ATOM     34  C   UNL     1      -2.963  -7.842  -1.074  1.00  0.00     0.188 C 
BRANCH  34  35
ATOM     35  C   UNL     1      -2.091  -8.816  -1.888  1.00  0.00     0.188 C 
BRANCH  35  36
ATOM     36  O   UNL     1      -0.922  -8.385  -2.567  1.00  0.00    -0.376 OA
BRANCH  36  37
ATOM     37  C   UNL     1      -0.802  -7.251  -3.412  1.00  0.00     0.202 C 
BRANCH  37  38
ATOM     38  C   UNL     1      -1.914  -6.580  -4.216  1.00  0.00     0.261 C 
BRANCH  38  39
ATOM     39  O   UNL     1      -3.226  -6.952  -3.889  1.00  0.00    -0.460 OA
BRANCH  39  40
ATOM     40  C   UNL     1      -3.605  -8.137  -4.391  1.00  0.00     0.338 C 
ATOM     41  O   UNL     1      -2.941  -8.914  -5.048  1.00  0.00    -0.246 OA
BRANCH  40  42
ATOM     42  C   UNL     1      -5.032  -8.294  -4.083  1.00  0.00     0.060 A 
ATOM     43  C   UNL     1      -5.620  -9.460  -4.563  1.00  0.00     0.016 A 
ATOM     44  C   UNL     1      -5.787  -7.183  -3.666  1.00  0.00     0.016 A 
ATOM     45  C   UNL     1      -6.938  -9.393  -4.934  1.00  0.00     0.010 A 
ATOM     46  C   UNL     1      -7.101  -7.110  -4.050  1.00  0.00     0.010 A 
ATOM     47  C   UNL     1      -7.606  -8.172  -4.791  1.00  0.00    -0.014 A 
BRANCH  47  48
ATOM     48  C   UNL     1      -8.802  -8.005  -5.578  1.00  0.00     0.031 A 
ATOM     49  C   UNL     1     -10.009  -8.628  -5.025  1.00  0.00     0.074 A 
ATOM     50  C   UNL     1      -8.799  -7.312  -6.729  1.00  0.00     0.049 A 
ATOM     51  N   UNL     1     -10.684  -9.609  -5.517  1.00  0.00    -0.248 NA
ATOM     52  C   UNL     1     -10.461  -8.151  -3.713  1.00  0.00     0.031 C 
ATOM     53  C   UNL     1      -7.768  -6.405  -7.243  1.00  0.00     0.029 A 
ATOM     54  N   UNL     1      -9.802  -7.203  -7.640  1.00  0.00    -0.354 N 
ATOM     55  C   UNL     1     -11.755  -9.781  -4.655  1.00  0.00     0.074 A 
ATOM     56  C   UNL     1     -11.502  -8.953  -3.500  1.00  0.00     0.031 C 
ATOM     57  C   UNL     1      -8.297  -5.670  -8.247  1.00  0.00     0.029 A 
ATOM     58  C   UNL     1      -9.642  -6.151  -8.521  1.00  0.00     0.049 A 
ATOM     59  H   UNL     1     -10.571  -7.817  -7.669  1.00  0.00     0.167 HD
ATOM     60  C   UNL     1     -12.890 -10.417  -5.040  1.00  0.00     0.031 A 
ATOM     61  C   UNL     1     -10.592  -5.657  -9.349  1.00  0.00     0.031 A 
ATOM     62  C   UNL     1     -12.706 -11.228  -6.212  1.00  0.00     0.049 A 
ATOM     63  C   UNL     1     -11.645  -6.688  -9.508  1.00  0.00     0.074 A 
ATOM     64  C   UNL     1     -11.909 -12.310  -6.530  1.00  0.00     0.029 A 
ATOM     65  N   UNL     1     -13.172 -10.739  -7.409  1.00  0.00    -0.354 N 
ATOM     66  N   UNL     1     -11.473  -7.808 -10.151  1.00  0.00    -0.248 NA
ATOM     67  C   UNL     1     -12.794  -6.658  -8.616  1.00  0.00     0.031 C 
ATOM     68  C   UNL     1     -11.582 -12.145  -7.907  1.00  0.00     0.029 A 
ATOM     69  C   UNL     1     -12.204 -10.976  -8.351  1.00  0.00     0.049 A 
ATOM     70  H   UNL     1     -14.040 -10.300  -7.561  1.00  0.00     0.167 HD
ATOM     71  C   UNL     1     -12.224  -8.744  -9.452  1.00  0.00     0.074 A 
ATOM     72  C   UNL     1     -13.111  -7.956  -8.604  1.00  0.00     0.031 C 
ATOM     73  C   UNL     1     -11.862 -10.061  -9.420  1.00  0.00     0.031 A 
BRANCH  60  74
ATOM     74  C   UNL     1     -14.240  -9.995  -4.543  1.00  0.00    -0.014 A 
ATOM     75  C   UNL     1     -15.352 -10.809  -4.799  1.00  0.00     0.009 A 
ATOM     76  C   UNL     1     -14.493  -8.698  -4.049  1.00  0.00     0.009 A 
ATOM     77  C   UNL     1     -16.653 -10.336  -4.593  1.00  0.00     0.001 A 
ATOM     78  C   UNL     1     -15.785  -8.241  -3.797  1.00  0.00     0.001 A 
ATOM     79  C   UNL     1     -16.868  -9.055  -4.090  1.00  0.00     0.000 A 
ENDBRANCH  60  74
BRANCH  61  80
ATOM     80  C   UNL     1     -10.764  -4.253  -9.770  1.00  0.00    -0.014 A 
ATOM     81  C   UNL     1     -11.562  -3.924 -10.874  1.00  0.00     0.009 A 
ATOM     82  C   UNL     1     -10.325  -3.203  -8.941  1.00  0.00     0.009 A 
ATOM     83  C   UNL     1     -11.922  -2.593 -11.125  1.00  0.00     0.001 A 
ATOM     84  C   UNL     1     -10.675  -1.875  -9.196  1.00  0.00     0.001 A 
ATOM     85  C   UNL     1     -11.485  -1.572 -10.284  1.00  0.00     0.000 A 
ENDBRANCH  61  80
BRANCH  73  86
ATOM     86  C   UNL     1     -10.780 -10.514 -10.369  1.00  0.00    -0.014 A 
ATOM     87  C   UNL     1      -9.470 -10.003 -10.312  1.00  0.00     0.009 A 
ATOM     88  C   UNL     1     -11.037 -11.588 -11.234  1.00  0.00     0.009 A 
ATOM     89  C   UNL     1      -8.458 -10.529 -11.119  1.00  0.00     0.001 A 
ATOM     90  C   UNL     1     -10.020 -12.127 -12.027  1.00  0.00     0.001 A 
ATOM     91  C   UNL     1      -8.732 -11.595 -11.973  1.00  0.00     0.000 A 
ENDBRANCH  73  86
ENDBRANCH  47  48
ENDBRANCH  40  42
ENDBRANCH  39  40
ENDBRANCH  38  39
ENDBRANCH  37  38
ENDBRANCH  36  37
ENDBRANCH  35  36
ENDBRANCH  34  35
ENDBRANCH  33  34
ENDBRANCH   1  33
TORSDOF 25
