REMARK SMILES Cc1cc(/C=C2/C(=O)NC(=S)N=C2OCCOCCOCCOCCOC(=O)c2ccc(-c3c4nc(c(-c5ccccc5)c5ccc([nH]5)c(-c5ccccc5)c5nc(c(-c6ccccc6)c6ccc3[nH]6)C=C5)C=C4)cc2)c(C)n1-c1cccc(C(=O)[O-])c1
REMARK SMILES IDX 20 1 19 2 18 3 17 4 16 5 15 6 14 7 13 8 5 9 6 10 7 11 8 12
REMARK SMILES IDX 9 13 12 14 10 15 11 17 4 18 1 19 2 20 3 21 79 22 77 23 78 24
REMARK SMILES IDX 80 25 81 26 88 27 82 28 84 29 83 30 85 31 86 32 87 33 21 34
REMARK SMILES IDX 22 35 23 36 24 37 25 38 26 39 27 40 28 41 29 42 30 43 76 44
REMARK SMILES IDX 31 45 75 46 32 47 33 48 34 49 69 50 35 51 74 52 68 53 70 54
REMARK SMILES IDX 36 55 73 56 67 57 66 58 37 60 59 61 44 62 58 63 45 64 48 65
REMARK SMILES IDX 57 66 71 67 46 68 47 69 56 71 72 72 49 73 38 74 39 75 43 76
REMARK SMILES IDX 40 77 42 78 41 79 60 80 61 81 65 82 62 83 64 84 63 85 50 86
REMARK SMILES IDX 51 87 55 88 52 89 54 90 53 91
REMARK H PARENT 9 16 70 59 48 70
REMARK Flexibility Score: inf
ROOT
ATOM      1  O   UNL     1       2.455   0.691  -5.502  1.00  0.00    -0.377 OA
ENDROOT
BRANCH   1   2
ATOM      2  C   UNL     1       1.430   0.247  -6.372  1.00  0.00     0.188 C 
BRANCH   2   3
ATOM      3  C   UNL     1       0.916   0.938  -7.662  1.00  0.00     0.188 C 
BRANCH   3   4
ATOM      4  O   UNL     1       0.695   2.324  -7.799  1.00  0.00    -0.376 OA
BRANCH   4   5
ATOM      5  C   UNL     1      -0.183   3.088  -6.999  1.00  0.00     0.201 C 
BRANCH   5   6
ATOM      6  C   UNL     1      -1.486   2.536  -6.429  1.00  0.00     0.260 C 
BRANCH   6   7
ATOM      7  O   UNL     1      -1.331   1.281  -5.738  1.00  0.00    -0.475 OA
BRANCH   7   8
ATOM      8  C   UNL     1      -1.914   0.187  -6.270  1.00  0.00     0.229 C 
ATOM      9  C   UNL     1      -1.147  -1.387  -4.324  1.00  0.00     0.029 C 
ATOM     10  C   UNL     1      -1.619  -1.086  -5.561  1.00  0.00     0.103 C 
ATOM     11  C   UNL     1      -1.778  -2.272  -6.470  1.00  0.00     0.262 C 
ATOM     12  O   UNL     1      -1.395  -3.406  -6.199  1.00  0.00    -0.269 OA
ATOM     13  N   UNL     1      -2.351  -2.011  -7.685  1.00  0.00    -0.297 N 
ATOM     14  N   UNL     1      -2.514   0.301  -7.402  1.00  0.00    -0.184 NA
ATOM     15  C   UNL     1      -2.777  -0.800  -8.146  1.00  0.00     0.203 C 
ATOM     16  H   UNL     1      -2.467  -2.779  -8.290  1.00  0.00     0.172 HD
ATOM     17  S   UNL     1      -3.469  -0.723  -9.669  1.00  0.00    -0.038 S 
BRANCH   9  18
ATOM     18  C   UNL     1      -0.709  -0.645  -3.163  1.00  0.00    -0.003 A 
ATOM     19  C   UNL     1       1.217  -0.373   0.042  1.00  0.00     0.065 C 
ATOM     20  C   UNL     1       0.454  -0.235  -1.234  1.00  0.00     0.020 A 
ATOM     21  C   UNL     1       0.174  -1.199  -2.186  1.00  0.00     0.031 A 
ATOM     22  N   UNL     1      -0.163   0.935  -1.644  1.00  0.00    -0.318 N 
ATOM     23  C   UNL     1      -1.052   0.612  -2.687  1.00  0.00     0.027 A 
ATOM     24  C   UNL     1      -2.053   1.582  -3.195  1.00  0.00     0.065 C 
BRANCH  22  25
ATOM     25  C   UNL     1       0.147   2.265  -1.209  1.00  0.00     0.046 A 
ATOM     26  C   UNL     1      -0.886   3.189  -1.015  1.00  0.00     0.026 A 
ATOM     27  C   UNL     1       1.481   2.702  -1.170  1.00  0.00     0.036 A 
ATOM     28  C   UNL     1      -0.626   4.555  -0.997  1.00  0.00     0.003 A 
ATOM     29  C   UNL     1       1.745   4.082  -1.080  1.00  0.00    -0.001 A 
ATOM     30  C   UNL     1       0.686   5.001  -1.058  1.00  0.00     0.010 A 
BRANCH  29  31
ATOM     31  C   UNL     1       3.112   4.639  -1.032  1.00  0.00     0.072 C 
ATOM     32  O   UNL     1       3.390   5.841  -1.046  1.00  0.00    -0.545 OA
ATOM     33  O   UNL     1       4.074   3.717  -0.919  1.00  0.00    -0.545 OA
ENDBRANCH  29  31
ENDBRANCH  22  25
ENDBRANCH   9  18
ENDBRANCH   7   8
ENDBRANCH   6   7
ENDBRANCH   5   6
ENDBRANCH   4   5
ENDBRANCH   3   4
ENDBRANCH   2   3
ENDBRANCH   1   2
BRANCH   1  34
ATOM     34  C   UNL     1       2.553   2.055  -5.184  1.00  0.00     0.188 C 
BRANCH  34  35
ATOM     35  C   UNL     1       3.570   2.788  -6.061  1.00  0.00     0.188 C 
BRANCH  35  36
ATOM     36  O   UNL     1       3.942   2.185  -7.287  1.00  0.00    -0.376 OA
BRANCH  36  37
ATOM     37  C   UNL     1       4.528   0.885  -7.284  1.00  0.00     0.202 C 
BRANCH  37  38
ATOM     38  C   UNL     1       5.797   0.494  -6.457  1.00  0.00     0.261 C 
BRANCH  38  39
ATOM     39  O   UNL     1       5.845   0.198  -5.010  1.00  0.00    -0.460 OA
BRANCH  39  40
ATOM     40  C   UNL     1       6.806   0.878  -4.284  1.00  0.00     0.338 C 
ATOM     41  O   UNL     1       7.159   2.013  -4.595  1.00  0.00    -0.246 OA
BRANCH  40  42
ATOM     42  C   UNL     1       7.445   0.204  -3.029  1.00  0.00     0.060 A 
ATOM     43  C   UNL     1       7.309   0.819  -1.793  1.00  0.00     0.016 A 
ATOM     44  C   UNL     1       8.435  -0.811  -3.020  1.00  0.00     0.016 A 
ATOM     45  C   UNL     1       8.071   0.396  -0.623  1.00  0.00     0.010 A 
ATOM     46  C   UNL     1       9.273  -1.190  -1.820  1.00  0.00     0.010 A 
ATOM     47  C   UNL     1       9.136  -0.596  -0.548  1.00  0.00    -0.014 A 
BRANCH  47  48
ATOM     48  C   UNL     1      10.190  -0.550   0.814  1.00  0.00     0.031 A 
ATOM     49  C   UNL     1      10.166   0.906   1.114  1.00  0.00     0.074 A 
ATOM     50  C   UNL     1      11.158  -1.202   1.634  1.00  0.00     0.049 A 
ATOM     51  N   UNL     1      10.570   1.691   0.163  1.00  0.00    -0.248 NA
ATOM     52  C   UNL     1       9.372   1.562   2.151  1.00  0.00     0.031 C 
ATOM     53  C   UNL     1      11.719  -2.566   1.508  1.00  0.00     0.029 A 
ATOM     54  N   UNL     1      11.930  -0.786   2.814  1.00  0.00    -0.354 N 
ATOM     55  C   UNL     1      10.310   2.976   0.549  1.00  0.00     0.074 A 
ATOM     56  C   UNL     1       9.417   2.824   1.697  1.00  0.00     0.031 C 
ATOM     57  C   UNL     1      12.536  -2.912   2.557  1.00  0.00     0.029 A 
ATOM     58  C   UNL     1      12.709  -1.815   3.517  1.00  0.00     0.049 A 
ATOM     59  H   UNL     1      11.924   0.149   3.123  1.00  0.00     0.167 HD
ATOM     60  C   UNL     1      11.355   3.831   0.363  1.00  0.00     0.031 A 
ATOM     61  C   UNL     1      13.504  -1.792   4.689  1.00  0.00     0.031 A 
ATOM     62  C   UNL     1      12.130   3.939   1.571  1.00  0.00     0.049 A 
ATOM     63  C   UNL     1      14.029  -0.428   4.785  1.00  0.00     0.074 A 
ATOM     64  C   UNL     1      11.765   4.067   2.897  1.00  0.00     0.029 A 
ATOM     65  N   UNL     1      13.396   3.392   1.552  1.00  0.00    -0.354 N 
ATOM     66  N   UNL     1      15.039  -0.054   4.059  1.00  0.00    -0.248 NA
ATOM     67  C   UNL     1      13.595   0.528   5.796  1.00  0.00     0.031 C 
ATOM     68  C   UNL     1      12.557   3.116   3.567  1.00  0.00     0.029 A 
ATOM     69  C   UNL     1      13.649   2.801   2.769  1.00  0.00     0.049 A 
ATOM     70  H   UNL     1      14.020   3.420   0.791  1.00  0.00     0.167 HD
ATOM     71  C   UNL     1      14.927   1.298   4.096  1.00  0.00     0.074 A 
ATOM     72  C   UNL     1      14.268   1.594   5.358  1.00  0.00     0.031 C 
ATOM     73  C   UNL     1      14.759   1.894   2.890  1.00  0.00     0.031 A 
BRANCH  60  74
ATOM     74  C   UNL     1      11.970   3.738  -1.021  1.00  0.00    -0.014 A 
ATOM     75  C   UNL     1      11.885   4.833  -1.883  1.00  0.00     0.009 A 
ATOM     76  C   UNL     1      12.506   2.534  -1.538  1.00  0.00     0.009 A 
ATOM     77  C   UNL     1      12.242   4.701  -3.232  1.00  0.00     0.001 A 
ATOM     78  C   UNL     1      12.806   2.385  -2.890  1.00  0.00     0.001 A 
ATOM     79  C   UNL     1      12.666   3.471  -3.741  1.00  0.00     0.000 A 
ENDBRANCH  60  74
BRANCH  61  80
ATOM     80  C   UNL     1      14.308  -2.604   5.807  1.00  0.00    -0.014 A 
ATOM     81  C   UNL     1      15.596  -2.134   6.269  1.00  0.00     0.009 A 
ATOM     82  C   UNL     1      13.677  -3.453   6.732  1.00  0.00     0.009 A 
ATOM     83  C   UNL     1      16.139  -2.384   7.557  1.00  0.00     0.001 A 
ATOM     84  C   UNL     1      14.240  -3.737   8.020  1.00  0.00     0.001 A 
ATOM     85  C   UNL     1      15.446  -3.178   8.448  1.00  0.00     0.000 A 
ENDBRANCH  61  80
BRANCH  73  86
ATOM     86  C   UNL     1      15.585   1.369   1.730  1.00  0.00    -0.014 A 
ATOM     87  C   UNL     1      15.688   0.013   1.344  1.00  0.00     0.009 A 
ATOM     88  C   UNL     1      16.354   2.295   1.015  1.00  0.00     0.009 A 
ATOM     89  C   UNL     1      16.557  -0.399   0.326  1.00  0.00     0.001 A 
ATOM     90  C   UNL     1      17.189   1.893  -0.032  1.00  0.00     0.001 A 
ATOM     91  C   UNL     1      17.303   0.546  -0.367  1.00  0.00     0.000 A 
ENDBRANCH  73  86
ENDBRANCH  47  48
ENDBRANCH  40  42
ENDBRANCH  39  40
ENDBRANCH  38  39
ENDBRANCH  37  38
ENDBRANCH  36  37
ENDBRANCH  35  36
ENDBRANCH  34  35
ENDBRANCH   1  34
TORSDOF 22
