REMARK SMILES N#CCOc1ccccc1[C@H]1[NH2+][C@@H](C(=O)OCCOCCOCCOCCOC(=O)c2ccc(-c3c4nc(c(-c5ccccc5)c5ccc([nH]5)c(-c5ccccc5)c5nc(c(-c6ccccc6)c6ccc3[nH]6)C=C5)C=C4)cc2)CS1
REMARK SMILES IDX 21 1 20 2 19 3 18 4 17 5 16 6 14 7 15 8 13 9 11 10 12 11
REMARK SMILES IDX 80 12 79 15 10 16 5 17 6 18 7 19 9 20 8 21 4 22 3 23 2 24
REMARK SMILES IDX 1 25 22 26 23 27 24 28 25 29 26 30 27 31 28 32 29 33 30 34
REMARK SMILES IDX 31 35 32 36 78 37 33 38 77 39 34 40 35 41 36 42 71 43 37 44
REMARK SMILES IDX 76 45 70 46 72 47 38 48 75 49 69 50 68 51 39 53 61 54 46 55
REMARK SMILES IDX 60 56 47 57 50 58 59 59 73 60 48 61 49 62 58 64 74 65 51 66
REMARK SMILES IDX 40 67 41 68 45 69 42 70 44 71 43 72 62 73 63 74 67 75 64 76
REMARK SMILES IDX 66 77 65 78 52 79 53 80 57 81 54 82 56 83 55 84
REMARK H PARENT 12 13 12 14 72 52 50 63
REMARK Flexibility Score: inf
ROOT
ATOM      1  C   UNL     1       3.850  -1.841   2.770  1.00  0.00     0.188 C 
ENDROOT
BRANCH   1   2
ATOM      2  C   UNL     1       2.834  -1.171   3.707  1.00  0.00     0.188 C 
BRANCH   2   3
ATOM      3  O   UNL     1       2.811  -1.684   5.027  1.00  0.00    -0.376 OA
BRANCH   3   4
ATOM      4  C   UNL     1       1.594  -1.894   5.739  1.00  0.00     0.202 C 
BRANCH   4   5
ATOM      5  C   UNL     1       0.245  -1.717   5.048  1.00  0.00     0.261 C 
BRANCH   5   6
ATOM      6  O   UNL     1      -0.307  -0.378   5.173  1.00  0.00    -0.459 OA
BRANCH   6   7
ATOM      7  C   UNL     1       0.205   0.740   4.592  1.00  0.00     0.365 C 
ATOM      8  O   UNL     1       0.573   1.678   5.291  1.00  0.00    -0.245 OA
BRANCH   7   9
ATOM      9  C   UNL     1       0.239   0.774   3.063  1.00  0.00     0.304 C 
ATOM     10  C   UNL     1      -0.276   1.631   0.984  1.00  0.00     0.278 C 
ATOM     11  N   UNL     1      -0.209   2.087   2.379  1.00  0.00    -0.319 N 
ATOM     12  S   UNL     1      -1.453   0.285   1.087  1.00  0.00    -0.087 SA
ATOM     13  H   UNL     1      -1.118   2.401   2.720  1.00  0.00     0.348 HD
ATOM     14  H   UNL     1       0.399   2.889   2.543  1.00  0.00     0.348 HD
ATOM     15  C   UNL     1      -0.487  -0.416   2.401  1.00  0.00     0.153 C 
BRANCH  10  16
ATOM     16  C   UNL     1      -0.388   2.366  -0.305  1.00  0.00     0.062 A 
ATOM     17  C   UNL     1      -0.283   1.661  -1.545  1.00  0.00     0.131 A 
ATOM     18  C   UNL     1      -0.638   2.343  -2.720  1.00  0.00     0.047 A 
ATOM     19  C   UNL     1      -0.951   3.702  -2.709  1.00  0.00     0.004 A 
ATOM     20  C   UNL     1      -0.609   3.755  -0.321  1.00  0.00     0.015 A 
ATOM     21  C   UNL     1      -0.883   4.418  -1.519  1.00  0.00     0.001 A 
BRANCH  17  22
ATOM     22  O   UNL     1       0.020   0.346  -1.820  1.00  0.00    -0.478 OA
BRANCH  22  23
ATOM     23  C   UNL     1       0.864  -0.624  -1.127  1.00  0.00     0.349 C 
BRANCH  23  24
ATOM     24  C   UNL     1       1.927  -0.031  -0.215  1.00  0.00     0.104 C 
ATOM     25  N   UNL     1       2.808   0.460   0.541  1.00  0.00    -0.195 NA
ENDBRANCH  23  24
ENDBRANCH  22  23
ENDBRANCH  17  22
ENDBRANCH  10  16
ENDBRANCH   7   9
ENDBRANCH   6   7
ENDBRANCH   5   6
ENDBRANCH   4   5
ENDBRANCH   3   4
ENDBRANCH   2   3
ENDBRANCH   1   2
BRANCH   1  26
ATOM     26  O   UNL     1       3.549  -3.188   2.385  1.00  0.00    -0.377 OA
BRANCH  26  27
ATOM     27  C   UNL     1       3.166  -4.080   3.425  1.00  0.00     0.188 C 
BRANCH  27  28
ATOM     28  C   UNL     1       4.108  -4.231   4.639  1.00  0.00     0.188 C 
BRANCH  28  29
ATOM     29  O   UNL     1       5.061  -3.196   4.773  1.00  0.00    -0.376 OA
BRANCH  29  30
ATOM     30  C   UNL     1       6.428  -3.516   4.565  1.00  0.00     0.202 C 
BRANCH  30  31
ATOM     31  C   UNL     1       6.853  -4.042   3.183  1.00  0.00     0.261 C 
BRANCH  31  32
ATOM     32  O   UNL     1       6.081  -5.127   2.648  1.00  0.00    -0.460 OA
BRANCH  32  33
ATOM     33  C   UNL     1       6.164  -6.320   3.282  1.00  0.00     0.338 C 
ATOM     34  O   UNL     1       6.819  -6.598   4.259  1.00  0.00    -0.246 OA
BRANCH  33  35
ATOM     35  C   UNL     1       5.125  -7.182   2.678  1.00  0.00     0.060 A 
ATOM     36  C   UNL     1       4.047  -7.619   3.462  1.00  0.00     0.016 A 
ATOM     37  C   UNL     1       5.212  -7.528   1.330  1.00  0.00     0.016 A 
ATOM     38  C   UNL     1       3.046  -8.408   2.896  1.00  0.00     0.010 A 
ATOM     39  C   UNL     1       4.233  -8.350   0.775  1.00  0.00     0.010 A 
ATOM     40  C   UNL     1       3.162  -8.813   1.562  1.00  0.00    -0.014 A 
BRANCH  40  41
ATOM     41  C   UNL     1       2.327  -9.914   1.035  1.00  0.00     0.031 A 
ATOM     42  C   UNL     1       2.915 -11.295   1.055  1.00  0.00     0.074 A 
ATOM     43  C   UNL     1       1.113  -9.696   0.504  1.00  0.00     0.049 A 
ATOM     44  N   UNL     1       2.487 -12.389   0.483  1.00  0.00    -0.248 NA
ATOM     45  C   UNL     1       4.169 -11.453   1.811  1.00  0.00     0.031 C 
ATOM     46  C   UNL     1       0.411  -8.416   0.483  1.00  0.00     0.029 A 
ATOM     47  N   UNL     1       0.273 -10.559  -0.154  1.00  0.00    -0.354 N 
ATOM     48  C   UNL     1       3.431 -13.360   0.792  1.00  0.00     0.074 A 
ATOM     49  C   UNL     1       4.464 -12.721   1.576  1.00  0.00     0.031 C 
ATOM     50  C   UNL     1      -0.743  -8.568  -0.191  1.00  0.00     0.029 A 
ATOM     51  C   UNL     1      -0.831  -9.941  -0.689  1.00  0.00     0.049 A 
ATOM     52  H   UNL     1       0.444 -11.525  -0.234  1.00  0.00     0.167 HD
ATOM     53  C   UNL     1       3.439 -14.668   0.448  1.00  0.00     0.031 A 
ATOM     54  C   UNL     1      -1.773 -10.420  -1.526  1.00  0.00     0.031 A 
ATOM     55  C   UNL     1       2.428 -15.287  -0.363  1.00  0.00     0.049 A 
ATOM     56  C   UNL     1      -1.696 -11.854  -1.986  1.00  0.00     0.074 A 
ATOM     57  C   UNL     1       2.341 -16.604  -0.775  1.00  0.00     0.029 A 
ATOM     58  N   UNL     1       1.334 -14.624  -0.896  1.00  0.00    -0.354 N 
ATOM     59  N   UNL     1      -0.806 -12.771  -1.688  1.00  0.00    -0.248 NA
ATOM     60  C   UNL     1      -2.753 -12.319  -2.896  1.00  0.00     0.031 C 
ATOM     61  C   UNL     1       1.228 -16.723  -1.612  1.00  0.00     0.029 A 
ATOM     62  C   UNL     1       0.579 -15.498  -1.656  1.00  0.00     0.049 A 
ATOM     63  H   UNL     1       1.125 -13.672  -0.755  1.00  0.00     0.167 HD
ATOM     64  C   UNL     1      -1.216 -13.928  -2.342  1.00  0.00     0.074 A 
ATOM     65  C   UNL     1      -2.434 -13.598  -3.052  1.00  0.00     0.031 C 
ATOM     66  C   UNL     1      -0.639 -15.155  -2.347  1.00  0.00     0.031 A 
BRANCH  53  67
ATOM     67  C   UNL     1       4.612 -15.489   0.906  1.00  0.00    -0.014 A 
ATOM     68  C   UNL     1       4.819 -15.778   2.265  1.00  0.00     0.009 A 
ATOM     69  C   UNL     1       5.531 -15.973  -0.038  1.00  0.00     0.009 A 
ATOM     70  C   UNL     1       5.947 -16.492   2.672  1.00  0.00     0.001 A 
ATOM     71  C   UNL     1       6.638 -16.719   0.368  1.00  0.00     0.001 A 
ATOM     72  C   UNL     1       6.853 -16.965   1.723  1.00  0.00     0.000 A 
ENDBRANCH  53  67
BRANCH  54  73
ATOM     73  C   UNL     1      -2.849  -9.519  -2.019  1.00  0.00    -0.014 A 
ATOM     74  C   UNL     1      -4.179  -9.701  -1.615  1.00  0.00     0.009 A 
ATOM     75  C   UNL     1      -2.546  -8.467  -2.900  1.00  0.00     0.009 A 
ATOM     76  C   UNL     1      -5.187  -8.861  -2.098  1.00  0.00     0.001 A 
ATOM     77  C   UNL     1      -3.550  -7.610  -3.356  1.00  0.00     0.001 A 
ATOM     78  C   UNL     1      -4.871  -7.812  -2.961  1.00  0.00     0.000 A 
ENDBRANCH  54  73
BRANCH  66  79
ATOM     79  C   UNL     1      -1.339 -16.261  -3.089  1.00  0.00    -0.014 A 
ATOM     80  C   UNL     1      -1.345 -16.320  -4.490  1.00  0.00     0.009 A 
ATOM     81  C   UNL     1      -1.917 -17.315  -2.361  1.00  0.00     0.009 A 
ATOM     82  C   UNL     1      -1.929 -17.406  -5.146  1.00  0.00     0.001 A 
ATOM     83  C   UNL     1      -2.471 -18.413  -3.019  1.00  0.00     0.001 A 
ATOM     84  C   UNL     1      -2.482 -18.456  -4.411  1.00  0.00     0.000 A 
ENDBRANCH  66  79
ENDBRANCH  40  41
ENDBRANCH  33  35
ENDBRANCH  32  33
ENDBRANCH  31  32
ENDBRANCH  30  31
ENDBRANCH  29  30
ENDBRANCH  28  29
ENDBRANCH  27  28
ENDBRANCH  26  27
ENDBRANCH   1  26
TORSDOF 24
