REMARK SMILES CC[NH+](CC)[C@@H](C(=O)OCCOCCOCCOCCOC(=O)c1ccc(-c2c3nc(c(-c4ccccc4)c4ccc([nH]4)c(-c4ccccc4)c4nc(c(-c5ccccc5)c5ccc2[nH]5)C=C4)C=C3)cc1)c1ccc(C2CC2)cc1
REMARK SMILES IDX 15 1 14 2 13 3 12 4 11 5 10 6 9 7 7 8 8 9 6 10 3 11 2 13
REMARK SMILES IDX 1 14 4 15 5 16 72 17 73 18 80 19 74 20 79 21 75 22 76 23
REMARK SMILES IDX 77 24 78 25 16 26 17 27 18 28 19 29 20 30 21 31 22 32 23 33
REMARK SMILES IDX 24 34 25 35 71 36 26 37 70 38 27 39 28 40 29 41 64 42 30 43
REMARK SMILES IDX 69 44 63 45 65 46 31 47 68 48 62 49 61 50 32 52 54 53 39 54
REMARK SMILES IDX 53 55 40 56 43 57 52 58 66 59 41 60 42 61 51 63 67 64 44 65
REMARK SMILES IDX 33 66 34 67 38 68 35 69 37 70 36 71 55 72 56 73 60 74 57 75
REMARK SMILES IDX 59 76 58 77 45 78 46 79 50 80 47 81 49 82 48 83
REMARK H PARENT 3 12 65 51 43 62
REMARK Flexibility Score: inf
ROOT
ATOM      1  O   UNL     1       1.650  -2.994   1.517  1.00  0.00    -0.377 OA
ENDROOT
BRANCH   1   2
ATOM      2  C   UNL     1       2.632  -3.108   0.502  1.00  0.00     0.188 C 
BRANCH   2   3
ATOM      3  C   UNL     1       4.060  -3.286   1.015  1.00  0.00     0.188 C 
BRANCH   3   4
ATOM      4  O   UNL     1       4.247  -4.296   1.994  1.00  0.00    -0.376 OA
BRANCH   4   5
ATOM      5  C   UNL     1       3.898  -3.973   3.344  1.00  0.00     0.202 C 
BRANCH   5   6
ATOM      6  C   UNL     1       4.141  -2.542   3.845  1.00  0.00     0.261 C 
BRANCH   6   7
ATOM      7  O   UNL     1       3.196  -1.588   3.295  1.00  0.00    -0.459 OA
BRANCH   7   8
ATOM      8  C   UNL     1       3.647  -0.306   3.247  1.00  0.00     0.369 C 
ATOM      9  O   UNL     1       4.777   0.003   3.631  1.00  0.00    -0.245 OA
BRANCH   8  10
ATOM     10  C   UNL     1       2.697   0.749   2.634  1.00  0.00     0.326 C 
BRANCH  10  11
ATOM     11  N   UNL     1       1.225   0.571   2.756  1.00  0.00    -0.320 N 
ATOM     12  H   UNL     1       1.117   1.500   2.349  1.00  0.00     0.349 HD
BRANCH  11  13
ATOM     13  C   UNL     1       0.361  -0.046   1.755  1.00  0.00     0.259 C 
ATOM     14  C   UNL     1       0.488   0.314   0.279  1.00  0.00     0.071 C 
ENDBRANCH  11  13
BRANCH  11  15
ATOM     15  C   UNL     1       0.706   0.466   4.123  1.00  0.00     0.259 C 
ATOM     16  C   UNL     1       0.373  -0.935   4.634  1.00  0.00     0.071 C 
ENDBRANCH  11  15
ENDBRANCH  10  11
BRANCH  10  17
ATOM     17  C   UNL     1       3.178   1.321   1.299  1.00  0.00     0.021 A 
ATOM     18  C   UNL     1       4.007   0.621   0.417  1.00  0.00     0.011 A 
ATOM     19  C   UNL     1       2.747   2.596   0.906  1.00  0.00     0.011 A 
ATOM     20  C   UNL     1       4.317   1.141  -0.847  1.00  0.00     0.004 A 
ATOM     21  C   UNL     1       3.053   3.106  -0.362  1.00  0.00     0.004 A 
ATOM     22  C   UNL     1       3.821   2.380  -1.283  1.00  0.00    -0.045 A 
BRANCH  22  23
ATOM     23  C   UNL     1       4.099   2.835  -2.700  1.00  0.00     0.019 C 
ATOM     24  C   UNL     1       3.703   4.188  -3.236  1.00  0.00     0.009 C 
ATOM     25  C   UNL     1       5.144   3.897  -2.940  1.00  0.00     0.009 C 
ENDBRANCH  22  23
ENDBRANCH  10  17
ENDBRANCH   8  10
ENDBRANCH   7   8
ENDBRANCH   6   7
ENDBRANCH   5   6
ENDBRANCH   4   5
ENDBRANCH   3   4
ENDBRANCH   2   3
ENDBRANCH   1   2
BRANCH   1  26
ATOM     26  C   UNL     1       0.804  -4.102   1.808  1.00  0.00     0.188 C 
BRANCH  26  27
ATOM     27  C   UNL     1       0.613  -5.162   0.725  1.00  0.00     0.188 C 
BRANCH  27  28
ATOM     28  O   UNL     1       0.137  -4.718  -0.545  1.00  0.00    -0.376 OA
BRANCH  28  29
ATOM     29  C   UNL     1      -0.757  -3.608  -0.588  1.00  0.00     0.202 C 
BRANCH  29  30
ATOM     30  C   UNL     1      -2.218  -3.933  -0.273  1.00  0.00     0.261 C 
BRANCH  30  31
ATOM     31  O   UNL     1      -2.417  -4.255   1.115  1.00  0.00    -0.460 OA
BRANCH  31  32
ATOM     32  C   UNL     1      -2.541  -5.576   1.377  1.00  0.00     0.338 C 
ATOM     33  O   UNL     1      -2.515  -6.497   0.580  1.00  0.00    -0.246 OA
BRANCH  32  34
ATOM     34  C   UNL     1      -2.594  -5.799   2.833  1.00  0.00     0.060 A 
ATOM     35  C   UNL     1      -1.800  -6.823   3.364  1.00  0.00     0.016 A 
ATOM     36  C   UNL     1      -3.510  -5.116   3.637  1.00  0.00     0.016 A 
ATOM     37  C   UNL     1      -1.981  -7.228   4.682  1.00  0.00     0.010 A 
ATOM     38  C   UNL     1      -3.700  -5.531   4.957  1.00  0.00     0.010 A 
ATOM     39  C   UNL     1      -2.978  -6.627   5.461  1.00  0.00    -0.014 A 
BRANCH  39  40
ATOM     40  C   UNL     1      -3.414  -7.307   6.701  1.00  0.00     0.031 A 
ATOM     41  C   UNL     1      -4.588  -8.247   6.623  1.00  0.00     0.074 A 
ATOM     42  C   UNL     1      -2.745  -7.142   7.853  1.00  0.00     0.049 A 
ATOM     43  N   UNL     1      -5.127  -8.980   7.563  1.00  0.00    -0.248 NA
ATOM     44  C   UNL     1      -5.238  -8.380   5.308  1.00  0.00     0.031 C 
ATOM     45  C   UNL     1      -1.571  -6.291   8.038  1.00  0.00     0.029 A 
ATOM     46  N   UNL     1      -2.962  -7.695   9.088  1.00  0.00    -0.354 N 
ATOM     47  C   UNL     1      -6.179  -9.655   6.954  1.00  0.00     0.074 A 
ATOM     48  C   UNL     1      -6.222  -9.226   5.574  1.00  0.00     0.031 C 
ATOM     49  C   UNL     1      -1.171  -6.377   9.319  1.00  0.00     0.029 A 
ATOM     50  C   UNL     1      -2.072  -7.271  10.043  1.00  0.00     0.049 A 
ATOM     51  H   UNL     1      -3.686  -8.336   9.273  1.00  0.00     0.167 HD
ATOM     52  C   UNL     1      -7.031 -10.559   7.494  1.00  0.00     0.031 A 
ATOM     53  C   UNL     1      -2.002  -7.568  11.354  1.00  0.00     0.031 A 
ATOM     54  C   UNL     1      -6.995 -10.978   8.868  1.00  0.00     0.049 A 
ATOM     55  C   UNL     1      -2.989  -8.542  11.940  1.00  0.00     0.074 A 
ATOM     56  C   UNL     1      -7.811 -11.888   9.515  1.00  0.00     0.029 A 
ATOM     57  N   UNL     1      -6.092 -10.508   9.807  1.00  0.00    -0.354 N 
ATOM     58  N   UNL     1      -3.963  -9.191  11.349  1.00  0.00    -0.248 NA
ATOM     59  C   UNL     1      -2.851  -8.837  13.374  1.00  0.00     0.031 C 
ATOM     60  C   UNL     1      -7.428 -11.936  10.860  1.00  0.00     0.029 A 
ATOM     61  C   UNL     1      -6.339 -11.097  11.035  1.00  0.00     0.049 A 
ATOM     62  H   UNL     1      -5.379  -9.852   9.628  1.00  0.00     0.167 HD
ATOM     63  C   UNL     1      -4.533  -9.994  12.329  1.00  0.00     0.074 A 
ATOM     64  C   UNL     1      -3.786  -9.760  13.548  1.00  0.00     0.031 C 
ATOM     65  C   UNL     1      -5.580 -10.851  12.232  1.00  0.00     0.031 A 
BRANCH  52  66
ATOM     66  C   UNL     1      -8.094 -11.126   6.596  1.00  0.00    -0.014 A 
ATOM     67  C   UNL     1      -7.782 -12.056   5.592  1.00  0.00     0.009 A 
ATOM     68  C   UNL     1      -9.431 -10.739   6.773  1.00  0.00     0.009 A 
ATOM     69  C   UNL     1      -8.785 -12.564   4.763  1.00  0.00     0.001 A 
ATOM     70  C   UNL     1     -10.435 -11.268   5.959  1.00  0.00     0.001 A 
ATOM     71  C   UNL     1     -10.110 -12.173   4.950  1.00  0.00     0.000 A 
ENDBRANCH  52  66
BRANCH  53  72
ATOM     72  C   UNL     1      -0.964  -6.935  12.208  1.00  0.00    -0.014 A 
ATOM     73  C   UNL     1       0.098  -7.689  12.730  1.00  0.00     0.009 A 
ATOM     74  C   UNL     1      -1.047  -5.570  12.525  1.00  0.00     0.009 A 
ATOM     75  C   UNL     1       1.037  -7.096  13.577  1.00  0.00     0.001 A 
ATOM     76  C   UNL     1      -0.091  -4.974  13.350  1.00  0.00     0.001 A 
ATOM     77  C   UNL     1       0.944  -5.740  13.884  1.00  0.00     0.000 A 
ENDBRANCH  53  72
BRANCH  65  78
ATOM     78  C   UNL     1      -5.942 -11.629  13.465  1.00  0.00    -0.014 A 
ATOM     79  C   UNL     1      -6.567 -11.015  14.561  1.00  0.00     0.009 A 
ATOM     80  C   UNL     1      -5.675 -13.006  13.516  1.00  0.00     0.009 A 
ATOM     81  C   UNL     1      -6.879 -11.757  15.701  1.00  0.00     0.001 A 
ATOM     82  C   UNL     1      -6.014 -13.752  14.646  1.00  0.00     0.001 A 
ATOM     83  C   UNL     1      -6.604 -13.124  15.742  1.00  0.00     0.000 A 
ENDBRANCH  65  78
ENDBRANCH  39  40
ENDBRANCH  32  34
ENDBRANCH  31  32
ENDBRANCH  30  31
ENDBRANCH  29  30
ENDBRANCH  28  29
ENDBRANCH  27  28
ENDBRANCH  26  27
ENDBRANCH   1  26
TORSDOF 25
