REMARK SMILES O=C(OCCOCCOCCOCCOC(=O)c1ccc(-c2c3nc(c(-c4ccccc4)c4ccc([nH]4)c(-c4ccccc4)c4nc(c(-c5ccccc5)c5ccc2[nH]5)C=C4)C=C3)cc1)C1=Cc2cc(Cl)cc(Cl)c2O[C@@H]1C(F)(F)F
REMARK SMILES IDX 10 1 9 2 8 3 7 4 6 5 5 6 4 7 3 8 2 9 1 10 66 11 67 12 77 13
REMARK SMILES IDX 68 14 76 15 69 16 75 17 70 18 73 19 71 20 72 21 74 22 78 23
REMARK SMILES IDX 79 24 80 25 81 26 11 27 12 28 13 29 14 30 15 31 16 32 17 33
REMARK SMILES IDX 18 34 19 35 65 36 20 37 64 38 21 39 22 40 23 41 58 42 24 43
REMARK SMILES IDX 63 44 57 45 59 46 25 47 62 48 56 49 55 50 26 52 48 53 33 54
REMARK SMILES IDX 47 55 34 56 37 57 46 58 60 59 35 60 36 61 45 63 61 64 38 65
REMARK SMILES IDX 27 66 28 67 32 68 29 69 31 70 30 71 49 72 50 73 54 74 51 75
REMARK SMILES IDX 53 76 52 77 39 78 40 79 44 80 41 81 43 82 42 83
REMARK H PARENT 59 51 37 62
REMARK Flexibility Score: inf
ROOT
ATOM      1  C   UNL     1       4.402   3.416   1.486  1.00  0.00     0.188 C 
ENDROOT
BRANCH   1   2
ATOM      2  O   UNL     1       3.057   3.736   1.756  1.00  0.00    -0.377 OA
BRANCH   2   3
ATOM      3  C   UNL     1       2.163   2.753   1.281  1.00  0.00     0.188 C 
BRANCH   3   4
ATOM      4  C   UNL     1       2.324   1.368   1.922  1.00  0.00     0.188 C 
BRANCH   4   5
ATOM      5  O   UNL     1       3.579   0.631   1.918  1.00  0.00    -0.376 OA
BRANCH   5   6
ATOM      6  C   UNL     1       4.298  -0.376   0.876  1.00  0.00     0.202 C 
BRANCH   6   7
ATOM      7  C   UNL     1       3.596  -1.126  -1.045  1.00  0.00     0.261 C 
BRANCH   7   8
ATOM      8  O   UNL     1       2.839  -2.450  -1.282  1.00  0.00    -0.460 OA
BRANCH   8   9
ATOM      9  C   UNL     1       3.120  -3.388  -0.370  1.00  0.00     0.338 C 
ATOM     10  O   UNL     1       2.651  -4.484  -0.211  1.00  0.00    -0.246 OA
BRANCH   9  11
ATOM     11  C   UNL     1       3.858  -2.510   0.503  1.00  0.00     0.087 C 
ATOM     12  C   UNL     1       5.231  -2.270  -0.013  1.00  0.00     0.027 C 
ATOM     13  C   UNL     1       2.481  -1.158   0.663  1.00  0.00     0.316 C 
ATOM     14  C   UNL     1       5.766  -0.696  -0.737  1.00  0.00     0.020 A 
ATOM     15  O   UNL     1       3.013   0.494  -0.199  1.00  0.00    -0.474 OA
ATOM     16  C   UNL     1       7.026  -0.592  -1.264  1.00  0.00     0.032 A 
ATOM     17  C   UNL     1       4.681   0.643  -0.927  1.00  0.00     0.146 A 
ATOM     18  C   UNL     1       7.310   0.630  -1.905  1.00  0.00     0.043 A 
ATOM     19  C   UNL     1       5.047   1.777  -1.609  1.00  0.00     0.085 A 
ATOM     20  Cl  UNL     1       8.896   0.801  -2.588  1.00  0.00    -0.084 Cl
ATOM     21  C   UNL     1       6.385   1.742  -2.069  1.00  0.00     0.045 A 
ATOM     22  Cl  UNL     1       4.036   3.095  -1.971  1.00  0.00    -0.080 Cl
BRANCH  13  23
ATOM     23  C   UNL     1       2.035  -1.460   2.184  1.00  0.00     0.430 C 
ATOM     24  F   UNL     1       1.042  -0.705   2.687  1.00  0.00    -0.167 F 
ATOM     25  F   UNL     1       1.535  -2.733   2.197  1.00  0.00    -0.167 F 
ATOM     26  F   UNL     1       3.049  -1.486   3.079  1.00  0.00    -0.167 F 
ENDBRANCH  13  23
ENDBRANCH   9  11
ENDBRANCH   8   9
ENDBRANCH   7   8
ENDBRANCH   6   7
ENDBRANCH   5   6
ENDBRANCH   4   5
ENDBRANCH   3   4
ENDBRANCH   2   3
ENDBRANCH   1   2
BRANCH   1  27
ATOM     27  C   UNL     1       5.312   3.286   2.710  1.00  0.00     0.188 C 
BRANCH  27  28
ATOM     28  O   UNL     1       4.801   3.015   4.005  1.00  0.00    -0.376 OA
BRANCH  28  29
ATOM     29  C   UNL     1       3.600   3.617   4.465  1.00  0.00     0.202 C 
BRANCH  29  30
ATOM     30  C   UNL     1       3.463   5.145   4.546  1.00  0.00     0.261 C 
BRANCH  30  31
ATOM     31  O   UNL     1       3.648   5.843   3.307  1.00  0.00    -0.460 OA
BRANCH  31  32
ATOM     32  C   UNL     1       4.873   6.378   3.113  1.00  0.00     0.338 C 
ATOM     33  O   UNL     1       5.806   6.395   3.897  1.00  0.00    -0.246 OA
BRANCH  32  34
ATOM     34  C   UNL     1       5.004   6.809   1.705  1.00  0.00     0.060 A 
ATOM     35  C   UNL     1       6.156   6.430   0.996  1.00  0.00     0.016 A 
ATOM     36  C   UNL     1       4.030   7.603   1.099  1.00  0.00     0.016 A 
ATOM     37  C   UNL     1       6.357   6.870  -0.310  1.00  0.00     0.010 A 
ATOM     38  C   UNL     1       4.252   8.081  -0.193  1.00  0.00     0.010 A 
ATOM     39  C   UNL     1       5.435   7.751  -0.881  1.00  0.00    -0.014 A 
BRANCH  39  40
ATOM     40  C   UNL     1       5.819   8.559  -2.058  1.00  0.00     0.031 A 
ATOM     41  C   UNL     1       6.382   9.928  -1.803  1.00  0.00     0.074 A 
ATOM     42  C   UNL     1       5.632   8.121  -3.312  1.00  0.00     0.049 A 
ATOM     43  N   UNL     1       6.626  10.898  -2.643  1.00  0.00    -0.248 NA
ATOM     44  C   UNL     1       6.691  10.246  -0.399  1.00  0.00     0.031 C 
ATOM     45  C   UNL     1       5.149   6.794  -3.683  1.00  0.00     0.029 A 
ATOM     46  N   UNL     1       5.796   8.774  -4.508  1.00  0.00    -0.354 N 
ATOM     47  C   UNL     1       7.082  11.954  -1.864  1.00  0.00     0.074 A 
ATOM     48  C   UNL     1       7.067  11.511  -0.488  1.00  0.00     0.031 C 
ATOM     49  C   UNL     1       5.017   6.742  -5.020  1.00  0.00     0.029 A 
ATOM     50  C   UNL     1       5.357   8.047  -5.586  1.00  0.00     0.049 A 
ATOM     51  H   UNL     1       6.190   9.673  -4.584  1.00  0.00     0.167 HD
ATOM     52  C   UNL     1       7.466  13.190  -2.260  1.00  0.00     0.031 A 
ATOM     53  C   UNL     1       5.199   8.415  -6.872  1.00  0.00     0.031 A 
ATOM     54  C   UNL     1       7.443  13.631  -3.628  1.00  0.00     0.049 A 
ATOM     55  C   UNL     1       5.555   9.818  -7.289  1.00  0.00     0.074 A 
ATOM     56  C   UNL     1       7.829  14.853  -4.147  1.00  0.00     0.029 A 
ATOM     57  N   UNL     1       6.989  12.866  -4.693  1.00  0.00    -0.354 N 
ATOM     58  N   UNL     1       6.007  10.809  -6.557  1.00  0.00    -0.248 NA
ATOM     59  C   UNL     1       5.383  10.154  -8.710  1.00  0.00     0.031 C 
ATOM     60  C   UNL     1       7.538  14.853  -5.514  1.00  0.00     0.029 A 
ATOM     61  C   UNL     1       7.051  13.602  -5.862  1.00  0.00     0.049 A 
ATOM     62  H   UNL     1       6.671  11.937  -4.626  1.00  0.00     0.167 HD
ATOM     63  C   UNL     1       6.205  11.872  -7.431  1.00  0.00     0.074 A 
ATOM     64  C   UNL     1       5.825  11.404  -8.748  1.00  0.00     0.031 C 
ATOM     65  C   UNL     1       6.669  13.119  -7.167  1.00  0.00     0.031 A 
BRANCH  52  66
ATOM     66  C   UNL     1       7.859  14.163  -1.182  1.00  0.00    -0.014 A 
ATOM     67  C   UNL     1       9.010  13.976  -0.398  1.00  0.00     0.009 A 
ATOM     68  C   UNL     1       7.044  15.278  -0.931  1.00  0.00     0.009 A 
ATOM     69  C   UNL     1       9.301  14.850   0.651  1.00  0.00     0.001 A 
ATOM     70  C   UNL     1       7.359  16.172   0.093  1.00  0.00     0.001 A 
ATOM     71  C   UNL     1       8.477  15.948   0.894  1.00  0.00     0.000 A 
ENDBRANCH  52  66
BRANCH  53  72
ATOM     72  C   UNL     1       4.637   7.441  -7.845  1.00  0.00    -0.014 A 
ATOM     73  C   UNL     1       5.444   6.877  -8.844  1.00  0.00     0.009 A 
ATOM     74  C   UNL     1       3.292   7.045  -7.755  1.00  0.00     0.009 A 
ATOM     75  C   UNL     1       4.913   5.941  -9.736  1.00  0.00     0.001 A 
ATOM     76  C   UNL     1       2.773   6.088  -8.629  1.00  0.00     0.001 A 
ATOM     77  C   UNL     1       3.583   5.540  -9.622  1.00  0.00     0.000 A 
ENDBRANCH  53  72
BRANCH  65  78
ATOM     78  C   UNL     1       6.850  14.060  -8.327  1.00  0.00    -0.014 A 
ATOM     79  C   UNL     1       5.756  14.643  -8.984  1.00  0.00     0.009 A 
ATOM     80  C   UNL     1       8.149  14.431  -8.712  1.00  0.00     0.009 A 
ATOM     81  C   UNL     1       5.962  15.561 -10.017  1.00  0.00     0.001 A 
ATOM     82  C   UNL     1       8.351  15.373  -9.721  1.00  0.00     0.001 A 
ATOM     83  C   UNL     1       7.257  15.932 -10.378  1.00  0.00     0.000 A 
ENDBRANCH  65  78
ENDBRANCH  39  40
ENDBRANCH  32  34
ENDBRANCH  31  32
ENDBRANCH  30  31
ENDBRANCH  29  30
ENDBRANCH  28  29
ENDBRANCH  27  28
ENDBRANCH   1  27
TORSDOF 21
