REMARK SMILES Cc1cscc1C(=O)N[C@H](C(=O)OCCOCCOCCOCCOC(=O)c1ccc(-c2c3nc(c(-c4ccccc4)c4ccc([nH]4)c(-c4ccccc4)c4nc(c(-c5ccccc5)c5ccc2[nH]5)C=C4)C=C3)cc1)c1ccccc1
REMARK SMILES IDX 19 1 18 2 17 3 16 4 15 5 14 6 13 7 11 8 12 9 10 10 9 11 7 12
REMARK SMILES IDX 8 13 6 15 1 16 2 17 3 18 4 19 5 20 76 21 77 22 81 23 78 24
REMARK SMILES IDX 80 25 79 26 20 27 21 28 22 29 23 30 24 31 25 32 26 33 27 34
REMARK SMILES IDX 28 35 29 36 75 37 30 38 74 39 31 40 32 41 33 42 68 43 34 44
REMARK SMILES IDX 73 45 67 46 69 47 35 48 72 49 66 50 65 51 36 53 58 54 43 55
REMARK SMILES IDX 57 56 44 57 47 58 56 59 70 60 45 61 46 62 55 64 71 65 48 66
REMARK SMILES IDX 37 67 38 68 42 69 39 70 41 71 40 72 59 73 60 74 64 75 61 76
REMARK SMILES IDX 63 77 62 78 49 79 50 80 54 81 51 82 53 83 52 84
REMARK H PARENT 9 14 69 52 47 63
REMARK Flexibility Score: inf
ROOT
ATOM      1  O   UNL     1       0.809   1.075   1.914  1.00  0.00    -0.377 OA
ENDROOT
BRANCH   1   2
ATOM      2  C   UNL     1       1.639   2.215   2.077  1.00  0.00     0.188 C 
BRANCH   2   3
ATOM      3  C   UNL     1       1.099   3.586   1.659  1.00  0.00     0.188 C 
BRANCH   3   4
ATOM      4  O   UNL     1      -0.039   3.551   0.806  1.00  0.00    -0.376 OA
BRANCH   4   5
ATOM      5  C   UNL     1       0.252   3.584  -0.588  1.00  0.00     0.202 C 
BRANCH   5   6
ATOM      6  C   UNL     1       0.569   2.211  -1.196  1.00  0.00     0.261 C 
BRANCH   6   7
ATOM      7  O   UNL     1       1.805   1.607  -0.750  1.00  0.00    -0.461 OA
BRANCH   7   8
ATOM      8  C   UNL     1       2.944   2.122  -1.284  1.00  0.00     0.333 C 
ATOM      9  O   UNL     1       2.923   3.085  -2.043  1.00  0.00    -0.249 OA
BRANCH   8  10
ATOM     10  C   UNL     1       4.202   1.269  -0.982  1.00  0.00     0.223 C 
BRANCH  10  11
ATOM     11  N   UNL     1       5.360   1.683  -1.772  1.00  0.00    -0.335 N 
ATOM     12  C   UNL     1       6.059   2.846  -1.936  1.00  0.00     0.253 C 
ATOM     13  O   UNL     1       7.151   2.699  -2.495  1.00  0.00    -0.269 OA
ATOM     14  H   UNL     1       5.723   0.949  -2.316  1.00  0.00     0.165 HD
BRANCH  12  15
ATOM     15  C   UNL     1       5.572   4.204  -1.636  1.00  0.00     0.053 A 
ATOM     16  C   UNL     1       4.673   4.343   0.877  1.00  0.00     0.046 C 
ATOM     17  C   UNL     1       4.994   4.876  -0.474  1.00  0.00    -0.028 A 
ATOM     18  C   UNL     1       4.780   6.224  -0.727  1.00  0.00     0.069 A 
ATOM     19  S   UNL     1       5.265   6.716  -2.274  1.00  0.00    -0.151 S 
ATOM     20  C   UNL     1       5.773   5.141  -2.647  1.00  0.00     0.079 A 
ENDBRANCH  12  15
ENDBRANCH  10  11
BRANCH  10  21
ATOM     21  C   UNL     1       4.631   0.869   0.439  1.00  0.00    -0.014 A 
ATOM     22  C   UNL     1       3.979  -0.157   1.144  1.00  0.00     0.006 A 
ATOM     23  C   UNL     1       5.767   1.431   1.059  1.00  0.00     0.006 A 
ATOM     24  C   UNL     1       4.410  -0.549   2.423  1.00  0.00     0.000 A 
ATOM     25  C   UNL     1       6.178   1.069   2.345  1.00  0.00     0.000 A 
ATOM     26  C   UNL     1       5.497   0.076   3.030  1.00  0.00     0.000 A 
ENDBRANCH  10  21
ENDBRANCH   8  10
ENDBRANCH   7   8
ENDBRANCH   6   7
ENDBRANCH   5   6
ENDBRANCH   4   5
ENDBRANCH   3   4
ENDBRANCH   2   3
ENDBRANCH   1   2
BRANCH   1  27
ATOM     27  C   UNL     1      -0.562   1.188   2.270  1.00  0.00     0.188 C 
BRANCH  27  28
ATOM     28  C   UNL     1      -0.916   2.037   3.501  1.00  0.00     0.188 C 
BRANCH  28  29
ATOM     29  O   UNL     1       0.167   2.223   4.405  1.00  0.00    -0.376 OA
BRANCH  29  30
ATOM     30  C   UNL     1       0.207   1.377   5.547  1.00  0.00     0.202 C 
BRANCH  30  31
ATOM     31  C   UNL     1       0.527  -0.100   5.277  1.00  0.00     0.261 C 
BRANCH  31  32
ATOM     32  O   UNL     1      -0.450  -0.828   4.515  1.00  0.00    -0.460 OA
BRANCH  32  33
ATOM     33  C   UNL     1      -1.732  -0.834   4.938  1.00  0.00     0.338 C 
ATOM     34  O   UNL     1      -2.185  -0.354   5.960  1.00  0.00    -0.246 OA
BRANCH  33  35
ATOM     35  C   UNL     1      -2.547  -1.350   3.819  1.00  0.00     0.060 A 
ATOM     36  C   UNL     1      -3.560  -0.539   3.287  1.00  0.00     0.016 A 
ATOM     37  C   UNL     1      -2.267  -2.598   3.257  1.00  0.00     0.016 A 
ATOM     38  C   UNL     1      -4.311  -0.987   2.200  1.00  0.00     0.010 A 
ATOM     39  C   UNL     1      -3.040  -3.060   2.192  1.00  0.00     0.010 A 
ATOM     40  C   UNL     1      -4.085  -2.269   1.681  1.00  0.00    -0.014 A 
BRANCH  40  41
ATOM     41  C   UNL     1      -5.105  -2.894   0.809  1.00  0.00     0.031 A 
ATOM     42  C   UNL     1      -6.212  -3.657   1.483  1.00  0.00     0.074 A 
ATOM     43  C   UNL     1      -5.059  -2.802  -0.531  1.00  0.00     0.049 A 
ATOM     44  N   UNL     1      -7.198  -4.333   0.955  1.00  0.00    -0.248 NA
ATOM     45  C   UNL     1      -6.201  -3.656   2.957  1.00  0.00     0.031 C 
ATOM     46  C   UNL     1      -4.065  -2.059  -1.302  1.00  0.00     0.029 A 
ATOM     47  N   UNL     1      -5.879  -3.357  -1.481  1.00  0.00    -0.354 N 
ATOM     48  C   UNL     1      -7.920  -4.837   2.030  1.00  0.00     0.074 A 
ATOM     49  C   UNL     1      -7.249  -4.412   3.237  1.00  0.00     0.031 C 
ATOM     50  C   UNL     1      -4.327  -2.216  -2.613  1.00  0.00     0.029 A 
ATOM     51  C   UNL     1      -5.487  -3.093  -2.770  1.00  0.00     0.049 A 
ATOM     52  H   UNL     1      -6.674  -3.894  -1.259  1.00  0.00     0.167 HD
ATOM     53  C   UNL     1      -9.044  -5.588   2.017  1.00  0.00     0.031 A 
ATOM     54  C   UNL     1      -5.998  -3.530  -3.938  1.00  0.00     0.031 A 
ATOM     55  C   UNL     1      -9.695  -6.043   0.821  1.00  0.00     0.049 A 
ATOM     56  C   UNL     1      -7.199  -4.442  -3.926  1.00  0.00     0.074 A 
ATOM     57  C   UNL     1     -10.840  -6.808   0.701  1.00  0.00     0.029 A 
ATOM     58  N   UNL     1      -9.244  -5.784  -0.463  1.00  0.00    -0.354 N 
ATOM     59  N   UNL     1      -7.894  -4.885  -2.906  1.00  0.00    -0.248 NA
ATOM     60  C   UNL     1      -7.688  -4.912  -5.232  1.00  0.00     0.031 C 
ATOM     61  C   UNL     1     -11.053  -7.058  -0.658  1.00  0.00     0.029 A 
ATOM     62  C   UNL     1     -10.073  -6.399  -1.383  1.00  0.00     0.049 A 
ATOM     63  H   UNL     1      -8.453  -5.243  -0.687  1.00  0.00     0.167 HD
ATOM     64  C   UNL     1      -8.916  -5.657  -3.447  1.00  0.00     0.074 A 
ATOM     65  C   UNL     1      -8.757  -5.614  -4.885  1.00  0.00     0.031 C 
ATOM     66  C   UNL     1      -9.900  -6.340  -2.811  1.00  0.00     0.031 A 
BRANCH  53  67
ATOM     67  C   UNL     1      -9.605  -5.999   3.347  1.00  0.00    -0.014 A 
ATOM     68  C   UNL     1     -10.244  -5.071   4.185  1.00  0.00     0.009 A 
ATOM     69  C   UNL     1      -9.492  -7.333   3.766  1.00  0.00     0.009 A 
ATOM     70  C   UNL     1     -10.730  -5.466   5.432  1.00  0.00     0.001 A 
ATOM     71  C   UNL     1     -10.003  -7.730   5.002  1.00  0.00     0.001 A 
ATOM     72  C   UNL     1     -10.613  -6.795   5.838  1.00  0.00     0.000 A 
ENDBRANCH  53  67
BRANCH  54  73
ATOM     73  C   UNL     1      -5.368  -3.140  -5.228  1.00  0.00    -0.014 A 
ATOM     74  C   UNL     1      -6.032  -2.287  -6.122  1.00  0.00     0.009 A 
ATOM     75  C   UNL     1      -4.113  -3.655  -5.590  1.00  0.00     0.009 A 
ATOM     76  C   UNL     1      -5.466  -1.980  -7.363  1.00  0.00     0.001 A 
ATOM     77  C   UNL     1      -3.538  -3.326  -6.819  1.00  0.00     0.001 A 
ATOM     78  C   UNL     1      -4.219  -2.497  -7.709  1.00  0.00     0.000 A 
ENDBRANCH  54  73
BRANCH  66  79
ATOM     79  C   UNL     1     -10.905  -7.062  -3.663  1.00  0.00    -0.014 A 
ATOM     80  C   UNL     1     -10.575  -8.247  -4.338  1.00  0.00     0.009 A 
ATOM     81  C   UNL     1     -12.222  -6.579  -3.740  1.00  0.00     0.009 A 
ATOM     82  C   UNL     1     -11.536  -8.917  -5.097  1.00  0.00     0.001 A 
ATOM     83  C   UNL     1     -13.187  -7.266  -4.475  1.00  0.00     0.001 A 
ATOM     84  C   UNL     1     -12.842  -8.430  -5.160  1.00  0.00     0.000 A 
ENDBRANCH  66  79
ENDBRANCH  40  41
ENDBRANCH  33  35
ENDBRANCH  32  33
ENDBRANCH  31  32
ENDBRANCH  30  31
ENDBRANCH  29  30
ENDBRANCH  28  29
ENDBRANCH  27  28
ENDBRANCH   1  27
TORSDOF 23
