REMARK SMILES C[NH+]1CCC([N@@H+](C)Cc2ccc(C(=O)OCCOCCOCCOCCOC(=O)c3ccc(-c4c5nc(c(-c6ccccc6)c6ccc([nH]6)c(-c6ccccc6)c6nc(c(-c7ccccc7)c7ccc4[nH]7)C=C6)C=C5)cc3)cn2)CC1
REMARK SMILES IDX 20 1 19 2 18 3 17 4 16 5 15 6 13 7 14 8 12 9 9 10 10 11
REMARK SMILES IDX 79 12 11 13 78 14 8 15 6 16 7 17 5 19 1 20 2 21 3 22 81 23
REMARK SMILES IDX 4 25 80 26 21 27 22 28 23 29 24 30 25 31 26 32 27 33 28 34
REMARK SMILES IDX 29 35 30 36 31 37 77 38 32 39 76 40 33 41 34 42 35 43 70 44
REMARK SMILES IDX 36 45 75 46 69 47 71 48 37 49 74 50 68 51 67 52 38 54 60 55
REMARK SMILES IDX 45 56 59 57 46 58 49 59 58 60 72 61 47 62 48 63 57 65 73 66
REMARK SMILES IDX 50 67 39 68 40 69 44 70 41 71 43 72 42 73 61 74 62 75 66 76
REMARK SMILES IDX 63 77 65 78 64 79 51 80 52 81 56 82 53 83 55 84 54 85
REMARK H PARENT 6 18 2 24 71 53 49 64
REMARK Flexibility Score: inf
ROOT
ATOM      1  C   UNL     1       2.164   4.923   5.312  1.00  0.00     0.188 C 
ENDROOT
BRANCH   1   2
ATOM      2  C   UNL     1       2.060   6.159   4.392  1.00  0.00     0.188 C 
BRANCH   2   3
ATOM      3  O   UNL     1       1.130   7.123   4.855  1.00  0.00    -0.376 OA
BRANCH   3   4
ATOM      4  C   UNL     1      -0.105   7.292   4.186  1.00  0.00     0.202 C 
BRANCH   4   5
ATOM      5  C   UNL     1      -1.063   6.105   3.975  1.00  0.00     0.261 C 
BRANCH   5   6
ATOM      6  O   UNL     1      -0.453   4.830   3.768  1.00  0.00    -0.460 OA
BRANCH   6   7
ATOM      7  C   UNL     1      -0.004   4.581   2.524  1.00  0.00     0.339 C 
ATOM      8  O   UNL     1      -0.131   5.290   1.541  1.00  0.00    -0.246 OA
BRANCH   7   9
ATOM      9  C   UNL     1       0.894   3.421   2.590  1.00  0.00     0.078 A 
ATOM     10  C   UNL     1       2.625   1.320   2.356  1.00  0.00     0.095 A 
ATOM     11  C   UNL     1       1.470   1.155   3.130  1.00  0.00     0.031 A 
ATOM     12  N   UNL     1       3.022   2.534   1.892  1.00  0.00    -0.254 NA
ATOM     13  C   UNL     1       0.591   2.233   3.256  1.00  0.00     0.019 A 
ATOM     14  C   UNL     1       2.130   3.541   1.971  1.00  0.00     0.127 A 
BRANCH  10  15
ATOM     15  C   UNL     1       3.303   0.109   1.731  1.00  0.00     0.319 C 
BRANCH  15  16
ATOM     16  N   UNL     1       3.178  -0.023   0.250  1.00  0.00    -0.330 N 
ATOM     17  C   UNL     1       4.036   0.935  -0.452  1.00  0.00     0.333 C 
ATOM     18  H   UNL     1       3.517  -0.971   0.086  1.00  0.00     0.348 HD
BRANCH  16  19
ATOM     19  C   UNL     1       1.809  -0.093  -0.337  1.00  0.00     0.195 C 
ATOM     20  C   UNL     1      -2.530  -0.131  -0.273  1.00  0.00     0.332 C 
ATOM     21  N   UNL     1      -1.099  -0.056  -0.001  1.00  0.00    -0.337 N 
ATOM     22  C   UNL     1      -0.479   1.030  -0.768  1.00  0.00     0.268 C 
ATOM     23  C   UNL     1      -0.421  -1.320  -0.306  1.00  0.00     0.268 C 
ATOM     24  H   UNL     1      -0.994   0.131   0.996  1.00  0.00     0.347 HD
ATOM     25  C   UNL     1       0.974   1.204  -0.343  1.00  0.00     0.126 C 
ATOM     26  C   UNL     1       1.009  -1.276   0.235  1.00  0.00     0.126 C 
ENDBRANCH  16  19
ENDBRANCH  15  16
ENDBRANCH  10  15
ENDBRANCH   7   9
ENDBRANCH   6   7
ENDBRANCH   5   6
ENDBRANCH   4   5
ENDBRANCH   3   4
ENDBRANCH   2   3
ENDBRANCH   1   2
BRANCH   1  27
ATOM     27  O   UNL     1       1.109   4.717   6.237  1.00  0.00    -0.377 OA
BRANCH  27  28
ATOM     28  C   UNL     1       0.822   5.729   7.201  1.00  0.00     0.188 C 
BRANCH  28  29
ATOM     29  C   UNL     1       1.794   6.903   7.493  1.00  0.00     0.188 C 
BRANCH  29  30
ATOM     30  O   UNL     1       3.108   6.750   6.986  1.00  0.00    -0.376 OA
BRANCH  30  31
ATOM     31  C   UNL     1       4.147   6.432   7.894  1.00  0.00     0.202 C 
BRANCH  31  32
ATOM     32  C   UNL     1       4.048   5.088   8.629  1.00  0.00     0.261 C 
BRANCH  32  33
ATOM     33  O   UNL     1       2.824   4.849   9.341  1.00  0.00    -0.460 OA
BRANCH  33  34
ATOM     34  C   UNL     1       2.549   5.659  10.384  1.00  0.00     0.338 C 
ATOM     35  O   UNL     1       3.233   6.577  10.811  1.00  0.00    -0.246 OA
BRANCH  34  36
ATOM     36  C   UNL     1       1.169   5.372  10.820  1.00  0.00     0.060 A 
ATOM     37  C   UNL     1       0.206   6.389  10.761  1.00  0.00     0.016 A 
ATOM     38  C   UNL     1       0.826   4.095  11.271  1.00  0.00     0.016 A 
ATOM     39  C   UNL     1      -1.097   6.140  11.188  1.00  0.00     0.010 A 
ATOM     40  C   UNL     1      -0.473   3.854  11.721  1.00  0.00     0.010 A 
ATOM     41  C   UNL     1      -1.429   4.885  11.716  1.00  0.00    -0.014 A 
BRANCH  41  42
ATOM     42  C   UNL     1      -2.704   4.712  12.452  1.00  0.00     0.031 A 
ATOM     43  C   UNL     1      -2.674   4.805  13.953  1.00  0.00     0.074 A 
ATOM     44  C   UNL     1      -3.864   4.495  11.810  1.00  0.00     0.049 A 
ATOM     45  N   UNL     1      -3.644   4.645  14.816  1.00  0.00    -0.248 NA
ATOM     46  C   UNL     1      -1.370   5.118  14.562  1.00  0.00     0.031 C 
ATOM     47  C   UNL     1      -4.035   4.434  10.361  1.00  0.00     0.029 A 
ATOM     48  N   UNL     1      -5.125   4.280  12.310  1.00  0.00    -0.354 N 
ATOM     49  C   UNL     1      -3.066   4.826  16.066  1.00  0.00     0.074 A 
ATOM     50  C   UNL     1      -1.657   5.075  15.853  1.00  0.00     0.031 C 
ATOM     51  C   UNL     1      -5.328   4.189  10.086  1.00  0.00     0.029 A 
ATOM     52  C   UNL     1      -6.066   4.039  11.339  1.00  0.00     0.049 A 
ATOM     53  H   UNL     1      -5.334   4.297  13.271  1.00  0.00     0.167 HD
ATOM     54  C   UNL     1      -3.655   4.792  17.285  1.00  0.00     0.031 A 
ATOM     55  C   UNL     1      -7.368   3.710  11.454  1.00  0.00     0.031 A 
ATOM     56  C   UNL     1      -5.051   4.523  17.498  1.00  0.00     0.049 A 
ATOM     57  C   UNL     1      -7.982   3.589  12.825  1.00  0.00     0.074 A 
ATOM     58  C   UNL     1      -5.747   4.479  18.693  1.00  0.00     0.029 A 
ATOM     59  N   UNL     1      -5.962   4.240  16.492  1.00  0.00    -0.354 N 
ATOM     60  N   UNL     1      -7.434   3.788  14.000  1.00  0.00    -0.248 NA
ATOM     61  C   UNL     1      -9.400   3.204  12.883  1.00  0.00     0.031 C 
ATOM     62  C   UNL     1      -7.065   4.101  18.415  1.00  0.00     0.029 A 
ATOM     63  C   UNL     1      -7.207   3.987  17.041  1.00  0.00     0.049 A 
ATOM     64  H   UNL     1      -5.754   4.222  15.530  1.00  0.00     0.167 HD
ATOM     65  C   UNL     1      -8.446   3.586  14.932  1.00  0.00     0.074 A 
ATOM     66  C   UNL     1      -9.644   3.264  14.184  1.00  0.00     0.031 C 
ATOM     67  C   UNL     1      -8.391   3.666  16.285  1.00  0.00     0.031 A 
BRANCH  54  68
ATOM     68  C   UNL     1      -2.772   5.005  18.484  1.00  0.00    -0.014 A 
ATOM     69  C   UNL     1      -2.194   6.255  18.759  1.00  0.00     0.009 A 
ATOM     70  C   UNL     1      -2.529   3.938  19.364  1.00  0.00     0.009 A 
ATOM     71  C   UNL     1      -1.361   6.421  19.867  1.00  0.00     0.001 A 
ATOM     72  C   UNL     1      -1.724   4.115  20.489  1.00  0.00     0.001 A 
ATOM     73  C   UNL     1      -1.131   5.353  20.734  1.00  0.00     0.000 A 
ENDBRANCH  54  68
BRANCH  55  74
ATOM     74  C   UNL     1      -8.182   3.449  10.236  1.00  0.00    -0.014 A 
ATOM     75  C   UNL     1      -9.228   4.311   9.873  1.00  0.00     0.009 A 
ATOM     76  C   UNL     1      -7.932   2.318   9.443  1.00  0.00     0.009 A 
ATOM     77  C   UNL     1     -10.022   4.032   8.758  1.00  0.00     0.001 A 
ATOM     78  C   UNL     1      -8.706   2.059   8.310  1.00  0.00     0.001 A 
ATOM     79  C   UNL     1      -9.757   2.910   7.974  1.00  0.00     0.000 A 
ENDBRANCH  55  74
BRANCH  67  80
ATOM     80  C   UNL     1      -9.671   3.446  17.046  1.00  0.00    -0.014 A 
ATOM     81  C   UNL     1     -10.268   2.179  17.133  1.00  0.00     0.009 A 
ATOM     82  C   UNL     1     -10.264   4.522  17.727  1.00  0.00     0.009 A 
ATOM     83  C   UNL     1     -11.452   2.003  17.853  1.00  0.00     0.001 A 
ATOM     84  C   UNL     1     -11.427   4.337  18.475  1.00  0.00     0.001 A 
ATOM     85  C   UNL     1     -12.027   3.080  18.528  1.00  0.00     0.000 A 
ENDBRANCH  67  80
ENDBRANCH  41  42
ENDBRANCH  34  36
ENDBRANCH  33  34
ENDBRANCH  32  33
ENDBRANCH  31  32
ENDBRANCH  30  31
ENDBRANCH  29  30
ENDBRANCH  28  29
ENDBRANCH  27  28
ENDBRANCH   1  27
TORSDOF 23
