REMARK SMILES CC[C@@H](C)[C@H](NC(=O)[C@H]1CCCN(S(=O)(=O)c2ccccc2)C1)C(=O)OCCOCCOCCOCCOC(=O)c1ccc(-c2c3nc(c(-c4ccccc4)c4ccc([nH]4)c(-c4ccccc4)c4nc(c(-c5ccccc5)c5ccc2[nH]5)C=C4)C=C3)cc1
REMARK SMILES IDX 31 1 30 2 29 3 28 4 27 5 26 6 24 7 25 8 5 9 3 10 4 11 2 12
REMARK SMILES IDX 1 13 6 14 7 15 8 17 9 18 10 19 23 20 11 21 13 22 12 23 14 24
REMARK SMILES IDX 15 25 16 26 17 27 18 28 22 29 19 30 21 31 20 32 32 33 33 34
REMARK SMILES IDX 34 35 35 36 36 37 37 38 38 39 39 40 40 41 41 42 42 43 88 44
REMARK SMILES IDX 43 45 87 46 44 47 45 48 46 49 81 50 47 51 86 52 80 53 82 54
REMARK SMILES IDX 48 55 85 56 79 57 78 58 49 60 71 61 56 62 70 63 57 64 60 65
REMARK SMILES IDX 69 66 83 67 58 68 59 69 68 71 84 72 61 73 50 74 51 75 55 76
REMARK SMILES IDX 52 77 54 78 53 79 72 80 73 81 77 82 74 83 76 84 75 85 62 86
REMARK SMILES IDX 63 87 67 88 64 89 66 90 65 91
REMARK H PARENT 6 16 82 59 60 70
REMARK Flexibility Score: inf
ROOT
ATOM      1  C   UNL     1      -2.584   4.293   3.241  1.00  0.00     0.188 C 
ENDROOT
BRANCH   1   2
ATOM      2  C   UNL     1      -0.940   4.401   3.096  1.00  0.00     0.188 C 
BRANCH   2   3
ATOM      3  O   UNL     1       0.241   3.319   2.962  1.00  0.00    -0.376 OA
BRANCH   3   4
ATOM      4  C   UNL     1       1.020   1.665   3.418  1.00  0.00     0.202 C 
BRANCH   4   5
ATOM      5  C   UNL     1       2.216   1.151   4.335  1.00  0.00     0.261 C 
BRANCH   5   6
ATOM      6  O   UNL     1       2.927   1.835   5.369  1.00  0.00    -0.462 OA
BRANCH   6   7
ATOM      7  C   UNL     1       2.718   2.189   6.649  1.00  0.00     0.328 C 
ATOM      8  O   UNL     1       3.665   2.728   7.231  1.00  0.00    -0.250 OA
BRANCH   7   9
ATOM      9  C   UNL     1       1.308   2.184   7.323  1.00  0.00     0.195 C 
BRANCH   9  10
ATOM     10  C   UNL     1       1.556   1.883   8.842  1.00  0.00     0.019 C 
ATOM     11  C   UNL     1       2.247   0.521   8.997  1.00  0.00     0.010 C 
BRANCH  10  12
ATOM     12  C   UNL     1       0.300   2.028   9.729  1.00  0.00     0.002 C 
ATOM     13  C   UNL     1       0.605   1.849  11.216  1.00  0.00     0.004 C 
ENDBRANCH  10  12
ENDBRANCH   9  10
BRANCH   9  14
ATOM     14  N   UNL     1       0.247   1.347   6.767  1.00  0.00    -0.342 N 
ATOM     15  C   UNL     1      -0.584   1.485   5.711  1.00  0.00     0.225 C 
ATOM     16  H   UNL     1       0.110   0.509   7.264  1.00  0.00     0.164 HD
ATOM     17  O   UNL     1      -1.466   0.627   5.606  1.00  0.00    -0.275 OA
BRANCH  15  18
ATOM     18  C   UNL     1      -0.488   2.615   4.675  1.00  0.00     0.094 C 
ATOM     19  C   UNL     1       1.095   3.716   4.658  1.00  0.00     0.016 C 
ATOM     20  C   UNL     1      -1.109   1.913   2.915  1.00  0.00     0.116 C 
ATOM     21  C   UNL     1       2.138   3.811   3.082  1.00  0.00     0.018 C 
ATOM     22  N   UNL     1      -0.110   2.264   1.327  1.00  0.00    -0.197 NA
ATOM     23  C   UNL     1       1.550   3.077   1.453  1.00  0.00     0.102 C 
BRANCH  22  24
ATOM     24  S   UNL     1      -0.393   1.104   0.120  1.00  0.00     0.243 S 
ATOM     25  O   UNL     1       0.103  -0.160   0.637  1.00  0.00    -0.207 OA
ATOM     26  O   UNL     1      -1.778   1.218  -0.280  1.00  0.00    -0.207 OA
BRANCH  24  27
ATOM     27  C   UNL     1       0.604   1.534  -1.292  1.00  0.00     0.082 A 
ATOM     28  C   UNL     1       0.061   2.267  -2.356  1.00  0.00     0.022 A 
ATOM     29  C   UNL     1       1.850   0.912  -1.437  1.00  0.00     0.022 A 
ATOM     30  C   UNL     1       0.780   2.385  -3.553  1.00  0.00     0.001 A 
ATOM     31  C   UNL     1       2.561   1.037  -2.631  1.00  0.00     0.001 A 
ATOM     32  C   UNL     1       2.025   1.769  -3.689  1.00  0.00     0.000 A 
ENDBRANCH  24  27
ENDBRANCH  22  24
ENDBRANCH  15  18
ENDBRANCH   9  14
ENDBRANCH   7   9
ENDBRANCH   6   7
ENDBRANCH   5   6
ENDBRANCH   4   5
ENDBRANCH   3   4
ENDBRANCH   2   3
ENDBRANCH   1   2
BRANCH   1  33
ATOM     33  O   UNL     1      -3.213   3.381   4.154  1.00  0.00    -0.377 OA
BRANCH  33  34
ATOM     34  C   UNL     1      -3.849   2.155   3.740  1.00  0.00     0.188 C 
BRANCH  34  35
ATOM     35  C   UNL     1      -4.080   1.774   2.257  1.00  0.00     0.188 C 
BRANCH  35  36
ATOM     36  O   UNL     1      -4.961   2.567   1.488  1.00  0.00    -0.376 OA
BRANCH  36  37
ATOM     37  C   UNL     1      -6.144   2.970   2.139  1.00  0.00     0.202 C 
BRANCH  37  38
ATOM     38  C   UNL     1      -7.139   1.864   2.542  1.00  0.00     0.261 C 
BRANCH  38  39
ATOM     39  O   UNL     1      -6.584   0.552   2.759  1.00  0.00    -0.460 OA
BRANCH  39  40
ATOM     40  C   UNL     1      -6.524  -0.246   1.656  1.00  0.00     0.338 C 
ATOM     41  O   UNL     1      -6.993  -0.009   0.557  1.00  0.00    -0.246 OA
BRANCH  40  42
ATOM     42  C   UNL     1      -5.654  -1.421   1.930  1.00  0.00     0.060 A 
ATOM     43  C   UNL     1      -4.535  -1.638   1.106  1.00  0.00     0.016 A 
ATOM     44  C   UNL     1      -5.959  -2.332   2.943  1.00  0.00     0.016 A 
ATOM     45  C   UNL     1      -3.761  -2.796   1.245  1.00  0.00     0.010 A 
ATOM     46  C   UNL     1      -5.206  -3.510   3.058  1.00  0.00     0.010 A 
ATOM     47  C   UNL     1      -4.144  -3.776   2.170  1.00  0.00    -0.014 A 
BRANCH  47  48
ATOM     48  C   UNL     1      -3.726  -5.191   1.962  1.00  0.00     0.031 A 
ATOM     49  C   UNL     1      -4.642  -6.045   1.119  1.00  0.00     0.074 A 
ATOM     50  C   UNL     1      -2.602  -5.726   2.472  1.00  0.00     0.049 A 
ATOM     51  N   UNL     1      -4.650  -7.340   0.934  1.00  0.00    -0.248 NA
ATOM     52  C   UNL     1      -5.706  -5.329   0.393  1.00  0.00     0.031 C 
ATOM     53  C   UNL     1      -1.563  -5.004   3.200  1.00  0.00     0.029 A 
ATOM     54  N   UNL     1      -2.158  -7.029   2.454  1.00  0.00    -0.354 N 
ATOM     55  C   UNL     1      -5.739  -7.590   0.105  1.00  0.00     0.074 A 
ATOM     56  C   UNL     1      -6.368  -6.322  -0.175  1.00  0.00     0.031 C 
ATOM     57  C   UNL     1      -0.608  -5.878   3.576  1.00  0.00     0.029 A 
ATOM     58  C   UNL     1      -0.998  -7.227   3.164  1.00  0.00     0.049 A 
ATOM     59  H   UNL     1      -2.627  -7.751   1.978  1.00  0.00     0.167 HD
ATOM     60  C   UNL     1      -6.190  -8.773  -0.372  1.00  0.00     0.031 A 
ATOM     61  C   UNL     1      -0.354  -8.371   3.479  1.00  0.00     0.031 A 
ATOM     62  C   UNL     1      -5.572 -10.037  -0.090  1.00  0.00     0.049 A 
ATOM     63  C   UNL     1      -0.931  -9.693   3.028  1.00  0.00     0.074 A 
ATOM     64  C   UNL     1      -5.960 -11.299  -0.502  1.00  0.00     0.029 A 
ATOM     65  N   UNL     1      -4.430 -10.194   0.677  1.00  0.00    -0.354 N 
ATOM     66  N   UNL     1      -1.989  -9.928   2.288  1.00  0.00    -0.248 NA
ATOM     67  C   UNL     1      -0.229 -10.909   3.468  1.00  0.00     0.031 C 
ATOM     68  C   UNL     1      -5.079 -12.227   0.063  1.00  0.00     0.029 A 
ATOM     69  C   UNL     1      -4.109 -11.536   0.772  1.00  0.00     0.049 A 
ATOM     70  H   UNL     1      -3.922  -9.461   1.093  1.00  0.00     0.167 HD
ATOM     71  C   UNL     1      -2.061 -11.311   2.151  1.00  0.00     0.074 A 
ATOM     72  C   UNL     1      -0.934 -11.862   2.874  1.00  0.00     0.031 C 
ATOM     73  C   UNL     1      -2.976 -12.060   1.488  1.00  0.00     0.031 A 
BRANCH  60  74
ATOM     74  C   UNL     1      -7.456  -8.748  -1.182  1.00  0.00    -0.014 A 
ATOM     75  C   UNL     1      -7.491  -8.216  -2.481  1.00  0.00     0.009 A 
ATOM     76  C   UNL     1      -8.638  -9.259  -0.625  1.00  0.00     0.009 A 
ATOM     77  C   UNL     1      -8.694  -8.161  -3.188  1.00  0.00     0.001 A 
ATOM     78  C   UNL     1      -9.833  -9.231  -1.345  1.00  0.00     0.001 A 
ATOM     79  C   UNL     1      -9.862  -8.672  -2.622  1.00  0.00     0.000 A 
ENDBRANCH  60  74
BRANCH  61  80
ATOM     80  C   UNL     1       0.879  -8.344   4.317  1.00  0.00    -0.014 A 
ATOM     81  C   UNL     1       2.117  -8.745   3.790  1.00  0.00     0.009 A 
ATOM     82  C   UNL     1       0.815  -7.966   5.668  1.00  0.00     0.009 A 
ATOM     83  C   UNL     1       3.255  -8.790   4.601  1.00  0.00     0.001 A 
ATOM     84  C   UNL     1       1.960  -7.982   6.469  1.00  0.00     0.001 A 
ATOM     85  C   UNL     1       3.177  -8.403   5.938  1.00  0.00     0.000 A 
ENDBRANCH  61  80
BRANCH  73  86
ATOM     86  C   UNL     1      -2.772 -13.550   1.465  1.00  0.00    -0.014 A 
ATOM     87  C   UNL     1      -3.007 -14.339   2.601  1.00  0.00     0.009 A 
ATOM     88  C   UNL     1      -2.399 -14.176   0.265  1.00  0.00     0.009 A 
ATOM     89  C   UNL     1      -2.841 -15.725   2.542  1.00  0.00     0.001 A 
ATOM     90  C   UNL     1      -2.263 -15.563   0.202  1.00  0.00     0.001 A 
ATOM     91  C   UNL     1      -2.475 -16.335   1.343  1.00  0.00     0.000 A 
ENDBRANCH  73  86
ENDBRANCH  47  48
ENDBRANCH  40  42
ENDBRANCH  39  40
ENDBRANCH  38  39
ENDBRANCH  37  38
ENDBRANCH  36  37
ENDBRANCH  35  36
ENDBRANCH  34  35
ENDBRANCH  33  34
ENDBRANCH   1  33
TORSDOF 26
