REMARK SMILES O=C(Cn1ccc(C(=O)NCCC[NH+]2CCOCC2)n1)OCCOCCOCCOCCOC(=O)c1ccc(-c2c3nc(c(-c4ccccc4)c4ccc([nH]4)c(-c4ccccc4)c4nc(c(-c5ccccc5)c5ccc2[nH]5)C=C4)C=C3)cc1
REMARK SMILES IDX 25 1 24 2 23 3 22 4 21 5 2 6 1 7 3 8 4 9 5 10 20 11 6 12
REMARK SMILES IDX 7 13 8 14 9 15 10 16 11 18 12 19 13 20 14 21 15 22 19 23
REMARK SMILES IDX 16 25 18 26 17 27 26 28 27 29 28 30 29 31 30 32 31 33 32 34
REMARK SMILES IDX 33 35 34 36 35 37 36 38 37 39 83 40 38 41 82 42 39 43 40 44
REMARK SMILES IDX 41 45 76 46 42 47 81 48 75 49 77 50 43 51 80 52 74 53 73 54
REMARK SMILES IDX 44 56 66 57 51 58 65 59 52 60 55 61 64 62 78 63 53 64 54 65
REMARK SMILES IDX 63 67 79 68 56 69 45 70 46 71 50 72 47 73 49 74 48 75 67 76
REMARK SMILES IDX 68 77 72 78 69 79 71 80 70 81 57 82 58 83 62 84 59 85 61 86
REMARK SMILES IDX 60 87
REMARK H PARENT 10 17 14 24 77 55 55 66
REMARK Flexibility Score: inf
ROOT
ATOM      1  C   UNL     1       2.339  -0.798  -1.525  1.00  0.00     0.188 C 
ENDROOT
BRANCH   1   2
ATOM      2  O   UNL     1       3.713  -0.466  -1.419  1.00  0.00    -0.376 OA
BRANCH   2   3
ATOM      3  C   UNL     1       4.332  -0.195  -0.172  1.00  0.00     0.202 C 
BRANCH   3   4
ATOM      4  C   UNL     1       3.566  -0.414   1.130  1.00  0.00     0.261 C 
BRANCH   4   5
ATOM      5  O   UNL     1       2.245   0.151   1.274  1.00  0.00    -0.462 OA
BRANCH   5   6
ATOM      6  C   UNL     1       1.825   1.417   1.071  1.00  0.00     0.327 C 
ATOM      7  O   UNL     1       0.718   1.750   1.500  1.00  0.00    -0.250 OA
BRANCH   6   8
ATOM      8  C   UNL     1       2.602   2.351   0.200  1.00  0.00     0.266 C 
BRANCH   8   9
ATOM      9  N   UNL     1       3.646   3.078   0.887  1.00  0.00    -0.261 N 
ATOM     10  C   UNL     1       3.852   4.421   0.793  1.00  0.00     0.110 A 
ATOM     11  N   UNL     1       4.622   2.434   1.564  1.00  0.00    -0.167 NA
ATOM     12  C   UNL     1       4.999   4.674   1.500  1.00  0.00     0.056 A 
ATOM     13  C   UNL     1       5.470   3.409   1.952  1.00  0.00     0.150 A 
BRANCH  13  14
ATOM     14  C   UNL     1       6.688   3.208   2.761  1.00  0.00     0.271 C 
ATOM     15  O   UNL     1       7.170   4.132   3.420  1.00  0.00    -0.267 OA
ATOM     16  N   UNL     1       7.352   2.000   2.790  1.00  0.00    -0.350 N 
ATOM     17  H   UNL     1       8.132   1.963   3.390  1.00  0.00     0.163 HD
BRANCH  16  18
ATOM     18  C   UNL     1       7.069   0.779   2.066  1.00  0.00     0.122 C 
BRANCH  18  19
ATOM     19  C   UNL     1       8.283  -0.143   1.898  1.00  0.00     0.083 C 
BRANCH  19  20
ATOM     20  C   UNL     1       8.910  -0.711   3.183  1.00  0.00     0.264 C 
BRANCH  20  21
ATOM     21  N   UNL     1       8.371  -1.897   3.846  1.00  0.00    -0.331 N 
ATOM     22  C   UNL     1       8.895  -3.190   3.377  1.00  0.00     0.291 C 
ATOM     23  C   UNL     1       6.927  -1.981   4.068  1.00  0.00     0.291 C 
ATOM     24  H   UNL     1       8.761  -1.713   4.770  1.00  0.00     0.348 HD
ATOM     25  C   UNL     1       8.086  -3.818   2.235  1.00  0.00     0.221 C 
ATOM     26  C   UNL     1       6.153  -2.650   2.917  1.00  0.00     0.221 C 
ATOM     27  O   UNL     1       6.697  -3.928   2.573  1.00  0.00    -0.370 OA
ENDBRANCH  20  21
ENDBRANCH  19  20
ENDBRANCH  18  19
ENDBRANCH  16  18
ENDBRANCH  13  14
ENDBRANCH   8   9
ENDBRANCH   6   8
ENDBRANCH   5   6
ENDBRANCH   4   5
ENDBRANCH   3   4
ENDBRANCH   2   3
ENDBRANCH   1   2
BRANCH   1  28
ATOM     28  C   UNL     1       2.000  -2.269  -1.263  1.00  0.00     0.188 C 
BRANCH  28  29
ATOM     29  O   UNL     1       2.821  -3.202  -1.959  1.00  0.00    -0.377 OA
BRANCH  29  30
ATOM     30  C   UNL     1       4.168  -3.261  -1.522  1.00  0.00     0.188 C 
BRANCH  30  31
ATOM     31  C   UNL     1       5.238  -2.887  -2.572  1.00  0.00     0.188 C 
BRANCH  31  32
ATOM     32  O   UNL     1       4.999  -2.122  -3.750  1.00  0.00    -0.376 OA
BRANCH  32  33
ATOM     33  C   UNL     1       3.761  -2.087  -4.441  1.00  0.00     0.202 C 
BRANCH  33  34
ATOM     34  C   UNL     1       3.201  -3.314  -5.154  1.00  0.00     0.261 C 
BRANCH  34  35
ATOM     35  O   UNL     1       3.135  -4.444  -4.313  1.00  0.00    -0.460 OA
BRANCH  35  36
ATOM     36  C   UNL     1       4.287  -5.138  -4.273  1.00  0.00     0.338 C 
ATOM     37  O   UNL     1       5.289  -4.952  -4.935  1.00  0.00    -0.246 OA
BRANCH  36  38
ATOM     38  C   UNL     1       4.109  -6.267  -3.353  1.00  0.00     0.060 A 
ATOM     39  C   UNL     1       5.112  -7.227  -3.429  1.00  0.00     0.016 A 
ATOM     40  C   UNL     1       2.860  -6.519  -2.761  1.00  0.00     0.016 A 
ATOM     41  C   UNL     1       4.734  -8.530  -3.263  1.00  0.00     0.010 A 
ATOM     42  C   UNL     1       2.485  -7.825  -2.582  1.00  0.00     0.010 A 
ATOM     43  C   UNL     1       3.390  -8.801  -2.974  1.00  0.00    -0.014 A 
BRANCH  43  44
ATOM     44  C   UNL     1       2.975 -10.167  -3.166  1.00  0.00     0.031 A 
ATOM     45  C   UNL     1       3.518 -11.088  -2.161  1.00  0.00     0.074 A 
ATOM     46  C   UNL     1       2.200 -10.547  -4.194  1.00  0.00     0.049 A 
ATOM     47  N   UNL     1       4.390 -12.021  -2.338  1.00  0.00    -0.248 NA
ATOM     48  C   UNL     1       3.155 -10.826  -0.763  1.00  0.00     0.031 C 
ATOM     49  C   UNL     1       1.399  -9.710  -5.093  1.00  0.00     0.029 A 
ATOM     50  N   UNL     1       1.889 -11.811  -4.578  1.00  0.00    -0.354 N 
ATOM     51  C   UNL     1       4.559 -12.596  -1.088  1.00  0.00     0.074 A 
ATOM     52  C   UNL     1       3.909 -11.727  -0.139  1.00  0.00     0.031 C 
ATOM     53  C   UNL     1       0.518 -10.498  -5.750  1.00  0.00     0.029 A 
ATOM     54  C   UNL     1       0.790 -11.888  -5.414  1.00  0.00     0.049 A 
ATOM     55  H   UNL     1       2.398 -12.602  -4.287  1.00  0.00     0.167 HD
ATOM     56  C   UNL     1       4.986 -13.877  -0.957  1.00  0.00     0.031 A 
ATOM     57  C   UNL     1       0.105 -13.014  -5.719  1.00  0.00     0.031 A 
ATOM     58  C   UNL     1       5.679 -14.345  -2.129  1.00  0.00     0.049 A 
ATOM     59  C   UNL     1       0.971 -14.177  -5.411  1.00  0.00     0.074 A 
ATOM     60  C   UNL     1       6.806 -13.938  -2.816  1.00  0.00     0.029 A 
ATOM     61  N   UNL     1       5.003 -15.187  -2.979  1.00  0.00    -0.354 N 
ATOM     62  N   UNL     1       2.034 -14.490  -6.094  1.00  0.00    -0.248 NA
ATOM     63  C   UNL     1       0.889 -14.775  -4.086  1.00  0.00     0.031 C 
ATOM     64  C   UNL     1       6.526 -14.201  -4.189  1.00  0.00     0.029 A 
ATOM     65  C   UNL     1       5.255 -14.774  -4.262  1.00  0.00     0.049 A 
ATOM     66  H   UNL     1       4.439 -15.949  -2.714  1.00  0.00     0.167 HD
ATOM     67  C   UNL     1       2.939 -14.963  -5.153  1.00  0.00     0.074 A 
ATOM     68  C   UNL     1       2.138 -15.233  -3.963  1.00  0.00     0.031 C 
ATOM     69  C   UNL     1       4.286 -14.823  -5.336  1.00  0.00     0.031 A 
BRANCH  56  70
ATOM     70  C   UNL     1       4.371 -14.805   0.058  1.00  0.00    -0.014 A 
ATOM     71  C   UNL     1       4.867 -16.112   0.166  1.00  0.00     0.009 A 
ATOM     72  C   UNL     1       3.148 -14.534   0.708  1.00  0.00     0.009 A 
ATOM     73  C   UNL     1       4.140 -17.109   0.826  1.00  0.00     0.001 A 
ATOM     74  C   UNL     1       2.443 -15.514   1.407  1.00  0.00     0.001 A 
ATOM     75  C   UNL     1       2.926 -16.811   1.439  1.00  0.00     0.000 A 
ENDBRANCH  56  70
BRANCH  57  76
ATOM     76  C   UNL     1      -1.341 -13.144  -5.982  1.00  0.00    -0.014 A 
ATOM     77  C   UNL     1      -1.858 -14.301  -6.582  1.00  0.00     0.009 A 
ATOM     78  C   UNL     1      -2.254 -12.233  -5.417  1.00  0.00     0.009 A 
ATOM     79  C   UNL     1      -3.237 -14.550  -6.587  1.00  0.00     0.001 A 
ATOM     80  C   UNL     1      -3.629 -12.476  -5.430  1.00  0.00     0.001 A 
ATOM     81  C   UNL     1      -4.119 -13.644  -6.002  1.00  0.00     0.000 A 
ENDBRANCH  57  76
BRANCH  69  82
ATOM     82  C   UNL     1       4.767 -14.394  -6.700  1.00  0.00    -0.014 A 
ATOM     83  C   UNL     1       4.393 -13.171  -7.287  1.00  0.00     0.009 A 
ATOM     84  C   UNL     1       5.733 -15.175  -7.352  1.00  0.00     0.009 A 
ATOM     85  C   UNL     1       4.938 -12.765  -8.509  1.00  0.00     0.001 A 
ATOM     86  C   UNL     1       6.295 -14.758  -8.562  1.00  0.00     0.001 A 
ATOM     87  C   UNL     1       5.892 -13.557  -9.143  1.00  0.00     0.000 A 
ENDBRANCH  69  82
ENDBRANCH  43  44
ENDBRANCH  36  38
ENDBRANCH  35  36
ENDBRANCH  34  35
ENDBRANCH  33  34
ENDBRANCH  32  33
ENDBRANCH  31  32
ENDBRANCH  30  31
ENDBRANCH  29  30
ENDBRANCH  28  29
ENDBRANCH   1  28
TORSDOF 26
