REMARK SMILES Cc1cc(C(=O)OCCOCCOCCOCCOC(=O)c2ccc(-c3c4nc(c(-c5ccccc5)c5ccc([nH]5)c(-c5ccccc5)c5nc(c(-c6ccccc6)c6ccc3[nH]6)C=C5)C=C4)cc2)ccc1NC(=O)c1ccc(=O)n(CCOc2ccccc2)n1
REMARK SMILES IDX 11 1 10 2 9 3 8 4 7 5 5 6 6 7 4 8 1 9 2 10 3 11 72 12 71 13
REMARK SMILES IDX 70 14 73 15 74 16 75 18 76 19 77 20 91 21 78 22 81 23 79 24
REMARK SMILES IDX 80 25 82 26 83 27 84 28 85 29 86 30 90 31 87 32 89 33 88 34
REMARK SMILES IDX 12 35 13 36 14 37 15 38 16 39 17 40 18 41 19 42 20 43 21 44
REMARK SMILES IDX 22 45 23 46 69 47 24 48 68 49 25 50 26 51 27 52 62 53 28 54
REMARK SMILES IDX 67 55 61 56 63 57 29 58 66 59 60 60 59 61 30 63 52 64 37 65
REMARK SMILES IDX 51 66 38 67 41 68 50 69 64 70 39 71 40 72 49 74 65 75 42 76
REMARK SMILES IDX 31 77 32 78 36 79 33 80 35 81 34 82 53 83 54 84 58 85 55 86
REMARK SMILES IDX 57 87 56 88 43 89 44 90 48 91 45 92 47 93 46 94
REMARK H PARENT 73 17 63 62 41 73
REMARK Flexibility Score: inf
ROOT
ATOM      1  C   UNL     1       0.401  -2.263  -1.990  1.00  0.00     0.188 C 
ENDROOT
BRANCH   1   2
ATOM      2  O   UNL     1       0.207  -3.674  -2.027  1.00  0.00    -0.376 OA
BRANCH   2   3
ATOM      3  C   UNL     1      -0.639  -4.200  -1.002  1.00  0.00     0.202 C 
BRANCH   3   4
ATOM      4  C   UNL     1      -0.100  -4.147   0.430  1.00  0.00     0.261 C 
BRANCH   4   5
ATOM      5  O   UNL     1      -0.279  -2.828   0.948  1.00  0.00    -0.460 OA
BRANCH   5   6
ATOM      6  C   UNL     1       0.744  -2.351   1.687  1.00  0.00     0.338 C 
ATOM      7  O   UNL     1       1.575  -2.981   2.307  1.00  0.00    -0.246 OA
BRANCH   6   8
ATOM      8  C   UNL     1       0.874  -0.927   1.322  1.00  0.00     0.060 A 
ATOM      9  C   UNL     1       3.753   1.133   0.034  1.00  0.00     0.046 C 
ATOM     10  C   UNL     1       2.357   0.837   0.513  1.00  0.00    -0.027 A 
ATOM     11  C   UNL     1       2.157  -0.446   1.062  1.00  0.00     0.021 A 
ATOM     12  C   UNL     1       1.244   1.675   0.298  1.00  0.00     0.044 A 
ATOM     13  C   UNL     1      -0.020   1.100   0.429  1.00  0.00     0.027 A 
ATOM     14  C   UNL     1      -0.224  -0.163   0.968  1.00  0.00     0.018 A 
BRANCH  12  15
ATOM     15  N   UNL     1       1.437   3.056   0.051  1.00  0.00    -0.320 N 
ATOM     16  C   UNL     1       0.554   4.127   0.030  1.00  0.00     0.276 C 
ATOM     17  H   UNL     1       2.370   3.302  -0.143  1.00  0.00     0.170 HD
ATOM     18  O   UNL     1       0.955   5.285  -0.026  1.00  0.00    -0.267 OA
BRANCH  16  19
ATOM     19  C   UNL     1      -0.935   3.875  -0.068  1.00  0.00     0.149 A 
ATOM     20  C   UNL     1      -1.421   3.761  -1.455  1.00  0.00     0.042 A 
ATOM     21  N   UNL     1      -1.655   3.684   0.999  1.00  0.00    -0.164 NA
ATOM     22  C   UNL     1      -2.541   3.059  -1.615  1.00  0.00     0.076 A 
ATOM     23  N   UNL     1      -2.913   3.109   0.787  1.00  0.00    -0.226 N 
ATOM     24  C   UNL     1      -3.279   2.544  -0.436  1.00  0.00     0.266 A 
ATOM     25  O   UNL     1      -4.196   1.747  -0.611  1.00  0.00    -0.268 OA
BRANCH  23  26
ATOM     26  C   UNL     1      -3.762   2.901   1.963  1.00  0.00     0.190 C 
BRANCH  26  27
ATOM     27  C   UNL     1      -4.615   4.132   2.315  1.00  0.00     0.253 C 
BRANCH  27  28
ATOM     28  O   UNL     1      -5.830   4.203   1.536  1.00  0.00    -0.492 OA
BRANCH  28  29
ATOM     29  C   UNL     1      -5.770   5.200   0.602  1.00  0.00     0.119 A 
ATOM     30  C   UNL     1      -6.155   6.500   0.905  1.00  0.00     0.046 A 
ATOM     31  C   UNL     1      -5.381   4.883  -0.693  1.00  0.00     0.046 A 
ATOM     32  C   UNL     1      -6.027   7.497  -0.068  1.00  0.00     0.004 A 
ATOM     33  C   UNL     1      -5.174   5.880  -1.640  1.00  0.00     0.004 A 
ATOM     34  C   UNL     1      -5.492   7.195  -1.323  1.00  0.00     0.000 A 
ENDBRANCH  28  29
ENDBRANCH  27  28
ENDBRANCH  26  27
ENDBRANCH  23  26
ENDBRANCH  16  19
ENDBRANCH  12  15
ENDBRANCH   6   8
ENDBRANCH   5   6
ENDBRANCH   4   5
ENDBRANCH   3   4
ENDBRANCH   2   3
ENDBRANCH   1   2
BRANCH   1  35
ATOM     35  C   UNL     1      -0.357  -1.421  -3.020  1.00  0.00     0.188 C 
BRANCH  35  36
ATOM     36  O   UNL     1      -1.676  -1.007  -2.672  1.00  0.00    -0.377 OA
BRANCH  36  37
ATOM     37  C   UNL     1      -2.757  -1.888  -2.992  1.00  0.00     0.188 C 
BRANCH  37  38
ATOM     38  C   UNL     1      -2.777  -2.425  -4.425  1.00  0.00     0.188 C 
BRANCH  38  39
ATOM     39  O   UNL     1      -1.926  -3.572  -4.499  1.00  0.00    -0.376 OA
BRANCH  39  40
ATOM     40  C   UNL     1      -1.263  -3.768  -5.747  1.00  0.00     0.202 C 
BRANCH  40  41
ATOM     41  C   UNL     1      -2.203  -4.105  -6.910  1.00  0.00     0.261 C 
BRANCH  41  42
ATOM     42  O   UNL     1      -2.829  -5.377  -6.666  1.00  0.00    -0.460 OA
BRANCH  42  43
ATOM     43  C   UNL     1      -4.134  -5.306  -6.297  1.00  0.00     0.338 C 
ATOM     44  O   UNL     1      -5.004  -4.688  -6.887  1.00  0.00    -0.246 OA
BRANCH  43  45
ATOM     45  C   UNL     1      -4.293  -5.869  -4.928  1.00  0.00     0.060 A 
ATOM     46  C   UNL     1      -5.494  -5.663  -4.231  1.00  0.00     0.016 A 
ATOM     47  C   UNL     1      -3.165  -6.312  -4.243  1.00  0.00     0.016 A 
ATOM     48  C   UNL     1      -5.510  -5.725  -2.832  1.00  0.00     0.010 A 
ATOM     49  C   UNL     1      -3.166  -6.274  -2.863  1.00  0.00     0.010 A 
ATOM     50  C   UNL     1      -4.312  -5.918  -2.139  1.00  0.00    -0.014 A 
BRANCH  50  51
ATOM     51  C   UNL     1      -4.081  -5.529  -0.733  1.00  0.00     0.031 A 
ATOM     52  C   UNL     1      -3.348  -6.427   0.215  1.00  0.00     0.074 A 
ATOM     53  C   UNL     1      -4.184  -4.206  -0.432  1.00  0.00     0.049 A 
ATOM     54  N   UNL     1      -3.133  -6.147   1.458  1.00  0.00    -0.248 NA
ATOM     55  C   UNL     1      -2.786  -7.731  -0.146  1.00  0.00     0.031 C 
ATOM     56  C   UNL     1      -3.475  -3.483   0.629  1.00  0.00     0.029 A 
ATOM     57  N   UNL     1      -4.960  -3.202  -1.013  1.00  0.00    -0.354 N 
ATOM     58  C   UNL     1      -2.121  -6.966   1.909  1.00  0.00     0.074 A 
ATOM     59  C   UNL     1      -2.046  -8.021   0.931  1.00  0.00     0.031 C 
ATOM     60  C   UNL     1      -3.939  -2.231   0.726  1.00  0.00     0.029 A 
ATOM     61  C   UNL     1      -5.144  -2.187  -0.064  1.00  0.00     0.049 A 
ATOM     62  H   UNL     1      -5.316  -3.206  -1.931  1.00  0.00     0.167 HD
ATOM     63  C   UNL     1      -1.341  -6.561   2.957  1.00  0.00     0.031 A 
ATOM     64  C   UNL     1      -6.364  -1.852   0.450  1.00  0.00     0.031 A 
ATOM     65  C   UNL     1      -1.854  -5.344   3.612  1.00  0.00     0.049 A 
ATOM     66  C   UNL     1      -6.422  -2.169   1.933  1.00  0.00     0.074 A 
ATOM     67  C   UNL     1      -1.293  -4.132   3.978  1.00  0.00     0.029 A 
ATOM     68  N   UNL     1      -3.223  -5.213   3.851  1.00  0.00    -0.354 N 
ATOM     69  N   UNL     1      -5.614  -3.034   2.498  1.00  0.00    -0.248 NA
ATOM     70  C   UNL     1      -7.285  -1.515   2.915  1.00  0.00     0.031 C 
ATOM     71  C   UNL     1      -2.350  -3.236   4.306  1.00  0.00     0.029 A 
ATOM     72  C   UNL     1      -3.546  -3.933   4.239  1.00  0.00     0.049 A 
ATOM     73  H   UNL     1      -3.875  -5.944   3.755  1.00  0.00     0.167 HD
ATOM     74  C   UNL     1      -5.735  -2.970   3.853  1.00  0.00     0.074 A 
ATOM     75  C   UNL     1      -6.845  -2.059   4.069  1.00  0.00     0.031 C 
ATOM     76  C   UNL     1      -4.891  -3.621   4.704  1.00  0.00     0.031 A 
BRANCH  63  77
ATOM     77  C   UNL     1       0.040  -7.132   3.265  1.00  0.00    -0.014 A 
ATOM     78  C   UNL     1       0.718  -6.738   4.437  1.00  0.00     0.009 A 
ATOM     79  C   UNL     1       0.777  -7.963   2.397  1.00  0.00     0.009 A 
ATOM     80  C   UNL     1       2.035  -7.141   4.720  1.00  0.00     0.001 A 
ATOM     81  C   UNL     1       2.076  -8.410   2.695  1.00  0.00     0.001 A 
ATOM     82  C   UNL     1       2.711  -7.991   3.854  1.00  0.00     0.000 A 
ENDBRANCH  63  77
BRANCH  64  83
ATOM     83  C   UNL     1      -7.432  -1.811  -0.586  1.00  0.00    -0.014 A 
ATOM     84  C   UNL     1      -7.325  -0.724  -1.482  1.00  0.00     0.009 A 
ATOM     85  C   UNL     1      -8.039  -2.993  -1.045  1.00  0.00     0.009 A 
ATOM     86  C   UNL     1      -7.595  -0.889  -2.843  1.00  0.00     0.001 A 
ATOM     87  C   UNL     1      -8.316  -3.148  -2.415  1.00  0.00     0.001 A 
ATOM     88  C   UNL     1      -8.039  -2.119  -3.317  1.00  0.00     0.000 A 
ENDBRANCH  64  83
BRANCH  76  89
ATOM     89  C   UNL     1      -5.235  -4.032   6.112  1.00  0.00    -0.014 A 
ATOM     90  C   UNL     1      -6.552  -4.173   6.562  1.00  0.00     0.009 A 
ATOM     91  C   UNL     1      -4.214  -4.548   6.945  1.00  0.00     0.009 A 
ATOM     92  C   UNL     1      -6.833  -4.793   7.785  1.00  0.00     0.001 A 
ATOM     93  C   UNL     1      -4.492  -5.203   8.143  1.00  0.00     0.001 A 
ATOM     94  C   UNL     1      -5.807  -5.323   8.565  1.00  0.00     0.000 A 
ENDBRANCH  76  89
ENDBRANCH  50  51
ENDBRANCH  43  45
ENDBRANCH  42  43
ENDBRANCH  41  42
ENDBRANCH  40  41
ENDBRANCH  39  40
ENDBRANCH  38  39
ENDBRANCH  37  38
ENDBRANCH  36  37
ENDBRANCH  35  36
ENDBRANCH   1  35
TORSDOF 26
