REMARK SMILES C[C@@H](C(=O)OCCOCCOCCOCCOC(=O)c1ccc(-c2c3nc(c(-c4ccccc4)c4ccc([nH]4)c(-c4ccccc4)c4nc(c(-c5ccccc5)c5ccc2[nH]5)C=C4)C=C3)cc1)c1ccc(C[C@@H]2CCC[C@@H]2O)cc1Br
REMARK SMILES IDX 10 1 9 2 8 3 7 4 6 5 5 6 3 7 4 8 2 9 1 10 68 11 69 12 80 13
REMARK SMILES IDX 70 14 79 15 81 16 71 17 72 18 73 19 74 20 77 21 75 22 76 23
REMARK SMILES IDX 78 24 11 26 12 27 13 28 14 29 15 30 16 31 17 32 18 33 19 34
REMARK SMILES IDX 20 35 21 36 67 37 22 38 66 39 23 40 24 41 25 42 60 43 26 44
REMARK SMILES IDX 65 45 59 46 61 47 27 48 64 49 58 50 57 51 28 53 50 54 35 55
REMARK SMILES IDX 49 56 36 57 39 58 48 59 62 60 37 61 38 62 47 64 63 65 40 66
REMARK SMILES IDX 29 67 30 68 34 69 31 70 33 71 32 72 51 73 52 74 56 75 53 76
REMARK SMILES IDX 55 77 54 78 41 79 42 80 46 81 43 82 45 83 44 84
REMARK H PARENT 78 25 61 52 39 63
REMARK Flexibility Score: inf
ROOT
ATOM      1  C   UNL     1     -11.849   5.482   3.942  1.00  0.00     0.188 C 
ENDROOT
BRANCH   1   2
ATOM      2  C   UNL     1     -12.344   4.206   3.246  1.00  0.00     0.188 C 
BRANCH   2   3
ATOM      3  O   UNL     1     -13.625   3.729   3.611  1.00  0.00    -0.376 OA
BRANCH   3   4
ATOM      4  C   UNL     1     -13.927   3.419   4.962  1.00  0.00     0.202 C 
BRANCH   4   5
ATOM      5  C   UNL     1     -12.899   3.191   6.098  1.00  0.00     0.261 C 
BRANCH   5   6
ATOM      6  O   UNL     1     -11.540   3.611   5.909  1.00  0.00    -0.463 OA
BRANCH   6   7
ATOM      7  C   UNL     1     -10.644   2.657   5.568  1.00  0.00     0.313 C 
ATOM      8  O   UNL     1     -10.936   1.470   5.454  1.00  0.00    -0.252 OA
BRANCH   7   9
ATOM      9  C   UNL     1      -9.216   3.201   5.319  1.00  0.00     0.127 C 
ATOM     10  C   UNL     1      -8.884   4.602   5.846  1.00  0.00     0.025 C 
BRANCH   9  11
ATOM     11  C   UNL     1      -8.708   2.768   3.937  1.00  0.00    -0.020 A 
ATOM     12  C   UNL     1      -8.327   1.404   3.868  1.00  0.00     0.006 A 
ATOM     13  C   UNL     1      -8.655   3.489   2.730  1.00  0.00     0.022 A 
ATOM     14  C   UNL     1      -7.880   0.803   2.692  1.00  0.00     0.004 A 
ATOM     15  C   UNL     1      -8.305   2.848   1.531  1.00  0.00     0.019 A 
ATOM     16  Br  UNL     1      -8.808   5.368   2.500  1.00  0.00    -0.050 Br
ATOM     17  C   UNL     1      -7.832   1.537   1.516  1.00  0.00    -0.047 A 
BRANCH  17  18
ATOM     18  C   UNL     1      -7.154   1.007   0.282  1.00  0.00     0.041 C 
BRANCH  18  19
ATOM     19  C   UNL     1      -5.637   1.304   0.175  1.00  0.00     0.022 C 
ATOM     20  C   UNL     1      -4.791   0.720   1.313  1.00  0.00     0.007 C 
ATOM     21  C   UNL     1      -5.184   2.772   0.155  1.00  0.00     0.117 C 
ATOM     22  C   UNL     1      -4.522   1.861   2.300  1.00  0.00     0.003 C 
ATOM     23  C   UNL     1      -4.954   3.151   1.614  1.00  0.00     0.032 C 
BRANCH  21  24
ATOM     24  O   UNL     1      -6.087   3.635  -0.505  1.00  0.00    -0.393 OA
ATOM     25  H   UNL     1      -6.946   3.609  -0.056  1.00  0.00     0.210 HD
ENDBRANCH  21  24
ENDBRANCH  18  19
ENDBRANCH  17  18
ENDBRANCH   9  11
ENDBRANCH   7   9
ENDBRANCH   6   7
ENDBRANCH   5   6
ENDBRANCH   4   5
ENDBRANCH   3   4
ENDBRANCH   2   3
ENDBRANCH   1   2
BRANCH   1  26
ATOM     26  O   UNL     1     -12.685   5.935   4.987  1.00  0.00    -0.377 OA
BRANCH  26  27
ATOM     27  C   UNL     1     -13.682   6.875   4.635  1.00  0.00     0.188 C 
BRANCH  27  28
ATOM     28  C   UNL     1     -14.303   6.847   3.222  1.00  0.00     0.188 C 
BRANCH  28  29
ATOM     29  O   UNL     1     -13.379   6.685   2.153  1.00  0.00    -0.376 OA
BRANCH  29  30
ATOM     30  C   UNL     1     -12.990   7.821   1.395  1.00  0.00     0.202 C 
BRANCH  30  31
ATOM     31  C   UNL     1     -12.037   8.812   2.081  1.00  0.00     0.261 C 
BRANCH  31  32
ATOM     32  O   UNL     1     -12.519   9.382   3.305  1.00  0.00    -0.460 OA
BRANCH  32  33
ATOM     33  C   UNL     1     -13.642  10.127   3.233  1.00  0.00     0.338 C 
ATOM     34  O   UNL     1     -14.278  10.416   2.235  1.00  0.00    -0.246 OA
BRANCH  33  35
ATOM     35  C   UNL     1     -14.093  10.380   4.614  1.00  0.00     0.060 A 
ATOM     36  C   UNL     1     -15.344   9.891   5.013  1.00  0.00     0.016 A 
ATOM     37  C   UNL     1     -13.271  11.059   5.517  1.00  0.00     0.016 A 
ATOM     38  C   UNL     1     -15.790  10.104   6.315  1.00  0.00     0.010 A 
ATOM     39  C   UNL     1     -13.733  11.299   6.812  1.00  0.00     0.010 A 
ATOM     40  C   UNL     1     -15.006  10.850   7.204  1.00  0.00    -0.014 A 
BRANCH  40  41
ATOM     41  C   UNL     1     -15.614  11.354   8.456  1.00  0.00     0.031 A 
ATOM     42  C   UNL     1     -16.203  12.738   8.443  1.00  0.00     0.074 A 
ATOM     43  C   UNL     1     -15.672  10.598   9.565  1.00  0.00     0.049 A 
ATOM     44  N   UNL     1     -16.763  13.412   9.412  1.00  0.00    -0.248 NA
ATOM     45  C   UNL     1     -16.150  13.457   7.158  1.00  0.00     0.031 C 
ATOM     46  C   UNL     1     -15.190   9.223   9.682  1.00  0.00     0.029 A 
ATOM     47  N   UNL     1     -16.167  10.891  10.810  1.00  0.00    -0.354 N 
ATOM     48  C   UNL     1     -17.120  14.635   8.858  1.00  0.00     0.074 A 
ATOM     49  C   UNL     1     -16.689  14.622   7.478  1.00  0.00     0.031 C 
ATOM     50  C   UNL     1     -15.410   8.792  10.937  1.00  0.00     0.029 A 
ATOM     51  C   UNL     1     -16.012   9.872  11.717  1.00  0.00     0.049 A 
ATOM     52  H   UNL     1     -16.594  11.750  11.032  1.00  0.00     0.167 HD
ATOM     53  C   UNL     1     -17.753  15.677   9.445  1.00  0.00     0.031 A 
ATOM     54  C   UNL     1     -16.304   9.830  13.032  1.00  0.00     0.031 A 
ATOM     55  C   UNL     1     -18.160  15.694  10.823  1.00  0.00     0.049 A 
ATOM     56  C   UNL     1     -16.921  11.040  13.687  1.00  0.00     0.074 A 
ATOM     57  C   UNL     1     -18.816  16.697  11.515  1.00  0.00     0.029 A 
ATOM     58  N   UNL     1     -17.936  14.664  11.723  1.00  0.00    -0.354 N 
ATOM     59  N   UNL     1     -17.278  12.183  13.150  1.00  0.00    -0.248 NA
ATOM     60  C   UNL     1     -17.180  10.950  15.132  1.00  0.00     0.031 C 
ATOM     61  C   UNL     1     -18.928  16.300  12.851  1.00  0.00     0.029 A 
ATOM     62  C   UNL     1     -18.411  15.020  12.974  1.00  0.00     0.049 A 
ATOM     63  H   UNL     1     -17.505  13.806  11.505  1.00  0.00     0.167 HD
ATOM     64  C   UNL     1     -17.834  12.931  14.181  1.00  0.00     0.074 A 
ATOM     65  C   UNL     1     -17.780  12.108  15.371  1.00  0.00     0.031 C 
ATOM     66  C   UNL     1     -18.348  14.186  14.147  1.00  0.00     0.031 A 
BRANCH  53  67
ATOM     67  C   UNL     1     -17.993  16.901   8.607  1.00  0.00    -0.014 A 
ATOM     68  C   UNL     1     -18.923  16.900   7.554  1.00  0.00     0.009 A 
ATOM     69  C   UNL     1     -17.288  18.081   8.888  1.00  0.00     0.009 A 
ATOM     70  C   UNL     1     -19.113  18.047   6.779  1.00  0.00     0.001 A 
ATOM     71  C   UNL     1     -17.504  19.235   8.133  1.00  0.00     0.001 A 
ATOM     72  C   UNL     1     -18.409  19.214   7.073  1.00  0.00     0.000 A 
ENDBRANCH  53  67
BRANCH  54  73
ATOM     73  C   UNL     1     -16.000   8.613  13.831  1.00  0.00    -0.014 A 
ATOM     74  C   UNL     1     -17.032   7.835  14.377  1.00  0.00     0.009 A 
ATOM     75  C   UNL     1     -14.669   8.239  14.079  1.00  0.00     0.009 A 
ATOM     76  C   UNL     1     -16.739   6.728  15.178  1.00  0.00     0.001 A 
ATOM     77  C   UNL     1     -14.379   7.113  14.853  1.00  0.00     0.001 A 
ATOM     78  C   UNL     1     -15.413   6.365  15.411  1.00  0.00     0.000 A 
ENDBRANCH  54  73
BRANCH  66  79
ATOM     79  C   UNL     1     -18.936  14.729  15.421  1.00  0.00    -0.014 A 
ATOM     80  C   UNL     1     -18.126  15.085  16.511  1.00  0.00     0.009 A 
ATOM     81  C   UNL     1     -20.323  14.934  15.510  1.00  0.00     0.009 A 
ATOM     82  C   UNL     1     -18.699  15.600  17.677  1.00  0.00     0.001 A 
ATOM     83  C   UNL     1     -20.888  15.480  16.663  1.00  0.00     0.001 A 
ATOM     84  C   UNL     1     -20.077  15.803  17.749  1.00  0.00     0.000 A 
ENDBRANCH  66  79
ENDBRANCH  40  41
ENDBRANCH  33  35
ENDBRANCH  32  33
ENDBRANCH  31  32
ENDBRANCH  30  31
ENDBRANCH  29  30
ENDBRANCH  28  29
ENDBRANCH  27  28
ENDBRANCH  26  27
ENDBRANCH   1  26
TORSDOF 24
