REMARK SMILES O=C(C[C@H](NC(=O)[C@]12C[C@H]3C[C@H](C[C@H](C3)C1)C2)c1cccc([N+](=O)[O-])c1)OCCOCCOCCOCCOC(=O)c1ccc(-c2c3nc(c(-c4ccccc4)c4ccc([nH]4)c(-c4ccccc4)c4nc(c(-c5ccccc5)c5ccc2[nH]5)C=C4)C=C3)cc1
REMARK SMILES IDX 32 1 31 2 30 3 29 4 28 5 27 6 2 7 1 8 3 9 4 10 18 11 19 12
REMARK SMILES IDX 26 13 20 14 22 15 21 16 23 17 24 18 25 19 5 20 6 21 7 23
REMARK SMILES IDX 8 24 9 25 16 26 17 27 10 28 14 29 12 30 11 31 15 32 13 33
REMARK SMILES IDX 33 34 34 35 35 36 36 37 37 38 38 39 39 40 40 41 41 42 42 43
REMARK SMILES IDX 43 44 89 45 44 46 88 47 45 48 46 49 47 50 82 51 48 52 87 53
REMARK SMILES IDX 81 54 83 55 49 56 86 57 80 58 79 59 50 61 72 62 57 63 71 64
REMARK SMILES IDX 58 65 61 66 70 67 84 68 59 69 60 70 69 72 85 73 62 74 51 75
REMARK SMILES IDX 52 76 56 77 53 78 55 79 54 80 73 81 74 82 78 83 75 84 77 85
REMARK SMILES IDX 76 86 63 87 64 88 68 89 65 90 67 91 66 92
REMARK H PARENT 5 22 83 60 61 71
REMARK Flexibility Score: inf
ROOT
ATOM      1  C   UNL     1       6.777  -0.631  -1.557  1.00  0.00     0.188 C 
ENDROOT
BRANCH   1   2
ATOM      2  C   UNL     1       5.881  -1.238  -0.484  1.00  0.00     0.188 C 
BRANCH   2   3
ATOM      3  O   UNL     1       4.483  -1.010  -0.549  1.00  0.00    -0.376 OA
BRANCH   3   4
ATOM      4  C   UNL     1       3.861   0.244  -0.734  1.00  0.00     0.202 C 
BRANCH   4   5
ATOM      5  C   UNL     1       4.551   1.573  -0.463  1.00  0.00     0.261 C 
BRANCH   5   6
ATOM      6  O   UNL     1       5.641   1.617   0.469  1.00  0.00    -0.463 OA
BRANCH   6   7
ATOM      7  C   UNL     1       5.730   1.138   1.718  1.00  0.00     0.308 C 
ATOM      8  O   UNL     1       6.801   1.239   2.316  1.00  0.00    -0.252 OA
BRANCH   7   9
ATOM      9  C   UNL     1       4.569   0.423   2.356  1.00  0.00     0.152 C 
BRANCH   9  10
ATOM     10  C   UNL     1       3.495   1.308   3.001  1.00  0.00     0.123 C 
BRANCH  10  11
ATOM     11  C   UNL     1       4.150   2.500   3.686  1.00  0.00    -0.018 A 
ATOM     12  C   UNL     1       4.996   2.230   4.785  1.00  0.00     0.006 A 
ATOM     13  C   UNL     1       4.076   3.818   3.215  1.00  0.00     0.091 A 
ATOM     14  C   UNL     1       5.776   3.226   5.370  1.00  0.00     0.007 A 
ATOM     15  C   UNL     1       4.853   4.821   3.821  1.00  0.00     0.269 A 
ATOM     16  C   UNL     1       5.709   4.529   4.889  1.00  0.00     0.085 A 
BRANCH  15  17
ATOM     17  N   UNL     1       4.787   6.194   3.307  1.00  0.00     0.062 N 
ATOM     18  O   UNL     1       5.332   7.086   3.972  1.00  0.00    -0.258 OA
ATOM     19  O   UNL     1       4.186   6.379   2.238  1.00  0.00    -0.258 OA
ENDBRANCH  15  17
ENDBRANCH  10  11
BRANCH  10  20
ATOM     20  N   UNL     1       2.422   1.621   2.064  1.00  0.00    -0.348 N 
ATOM     21  C   UNL     1       1.401   0.871   1.560  1.00  0.00     0.226 C 
ATOM     22  H   UNL     1       2.437   2.548   1.733  1.00  0.00     0.164 HD
ATOM     23  O   UNL     1       0.830   1.380   0.587  1.00  0.00    -0.274 OA
BRANCH  21  24
ATOM     24  C   UNL     1       0.893  -0.460   2.167  1.00  0.00     0.050 C 
ATOM     25  C   UNL     1       1.946  -1.508   2.593  1.00  0.00     0.020 C 
ATOM     26  C   UNL     1      -0.018  -1.187   1.123  1.00  0.00     0.020 C 
ATOM     27  C   UNL     1       0.012  -0.076   3.377  1.00  0.00     0.020 C 
ATOM     28  C   UNL     1       1.288  -2.740   3.238  1.00  0.00    -0.010 C 
ATOM     29  C   UNL     1      -0.689  -2.433   1.734  1.00  0.00    -0.010 C 
ATOM     30  C   UNL     1      -0.648  -1.316   3.993  1.00  0.00    -0.010 C 
ATOM     31  C   UNL     1       0.452  -2.288   4.447  1.00  0.00     0.007 C 
ATOM     32  C   UNL     1       0.383  -3.423   2.208  1.00  0.00     0.007 C 
ATOM     33  C   UNL     1      -1.537  -2.000   2.941  1.00  0.00     0.007 C 
ENDBRANCH  21  24
ENDBRANCH  10  20
ENDBRANCH   9  10
ENDBRANCH   7   9
ENDBRANCH   6   7
ENDBRANCH   5   6
ENDBRANCH   4   5
ENDBRANCH   3   4
ENDBRANCH   2   3
ENDBRANCH   1   2
BRANCH   1  34
ATOM     34  O   UNL     1       6.601  -1.177  -2.857  1.00  0.00    -0.377 OA
BRANCH  34  35
ATOM     35  C   UNL     1       5.335  -0.902  -3.442  1.00  0.00     0.188 C 
BRANCH  35  36
ATOM     36  C   UNL     1       4.303  -2.034  -3.268  1.00  0.00     0.188 C 
BRANCH  36  37
ATOM     37  O   UNL     1       4.824  -3.172  -2.591  1.00  0.00    -0.376 OA
BRANCH  37  38
ATOM     38  C   UNL     1       5.184  -4.269  -3.424  1.00  0.00     0.202 C 
BRANCH  38  39
ATOM     39  C   UNL     1       6.403  -4.034  -4.328  1.00  0.00     0.261 C 
BRANCH  39  40
ATOM     40  O   UNL     1       6.254  -3.011  -5.333  1.00  0.00    -0.460 OA
BRANCH  40  41
ATOM     41  C   UNL     1       5.233  -3.092  -6.214  1.00  0.00     0.338 C 
ATOM     42  O   UNL     1       4.443  -4.008  -6.350  1.00  0.00    -0.246 OA
BRANCH  41  43
ATOM     43  C   UNL     1       5.079  -1.744  -6.820  1.00  0.00     0.060 A 
ATOM     44  C   UNL     1       3.823  -1.119  -6.776  1.00  0.00     0.016 A 
ATOM     45  C   UNL     1       6.190  -1.048  -7.305  1.00  0.00     0.016 A 
ATOM     46  C   UNL     1       3.678   0.202  -7.216  1.00  0.00     0.010 A 
ATOM     47  C   UNL     1       6.039   0.261  -7.772  1.00  0.00     0.010 A 
ATOM     48  C   UNL     1       4.780   0.887  -7.746  1.00  0.00    -0.014 A 
BRANCH  48  49
ATOM     49  C   UNL     1       4.599   2.169  -8.472  1.00  0.00     0.031 A 
ATOM     50  C   UNL     1       4.346   2.101  -9.953  1.00  0.00     0.074 A 
ATOM     51  C   UNL     1       4.701   3.364  -7.862  1.00  0.00     0.049 A 
ATOM     52  N   UNL     1       4.267   3.070 -10.828  1.00  0.00    -0.248 NA
ATOM     53  C   UNL     1       4.163   0.755 -10.524  1.00  0.00     0.031 C 
ATOM     54  C   UNL     1       4.907   3.578  -6.431  1.00  0.00     0.029 A 
ATOM     55  N   UNL     1       4.666   4.633  -8.390  1.00  0.00    -0.354 N 
ATOM     56  C   UNL     1       4.037   2.451 -12.049  1.00  0.00     0.074 A 
ATOM     57  C   UNL     1       3.999   1.026 -11.809  1.00  0.00     0.031 C 
ATOM     58  C   UNL     1       5.005   4.901  -6.198  1.00  0.00     0.029 A 
ATOM     59  C   UNL     1       4.907   5.623  -7.467  1.00  0.00     0.049 A 
ATOM     60  H   UNL     1       4.485   4.816  -9.340  1.00  0.00     0.167 HD
ATOM     61  C   UNL     1       3.876   3.017 -13.267  1.00  0.00     0.031 A 
ATOM     62  C   UNL     1       5.067   6.951  -7.634  1.00  0.00     0.031 A 
ATOM     63  C   UNL     1       3.933   4.428 -13.521  1.00  0.00     0.049 A 
ATOM     64  C   UNL     1       4.980   7.545  -9.020  1.00  0.00     0.074 A 
ATOM     65  C   UNL     1       3.750   5.092 -14.721  1.00  0.00     0.029 A 
ATOM     66  N   UNL     1       4.212   5.389 -12.566  1.00  0.00    -0.354 N 
ATOM     67  N   UNL     1       4.709   6.956 -10.159  1.00  0.00    -0.248 NA
ATOM     68  C   UNL     1       5.231   8.991  -9.140  1.00  0.00     0.031 C 
ATOM     69  C   UNL     1       3.979   6.454 -14.503  1.00  0.00     0.029 A 
ATOM     70  C   UNL     1       4.250   6.639 -13.157  1.00  0.00     0.049 A 
ATOM     71  H   UNL     1       4.361   5.210 -11.609  1.00  0.00     0.167 HD
ATOM     72  C   UNL     1       4.737   7.959 -11.122  1.00  0.00     0.074 A 
ATOM     73  C   UNL     1       5.031   9.197 -10.434  1.00  0.00     0.031 C 
ATOM     74  C   UNL     1       4.542   7.863 -12.460  1.00  0.00     0.031 A 
BRANCH  61  75
ATOM     75  C   UNL     1       3.663   2.098 -14.433  1.00  0.00    -0.014 A 
ATOM     76  C   UNL     1       2.430   1.461 -14.639  1.00  0.00     0.009 A 
ATOM     77  C   UNL     1       4.695   1.911 -15.364  1.00  0.00     0.009 A 
ATOM     78  C   UNL     1       2.242   0.639 -15.751  1.00  0.00     0.001 A 
ATOM     79  C   UNL     1       4.497   1.106 -16.486  1.00  0.00     0.001 A 
ATOM     80  C   UNL     1       3.272   0.468 -16.676  1.00  0.00     0.000 A 
ENDBRANCH  61  75
BRANCH  62  81
ATOM     81  C   UNL     1       5.395   7.829  -6.477  1.00  0.00    -0.014 A 
ATOM     82  C   UNL     1       4.486   8.802  -6.032  1.00  0.00     0.009 A 
ATOM     83  C   UNL     1       6.654   7.749  -5.861  1.00  0.00     0.009 A 
ATOM     84  C   UNL     1       4.843   9.696  -5.019  1.00  0.00     0.001 A 
ATOM     85  C   UNL     1       6.997   8.624  -4.828  1.00  0.00     0.001 A 
ATOM     86  C   UNL     1       6.097   9.605  -4.417  1.00  0.00     0.000 A 
ENDBRANCH  62  81
BRANCH  74  87
ATOM     87  C   UNL     1       4.618   9.127 -13.268  1.00  0.00    -0.014 A 
ATOM     88  C   UNL     1       5.850   9.742 -13.538  1.00  0.00     0.009 A 
ATOM     89  C   UNL     1       3.449   9.673 -13.822  1.00  0.00     0.009 A 
ATOM     90  C   UNL     1       5.906  10.894 -14.325  1.00  0.00     0.001 A 
ATOM     91  C   UNL     1       3.511  10.808 -14.631  1.00  0.00     0.001 A 
ATOM     92  C   UNL     1       4.739  11.422 -14.876  1.00  0.00     0.000 A 
ENDBRANCH  74  87
ENDBRANCH  48  49
ENDBRANCH  41  43
ENDBRANCH  40  41
ENDBRANCH  39  40
ENDBRANCH  38  39
ENDBRANCH  37  38
ENDBRANCH  36  37
ENDBRANCH  35  36
ENDBRANCH  34  35
ENDBRANCH   1  34
TORSDOF 25
