REMARK SMILES COc1ccc(N2C(=O)/C(=C\c3ccc(-c4ccc(Cl)c(C(=O)OCCOCCOCCOCCOC(=O)c5ccc(-c6c7nc(c(-c8ccccc8)c8ccc([nH]8)c(-c8ccccc8)c8nc(c(-c9ccccc9)c9ccc6[nH]9)C=C8)C=C7)cc5)c4)o3)SC2=S)cc1
REMARK SMILES IDX 29 1 28 2 27 3 26 4 25 5 24 6 22 7 23 8 21 9 16 10 17 11
REMARK SMILES IDX 87 12 18 13 19 14 20 15 15 16 12 17 13 18 88 19 14 20 11 21
REMARK SMILES IDX 7 22 8 23 90 24 9 25 10 26 89 27 91 28 6 29 3 30 4 31 93 32
REMARK SMILES IDX 5 33 92 34 2 35 1 36 30 37 31 38 32 39 33 40 34 41 35 42
REMARK SMILES IDX 36 43 37 44 38 45 39 46 40 47 86 48 41 49 85 50 42 51 43 52
REMARK SMILES IDX 44 53 79 54 45 55 84 56 78 57 80 58 46 59 83 60 77 61 76 62
REMARK SMILES IDX 47 64 69 65 54 66 68 67 55 68 58 69 67 70 81 71 56 72 57 73
REMARK SMILES IDX 66 75 82 76 59 77 48 78 49 79 53 80 50 81 52 82 51 83 70 84
REMARK SMILES IDX 71 85 75 86 72 87 74 88 73 89 60 90 61 91 65 92 62 93 64 94
REMARK SMILES IDX 63 95
REMARK H PARENT 80 63 58 74
REMARK Flexibility Score: inf
ROOT
ATOM      1  C   UNL     1      -2.949   6.137  13.554  1.00  0.00     0.188 C 
ENDROOT
BRANCH   1   2
ATOM      2  C   UNL     1      -4.102   5.421  14.278  1.00  0.00     0.188 C 
BRANCH   2   3
ATOM      3  O   UNL     1      -3.678   4.497  15.279  1.00  0.00    -0.376 OA
BRANCH   3   4
ATOM      4  C   UNL     1      -3.934   3.127  14.993  1.00  0.00     0.202 C 
BRANCH   4   5
ATOM      5  C   UNL     1      -2.918   2.512  14.030  1.00  0.00     0.261 C 
BRANCH   5   6
ATOM      6  O   UNL     1      -2.902   3.147  12.744  1.00  0.00    -0.460 OA
BRANCH   6   7
ATOM      7  C   UNL     1      -3.967   2.957  11.929  1.00  0.00     0.339 C 
ATOM      8  O   UNL     1      -4.920   2.232  12.137  1.00  0.00    -0.246 OA
BRANCH   7   9
ATOM      9  C   UNL     1      -3.787   3.882  10.786  1.00  0.00     0.079 A 
ATOM     10  C   UNL     1      -2.222   4.883   9.194  1.00  0.00     0.018 A 
ATOM     11  C   UNL     1      -3.228   5.763   8.788  1.00  0.00     0.013 A 
ATOM     12  C   UNL     1      -2.514   3.950  10.197  1.00  0.00     0.029 A 
ATOM     13  C   UNL     1      -4.507   5.690   9.356  1.00  0.00     0.022 A 
ATOM     14  C   UNL     1      -4.794   4.745  10.350  1.00  0.00     0.055 A 
ATOM     15  Cl  UNL     1      -6.379   4.768  11.031  1.00  0.00    -0.083 Cl
BRANCH  10  16
ATOM     16  C   UNL     1      -0.901   4.871   8.586  1.00  0.00     0.134 A 
ATOM     17  C   UNL     1       0.800   5.782   7.495  1.00  0.00     0.128 A 
ATOM     18  C   UNL     1       1.117   4.452   7.745  1.00  0.00     0.051 A 
ATOM     19  O   UNL     1      -0.433   6.037   8.050  1.00  0.00    -0.457 OA
ATOM     20  C   UNL     1       0.033   3.872   8.426  1.00  0.00     0.051 A 
BRANCH  17  21
ATOM     21  C   UNL     1       1.585   6.734   6.792  1.00  0.00     0.068 C 
ATOM     22  N   UNL     1       2.032   5.458   3.414  1.00  0.00    -0.261 N 
ATOM     23  C   UNL     1       1.259   5.577   4.565  1.00  0.00     0.270 C 
ATOM     24  C   UNL     1       3.079   6.356   3.281  1.00  0.00     0.152 C 
ATOM     25  O   UNL     1       0.233   4.960   4.824  1.00  0.00    -0.268 OA
ATOM     26  C   UNL     1       1.862   6.580   5.489  1.00  0.00     0.084 C 
ATOM     27  S   UNL     1       3.097   7.454   4.670  1.00  0.00    -0.054 SA
ATOM     28  S   UNL     1       4.168   6.554   2.028  1.00  0.00    -0.051 S 
BRANCH  22  29
ATOM     29  C   UNL     1       1.689   4.449   2.467  1.00  0.00     0.051 A 
ATOM     30  C   UNL     1       0.921   2.338   0.768  1.00  0.00     0.119 A 
ATOM     31  C   UNL     1      -0.010   3.293   1.168  1.00  0.00     0.048 A 
ATOM     32  C   UNL     1       2.246   2.453   1.191  1.00  0.00     0.048 A 
ATOM     33  C   UNL     1       0.364   4.327   2.026  1.00  0.00     0.030 A 
ATOM     34  C   UNL     1       2.630   3.507   2.032  1.00  0.00     0.030 A 
BRANCH  30  35
ATOM     35  O   UNL     1       0.439   1.363  -0.058  1.00  0.00    -0.497 OA
ATOM     36  C   UNL     1       1.059   0.089   0.077  1.00  0.00     0.278 C 
ENDBRANCH  30  35
ENDBRANCH  22  29
ENDBRANCH  17  21
ENDBRANCH  10  16
ENDBRANCH   7   9
ENDBRANCH   6   7
ENDBRANCH   5   6
ENDBRANCH   4   5
ENDBRANCH   3   4
ENDBRANCH   2   3
ENDBRANCH   1   2
BRANCH   1  37
ATOM     37  O   UNL     1      -1.627   5.791  13.931  1.00  0.00    -0.377 OA
BRANCH  37  38
ATOM     38  C   UNL     1      -1.230   5.926  15.291  1.00  0.00     0.188 C 
BRANCH  38  39
ATOM     39  C   UNL     1      -2.069   6.718  16.317  1.00  0.00     0.188 C 
BRANCH  39  40
ATOM     40  O   UNL     1      -2.878   7.748  15.764  1.00  0.00    -0.376 OA
BRANCH  40  41
ATOM     41  C   UNL     1      -2.475   9.083  16.035  1.00  0.00     0.202 C 
BRANCH  41  42
ATOM     42  C   UNL     1      -1.307   9.549  15.161  1.00  0.00     0.261 C 
BRANCH  42  43
ATOM     43  O   UNL     1      -0.074   8.851  15.396  1.00  0.00    -0.460 OA
BRANCH  43  44
ATOM     44  C   UNL     1       0.453   8.943  16.637  1.00  0.00     0.338 C 
ATOM     45  O   UNL     1       0.034   9.586  17.580  1.00  0.00    -0.246 OA
BRANCH  44  46
ATOM     46  C   UNL     1       1.561   7.976  16.717  1.00  0.00     0.060 A 
ATOM     47  C   UNL     1       1.525   6.983  17.703  1.00  0.00     0.016 A 
ATOM     48  C   UNL     1       2.623   8.050  15.813  1.00  0.00     0.016 A 
ATOM     49  C   UNL     1       2.577   6.073  17.807  1.00  0.00     0.010 A 
ATOM     50  C   UNL     1       3.682   7.152  15.929  1.00  0.00     0.010 A 
ATOM     51  C   UNL     1       3.677   6.180  16.945  1.00  0.00    -0.014 A 
BRANCH  51  52
ATOM     52  C   UNL     1       4.908   5.404  17.210  1.00  0.00     0.031 A 
ATOM     53  C   UNL     1       6.002   6.056  18.006  1.00  0.00     0.074 A 
ATOM     54  C   UNL     1       5.064   4.159  16.732  1.00  0.00     0.049 A 
ATOM     55  N   UNL     1       7.188   5.599  18.315  1.00  0.00    -0.248 NA
ATOM     56  C   UNL     1       5.722   7.409  18.515  1.00  0.00     0.031 C 
ATOM     57  C   UNL     1       4.070   3.413  15.965  1.00  0.00     0.029 A 
ATOM     58  N   UNL     1       6.139   3.310  16.812  1.00  0.00    -0.354 N 
ATOM     59  C   UNL     1       7.798   6.610  19.046  1.00  0.00     0.074 A 
ATOM     60  C   UNL     1       6.863   7.712  19.114  1.00  0.00     0.031 C 
ATOM     61  C   UNL     1       4.589   2.219  15.628  1.00  0.00     0.029 A 
ATOM     62  C   UNL     1       5.960   2.132  16.131  1.00  0.00     0.049 A 
ATOM     63  H   UNL     1       6.961   3.525  17.311  1.00  0.00     0.167 HD
ATOM     64  C   UNL     1       9.027   6.621  19.611  1.00  0.00     0.031 A 
ATOM     65  C   UNL     1       6.814   1.113  15.919  1.00  0.00     0.031 A 
ATOM     66  C   UNL     1       9.966   5.537  19.525  1.00  0.00     0.049 A 
ATOM     67  C   UNL     1       8.202   1.175  16.500  1.00  0.00     0.074 A 
ATOM     68  C   UNL     1      11.223   5.438  20.093  1.00  0.00     0.029 A 
ATOM     69  N   UNL     1       9.755   4.369  18.809  1.00  0.00    -0.354 N 
ATOM     70  N   UNL     1       8.750   2.112  17.236  1.00  0.00    -0.248 NA
ATOM     71  C   UNL     1       9.087   0.033  16.224  1.00  0.00     0.031 C 
ATOM     72  C   UNL     1      11.797   4.234  19.672  1.00  0.00     0.029 A 
ATOM     73  C   UNL     1      10.874   3.559  18.888  1.00  0.00     0.049 A 
ATOM     74  H   UNL     1       8.931   4.149  18.316  1.00  0.00     0.167 HD
ATOM     75  C   UNL     1      10.033   1.665  17.527  1.00  0.00     0.074 A 
ATOM     76  C   UNL     1      10.178   0.367  16.901  1.00  0.00     0.031 C 
ATOM     77  C   UNL     1      11.005   2.275  18.250  1.00  0.00     0.031 A 
BRANCH  64  78
ATOM     78  C   UNL     1       9.436   7.872  20.334  1.00  0.00    -0.014 A 
ATOM     79  C   UNL     1       8.869   8.219  21.571  1.00  0.00     0.009 A 
ATOM     80  C   UNL     1      10.409   8.711  19.771  1.00  0.00     0.009 A 
ATOM     81  C   UNL     1       9.242   9.403  22.210  1.00  0.00     0.001 A 
ATOM     82  C   UNL     1      10.799   9.880  20.425  1.00  0.00     0.001 A 
ATOM     83  C   UNL     1      10.208  10.230  21.639  1.00  0.00     0.000 A 
ENDBRANCH  64  78
BRANCH  65  84
ATOM     84  C   UNL     1       6.391  -0.046  15.091  1.00  0.00    -0.014 A 
ATOM     85  C   UNL     1       6.154  -1.298  15.678  1.00  0.00     0.009 A 
ATOM     86  C   UNL     1       6.231   0.096  13.704  1.00  0.00     0.009 A 
ATOM     87  C   UNL     1       5.782  -2.389  14.889  1.00  0.00     0.001 A 
ATOM     88  C   UNL     1       5.834  -0.990  12.921  1.00  0.00     0.001 A 
ATOM     89  C   UNL     1       5.617  -2.233  13.513  1.00  0.00     0.000 A 
ENDBRANCH  65  84
BRANCH  77  90
ATOM     90  C   UNL     1      12.304   1.538  18.422  1.00  0.00    -0.014 A 
ATOM     91  C   UNL     1      13.219   1.423  17.365  1.00  0.00     0.009 A 
ATOM     92  C   UNL     1      12.639   1.002  19.675  1.00  0.00     0.009 A 
ATOM     93  C   UNL     1      14.434   0.760  17.553  1.00  0.00     0.001 A 
ATOM     94  C   UNL     1      13.865   0.364  19.868  1.00  0.00     0.001 A 
ATOM     95  C   UNL     1      14.758   0.237  18.805  1.00  0.00     0.000 A 
ENDBRANCH  77  90
ENDBRANCH  51  52
ENDBRANCH  44  46
ENDBRANCH  43  44
ENDBRANCH  42  43
ENDBRANCH  41  42
ENDBRANCH  40  41
ENDBRANCH  39  40
ENDBRANCH  38  39
ENDBRANCH  37  38
ENDBRANCH   1  37
TORSDOF 24
