REMARK SMILES Cc1cc(C)c2c(OCCCC(=O)OCCOCCOCCOCCOC(=O)c3ccc(-c4c5nc(c(-c6ccccc6)c6ccc([nH]6)c(-c6ccccc6)c6nc(c(-c7ccccc7)c7ccc4[nH]7)C=C6)C=C5)cc3)nsc2n1
REMARK SMILES IDX 19 1 18 2 17 3 16 4 15 5 14 6 12 7 13 8 11 9 10 10 9 11 8 12
REMARK SMILES IDX 7 13 1 14 2 15 3 16 80 17 4 18 79 19 5 20 6 21 78 22 77 23
REMARK SMILES IDX 20 24 21 25 22 26 23 27 24 28 25 29 26 30 27 31 28 32 29 33
REMARK SMILES IDX 30 34 76 35 31 36 75 37 32 38 33 39 34 40 69 41 35 42 74 43
REMARK SMILES IDX 68 44 70 45 36 46 73 47 67 48 66 49 37 51 59 52 44 53 58 54
REMARK SMILES IDX 45 55 48 56 57 57 71 58 46 59 47 60 56 62 72 63 49 64 38 65
REMARK SMILES IDX 39 66 43 67 40 68 42 69 41 70 60 71 61 72 65 73 62 74 64 75
REMARK SMILES IDX 63 76 50 77 51 78 55 79 52 80 54 81 53 82
REMARK H PARENT 70 50 48 61
REMARK Flexibility Score: inf
ROOT
ATOM      1  C   UNL     1       1.518  -6.022  -0.520  1.00  0.00     0.188 C 
ENDROOT
BRANCH   1   2
ATOM      2  C   UNL     1       2.179  -5.207   0.620  1.00  0.00     0.188 C 
BRANCH   2   3
ATOM      3  O   UNL     1       1.373  -4.759   1.702  1.00  0.00    -0.376 OA
BRANCH   3   4
ATOM      4  C   UNL     1       0.175  -4.076   1.379  1.00  0.00     0.202 C 
BRANCH   4   5
ATOM      5  C   UNL     1       0.291  -2.941   0.363  1.00  0.00     0.261 C 
BRANCH   5   6
ATOM      6  O   UNL     1       0.700  -3.312  -0.990  1.00  0.00    -0.463 OA
BRANCH   6   7
ATOM      7  C   UNL     1       1.781  -2.662  -1.486  1.00  0.00     0.305 C 
ATOM      8  O   UNL     1       2.451  -1.876  -0.817  1.00  0.00    -0.252 OA
BRANCH   7   9
ATOM      9  C   UNL     1       2.115  -2.869  -2.962  1.00  0.00     0.126 C 
BRANCH   9  10
ATOM     10  C   UNL     1       1.835  -4.103  -3.830  1.00  0.00     0.053 C 
BRANCH  10  11
ATOM     11  C   UNL     1       0.429  -4.496  -4.318  1.00  0.00     0.232 C 
BRANCH  11  12
ATOM     12  O   UNL     1      -0.227  -3.760  -5.352  1.00  0.00    -0.477 OA
BRANCH  12  13
ATOM     13  C   UNL     1      -0.291  -2.422  -5.199  1.00  0.00     0.235 A 
ATOM     14  C   UNL     1       0.147   0.953  -0.908  1.00  0.00     0.067 C 
ATOM     15  C   UNL     1      -0.435   0.196  -2.070  1.00  0.00     0.039 A 
ATOM     16  C   UNL     1      -1.209  -0.936  -1.838  1.00  0.00     0.027 A 
ATOM     17  N   UNL     1      -0.018   0.568  -3.292  1.00  0.00    -0.240 NA
ATOM     18  C   UNL     1      -1.369  -1.920  -2.831  1.00  0.00    -0.034 A 
ATOM     19  C   UNL     1      -0.199  -0.373  -4.235  1.00  0.00     0.147 A 
ATOM     20  C   UNL     1      -2.085  -3.196  -2.481  1.00  0.00     0.045 C 
ATOM     21  C   UNL     1      -0.718  -1.656  -4.061  1.00  0.00     0.078 A 
ATOM     22  S   UNL     1       0.304  -0.165  -5.849  1.00  0.00    -0.012 S 
ATOM     23  N   UNL     1       0.147  -1.763  -6.270  1.00  0.00    -0.153 NA
ENDBRANCH  12  13
ENDBRANCH  11  12
ENDBRANCH  10  11
ENDBRANCH   9  10
ENDBRANCH   7   9
ENDBRANCH   6   7
ENDBRANCH   5   6
ENDBRANCH   4   5
ENDBRANCH   3   4
ENDBRANCH   2   3
ENDBRANCH   1   2
BRANCH   1  24
ATOM     24  O   UNL     1       0.097  -6.081  -0.523  1.00  0.00    -0.377 OA
BRANCH  24  25
ATOM     25  C   UNL     1      -0.467  -7.265   0.047  1.00  0.00     0.188 C 
BRANCH  25  26
ATOM     26  C   UNL     1       0.022  -7.670   1.456  1.00  0.00     0.188 C 
BRANCH  26  27
ATOM     27  O   UNL     1       1.430  -7.582   1.626  1.00  0.00    -0.376 OA
BRANCH  27  28
ATOM     28  C   UNL     1       2.269  -8.720   1.616  1.00  0.00     0.202 C 
BRANCH  28  29
ATOM     29  C   UNL     1       2.464  -9.432   0.278  1.00  0.00     0.261 C 
BRANCH  29  30
ATOM     30  O   UNL     1       1.263  -9.719  -0.418  1.00  0.00    -0.460 OA
BRANCH  30  31
ATOM     31  C   UNL     1       0.423 -10.538   0.227  1.00  0.00     0.338 C 
ATOM     32  O   UNL     1       0.489 -10.903   1.401  1.00  0.00    -0.246 OA
BRANCH  31  33
ATOM     33  C   UNL     1      -0.543 -11.074  -0.720  1.00  0.00     0.060 A 
ATOM     34  C   UNL     1      -1.554 -11.856  -0.170  1.00  0.00     0.016 A 
ATOM     35  C   UNL     1      -0.235 -11.088  -2.092  1.00  0.00     0.016 A 
ATOM     36  C   UNL     1      -2.080 -12.848  -0.954  1.00  0.00     0.010 A 
ATOM     37  C   UNL     1      -0.771 -12.081  -2.878  1.00  0.00     0.010 A 
ATOM     38  C   UNL     1      -1.609 -13.004  -2.268  1.00  0.00    -0.014 A 
BRANCH  38  39
ATOM     39  C   UNL     1      -2.064 -14.184  -2.962  1.00  0.00     0.031 A 
ATOM     40  C   UNL     1      -3.516 -14.200  -3.193  1.00  0.00     0.074 A 
ATOM     41  C   UNL     1      -1.274 -15.217  -3.292  1.00  0.00     0.049 A 
ATOM     42  N   UNL     1      -4.389 -14.888  -2.540  1.00  0.00    -0.248 NA
ATOM     43  C   UNL     1      -4.071 -13.225  -4.136  1.00  0.00     0.031 C 
ATOM     44  C   UNL     1       0.185 -15.293  -3.344  1.00  0.00     0.029 A 
ATOM     45  N   UNL     1      -1.671 -16.441  -3.728  1.00  0.00    -0.354 N 
ATOM     46  C   UNL     1      -5.611 -14.569  -3.108  1.00  0.00     0.074 A 
ATOM     47  C   UNL     1      -5.376 -13.446  -3.983  1.00  0.00     0.031 C 
ATOM     48  C   UNL     1       0.541 -16.423  -4.001  1.00  0.00     0.029 A 
ATOM     49  C   UNL     1      -0.655 -17.208  -4.266  1.00  0.00     0.049 A 
ATOM     50  H   UNL     1      -2.602 -16.755  -3.667  1.00  0.00     0.167 HD
ATOM     51  C   UNL     1      -6.671 -15.410  -2.994  1.00  0.00     0.031 A 
ATOM     52  C   UNL     1      -0.818 -18.372  -4.936  1.00  0.00     0.031 A 
ATOM     53  C   UNL     1      -6.505 -16.355  -1.920  1.00  0.00     0.049 A 
ATOM     54  C   UNL     1      -2.116 -18.955  -4.518  1.00  0.00     0.074 A 
ATOM     55  C   UNL     1      -6.317 -16.259  -0.555  1.00  0.00     0.029 A 
ATOM     56  N   UNL     1      -6.159 -17.642  -2.259  1.00  0.00    -0.354 N 
ATOM     57  N   UNL     1      -2.338 -19.440  -3.329  1.00  0.00    -0.248 NA
ATOM     58  C   UNL     1      -3.307 -18.645  -5.295  1.00  0.00     0.031 C 
ATOM     59  C   UNL     1      -5.447 -17.337  -0.221  1.00  0.00     0.029 A 
ATOM     60  C   UNL     1      -5.179 -18.047  -1.393  1.00  0.00     0.049 A 
ATOM     61  H   UNL     1      -6.546 -18.175  -2.991  1.00  0.00     0.167 HD
ATOM     62  C   UNL     1      -3.654 -19.104  -3.047  1.00  0.00     0.074 A 
ATOM     63  C   UNL     1      -4.231 -18.724  -4.333  1.00  0.00     0.031 C 
ATOM     64  C   UNL     1      -4.071 -18.900  -1.763  1.00  0.00     0.031 A 
BRANCH  51  65
ATOM     65  C   UNL     1      -7.618 -15.655  -4.138  1.00  0.00    -0.014 A 
ATOM     66  C   UNL     1      -8.691 -16.539  -3.940  1.00  0.00     0.009 A 
ATOM     67  C   UNL     1      -7.316 -15.304  -5.469  1.00  0.00     0.009 A 
ATOM     68  C   UNL     1      -9.361 -17.116  -5.024  1.00  0.00     0.001 A 
ATOM     69  C   UNL     1      -8.013 -15.842  -6.550  1.00  0.00     0.001 A 
ATOM     70  C   UNL     1      -9.014 -16.775  -6.328  1.00  0.00     0.000 A 
ENDBRANCH  51  65
BRANCH  52  71
ATOM     71  C   UNL     1      -0.072 -18.851  -6.117  1.00  0.00    -0.014 A 
ATOM     72  C   UNL     1      -0.225 -20.171  -6.566  1.00  0.00     0.009 A 
ATOM     73  C   UNL     1       0.576 -17.938  -6.970  1.00  0.00     0.009 A 
ATOM     74  C   UNL     1       0.210 -20.550  -7.842  1.00  0.00     0.001 A 
ATOM     75  C   UNL     1       1.017 -18.319  -8.241  1.00  0.00     0.001 A 
ATOM     76  C   UNL     1       0.817 -19.621  -8.683  1.00  0.00     0.000 A 
ENDBRANCH  52  71
BRANCH  64  77
ATOM     77  C   UNL     1      -3.165 -19.328  -0.638  1.00  0.00    -0.014 A 
ATOM     78  C   UNL     1      -1.890 -18.772  -0.436  1.00  0.00     0.009 A 
ATOM     79  C   UNL     1      -3.689 -20.176   0.350  1.00  0.00     0.009 A 
ATOM     80  C   UNL     1      -1.157 -19.070   0.718  1.00  0.00     0.001 A 
ATOM     81  C   UNL     1      -2.965 -20.456   1.510  1.00  0.00     0.001 A 
ATOM     82  C   UNL     1      -1.699 -19.904   1.693  1.00  0.00     0.000 A 
ENDBRANCH  64  77
ENDBRANCH  38  39
ENDBRANCH  31  33
ENDBRANCH  30  31
ENDBRANCH  29  30
ENDBRANCH  28  29
ENDBRANCH  27  28
ENDBRANCH  26  27
ENDBRANCH  25  26
ENDBRANCH  24  25
ENDBRANCH   1  24
TORSDOF 24
