REMARK SMILES O=C(OCCOCCOCCOCCOC(=O)[C@H](c1ccccc1)N1C(=O)/C(=C/c2ccc(-c3nc4ccccc4s3)o2)SC1=S)c1ccc(-c2c3nc(c(-c4ccccc4)c4ccc([nH]4)c(-c4ccccc4)c4nc(c(-c5ccccc5)c5ccc2[nH]5)C=C4)C=C3)cc1
REMARK SMILES IDX 10 1 9 2 8 3 7 4 6 5 5 6 4 7 3 8 2 9 1 10 47 11 48 12 94 13
REMARK SMILES IDX 49 14 93 15 50 16 51 17 52 18 87 19 53 20 92 21 86 22 88 23
REMARK SMILES IDX 54 24 91 25 85 26 84 27 55 29 77 30 62 31 76 32 63 33 66 34
REMARK SMILES IDX 75 35 89 36 64 37 65 38 74 40 90 41 67 42 56 43 57 44 61 45
REMARK SMILES IDX 58 46 60 47 59 48 78 49 79 50 83 51 80 52 82 53 81 54 68 55
REMARK SMILES IDX 69 56 73 57 70 58 72 59 71 60 11 61 12 62 13 63 14 64 15 65
REMARK SMILES IDX 16 66 17 67 18 68 25 69 26 70 45 71 27 72 28 73 44 74 46 75
REMARK SMILES IDX 29 76 30 77 31 78 43 79 32 80 33 81 34 82 35 83 42 84 36 85
REMARK SMILES IDX 41 86 37 87 40 88 38 89 39 90 19 91 20 92 24 93 21 94 23 95
REMARK SMILES IDX 22 96
REMARK H PARENT 88 28 66 39
REMARK Flexibility Score: inf
ROOT
ATOM      1  C   UNL     1       4.752  -2.723   1.316  1.00  0.00     0.188 C 
ENDROOT
BRANCH   1   2
ATOM      2  O   UNL     1       5.625  -1.725   1.823  1.00  0.00    -0.377 OA
BRANCH   2   3
ATOM      3  C   UNL     1       5.098  -0.410   1.827  1.00  0.00     0.188 C 
BRANCH   3   4
ATOM      4  C   UNL     1       4.444   0.003   0.512  1.00  0.00     0.188 C 
BRANCH   4   5
ATOM      5  O   UNL     1       3.230  -0.714   0.270  1.00  0.00    -0.376 OA
BRANCH   5   6
ATOM      6  C   UNL     1       3.041  -1.244  -1.044  1.00  0.00     0.202 C 
BRANCH   6   7
ATOM      7  C   UNL     1       2.629  -0.220  -2.096  1.00  0.00     0.261 C 
BRANCH   7   8
ATOM      8  O   UNL     1       3.112   1.102  -1.830  1.00  0.00    -0.460 OA
BRANCH   8   9
ATOM      9  C   UNL     1       2.635   2.027  -0.964  1.00  0.00     0.338 C 
ATOM     10  O   UNL     1       3.252   3.089  -0.873  1.00  0.00    -0.246 OA
BRANCH   9  11
ATOM     11  C   UNL     1       1.441   1.849  -0.070  1.00  0.00     0.060 A 
ATOM     12  C   UNL     1       0.789   0.647   0.218  1.00  0.00     0.016 A 
ATOM     13  C   UNL     1       0.977   3.008   0.582  1.00  0.00     0.016 A 
ATOM     14  C   UNL     1      -0.263   0.575   1.114  1.00  0.00     0.010 A 
ATOM     15  C   UNL     1      -0.117   2.962   1.447  1.00  0.00     0.010 A 
ATOM     16  C   UNL     1      -0.750   1.740   1.687  1.00  0.00    -0.014 A 
BRANCH  16  17
ATOM     17  C   UNL     1      -2.093   1.664   2.267  1.00  0.00     0.031 A 
ATOM     18  C   UNL     1      -3.230   2.061   1.377  1.00  0.00     0.074 A 
ATOM     19  C   UNL     1      -2.282   1.088   3.463  1.00  0.00     0.049 A 
ATOM     20  N   UNL     1      -4.500   2.163   1.646  1.00  0.00    -0.248 NA
ATOM     21  C   UNL     1      -2.882   2.371  -0.024  1.00  0.00     0.031 C 
ATOM     22  C   UNL     1      -1.230   0.496   4.293  1.00  0.00     0.029 A 
ATOM     23  N   UNL     1      -3.430   0.885   4.175  1.00  0.00    -0.354 N 
ATOM     24  C   UNL     1      -5.091   2.597   0.467  1.00  0.00     0.074 A 
ATOM     25  C   UNL     1      -4.051   2.729  -0.523  1.00  0.00     0.031 C 
ATOM     26  C   UNL     1      -1.785   0.005   5.412  1.00  0.00     0.029 A 
ATOM     27  C   UNL     1      -3.209   0.319   5.405  1.00  0.00     0.049 A 
ATOM     28  H   UNL     1      -4.325   1.120   3.839  1.00  0.00     0.167 HD
ATOM     29  C   UNL     1      -6.394   2.883   0.251  1.00  0.00     0.031 A 
ATOM     30  C   UNL     1      -4.067   0.145   6.425  1.00  0.00     0.031 A 
ATOM     31  C   UNL     1      -7.385   2.757   1.282  1.00  0.00     0.049 A 
ATOM     32  C   UNL     1      -5.488   0.594   6.215  1.00  0.00     0.074 A 
ATOM     33  C   UNL     1      -8.726   3.080   1.245  1.00  0.00     0.029 A 
ATOM     34  N   UNL     1      -7.117   2.264   2.555  1.00  0.00    -0.354 N 
ATOM     35  N   UNL     1      -6.043   1.094   5.132  1.00  0.00    -0.248 NA
ATOM     36  C   UNL     1      -6.398   0.472   7.358  1.00  0.00     0.031 C 
ATOM     37  C   UNL     1      -9.254   2.843   2.519  1.00  0.00     0.029 A 
ATOM     38  C   UNL     1      -8.261   2.301   3.326  1.00  0.00     0.049 A 
ATOM     39  H   UNL     1      -6.240   1.937   2.860  1.00  0.00     0.167 HD
ATOM     40  C   UNL     1      -7.370   1.332   5.456  1.00  0.00     0.074 A 
ATOM     41  C   UNL     1      -7.538   0.902   6.833  1.00  0.00     0.031 C 
ATOM     42  C   UNL     1      -8.363   1.857   4.696  1.00  0.00     0.031 A 
BRANCH  29  43
ATOM     43  C   UNL     1      -6.745   3.472  -1.086  1.00  0.00    -0.014 A 
ATOM     44  C   UNL     1      -6.679   2.725  -2.274  1.00  0.00     0.009 A 
ATOM     45  C   UNL     1      -7.061   4.837  -1.164  1.00  0.00     0.009 A 
ATOM     46  C   UNL     1      -6.864   3.347  -3.513  1.00  0.00     0.001 A 
ATOM     47  C   UNL     1      -7.278   5.449  -2.400  1.00  0.00     0.001 A 
ATOM     48  C   UNL     1      -7.163   4.708  -3.574  1.00  0.00     0.000 A 
ENDBRANCH  29  43
BRANCH  30  49
ATOM     49  C   UNL     1      -3.581  -0.376   7.731  1.00  0.00    -0.014 A 
ATOM     50  C   UNL     1      -4.020  -1.607   8.236  1.00  0.00     0.009 A 
ATOM     51  C   UNL     1      -2.649   0.365   8.480  1.00  0.00     0.009 A 
ATOM     52  C   UNL     1      -3.551  -2.075   9.468  1.00  0.00     0.001 A 
ATOM     53  C   UNL     1      -2.158  -0.119   9.694  1.00  0.00     0.001 A 
ATOM     54  C   UNL     1      -2.616  -1.335  10.192  1.00  0.00     0.000 A 
ENDBRANCH  30  49
BRANCH  42  55
ATOM     55  C   UNL     1      -9.719   1.953   5.331  1.00  0.00    -0.014 A 
ATOM     56  C   UNL     1      -9.998   2.916   6.312  1.00  0.00     0.009 A 
ATOM     57  C   UNL     1     -10.747   1.113   4.878  1.00  0.00     0.009 A 
ATOM     58  C   UNL     1     -11.282   3.017   6.847  1.00  0.00     0.001 A 
ATOM     59  C   UNL     1     -12.037   1.240   5.389  1.00  0.00     0.001 A 
ATOM     60  C   UNL     1     -12.300   2.186   6.378  1.00  0.00     0.000 A 
ENDBRANCH  42  55
ENDBRANCH  16  17
ENDBRANCH   9  11
ENDBRANCH   8   9
ENDBRANCH   7   8
ENDBRANCH   6   7
ENDBRANCH   5   6
ENDBRANCH   4   5
ENDBRANCH   3   4
ENDBRANCH   2   3
ENDBRANCH   1   2
BRANCH   1  61
ATOM     61  C   UNL     1       3.361  -2.916   1.991  1.00  0.00     0.188 C 
BRANCH  61  62
ATOM     62  O   UNL     1       3.160  -2.136   3.162  1.00  0.00    -0.376 OA
BRANCH  62  63
ATOM     63  C   UNL     1       3.465  -2.798   4.389  1.00  0.00     0.202 C 
BRANCH  63  64
ATOM     64  C   UNL     1       4.888  -3.365   4.503  1.00  0.00     0.261 C 
BRANCH  64  65
ATOM     65  O   UNL     1       5.207  -4.235   3.393  1.00  0.00    -0.461 OA
BRANCH  65  66
ATOM     66  C   UNL     1       4.848  -5.527   3.442  1.00  0.00     0.334 C 
ATOM     67  O   UNL     1       4.644  -6.088   4.517  1.00  0.00    -0.249 OA
BRANCH  66  68
ATOM     68  C   UNL     1       4.873  -6.264   2.072  1.00  0.00     0.232 C 
BRANCH  68  69
ATOM     69  N   UNL     1       4.347  -7.595   2.332  1.00  0.00    -0.274 N 
ATOM     70  C   UNL     1       5.178  -8.642   2.004  1.00  0.00     0.267 C 
ATOM     71  C   UNL     1       3.103  -7.901   2.866  1.00  0.00     0.149 C 
ATOM     72  O   UNL     1       6.296  -8.562   1.498  1.00  0.00    -0.268 OA
ATOM     73  C   UNL     1       4.507  -9.905   2.295  1.00  0.00     0.084 C 
ATOM     74  S   UNL     1       2.984  -9.631   3.047  1.00  0.00    -0.054 SA
ATOM     75  S   UNL     1       1.828  -6.926   3.339  1.00  0.00    -0.052 S 
ATOM     76  C   UNL     1       5.058 -11.070   1.947  1.00  0.00     0.068 C 
BRANCH  76  77
ATOM     77  C   UNL     1       4.327 -12.252   2.156  1.00  0.00     0.129 A 
ATOM     78  C   UNL     1       3.086 -12.588   1.635  1.00  0.00     0.051 A 
ATOM     79  O   UNL     1       4.710 -13.217   3.042  1.00  0.00    -0.454 OA
ATOM     80  C   UNL     1       2.668 -13.750   2.293  1.00  0.00     0.054 A 
ATOM     81  C   UNL     1       3.695 -14.121   3.139  1.00  0.00     0.163 A 
BRANCH  81  82
ATOM     82  C   UNL     1       3.707 -15.272   3.977  1.00  0.00     0.160 A 
ATOM     83  N   UNL     1       2.970 -16.307   3.655  1.00  0.00    -0.233 NA
ATOM     84  S   UNL     1       4.588 -15.381   5.434  1.00  0.00    -0.111 S 
ATOM     85  C   UNL     1       3.080 -17.265   4.627  1.00  0.00     0.082 A 
ATOM     86  C   UNL     1       3.899 -16.938   5.710  1.00  0.00     0.055 A 
ATOM     87  C   UNL     1       2.423 -18.505   4.600  1.00  0.00     0.030 A 
ATOM     88  C   UNL     1       4.059 -17.812   6.794  1.00  0.00     0.021 A 
ATOM     89  C   UNL     1       2.579 -19.384   5.668  1.00  0.00     0.002 A 
ATOM     90  C   UNL     1       3.381 -19.037   6.753  1.00  0.00     0.002 A 
ENDBRANCH  81  82
ENDBRANCH  76  77
ENDBRANCH  68  69
BRANCH  68  91
ATOM     91  C   UNL     1       4.411  -5.781   0.666  1.00  0.00    -0.014 A 
ATOM     92  C   UNL     1       3.074  -5.729   0.224  1.00  0.00     0.006 A 
ATOM     93  C   UNL     1       5.386  -5.513  -0.327  1.00  0.00     0.006 A 
ATOM     94  C   UNL     1       2.727  -5.401  -1.099  1.00  0.00     0.000 A 
ATOM     95  C   UNL     1       5.042  -5.163  -1.646  1.00  0.00     0.000 A 
ATOM     96  C   UNL     1       3.709  -5.111  -2.034  1.00  0.00     0.000 A 
ENDBRANCH  68  91
ENDBRANCH  66  68
ENDBRANCH  65  66
ENDBRANCH  64  65
ENDBRANCH  63  64
ENDBRANCH  62  63
ENDBRANCH  61  62
ENDBRANCH   1  61
TORSDOF 24
