REMARK SMILES CC1=NC(=O)[C@H](CC(=O)OCCOCCOCCOCCOC(=O)c2ccc(-c3c4nc(c(-c5ccccc5)c5ccc([nH]5)c(-c5ccccc5)c5nc(c(-c6ccccc6)c6ccc3[nH]6)C=C5)C=C4)cc2)CS1
REMARK SMILES IDX 17 1 16 2 15 3 14 4 13 5 12 6 11 7 10 8 8 9 9 10 7 11 6 12
REMARK SMILES IDX 1 13 2 14 3 15 74 16 4 17 73 18 5 19 18 20 19 21 20 22 21 23
REMARK SMILES IDX 22 24 23 25 24 26 25 27 26 28 72 29 27 30 71 31 28 32 29 33
REMARK SMILES IDX 30 34 65 35 31 36 70 37 64 38 66 39 32 40 69 41 63 42 62 43
REMARK SMILES IDX 33 45 55 46 40 47 54 48 41 49 44 50 53 51 67 52 42 53 43 54
REMARK SMILES IDX 52 56 68 57 45 58 34 59 35 60 39 61 36 62 38 63 37 64 56 65
REMARK SMILES IDX 57 66 61 67 58 68 60 69 59 70 46 71 47 72 51 73 48 74 50 75
REMARK SMILES IDX 49 76
REMARK H PARENT 66 44 44 55
REMARK Flexibility Score: inf
ROOT
ATOM      1  C   UNL     1       0.188  -1.664   7.936  1.00  0.00     0.188 C 
ENDROOT
BRANCH   1   2
ATOM      2  O   UNL     1      -0.387  -2.600   7.048  1.00  0.00    -0.377 OA
BRANCH   2   3
ATOM      3  C   UNL     1      -0.857  -2.071   5.826  1.00  0.00     0.188 C 
BRANCH   3   4
ATOM      4  C   UNL     1      -2.391  -1.916   5.746  1.00  0.00     0.188 C 
BRANCH   4   5
ATOM      5  O   UNL     1      -3.234  -2.689   6.588  1.00  0.00    -0.376 OA
BRANCH   5   6
ATOM      6  C   UNL     1      -2.755  -3.916   7.106  1.00  0.00     0.202 C 
BRANCH   6   7
ATOM      7  C   UNL     1      -2.329  -5.030   6.127  1.00  0.00     0.261 C 
BRANCH   7   8
ATOM      8  O   UNL     1      -1.567  -4.672   4.946  1.00  0.00    -0.463 OA
BRANCH   8   9
ATOM      9  C   UNL     1      -2.270  -4.484   3.798  1.00  0.00     0.306 C 
ATOM     10  O   UNL     1      -3.491  -4.558   3.728  1.00  0.00    -0.252 OA
BRANCH   9  11
ATOM     11  C   UNL     1      -1.412  -4.265   2.552  1.00  0.00     0.137 C 
BRANCH  11  12
ATOM     12  C   UNL     1      -0.245  -3.248   2.541  1.00  0.00     0.102 C 
ATOM     13  C   UNL     1       1.359  -0.272  -0.324  1.00  0.00     0.075 C 
ATOM     14  C   UNL     1       0.703  -1.386   0.440  1.00  0.00     0.074 C 
ATOM     15  N   UNL     1       1.346  -2.459   0.755  1.00  0.00    -0.211 NA
ATOM     16  S   UNL     1      -0.957  -1.118   0.901  1.00  0.00    -0.110 SA
ATOM     17  C   UNL     1       0.675  -3.513   1.339  1.00  0.00     0.250 C 
ATOM     18  C   UNL     1      -0.708  -1.790   2.560  1.00  0.00     0.090 C 
ATOM     19  O   UNL     1       0.877  -4.665   0.963  1.00  0.00    -0.272 OA
ENDBRANCH  11  12
ENDBRANCH   9  11
ENDBRANCH   8   9
ENDBRANCH   7   8
ENDBRANCH   6   7
ENDBRANCH   5   6
ENDBRANCH   4   5
ENDBRANCH   3   4
ENDBRANCH   2   3
ENDBRANCH   1   2
BRANCH   1  20
ATOM     20  C   UNL     1      -0.647  -0.403   8.203  1.00  0.00     0.188 C 
BRANCH  20  21
ATOM     21  O   UNL     1      -0.983   0.285   7.003  1.00  0.00    -0.376 OA
BRANCH  21  22
ATOM     22  C   UNL     1      -0.277   1.452   6.629  1.00  0.00     0.202 C 
BRANCH  22  23
ATOM     23  C   UNL     1       1.196   1.333   6.202  1.00  0.00     0.261 C 
BRANCH  23  24
ATOM     24  O   UNL     1       2.058   0.532   7.017  1.00  0.00    -0.460 OA
BRANCH  24  25
ATOM     25  C   UNL     1       2.319   0.966   8.272  1.00  0.00     0.338 C 
ATOM     26  O   UNL     1       1.905   1.974   8.797  1.00  0.00    -0.246 OA
BRANCH  25  27
ATOM     27  C   UNL     1       3.041  -0.128   8.968  1.00  0.00     0.060 A 
ATOM     28  C   UNL     1       2.460  -0.701  10.107  1.00  0.00     0.016 A 
ATOM     29  C   UNL     1       4.253  -0.615   8.473  1.00  0.00     0.016 A 
ATOM     30  C   UNL     1       3.095  -1.756  10.762  1.00  0.00     0.010 A 
ATOM     31  C   UNL     1       4.908  -1.646   9.152  1.00  0.00     0.010 A 
ATOM     32  C   UNL     1       4.345  -2.201  10.315  1.00  0.00    -0.014 A 
BRANCH  32  33
ATOM     33  C   UNL     1       5.164  -3.075  11.187  1.00  0.00     0.031 A 
ATOM     34  C   UNL     1       6.173  -2.418  12.089  1.00  0.00     0.074 A 
ATOM     35  C   UNL     1       5.011  -4.410  11.198  1.00  0.00     0.049 A 
ATOM     36  N   UNL     1       7.037  -2.962  12.907  1.00  0.00    -0.248 NA
ATOM     37  C   UNL     1       6.211  -0.946  12.061  1.00  0.00     0.031 C 
ATOM     38  C   UNL     1       4.032  -5.160  10.414  1.00  0.00     0.029 A 
ATOM     39  N   UNL     1       5.693  -5.374  11.899  1.00  0.00    -0.354 N 
ATOM     40  C   UNL     1       7.725  -1.900  13.481  1.00  0.00     0.074 A 
ATOM     41  C   UNL     1       7.202  -0.685  12.898  1.00  0.00     0.031 C 
ATOM     42  C   UNL     1       4.185  -6.472  10.669  1.00  0.00     0.029 A 
ATOM     43  C   UNL     1       5.294  -6.655  11.604  1.00  0.00     0.049 A 
ATOM     44  H   UNL     1       6.401  -5.167  12.551  1.00  0.00     0.167 HD
ATOM     45  C   UNL     1       8.705  -1.933  14.414  1.00  0.00     0.031 A 
ATOM     46  C   UNL     1       5.787  -7.836  12.025  1.00  0.00     0.031 A 
ATOM     47  C   UNL     1       9.242  -3.143  14.972  1.00  0.00     0.049 A 
ATOM     48  C   UNL     1       6.945  -7.850  12.991  1.00  0.00     0.074 A 
ATOM     49  C   UNL     1      10.233  -3.285  15.928  1.00  0.00     0.029 A 
ATOM     50  N   UNL     1       8.841  -4.421  14.615  1.00  0.00    -0.354 N 
ATOM     51  N   UNL     1       7.572  -6.842  13.548  1.00  0.00    -0.248 NA
ATOM     52  C   UNL     1       7.456  -9.169  13.393  1.00  0.00     0.031 C 
ATOM     53  C   UNL     1      10.478  -4.651  16.098  1.00  0.00     0.029 A 
ATOM     54  C   UNL     1       9.586  -5.359  15.308  1.00  0.00     0.049 A 
ATOM     55  H   UNL     1       8.132  -4.630  13.965  1.00  0.00     0.167 HD
ATOM     56  C   UNL     1       8.524  -7.403  14.392  1.00  0.00     0.074 A 
ATOM     57  C   UNL     1       8.383  -8.840  14.283  1.00  0.00     0.031 C 
ATOM     58  C   UNL     1       9.430  -6.786  15.190  1.00  0.00     0.031 A 
BRANCH  45  59
ATOM     59  C   UNL     1       9.289  -0.617  14.848  1.00  0.00    -0.014 A 
ATOM     60  C   UNL     1       8.547   0.298  15.613  1.00  0.00     0.009 A 
ATOM     61  C   UNL     1      10.611  -0.297  14.502  1.00  0.00     0.009 A 
ATOM     62  C   UNL     1       9.106   1.521  15.990  1.00  0.00     0.001 A 
ATOM     63  C   UNL     1      11.178   0.912  14.908  1.00  0.00     0.001 A 
ATOM     64  C   UNL     1      10.422   1.824  15.643  1.00  0.00     0.000 A 
ENDBRANCH  45  59
BRANCH  46  65
ATOM     65  C   UNL     1       5.210  -9.113  11.521  1.00  0.00    -0.014 A 
ATOM     66  C   UNL     1       4.525  -9.982  12.385  1.00  0.00     0.009 A 
ATOM     67  C   UNL     1       5.370  -9.485  10.177  1.00  0.00     0.009 A 
ATOM     68  C   UNL     1       4.039 -11.207  11.919  1.00  0.00     0.001 A 
ATOM     69  C   UNL     1       4.854 -10.695   9.707  1.00  0.00     0.001 A 
ATOM     70  C   UNL     1       4.199 -11.560  10.581  1.00  0.00     0.000 A 
ENDBRANCH  46  65
BRANCH  58  71
ATOM     71  C   UNL     1      10.306  -7.656  16.052  1.00  0.00    -0.014 A 
ATOM     72  C   UNL     1      11.326  -8.448  15.503  1.00  0.00     0.009 A 
ATOM     73  C   UNL     1      10.138  -7.636  17.446  1.00  0.00     0.009 A 
ATOM     74  C   UNL     1      12.135  -9.229  16.331  1.00  0.00     0.001 A 
ATOM     75  C   UNL     1      10.970  -8.390  18.273  1.00  0.00     0.001 A 
ATOM     76  C   UNL     1      11.962  -9.194  17.715  1.00  0.00     0.000 A 
ENDBRANCH  58  71
ENDBRANCH  32  33
ENDBRANCH  25  27
ENDBRANCH  24  25
ENDBRANCH  23  24
ENDBRANCH  22  23
ENDBRANCH  21  22
ENDBRANCH  20  21
ENDBRANCH   1  20
TORSDOF 21
