REMARK SMILES O=C(CS(=O)(=O)N1CCC1)OCCOCCOCCOCCOC(=O)c1ccc(-c2c3nc(c(-c4ccccc4)c4ccc([nH]4)c(-c4ccccc4)c4nc(c(-c5ccccc5)c5ccc2[nH]5)C=C4)C=C3)cc1
REMARK SMILES IDX 17 1 16 2 15 3 14 4 13 5 12 6 11 7 2 8 1 9 3 10 4 11 5 12
REMARK SMILES IDX 6 13 7 14 8 15 10 16 9 17 18 18 19 19 20 20 21 21 22 22
REMARK SMILES IDX 23 23 24 24 25 25 26 26 27 27 73 28 28 29 72 30 29 31 30 32
REMARK SMILES IDX 31 33 66 34 32 35 71 36 65 37 67 38 33 39 70 40 64 41 63 42
REMARK SMILES IDX 34 44 56 45 41 46 55 47 42 48 45 49 54 50 68 51 43 52 44 53
REMARK SMILES IDX 53 55 69 56 46 57 35 58 36 59 40 60 37 61 39 62 38 63 57 64
REMARK SMILES IDX 58 65 62 66 59 67 61 68 60 69 47 70 48 71 52 72 49 73 51 74
REMARK SMILES IDX 50 75
REMARK H PARENT 67 43 45 54
REMARK Flexibility Score: inf
ROOT
ATOM      1  O   UNL     1       2.838   0.234   3.823  1.00  0.00    -0.377 OA
ENDROOT
BRANCH   1   2
ATOM      2  C   UNL     1       2.096  -0.268   2.731  1.00  0.00     0.188 C 
BRANCH   2   3
ATOM      3  C   UNL     1       2.743  -1.027   1.556  1.00  0.00     0.188 C 
BRANCH   3   4
ATOM      4  O   UNL     1       4.142  -0.970   1.383  1.00  0.00    -0.376 OA
BRANCH   4   5
ATOM      5  C   UNL     1       4.863  -0.248   0.403  1.00  0.00     0.202 C 
BRANCH   5   6
ATOM      6  C   UNL     1       4.290   1.016  -0.215  1.00  0.00     0.261 C 
BRANCH   6   7
ATOM      7  O   UNL     1       2.984   0.966  -0.823  1.00  0.00    -0.462 OA
BRANCH   7   8
ATOM      8  C   UNL     1       2.303  -0.046  -1.380  1.00  0.00     0.322 C 
ATOM      9  O   UNL     1       1.082   0.082  -1.502  1.00  0.00    -0.251 OA
BRANCH   8  10
ATOM     10  C   UNL     1       2.953  -1.317  -1.783  1.00  0.00     0.276 C 
BRANCH  10  11
ATOM     11  S   UNL     1       3.828  -1.115  -3.289  1.00  0.00     0.224 S 
ATOM     12  O   UNL     1       4.912  -0.184  -3.059  1.00  0.00    -0.212 OA
ATOM     13  O   UNL     1       4.090  -2.442  -3.803  1.00  0.00    -0.212 OA
BRANCH  11  14
ATOM     14  N   UNL     1       2.701  -0.389  -4.290  1.00  0.00    -0.201 NA
ATOM     15  C   UNL     1       1.274  -0.775  -4.467  1.00  0.00     0.103 C 
ATOM     16  C   UNL     1       2.338   1.053  -4.343  1.00  0.00     0.103 C 
ATOM     17  C   UNL     1       0.882   0.694  -4.665  1.00  0.00     0.033 C 
ENDBRANCH  11  14
ENDBRANCH  10  11
ENDBRANCH   8  10
ENDBRANCH   7   8
ENDBRANCH   6   7
ENDBRANCH   5   6
ENDBRANCH   4   5
ENDBRANCH   3   4
ENDBRANCH   2   3
ENDBRANCH   1   2
BRANCH   1  18
ATOM     18  C   UNL     1       4.221   0.439   3.641  1.00  0.00     0.188 C 
BRANCH  18  19
ATOM     19  C   UNL     1       5.101  -0.795   3.941  1.00  0.00     0.188 C 
BRANCH  19  20
ATOM     20  O   UNL     1       4.554  -2.094   3.829  1.00  0.00    -0.376 OA
BRANCH  20  21
ATOM     21  C   UNL     1       3.521  -2.573   4.670  1.00  0.00     0.202 C 
BRANCH  21  22
ATOM     22  C   UNL     1       3.051  -1.958   6.006  1.00  0.00     0.261 C 
BRANCH  22  23
ATOM     23  O   UNL     1       3.407  -0.610   6.296  1.00  0.00    -0.460 OA
BRANCH  23  24
ATOM     24  C   UNL     1       4.533  -0.440   7.028  1.00  0.00     0.338 C 
ATOM     25  O   UNL     1       5.247  -1.297   7.494  1.00  0.00    -0.246 OA
BRANCH  24  26
ATOM     26  C   UNL     1       4.891   0.995   6.963  1.00  0.00     0.060 A 
ATOM     27  C   UNL     1       6.165   1.332   6.481  1.00  0.00     0.016 A 
ATOM     28  C   UNL     1       3.984   1.989   7.336  1.00  0.00     0.016 A 
ATOM     29  C   UNL     1       6.554   2.664   6.410  1.00  0.00     0.010 A 
ATOM     30  C   UNL     1       4.393   3.324   7.314  1.00  0.00     0.010 A 
ATOM     31  C   UNL     1       5.696   3.655   6.901  1.00  0.00    -0.014 A 
BRANCH  31  32
ATOM     32  C   UNL     1       6.292   4.948   7.300  1.00  0.00     0.031 A 
ATOM     33  C   UNL     1       6.789   5.061   8.716  1.00  0.00     0.074 A 
ATOM     34  C   UNL     1       6.454   5.960   6.434  1.00  0.00     0.049 A 
ATOM     35  N   UNL     1       7.364   6.067   9.320  1.00  0.00    -0.248 NA
ATOM     36  C   UNL     1       6.611   3.870   9.565  1.00  0.00     0.031 C 
ATOM     37  C   UNL     1       6.082   5.942   5.021  1.00  0.00     0.029 A 
ATOM     38  N   UNL     1       6.990   7.207   6.630  1.00  0.00    -0.354 N 
ATOM     39  C   UNL     1       7.601   5.633  10.619  1.00  0.00     0.074 A 
ATOM     40  C   UNL     1       7.081   4.290  10.726  1.00  0.00     0.031 C 
ATOM     41  C   UNL     1       6.404   7.128   4.474  1.00  0.00     0.029 A 
ATOM     42  C   UNL     1       6.973   7.994   5.506  1.00  0.00     0.049 A 
ATOM     43  H   UNL     1       7.353   7.508   7.494  1.00  0.00     0.167 HD
ATOM     44  C   UNL     1       8.201   6.293  11.636  1.00  0.00     0.031 A 
ATOM     45  C   UNL     1       7.364   9.273   5.342  1.00  0.00     0.031 A 
ATOM     46  C   UNL     1       8.694   7.637  11.535  1.00  0.00     0.049 A 
ATOM     47  C   UNL     1       7.944  10.022   6.514  1.00  0.00     0.074 A 
ATOM     48  C   UNL     1       9.322   8.401  12.502  1.00  0.00     0.029 A 
ATOM     49  N   UNL     1       8.600   8.424  10.397  1.00  0.00    -0.354 N 
ATOM     50  N   UNL     1       8.180   9.601   7.735  1.00  0.00    -0.248 NA
ATOM     51  C   UNL     1       8.324  11.422   6.278  1.00  0.00     0.031 C 
ATOM     52  C   UNL     1       9.547   9.674  11.968  1.00  0.00     0.029 A 
ATOM     53  C   UNL     1       9.132   9.677  10.645  1.00  0.00     0.049 A 
ATOM     54  H   UNL     1       8.212   8.134   9.539  1.00  0.00     0.167 HD
ATOM     55  C   UNL     1       8.775  10.669   8.398  1.00  0.00     0.074 A 
ATOM     56  C   UNL     1       8.867  11.753   7.441  1.00  0.00     0.031 C 
ATOM     57  C   UNL     1       9.215  10.743   9.679  1.00  0.00     0.031 A 
BRANCH  44  58
ATOM     58  C   UNL     1       8.286   5.578  12.957  1.00  0.00    -0.014 A 
ATOM     59  C   UNL     1       9.103   4.449  13.135  1.00  0.00     0.009 A 
ATOM     60  C   UNL     1       7.515   6.032  14.037  1.00  0.00     0.009 A 
ATOM     61  C   UNL     1       9.106   3.763  14.351  1.00  0.00     0.001 A 
ATOM     62  C   UNL     1       7.548   5.367  15.263  1.00  0.00     0.001 A 
ATOM     63  C   UNL     1       8.332   4.224  15.415  1.00  0.00     0.000 A 
ENDBRANCH  44  58
BRANCH  45  64
ATOM     64  C   UNL     1       7.223   9.931   4.016  1.00  0.00    -0.014 A 
ATOM     65  C   UNL     1       8.358  10.272   3.264  1.00  0.00     0.009 A 
ATOM     66  C   UNL     1       5.953  10.236   3.502  1.00  0.00     0.009 A 
ATOM     67  C   UNL     1       8.224  10.925   2.036  1.00  0.00     0.001 A 
ATOM     68  C   UNL     1       5.821  10.862   2.260  1.00  0.00     0.001 A 
ATOM     69  C   UNL     1       6.957  11.213   1.533  1.00  0.00     0.000 A 
ENDBRANCH  45  64
BRANCH  57  70
ATOM     70  C   UNL     1       9.894  12.018  10.105  1.00  0.00    -0.014 A 
ATOM     71  C   UNL     1       9.184  13.217  10.264  1.00  0.00     0.009 A 
ATOM     72  C   UNL     1      11.269  12.000  10.391  1.00  0.00     0.009 A 
ATOM     73  C   UNL     1       9.847  14.383  10.657  1.00  0.00     0.001 A 
ATOM     74  C   UNL     1      11.922  13.156  10.819  1.00  0.00     0.001 A 
ATOM     75  C   UNL     1      11.213  14.350  10.939  1.00  0.00     0.000 A 
ENDBRANCH  57  70
ENDBRANCH  31  32
ENDBRANCH  24  26
ENDBRANCH  23  24
ENDBRANCH  22  23
ENDBRANCH  21  22
ENDBRANCH  20  21
ENDBRANCH  19  20
ENDBRANCH  18  19
ENDBRANCH   1  18
TORSDOF 22
