REMARK SMILES CCC([NH3+])(CC)C(=O)N1CCC[N@H+](CC(=O)OCCOCCOCCOCCOC(=O)c2ccc(-c3c4nc(c(-c5ccccc5)c5ccc([nH]5)c(-c5ccccc5)c5nc(c(-c6ccccc6)c6ccc3[nH]6)C=C5)C=C4)cc2)CC1
REMARK SMILES IDX 20 1 19 2 18 3 17 4 15 5 16 6 14 7 13 8 12 10 11 11 10 12
REMARK SMILES IDX 9 13 7 14 8 15 3 16 2 17 1 18 4 19 5 23 6 24 81 25 80 27
REMARK SMILES IDX 21 29 22 30 23 31 24 32 25 33 26 34 27 35 28 36 29 37 30 38
REMARK SMILES IDX 31 39 32 40 33 41 79 42 34 43 78 44 35 45 36 46 37 47 72 48
REMARK SMILES IDX 38 49 77 50 71 51 73 52 39 53 76 54 70 55 69 56 40 58 62 59
REMARK SMILES IDX 47 60 61 61 48 62 51 63 60 64 74 65 49 66 50 67 59 69 75 70
REMARK SMILES IDX 52 71 41 72 42 73 46 74 43 75 45 76 44 77 63 78 64 79 68 80
REMARK SMILES IDX 65 81 67 82 66 83 53 84 54 85 58 86 55 87 57 88 56 89
REMARK H PARENT 13 9 4 20 4 21 4 22 73 57 51 68
REMARK Flexibility Score: 80.00
ROOT
ATOM      1  O   UNL     1       2.059  -3.608  -5.923  1.00  0.00    -0.376 OA
ENDROOT
BRANCH   1   2
ATOM      2  C   UNL     1       1.236  -4.330  -4.981  1.00  0.00     0.202 C 
BRANCH   2   3
ATOM      3  C   UNL     1       1.794  -5.628  -4.271  1.00  0.00     0.261 C 
BRANCH   3   4
ATOM      4  O   UNL     1       3.095  -5.566  -3.612  1.00  0.00    -0.459 OA
BRANCH   4   5
ATOM      5  C   UNL     1       4.194  -5.840  -4.369  1.00  0.00     0.361 C 
ATOM      6  O   UNL     1       4.118  -6.317  -5.497  1.00  0.00    -0.245 OA
BRANCH   5   7
ATOM      7  C   UNL     1       5.541  -5.558  -3.661  1.00  0.00     0.386 C 
BRANCH   7   8
ATOM      8  N   UNL     1       5.997  -4.171  -3.468  1.00  0.00    -0.324 N 
ATOM      9  H   UNL     1       6.928  -4.579  -3.377  1.00  0.00     0.348 HD
BRANCH   8  10
ATOM     10  C   UNL     1       5.964  -3.271  -4.578  1.00  0.00     0.264 C 
BRANCH  10  11
ATOM     11  C   UNL     1       4.588  -2.716  -4.822  1.00  0.00     0.083 C 
BRANCH  11  12
ATOM     12  C   UNL     1       3.454  -2.646  -3.753  1.00  0.00     0.126 C 
BRANCH  12  13
ATOM     13  N   UNL     1       3.479  -2.399  -2.341  1.00  0.00    -0.331 N 
BRANCH  13  14
ATOM     14  C   UNL     1       2.346  -2.075  -1.535  1.00  0.00     0.284 C 
ATOM     15  O   UNL     1       2.588  -2.084  -0.305  1.00  0.00    -0.268 OA
BRANCH  14  16
ATOM     16  C   UNL     1       0.643  -1.907  -1.861  1.00  0.00     0.173 C 
BRANCH  16  17
ATOM     17  C   UNL     1       0.079  -0.715  -1.012  1.00  0.00     0.075 C 
ATOM     18  C   UNL     1       0.428  -0.601   0.456  1.00  0.00     0.011 C 
ENDBRANCH  16  17
BRANCH  16  19
ATOM     19  N   UNL     1       0.086  -3.147  -1.223  1.00  0.00    -0.345 N 
ATOM     20  H   UNL     1      -0.926  -3.168  -1.347  1.00  0.00     0.345 HD
ATOM     21  H   UNL     1       0.306  -3.145  -0.227  1.00  0.00     0.345 HD
ATOM     22  H   UNL     1       0.499  -3.970  -1.661  1.00  0.00     0.345 HD
ENDBRANCH  16  19
BRANCH  16  23
ATOM     23  C   UNL     1      -0.150  -1.861  -3.229  1.00  0.00     0.075 C 
ATOM     24  C   UNL     1      -1.362  -0.916  -3.472  1.00  0.00     0.011 C 
ENDBRANCH  16  23
ENDBRANCH  14  16
ENDBRANCH  13  14
BRANCH  13  25
ATOM     25  C   UNL     1       4.525  -3.135  -1.590  1.00  0.00     0.181 CG0
ATOM     26  G   UNL     1       5.894  -3.459  -2.205  1.00  0.00     0.000 G0
ENDBRANCH  13  25
ENDBRANCH  12  13
ENDBRANCH  11  12
ENDBRANCH  10  11
ENDBRANCH   8  10
BRANCH   8  27
ATOM     27  C   UNL     1       5.894  -3.459  -2.205  1.00  0.00     0.284 CG0
ATOM     28  G   UNL     1       4.525  -3.135  -1.590  1.00  0.00     0.000 G0
ENDBRANCH   8  27
ENDBRANCH   7   8
ENDBRANCH   5   7
ENDBRANCH   4   5
ENDBRANCH   3   4
ENDBRANCH   2   3
ENDBRANCH   1   2
BRANCH   1  29
ATOM     29  C   UNL     1       1.508  -2.352  -6.428  1.00  0.00     0.188 C 
BRANCH  29  30
ATOM     30  C   UNL     1       2.447  -1.083  -6.525  1.00  0.00     0.188 C 
BRANCH  30  31
ATOM     31  O   UNL     1       2.979  -0.362  -5.403  1.00  0.00    -0.377 OA
BRANCH  31  32
ATOM     32  C   UNL     1       2.224   0.257  -4.371  1.00  0.00     0.188 C 
BRANCH  32  33
ATOM     33  C   UNL     1       1.096   1.197  -4.746  1.00  0.00     0.188 C 
BRANCH  33  34
ATOM     34  O   UNL     1       1.065   1.460  -6.121  1.00  0.00    -0.376 OA
BRANCH  34  35
ATOM     35  C   UNL     1       1.802   2.612  -6.511  1.00  0.00     0.202 C 
BRANCH  35  36
ATOM     36  C   UNL     1       3.208   2.881  -5.913  1.00  0.00     0.261 C 
BRANCH  36  37
ATOM     37  O   UNL     1       3.365   2.873  -4.467  1.00  0.00    -0.460 OA
BRANCH  37  38
ATOM     38  C   UNL     1       2.760   3.831  -3.721  1.00  0.00     0.338 C 
ATOM     39  O   UNL     1       2.128   4.771  -4.146  1.00  0.00    -0.246 OA
BRANCH  38  40
ATOM     40  C   UNL     1       2.781   3.423  -2.278  1.00  0.00     0.060 A 
ATOM     41  C   UNL     1       1.577   3.037  -1.671  1.00  0.00     0.016 A 
ATOM     42  C   UNL     1       3.937   3.501  -1.496  1.00  0.00     0.016 A 
ATOM     43  C   UNL     1       1.519   2.752  -0.298  1.00  0.00     0.010 A 
ATOM     44  C   UNL     1       3.868   3.259  -0.106  1.00  0.00     0.010 A 
ATOM     45  C   UNL     1       2.652   2.913   0.512  1.00  0.00    -0.014 A 
BRANCH  45  46
ATOM     46  C   UNL     1       2.477   3.010   1.996  1.00  0.00     0.031 A 
ATOM     47  C   UNL     1       2.038   4.341   2.560  1.00  0.00     0.074 A 
ATOM     48  C   UNL     1       2.630   1.973   2.844  1.00  0.00     0.049 A 
ATOM     49  N   UNL     1       1.875   4.709   3.807  1.00  0.00    -0.248 NA
ATOM     50  C   UNL     1       1.755   5.402   1.579  1.00  0.00     0.031 C 
ATOM     51  C   UNL     1       2.987   0.613   2.465  1.00  0.00     0.029 A 
ATOM     52  N   UNL     1       2.475   1.903   4.212  1.00  0.00    -0.354 N 
ATOM     53  C   UNL     1       1.497   6.046   3.758  1.00  0.00     0.074 A 
ATOM     54  C   UNL     1       1.445   6.421   2.363  1.00  0.00     0.031 C 
ATOM     55  C   UNL     1       2.948  -0.175   3.555  1.00  0.00     0.029 A 
ATOM     56  C   UNL     1       2.687   0.647   4.735  1.00  0.00     0.049 A 
ATOM     57  H   UNL     1       2.235   2.682   4.766  1.00  0.00     0.167 HD
ATOM     58  C   UNL     1       1.241   6.899   4.778  1.00  0.00     0.031 A 
ATOM     59  C   UNL     1       2.721   0.217   6.016  1.00  0.00     0.031 A 
ATOM     60  C   UNL     1       1.338   6.559   6.171  1.00  0.00     0.049 A 
ATOM     61  C   UNL     1       2.552   1.216   7.138  1.00  0.00     0.074 A 
ATOM     62  C   UNL     1       1.159   7.378   7.272  1.00  0.00     0.029 A 
ATOM     63  N   UNL     1       1.648   5.299   6.654  1.00  0.00    -0.354 N 
ATOM     64  N   UNL     1       2.244   2.489   7.080  1.00  0.00    -0.248 NA
ATOM     65  C   UNL     1       2.770   0.719   8.508  1.00  0.00     0.031 C 
ATOM     66  C   UNL     1       1.421   6.628   8.422  1.00  0.00     0.029 A 
ATOM     67  C   UNL     1       1.688   5.324   8.039  1.00  0.00     0.049 A 
ATOM     68  H   UNL     1       1.815   4.505   6.098  1.00  0.00     0.167 HD
ATOM     69  C   UNL     1       2.210   2.934   8.398  1.00  0.00     0.074 A 
ATOM     70  C   UNL     1       2.504   1.793   9.237  1.00  0.00     0.031 C 
ATOM     71  C   UNL     1       1.966   4.182   8.870  1.00  0.00     0.031 A 
BRANCH  58  72
ATOM     72  C   UNL     1       0.916   8.320   4.408  1.00  0.00    -0.014 A 
ATOM     73  C   UNL     1      -0.309   8.663   3.816  1.00  0.00     0.009 A 
ATOM     74  C   UNL     1       1.861   9.329   4.652  1.00  0.00     0.009 A 
ATOM     75  C   UNL     1      -0.563   9.983   3.438  1.00  0.00     0.001 A 
ATOM     76  C   UNL     1       1.591  10.652   4.304  1.00  0.00     0.001 A 
ATOM     77  C   UNL     1       0.385  10.976   3.686  1.00  0.00     0.000 A 
ENDBRANCH  58  72
BRANCH  59  78
ATOM     78  C   UNL     1       3.026  -1.208   6.344  1.00  0.00    -0.014 A 
ATOM     79  C   UNL     1       2.107  -2.001   7.052  1.00  0.00     0.009 A 
ATOM     80  C   UNL     1       4.279  -1.760   6.028  1.00  0.00     0.009 A 
ATOM     81  C   UNL     1       2.448  -3.294   7.464  1.00  0.00     0.001 A 
ATOM     82  C   UNL     1       4.602  -3.066   6.405  1.00  0.00     0.001 A 
ATOM     83  C   UNL     1       3.693  -3.827   7.136  1.00  0.00     0.000 A 
ENDBRANCH  59  78
BRANCH  71  84
ATOM     84  C   UNL     1       1.943   4.376  10.363  1.00  0.00    -0.014 A 
ATOM     85  C   UNL     1       3.115   4.324  11.133  1.00  0.00     0.009 A 
ATOM     86  C   UNL     1       0.727   4.674  11.000  1.00  0.00     0.009 A 
ATOM     87  C   UNL     1       3.064   4.532  12.514  1.00  0.00     0.001 A 
ATOM     88  C   UNL     1       0.684   4.914  12.375  1.00  0.00     0.001 A 
ATOM     89  C   UNL     1       1.851   4.833  13.132  1.00  0.00     0.000 A 
ENDBRANCH  71  84
ENDBRANCH  45  46
ENDBRANCH  38  40
ENDBRANCH  37  38
ENDBRANCH  36  37
ENDBRANCH  35  36
ENDBRANCH  34  35
ENDBRANCH  33  34
ENDBRANCH  32  33
ENDBRANCH  31  32
ENDBRANCH  30  31
ENDBRANCH  29  30
ENDBRANCH   1  29
TORSDOF 26
