REMARK SMILES CCc1ccc(-c2cc(Cl)cc3c2O[C@@H](C(F)(F)F)C(C(=O)OCCOCCOCCOCCOC(=O)c2ccc(-c4c5nc(c(-c6ccccc6)c6ccc([nH]6)c(-c6ccccc6)c6nc(c(-c7ccccc7)c7ccc4[nH]7)C=C6)C=C5)cc2)=C3)cc1
REMARK SMILES IDX 29 1 28 2 27 3 26 4 25 5 24 6 23 7 21 8 22 9 20 10 7 11 8 12
REMARK SMILES IDX 13 13 9 14 12 15 14 16 10 17 11 18 86 19 15 20 6 21 3 22
REMARK SMILES IDX 4 23 88 24 5 25 87 26 2 27 1 28 16 29 17 30 18 31 19 32
REMARK SMILES IDX 30 33 31 34 32 35 33 36 34 37 35 38 36 39 37 40 38 41 39 42
REMARK SMILES IDX 85 43 40 44 84 45 41 46 42 47 43 48 78 49 44 50 83 51 77 52
REMARK SMILES IDX 79 53 45 54 82 55 76 56 75 57 46 59 68 60 53 61 67 62 54 63
REMARK SMILES IDX 57 64 66 65 80 66 55 67 56 68 65 70 81 71 58 72 47 73 48 74
REMARK SMILES IDX 52 75 49 76 51 77 50 78 69 79 70 80 74 81 71 82 73 83 72 84
REMARK SMILES IDX 59 85 60 86 64 87 61 88 63 89 62 90
REMARK H PARENT 79 58 57 69
REMARK Flexibility Score: inf
ROOT
ATOM      1  O   UNL     1      -0.436 -11.334   6.409  1.00  0.00    -0.377 OA
ENDROOT
BRANCH   1   2
ATOM      2  C   UNL     1      -0.472 -10.133   5.663  1.00  0.00     0.188 C 
BRANCH   2   3
ATOM      3  C   UNL     1       0.874  -9.787   5.012  1.00  0.00     0.188 C 
BRANCH   3   4
ATOM      4  O   UNL     1       1.846 -10.825   5.112  1.00  0.00    -0.376 OA
BRANCH   4   5
ATOM      5  C   UNL     1       2.780 -10.749   6.188  1.00  0.00     0.202 C 
BRANCH   5   6
ATOM      6  C   UNL     1       2.212 -10.534   7.597  1.00  0.00     0.261 C 
BRANCH   6   7
ATOM      7  O   UNL     1       1.653  -9.206   7.717  1.00  0.00    -0.460 OA
BRANCH   7   8
ATOM      8  C   UNL     1       2.505  -8.243   8.104  1.00  0.00     0.338 C 
ATOM      9  O   UNL     1       3.644  -8.442   8.507  1.00  0.00    -0.246 OA
BRANCH   8  10
ATOM     10  C   UNL     1       1.994  -6.879   7.820  1.00  0.00     0.087 C 
ATOM     11  C   UNL     1       1.198  -6.087   3.825  1.00  0.00     0.026 A 
ATOM     12  C   UNL     1       2.098  -6.861   3.053  1.00  0.00     0.033 A 
ATOM     13  C   UNL     1       1.384  -6.134   5.222  1.00  0.00     0.135 A 
ATOM     14  C   UNL     1       3.265  -7.383   3.607  1.00  0.00     0.042 A 
ATOM     15  C   UNL     1       2.661  -6.448   5.719  1.00  0.00     0.019 A 
ATOM     16  O   UNL     1       0.301  -6.115   6.096  1.00  0.00    -0.475 OA
ATOM     17  Cl  UNL     1       4.330  -8.317   2.636  1.00  0.00    -0.084 Cl
ATOM     18  C   UNL     1       3.602  -7.087   4.918  1.00  0.00     0.032 A 
ATOM     19  C   UNL     1       2.937  -6.194   7.149  1.00  0.00     0.027 C 
ATOM     20  C   UNL     1       0.571  -6.432   7.534  1.00  0.00     0.316 C 
BRANCH  11  21
ATOM     21  C   UNL     1       0.573  -4.941   3.081  1.00  0.00    -0.015 A 
ATOM     22  C   UNL     1       0.370  -2.748   1.230  1.00  0.00    -0.048 A 
ATOM     23  C   UNL     1      -0.064  -4.037   0.887  1.00  0.00     0.004 A 
ATOM     24  C   UNL     1       0.800  -2.544   2.543  1.00  0.00     0.004 A 
ATOM     25  C   UNL     1       0.022  -5.109   1.796  1.00  0.00     0.009 A 
ATOM     26  C   UNL     1       0.893  -3.619   3.451  1.00  0.00     0.009 A 
BRANCH  22  27
ATOM     27  C   UNL     1       0.382  -1.682   0.152  1.00  0.00     0.032 C 
ATOM     28  C   UNL     1       1.002  -0.329   0.490  1.00  0.00     0.009 C 
ENDBRANCH  22  27
ENDBRANCH  11  21
BRANCH  20  29
ATOM     29  C   UNL     1      -0.576  -7.145   8.294  1.00  0.00     0.430 C 
ATOM     30  F   UNL     1      -0.535  -6.789   9.607  1.00  0.00    -0.167 F 
ATOM     31  F   UNL     1      -1.790  -6.763   7.832  1.00  0.00    -0.167 F 
ATOM     32  F   UNL     1      -0.553  -8.486   8.274  1.00  0.00    -0.167 F 
ENDBRANCH  20  29
ENDBRANCH   8  10
ENDBRANCH   7   8
ENDBRANCH   6   7
ENDBRANCH   5   6
ENDBRANCH   4   5
ENDBRANCH   3   4
ENDBRANCH   2   3
ENDBRANCH   1   2
BRANCH   1  33
ATOM     33  C   UNL     1      -0.553 -12.560   5.694  1.00  0.00     0.188 C 
BRANCH  33  34
ATOM     34  C   UNL     1      -0.235 -12.655   4.184  1.00  0.00     0.188 C 
BRANCH  34  35
ATOM     35  O   UNL     1      -0.767 -11.593   3.395  1.00  0.00    -0.376 OA
BRANCH  35  36
ATOM     36  C   UNL     1      -1.893 -11.890   2.581  1.00  0.00     0.202 C 
BRANCH  36  37
ATOM     37  C   UNL     1      -3.224 -11.911   3.344  1.00  0.00     0.261 C 
BRANCH  37  38
ATOM     38  O   UNL     1      -3.322 -12.937   4.343  1.00  0.00    -0.460 OA
BRANCH  38  39
ATOM     39  C   UNL     1      -3.211 -14.212   3.914  1.00  0.00     0.338 C 
ATOM     40  O   UNL     1      -3.127 -14.599   2.761  1.00  0.00    -0.246 OA
BRANCH  39  41
ATOM     41  C   UNL     1      -3.005 -15.076   5.091  1.00  0.00     0.060 A 
ATOM     42  C   UNL     1      -1.896 -15.931   5.103  1.00  0.00     0.016 A 
ATOM     43  C   UNL     1      -3.890 -15.043   6.172  1.00  0.00     0.016 A 
ATOM     44  C   UNL     1      -1.701 -16.799   6.174  1.00  0.00     0.010 A 
ATOM     45  C   UNL     1      -3.705 -15.927   7.237  1.00  0.00     0.010 A 
ATOM     46  C   UNL     1      -2.635 -16.838   7.218  1.00  0.00    -0.014 A 
BRANCH  46  47
ATOM     47  C   UNL     1      -2.618 -17.988   8.151  1.00  0.00     0.031 A 
ATOM     48  C   UNL     1      -3.476 -19.179   7.815  1.00  0.00     0.074 A 
ATOM     49  C   UNL     1      -1.834 -18.002   9.242  1.00  0.00     0.049 A 
ATOM     50  N   UNL     1      -3.598 -20.318   8.445  1.00  0.00    -0.248 NA
ATOM     51  C   UNL     1      -4.306 -19.069   6.602  1.00  0.00     0.031 C 
ATOM     52  C   UNL     1      -0.939 -16.926   9.660  1.00  0.00     0.029 A 
ATOM     53  N   UNL     1      -1.668 -18.972  10.198  1.00  0.00    -0.354 N 
ATOM     54  C   UNL     1      -4.512 -21.058   7.706  1.00  0.00     0.074 A 
ATOM     55  C   UNL     1      -4.939 -20.231   6.600  1.00  0.00     0.031 C 
ATOM     56  C   UNL     1      -0.318 -17.294  10.796  1.00  0.00     0.029 A 
ATOM     57  C   UNL     1      -0.787 -18.622  11.191  1.00  0.00     0.049 A 
ATOM     58  H   UNL     1      -2.137 -19.838  10.175  1.00  0.00     0.167 HD
ATOM     59  C   UNL     1      -4.952 -22.319   7.921  1.00  0.00     0.031 A 
ATOM     60  C   UNL     1      -0.414 -19.295  12.297  1.00  0.00     0.031 A 
ATOM     61  C   UNL     1      -4.544 -23.140   9.027  1.00  0.00     0.049 A 
ATOM     62  C   UNL     1      -0.973 -20.672  12.550  1.00  0.00     0.074 A 
ATOM     63  C   UNL     1      -4.918 -24.439   9.319  1.00  0.00     0.029 A 
ATOM     64  N   UNL     1      -3.680 -22.733  10.030  1.00  0.00    -0.354 N 
ATOM     65  N   UNL     1      -1.792 -21.383  11.813  1.00  0.00    -0.248 NA
ATOM     66  C   UNL     1      -0.542 -21.344  13.786  1.00  0.00     0.031 C 
ATOM     67  C   UNL     1      -4.322 -24.800  10.531  1.00  0.00     0.029 A 
ATOM     68  C   UNL     1      -3.533 -23.745  10.962  1.00  0.00     0.049 A 
ATOM     69  H   UNL     1      -3.237 -21.855  10.074  1.00  0.00     0.167 HD
ATOM     70  C   UNL     1      -1.953 -22.591  12.481  1.00  0.00     0.074 A 
ATOM     71  C   UNL     1      -1.133 -22.525  13.672  1.00  0.00     0.031 C 
ATOM     72  C   UNL     1      -2.712 -23.662  12.140  1.00  0.00     0.031 A 
BRANCH  59  73
ATOM     73  C   UNL     1      -5.953 -22.875   6.950  1.00  0.00    -0.014 A 
ATOM     74  C   UNL     1      -5.575 -23.255   5.653  1.00  0.00     0.009 A 
ATOM     75  C   UNL     1      -7.286 -23.049   7.351  1.00  0.00     0.009 A 
ATOM     76  C   UNL     1      -6.521 -23.776   4.768  1.00  0.00     0.001 A 
ATOM     77  C   UNL     1      -8.224 -23.592   6.472  1.00  0.00     0.001 A 
ATOM     78  C   UNL     1      -7.842 -23.948   5.180  1.00  0.00     0.000 A 
ENDBRANCH  59  73
BRANCH  60  79
ATOM     79  C   UNL     1       0.525 -18.678  13.271  1.00  0.00    -0.014 A 
ATOM     80  C   UNL     1       1.819 -19.190  13.448  1.00  0.00     0.009 A 
ATOM     81  C   UNL     1       0.110 -17.598  14.066  1.00  0.00     0.009 A 
ATOM     82  C   UNL     1       2.666 -18.655  14.422  1.00  0.00     0.001 A 
ATOM     83  C   UNL     1       0.968 -17.046  15.019  1.00  0.00     0.001 A 
ATOM     84  C   UNL     1       2.241 -17.583  15.205  1.00  0.00     0.000 A 
ENDBRANCH  60  79
BRANCH  72  85
ATOM     85  C   UNL     1      -2.668 -24.858  13.049  1.00  0.00    -0.014 A 
ATOM     86  C   UNL     1      -3.292 -24.842  14.306  1.00  0.00     0.009 A 
ATOM     87  C   UNL     1      -2.036 -26.035  12.617  1.00  0.00     0.009 A 
ATOM     88  C   UNL     1      -3.255 -25.972  15.126  1.00  0.00     0.001 A 
ATOM     89  C   UNL     1      -2.026 -27.172  13.427  1.00  0.00     0.001 A 
ATOM     90  C   UNL     1      -2.627 -27.136  14.684  1.00  0.00     0.000 A 
ENDBRANCH  72  85
ENDBRANCH  46  47
ENDBRANCH  39  41
ENDBRANCH  38  39
ENDBRANCH  37  38
ENDBRANCH  36  37
ENDBRANCH  35  36
ENDBRANCH  34  35
ENDBRANCH  33  34
ENDBRANCH   1  33
TORSDOF 23
