REMARK SMILES CC1(C)CCC[C@H]1NC(=O)N[C@@H]1COC[C@@]1(C)C(=O)OCCOCCOCCOCCOC(=O)c1ccc(-c2c3nc(c(-c4ccccc4)c4ccc([nH]4)c(-c4ccccc4)c4nc(c(-c5ccccc5)c5ccc2[nH]5)C=C4)C=C3)cc1
REMARK SMILES IDX 26 1 25 2 24 3 23 4 22 5 21 6 20 7 18 8 19 9 16 10 12 11
REMARK SMILES IDX 13 12 14 13 15 14 17 15 11 16 8 17 9 18 10 20 7 22 1 23 2 24
REMARK SMILES IDX 3 25 4 26 5 27 6 28 27 29 28 30 29 31 30 32 31 33 32 34
REMARK SMILES IDX 33 35 34 36 35 37 36 38 82 39 37 40 81 41 38 42 39 43 40 44
REMARK SMILES IDX 75 45 41 46 80 47 74 48 76 49 42 50 79 51 73 52 72 53 43 55
REMARK SMILES IDX 65 56 50 57 64 58 51 59 54 60 63 61 77 62 52 63 53 64 62 66
REMARK SMILES IDX 78 67 55 68 44 69 45 70 49 71 46 72 48 73 47 74 66 75 67 76
REMARK SMILES IDX 71 77 68 78 70 79 69 80 56 81 57 82 61 83 58 84 60 85 59 86
REMARK H PARENT 8 19 11 21 76 54 54 65
REMARK Flexibility Score: inf
ROOT
ATOM      1  O   UNL     1       4.532   0.490  -0.554  1.00  0.00    -0.377 OA
ENDROOT
BRANCH   1   2
ATOM      2  C   UNL     1       4.257   0.391  -1.943  1.00  0.00     0.188 C 
BRANCH   2   3
ATOM      3  C   UNL     1       4.480   1.740  -2.630  1.00  0.00     0.188 C 
BRANCH   3   4
ATOM      4  O   UNL     1       5.775   2.315  -2.453  1.00  0.00    -0.376 OA
BRANCH   4   5
ATOM      5  C   UNL     1       6.101   2.825  -1.153  1.00  0.00     0.202 C 
BRANCH   5   6
ATOM      6  C   UNL     1       5.270   4.028  -0.663  1.00  0.00     0.261 C 
BRANCH   6   7
ATOM      7  O   UNL     1       3.944   3.610  -0.297  1.00  0.00    -0.463 OA
BRANCH   7   8
ATOM      8  C   UNL     1       2.824   4.271  -0.720  1.00  0.00     0.316 C 
ATOM      9  O   UNL     1       2.827   5.346  -1.302  1.00  0.00    -0.251 OA
BRANCH   8  10
ATOM     10  C   UNL     1       1.577   3.390  -0.495  1.00  0.00     0.111 C 
ATOM     11  C   UNL     1       0.326   4.116   0.012  1.00  0.00     0.129 C 
ATOM     12  C   UNL     1      -0.751   3.942  -1.053  1.00  0.00     0.186 C 
ATOM     13  O   UNL     1      -0.272   3.017  -2.024  1.00  0.00    -0.378 OA
ATOM     14  C   UNL     1       1.143   2.880  -1.874  1.00  0.00     0.181 C 
ATOM     15  C   UNL     1       1.995   2.280   0.453  1.00  0.00     0.028 C 
BRANCH  11  16
ATOM     16  N   UNL     1      -0.158   3.791   1.376  1.00  0.00    -0.332 N 
ATOM     17  N   UNL     1      -0.917   1.537   1.730  1.00  0.00    -0.335 N 
ATOM     18  C   UNL     1      -0.645   2.788   2.110  1.00  0.00     0.315 C 
ATOM     19  H   UNL     1      -1.124   0.971   2.509  1.00  0.00     0.165 HD
ATOM     20  O   UNL     1      -0.839   3.049   3.303  1.00  0.00    -0.249 OA
ATOM     21  H   UNL     1      -0.098   4.597   1.937  1.00  0.00     0.165 HD
BRANCH  17  22
ATOM     22  C   UNL     1      -0.995   0.762   0.486  1.00  0.00     0.089 C 
ATOM     23  C   UNL     1       0.951  -0.786   1.488  1.00  0.00     0.013 C 
ATOM     24  C   UNL     1      -0.224  -0.614   0.507  1.00  0.00    -0.015 C 
ATOM     25  C   UNL     1       0.301  -0.923  -0.914  1.00  0.00     0.013 C 
ATOM     26  C   UNL     1      -1.315  -1.620   0.897  1.00  0.00     0.008 C 
ATOM     27  C   UNL     1      -2.556  -1.135   0.176  1.00  0.00     0.003 C 
ATOM     28  C   UNL     1      -2.467   0.389   0.206  1.00  0.00     0.025 C 
ENDBRANCH  17  22
ENDBRANCH  11  16
ENDBRANCH   8  10
ENDBRANCH   7   8
ENDBRANCH   6   7
ENDBRANCH   5   6
ENDBRANCH   4   5
ENDBRANCH   3   4
ENDBRANCH   2   3
ENDBRANCH   1   2
BRANCH   1  29
ATOM     29  C   UNL     1       5.118  -0.608   0.133  1.00  0.00     0.188 C 
BRANCH  29  30
ATOM     30  C   UNL     1       5.919  -1.596  -0.715  1.00  0.00     0.188 C 
BRANCH  30  31
ATOM     31  O   UNL     1       5.181  -2.474  -1.572  1.00  0.00    -0.376 OA
BRANCH  31  32
ATOM     32  C   UNL     1       3.864  -2.872  -1.197  1.00  0.00     0.202 C 
BRANCH  32  33
ATOM     33  C   UNL     1       3.792  -4.059  -0.238  1.00  0.00     0.261 C 
BRANCH  33  34
ATOM     34  O   UNL     1       4.216  -3.686   1.081  1.00  0.00    -0.460 OA
BRANCH  34  35
ATOM     35  C   UNL     1       5.496  -4.010   1.371  1.00  0.00     0.338 C 
ATOM     36  O   UNL     1       6.289  -4.613   0.674  1.00  0.00    -0.246 OA
BRANCH  35  37
ATOM     37  C   UNL     1       5.875  -3.381   2.646  1.00  0.00     0.060 A 
ATOM     38  C   UNL     1       7.098  -2.702   2.701  1.00  0.00     0.016 A 
ATOM     39  C   UNL     1       5.095  -3.555   3.791  1.00  0.00     0.016 A 
ATOM     40  C   UNL     1       7.590  -2.266   3.922  1.00  0.00     0.010 A 
ATOM     41  C   UNL     1       5.595  -3.128   5.020  1.00  0.00     0.010 A 
ATOM     42  C   UNL     1       6.870  -2.541   5.090  1.00  0.00    -0.014 A 
BRANCH  42  43
ATOM     43  C   UNL     1       7.573  -2.439   6.385  1.00  0.00     0.031 A 
ATOM     44  C   UNL     1       8.154  -3.694   6.977  1.00  0.00     0.074 A 
ATOM     45  C   UNL     1       7.754  -1.247   6.972  1.00  0.00     0.049 A 
ATOM     46  N   UNL     1       8.830  -3.853   8.085  1.00  0.00    -0.248 NA
ATOM     47  C   UNL     1       7.945  -4.939   6.216  1.00  0.00     0.031 C 
ATOM     48  C   UNL     1       7.285   0.035   6.448  1.00  0.00     0.029 A 
ATOM     49  N   UNL     1       8.395  -0.925   8.139  1.00  0.00    -0.354 N 
ATOM     50  C   UNL     1       9.117  -5.211   8.156  1.00  0.00     0.074 A 
ATOM     51  C   UNL     1       8.513  -5.838   7.003  1.00  0.00     0.031 C 
ATOM     52  C   UNL     1       7.658   1.011   7.294  1.00  0.00     0.029 A 
ATOM     53  C   UNL     1       8.359   0.415   8.429  1.00  0.00     0.049 A 
ATOM     54  H   UNL     1       8.838  -1.591   8.713  1.00  0.00     0.167 HD
ATOM     55  C   UNL     1       9.830  -5.874   9.096  1.00  0.00     0.031 A 
ATOM     56  C   UNL     1       8.829   1.077   9.502  1.00  0.00     0.031 A 
ATOM     57  C   UNL     1      10.413  -5.242  10.248  1.00  0.00     0.049 A 
ATOM     58  C   UNL     1       9.547   0.303  10.575  1.00  0.00     0.074 A 
ATOM     59  C   UNL     1      11.155  -5.814  11.265  1.00  0.00     0.029 A 
ATOM     60  N   UNL     1      10.310  -3.889  10.536  1.00  0.00    -0.354 N 
ATOM     61  N   UNL     1       9.827  -0.978  10.628  1.00  0.00    -0.248 NA
ATOM     62  C   UNL     1      10.028   1.073  11.729  1.00  0.00     0.031 C 
ATOM     63  C   UNL     1      11.447  -4.817  12.202  1.00  0.00     0.029 A 
ATOM     64  C   UNL     1      10.953  -3.610  11.730  1.00  0.00     0.049 A 
ATOM     65  H   UNL     1       9.849  -3.224   9.975  1.00  0.00     0.167 HD
ATOM     66  C   UNL     1      10.547  -1.161  11.802  1.00  0.00     0.074 A 
ATOM     67  C   UNL     1      10.675   0.145  12.418  1.00  0.00     0.031 C 
ATOM     68  C   UNL     1      11.062  -2.302  12.324  1.00  0.00     0.031 A 
BRANCH  55  69
ATOM     69  C   UNL     1       9.973  -7.363   8.934  1.00  0.00    -0.014 A 
ATOM     70  C   UNL     1      10.746  -7.921   7.902  1.00  0.00     0.009 A 
ATOM     71  C   UNL     1       9.331  -8.224   9.838  1.00  0.00     0.009 A 
ATOM     72  C   UNL     1      10.841  -9.308   7.759  1.00  0.00     0.001 A 
ATOM     73  C   UNL     1       9.454  -9.608   9.712  1.00  0.00     0.001 A 
ATOM     74  C   UNL     1      10.200 -10.150   8.667  1.00  0.00     0.000 A 
ENDBRANCH  55  69
BRANCH  56  75
ATOM     75  C   UNL     1       8.626   2.544   9.620  1.00  0.00    -0.014 A 
ATOM     76  C   UNL     1       9.715   3.428   9.567  1.00  0.00     0.009 A 
ATOM     77  C   UNL     1       7.337   3.070   9.805  1.00  0.00     0.009 A 
ATOM     78  C   UNL     1       9.521   4.802   9.726  1.00  0.00     0.001 A 
ATOM     79  C   UNL     1       7.142   4.446   9.931  1.00  0.00     0.001 A 
ATOM     80  C   UNL     1       8.235   5.310   9.903  1.00  0.00     0.000 A 
ENDBRANCH  56  75
BRANCH  68  81
ATOM     81  C   UNL     1      11.852  -2.175  13.599  1.00  0.00    -0.014 A 
ATOM     82  C   UNL     1      11.237  -1.852  14.818  1.00  0.00     0.009 A 
ATOM     83  C   UNL     1      13.238  -2.406  13.576  1.00  0.00     0.009 A 
ATOM     84  C   UNL     1      12.002  -1.712  15.978  1.00  0.00     0.001 A 
ATOM     85  C   UNL     1      13.993  -2.303  14.745  1.00  0.00     0.001 A 
ATOM     86  C   UNL     1      13.377  -1.942  15.941  1.00  0.00     0.000 A 
ENDBRANCH  68  81
ENDBRANCH  42  43
ENDBRANCH  35  37
ENDBRANCH  34  35
ENDBRANCH  33  34
ENDBRANCH  32  33
ENDBRANCH  31  32
ENDBRANCH  30  31
ENDBRANCH  29  30
ENDBRANCH   1  29
TORSDOF 22
