REMARK SMILES O=C(OCCOCCOCCOCCOC(=O)c1ccc2c(c1)[C@@H]1C=CC[C@@H]1[C@H](c1ccncc1)N2)c1ccc(-c2c3nc(c(-c4ccccc4)c4ccc([nH]4)c(-c4ccccc4)c4nc(c(-c5ccccc5)c5ccc2[nH]5)C=C4)C=C3)cc1
REMARK SMILES IDX 8 1 7 2 6 3 5 4 4 5 3 6 2 7 1 8 37 9 38 10 84 11 39 12 83 13
REMARK SMILES IDX 40 14 41 15 42 16 77 17 43 18 82 19 76 20 78 21 44 22 81 23
REMARK SMILES IDX 75 24 74 25 45 27 67 28 52 29 66 30 53 31 56 32 65 33 79 34
REMARK SMILES IDX 54 35 55 36 64 38 80 39 57 40 46 41 47 42 51 43 48 44 50 45
REMARK SMILES IDX 49 46 68 47 69 48 73 49 70 50 72 51 71 52 58 53 59 54 63 55
REMARK SMILES IDX 60 56 62 57 61 58 9 59 10 60 11 61 12 62 13 63 14 64 15 65
REMARK SMILES IDX 16 66 17 67 18 68 19 69 23 70 20 71 22 72 21 73 24 74 36 75
REMARK SMILES IDX 25 76 28 77 29 78 26 80 27 81 30 82 31 83 35 84 32 85 34 86
REMARK SMILES IDX 33 87
REMARK H PARENT 78 26 56 37 36 79
REMARK Flexibility Score: inf
ROOT
ATOM      1  C   UNL     1       1.714   0.557  -2.727  1.00  0.00     0.188 C 
ENDROOT
BRANCH   1   2
ATOM      2  C   UNL     1       2.155  -0.370  -1.598  1.00  0.00     0.188 C 
BRANCH   2   3
ATOM      3  O   UNL     1       3.460  -0.017  -1.137  1.00  0.00    -0.376 OA
BRANCH   3   4
ATOM      4  C   UNL     1       4.272  -1.099  -0.689  1.00  0.00     0.202 C 
BRANCH   4   5
ATOM      5  C   UNL     1       3.866  -1.705   0.659  1.00  0.00     0.261 C 
BRANCH   5   6
ATOM      6  O   UNL     1       2.484  -1.501   0.995  1.00  0.00    -0.460 OA
BRANCH   6   7
ATOM      7  C   UNL     1       1.927  -0.498   1.718  1.00  0.00     0.338 C 
ATOM      8  O   UNL     1       0.737  -0.583   2.019  1.00  0.00    -0.246 OA
BRANCH   7   9
ATOM      9  C   UNL     1       2.678   0.700   2.200  1.00  0.00     0.060 A 
ATOM     10  C   UNL     1       3.791   1.257   1.572  1.00  0.00     0.016 A 
ATOM     11  C   UNL     1       2.183   1.349   3.343  1.00  0.00     0.016 A 
ATOM     12  C   UNL     1       4.483   2.325   2.124  1.00  0.00     0.010 A 
ATOM     13  C   UNL     1       2.845   2.455   3.886  1.00  0.00     0.010 A 
ATOM     14  C   UNL     1       4.040   2.901   3.309  1.00  0.00    -0.014 A 
BRANCH  14  15
ATOM     15  C   UNL     1       4.984   3.768   4.040  1.00  0.00     0.031 A 
ATOM     16  C   UNL     1       5.660   3.183   5.248  1.00  0.00     0.074 A 
ATOM     17  C   UNL     1       5.356   4.959   3.540  1.00  0.00     0.049 A 
ATOM     18  N   UNL     1       6.490   3.739   6.088  1.00  0.00    -0.248 NA
ATOM     19  C   UNL     1       5.364   1.768   5.545  1.00  0.00     0.031 C 
ATOM     20  C   UNL     1       4.874   5.539   2.284  1.00  0.00     0.029 A 
ATOM     21  N   UNL     1       6.265   5.871   4.002  1.00  0.00    -0.354 N 
ATOM     22  C   UNL     1       6.762   2.764   7.041  1.00  0.00     0.074 A 
ATOM     23  C   UNL     1       6.017   1.582   6.679  1.00  0.00     0.031 C 
ATOM     24  C   UNL     1       5.529   6.689   2.054  1.00  0.00     0.029 A 
ATOM     25  C   UNL     1       6.415   6.962   3.181  1.00  0.00     0.049 A 
ATOM     26  H   UNL     1       6.764   5.757   4.843  1.00  0.00     0.167 HD
ATOM     27  C   UNL     1       7.558   2.854   8.130  1.00  0.00     0.031 A 
ATOM     28  C   UNL     1       7.168   8.065   3.346  1.00  0.00     0.031 A 
ATOM     29  C   UNL     1       8.306   4.034   8.455  1.00  0.00     0.049 A 
ATOM     30  C   UNL     1       7.987   8.177   4.603  1.00  0.00     0.074 A 
ATOM     31  C   UNL     1       9.091   4.289   9.562  1.00  0.00     0.029 A 
ATOM     32  N   UNL     1       8.366   5.160   7.645  1.00  0.00    -0.354 N 
ATOM     33  N   UNL     1       8.155   7.294   5.561  1.00  0.00    -0.248 NA
ATOM     34  C   UNL     1       8.706   9.439   4.812  1.00  0.00     0.031 C 
ATOM     35  C   UNL     1       9.598   5.588   9.439  1.00  0.00     0.029 A 
ATOM     36  C   UNL     1       9.170   6.119   8.230  1.00  0.00     0.049 A 
ATOM     37  H   UNL     1       7.904   5.261   6.782  1.00  0.00     0.167 HD
ATOM     38  C   UNL     1       9.011   7.887   6.479  1.00  0.00     0.074 A 
ATOM     39  C   UNL     1       9.344   9.196   5.949  1.00  0.00     0.031 C 
ATOM     40  C   UNL     1       9.479   7.403   7.657  1.00  0.00     0.031 A 
BRANCH  27  41
ATOM     41  C   UNL     1       7.561   1.679   9.066  1.00  0.00    -0.014 A 
ATOM     42  C   UNL     1       8.186   0.466   8.734  1.00  0.00     0.009 A 
ATOM     43  C   UNL     1       6.860   1.772  10.278  1.00  0.00     0.009 A 
ATOM     44  C   UNL     1       8.067  -0.642   9.577  1.00  0.00     0.001 A 
ATOM     45  C   UNL     1       6.766   0.671  11.131  1.00  0.00     0.001 A 
ATOM     46  C   UNL     1       7.358  -0.539  10.774  1.00  0.00     0.000 A 
ENDBRANCH  27  41
BRANCH  28  47
ATOM     47  C   UNL     1       7.143   9.159   2.337  1.00  0.00    -0.014 A 
ATOM     48  C   UNL     1       8.290   9.488   1.598  1.00  0.00     0.009 A 
ATOM     49  C   UNL     1       5.967   9.896   2.115  1.00  0.00     0.009 A 
ATOM     50  C   UNL     1       8.265  10.540   0.677  1.00  0.00     0.001 A 
ATOM     51  C   UNL     1       5.935  10.926   1.172  1.00  0.00     0.001 A 
ATOM     52  C   UNL     1       7.087  11.254   0.461  1.00  0.00     0.000 A 
ENDBRANCH  28  47
BRANCH  40  53
ATOM     53  C   UNL     1      10.431   8.280   8.414  1.00  0.00    -0.014 A 
ATOM     54  C   UNL     1       9.982   9.413   9.108  1.00  0.00     0.009 A 
ATOM     55  C   UNL     1      11.790   7.934   8.466  1.00  0.00     0.009 A 
ATOM     56  C   UNL     1      10.888  10.205   9.814  1.00  0.00     0.001 A 
ATOM     57  C   UNL     1      12.687   8.712   9.196  1.00  0.00     0.001 A 
ATOM     58  C   UNL     1      12.237   9.851   9.861  1.00  0.00     0.000 A 
ENDBRANCH  40  53
ENDBRANCH  14  15
ENDBRANCH   7   9
ENDBRANCH   6   7
ENDBRANCH   5   6
ENDBRANCH   4   5
ENDBRANCH   3   4
ENDBRANCH   2   3
ENDBRANCH   1   2
BRANCH   1  59
ATOM     59  O   UNL     1       2.420   0.391  -3.952  1.00  0.00    -0.377 OA
BRANCH  59  60
ATOM     60  C   UNL     1       3.841   0.385  -3.876  1.00  0.00     0.188 C 
BRANCH  60  61
ATOM     61  C   UNL     1       4.554   1.623  -3.288  1.00  0.00     0.188 C 
BRANCH  61  62
ATOM     62  O   UNL     1       3.692   2.685  -2.900  1.00  0.00    -0.376 OA
BRANCH  62  63
ATOM     63  C   UNL     1       3.705   3.824  -3.755  1.00  0.00     0.202 C 
BRANCH  63  64
ATOM     64  C   UNL     1       3.000   3.625  -5.105  1.00  0.00     0.261 C 
BRANCH  64  65
ATOM     65  O   UNL     1       3.561   2.600  -5.945  1.00  0.00    -0.460 OA
BRANCH  65  66
ATOM     66  C   UNL     1       4.820   2.765  -6.406  1.00  0.00     0.338 C 
ATOM     67  O   UNL     1       5.541   3.736  -6.249  1.00  0.00    -0.246 OA
BRANCH  66  68
ATOM     68  C   UNL     1       5.267   1.450  -6.923  1.00  0.00     0.060 A 
ATOM     69  C   UNL     1       6.394   0.855  -6.348  1.00  0.00     0.018 A 
ATOM     70  C   UNL     1       4.503   0.742  -7.855  1.00  0.00     0.022 A 
ATOM     71  C   UNL     1       6.720  -0.466  -6.666  1.00  0.00     0.027 A 
ATOM     72  C   UNL     1       4.865  -0.568  -8.225  1.00  0.00    -0.017 A 
ATOM     73  C   UNL     1       5.985  -1.176  -7.625  1.00  0.00     0.038 A 
ATOM     74  C   UNL     1       4.091  -1.280  -9.312  1.00  0.00     0.049 C 
ATOM     75  N   UNL     1       6.377  -2.470  -7.967  1.00  0.00    -0.378 N 
ATOM     76  C   UNL     1       2.645  -1.534  -8.986  1.00  0.00    -0.023 C 
ATOM     77  C   UNL     1       4.587  -2.703  -9.643  1.00  0.00     0.031 C 
ATOM     78  C   UNL     1       6.071  -2.893  -9.326  1.00  0.00     0.114 C 
ATOM     79  H   UNL     1       6.833  -3.062  -7.327  1.00  0.00     0.161 HD
ATOM     80  C   UNL     1       2.385  -2.834  -8.805  1.00  0.00    -0.030 C 
ATOM     81  C   UNL     1       3.619  -3.664  -8.935  1.00  0.00     0.034 C 
BRANCH  78  82
ATOM     82  C   UNL     1       6.564  -4.296  -9.639  1.00  0.00    -0.022 A 
ATOM     83  C   UNL     1       6.703  -4.670 -10.985  1.00  0.00     0.026 A 
ATOM     84  C   UNL     1       6.876  -5.251  -8.666  1.00  0.00     0.026 A 
ATOM     85  C   UNL     1       7.150  -5.944 -11.293  1.00  0.00     0.111 A 
ATOM     86  C   UNL     1       7.329  -6.499  -9.074  1.00  0.00     0.111 A 
ATOM     87  N   UNL     1       7.474  -6.866 -10.364  1.00  0.00    -0.265 NA
ENDBRANCH  78  82
ENDBRANCH  66  68
ENDBRANCH  65  66
ENDBRANCH  64  65
ENDBRANCH  63  64
ENDBRANCH  62  63
ENDBRANCH  61  62
ENDBRANCH  60  61
ENDBRANCH  59  60
ENDBRANCH   1  59
TORSDOF 21
