REMARK SMILES [NH3+][C@H]1CCCN(C(=O)NC[C@H]2CC[C@@H](C(=O)OCCOCCOCCOCCOC(=O)c3ccc(-c4c5nc(c(-c6ccccc6)c6ccc([nH]6)c(-c6ccccc6)c6nc(c(-c7ccccc7)c7ccc4[nH]7)C=C6)C=C5)cc3)CC2)C1
REMARK SMILES IDX 22 1 21 2 20 3 19 4 18 5 17 6 15 7 16 8 14 9 11 10 12 11
REMARK SMILES IDX 81 12 13 13 80 14 10 15 9 16 7 17 8 18 6 20 2 21 3 22 82 23
REMARK SMILES IDX 4 24 5 25 1 26 23 30 24 31 25 32 26 33 27 34 28 35 29 36
REMARK SMILES IDX 30 37 31 38 32 39 33 40 79 41 34 42 78 43 35 44 36 45 37 46
REMARK SMILES IDX 72 47 38 48 77 49 71 50 73 51 39 52 76 53 70 54 69 55 40 57
REMARK SMILES IDX 62 58 47 59 61 60 48 61 51 62 60 63 74 64 49 65 50 66 59 68
REMARK SMILES IDX 75 69 52 70 41 71 42 72 46 73 43 74 45 75 44 76 63 77 64 78
REMARK SMILES IDX 68 79 65 80 67 81 66 82 53 83 54 84 58 85 55 86 57 87 56 88
REMARK H PARENT 9 19 1 27 1 28 1 29 73 56 51 67
REMARK Flexibility Score: inf
ROOT
ATOM      1  C   UNL     1       1.801   8.738   5.963  1.00  0.00     0.188 C 
ENDROOT
BRANCH   1   2
ATOM      2  C   UNL     1       0.909   8.097   7.034  1.00  0.00     0.188 C 
BRANCH   2   3
ATOM      3  O   UNL     1       1.537   7.536   8.165  1.00  0.00    -0.376 OA
BRANCH   3   4
ATOM      4  C   UNL     1       2.200   6.283   8.156  1.00  0.00     0.202 C 
BRANCH   4   5
ATOM      5  C   UNL     1       2.362   5.308   6.974  1.00  0.00     0.261 C 
BRANCH   5   6
ATOM      6  O   UNL     1       2.164   5.816   5.659  1.00  0.00    -0.463 OA
BRANCH   6   7
ATOM      7  C   UNL     1       0.934   5.607   5.140  1.00  0.00     0.309 C 
ATOM      8  O   UNL     1       0.040   5.006   5.727  1.00  0.00    -0.252 OA
BRANCH   7   9
ATOM      9  C   UNL     1       0.726   6.282   3.785  1.00  0.00     0.099 C 
ATOM     10  C   UNL     1       1.244   5.755   0.900  1.00  0.00     0.008 C 
ATOM     11  C   UNL     1      -0.164   5.600   1.494  1.00  0.00     0.006 C 
ATOM     12  C   UNL     1       1.869   6.980   1.569  1.00  0.00     0.006 C 
ATOM     13  C   UNL     1      -0.131   5.303   2.978  1.00  0.00     0.015 C 
ATOM     14  C   UNL     1       2.012   6.773   3.078  1.00  0.00     0.015 C 
BRANCH  10  15
ATOM     15  C   UNL     1       2.203   4.545   1.038  1.00  0.00     0.121 C 
BRANCH  15  16
ATOM     16  N   UNL     1       1.579   3.285   1.357  1.00  0.00    -0.338 N 
ATOM     17  C   UNL     1       0.617   2.549   0.779  1.00  0.00     0.317 C 
ATOM     18  O   UNL     1       0.052   1.737   1.517  1.00  0.00    -0.249 OA
ATOM     19  H   UNL     1       1.935   2.876   2.178  1.00  0.00     0.165 HD
BRANCH  17  20
ATOM     20  N   UNL     1       0.328   2.655  -0.557  1.00  0.00    -0.319 N 
ATOM     21  C   UNL     1       0.331   0.386  -1.420  1.00  0.00     0.200 C 
ATOM     22  C   UNL     1       1.525   0.780  -2.325  1.00  0.00     0.068 C 
ATOM     23  C   UNL     1      -0.547   1.616  -1.085  1.00  0.00     0.186 C 
ATOM     24  C   UNL     1       2.251   2.053  -1.857  1.00  0.00     0.028 C 
ATOM     25  C   UNL     1       1.234   3.154  -1.579  1.00  0.00     0.122 C 
BRANCH  21  26
ATOM     26  N   UNL     1      -0.445  -0.679  -2.060  1.00  0.00    -0.354 N 
ATOM     27  H   UNL     1       0.167  -1.470  -2.264  1.00  0.00     0.344 HD
ATOM     28  H   UNL     1      -0.850  -0.329  -2.928  1.00  0.00     0.344 HD
ATOM     29  H   UNL     1      -1.191  -0.980  -1.433  1.00  0.00     0.344 HD
ENDBRANCH  21  26
ENDBRANCH  17  20
ENDBRANCH  15  16
ENDBRANCH  10  15
ENDBRANCH   7   9
ENDBRANCH   6   7
ENDBRANCH   5   6
ENDBRANCH   4   5
ENDBRANCH   3   4
ENDBRANCH   2   3
ENDBRANCH   1   2
BRANCH   1  30
ATOM     30  O   UNL     1       3.116   8.233   5.856  1.00  0.00    -0.377 OA
BRANCH  30  31
ATOM     31  C   UNL     1       4.098   8.649   6.797  1.00  0.00     0.188 C 
BRANCH  31  32
ATOM     32  C   UNL     1       3.724   9.545   7.997  1.00  0.00     0.188 C 
BRANCH  32  33
ATOM     33  O   UNL     1       2.691  10.484   7.756  1.00  0.00    -0.376 OA
BRANCH  33  34
ATOM     34  C   UNL     1       3.028  11.799   7.344  1.00  0.00     0.202 C 
BRANCH  34  35
ATOM     35  C   UNL     1       3.850  11.977   6.056  1.00  0.00     0.261 C 
BRANCH  35  36
ATOM     36  O   UNL     1       5.145  11.355   6.031  1.00  0.00    -0.460 OA
BRANCH  36  37
ATOM     37  C   UNL     1       6.018  11.668   7.008  1.00  0.00     0.338 C 
ATOM     38  O   UNL     1       5.873  12.491   7.898  1.00  0.00    -0.246 OA
BRANCH  37  39
ATOM     39  C   UNL     1       7.128  10.698   6.946  1.00  0.00     0.060 A 
ATOM     40  C   UNL     1       7.368   9.868   8.050  1.00  0.00     0.016 A 
ATOM     41  C   UNL     1       7.932  10.614   5.808  1.00  0.00     0.016 A 
ATOM     42  C   UNL     1       8.443   8.981   8.036  1.00  0.00     0.010 A 
ATOM     43  C   UNL     1       9.025   9.744   5.805  1.00  0.00     0.010 A 
ATOM     44  C   UNL     1       9.306   8.954   6.935  1.00  0.00    -0.014 A 
BRANCH  44  45
ATOM     45  C   UNL     1      10.616   8.273   7.054  1.00  0.00     0.031 A 
ATOM     46  C   UNL     1      11.823   9.107   7.385  1.00  0.00     0.074 A 
ATOM     47  C   UNL     1      10.733   6.943   6.899  1.00  0.00     0.049 A 
ATOM     48  N   UNL     1      13.077   8.749   7.494  1.00  0.00    -0.248 NA
ATOM     49  C   UNL     1      11.582  10.540   7.622  1.00  0.00     0.031 C 
ATOM     50  C   UNL     1       9.633   6.019   6.632  1.00  0.00     0.029 A 
ATOM     51  N   UNL     1      11.847   6.142   6.939  1.00  0.00    -0.354 N 
ATOM     52  C   UNL     1      13.773   9.914   7.794  1.00  0.00     0.074 A 
ATOM     53  C   UNL     1      12.810  10.991   7.823  1.00  0.00     0.031 C 
ATOM     54  C   UNL     1      10.130   4.775   6.519  1.00  0.00     0.029 A 
ATOM     55  C   UNL     1      11.584   4.822   6.666  1.00  0.00     0.049 A 
ATOM     56  H   UNL     1      12.748   6.481   7.143  1.00  0.00     0.167 HD
ATOM     57  C   UNL     1      15.098  10.072   8.026  1.00  0.00     0.031 A 
ATOM     58  C   UNL     1      12.425   3.780   6.523  1.00  0.00     0.031 A 
ATOM     59  C   UNL     1      16.056   9.002   7.980  1.00  0.00     0.049 A 
ATOM     60  C   UNL     1      13.906   3.995   6.702  1.00  0.00     0.074 A 
ATOM     61  C   UNL     1      17.418   9.054   8.219  1.00  0.00     0.029 A 
ATOM     62  N   UNL     1      15.755   7.686   7.662  1.00  0.00    -0.354 N 
ATOM     63  N   UNL     1      14.552   5.094   7.013  1.00  0.00    -0.248 NA
ATOM     64  C   UNL     1      14.773   2.822   6.518  1.00  0.00     0.031 C 
ATOM     65  C   UNL     1      17.952   7.786   7.973  1.00  0.00     0.029 A 
ATOM     66  C   UNL     1      16.912   6.925   7.660  1.00  0.00     0.049 A 
ATOM     67  H   UNL     1      14.853   7.344   7.466  1.00  0.00     0.167 HD
ATOM     68  C   UNL     1      15.893   4.737   7.093  1.00  0.00     0.074 A 
ATOM     69  C   UNL     1      15.966   3.318   6.812  1.00  0.00     0.031 C 
ATOM     70  C   UNL     1      16.969   5.514   7.376  1.00  0.00     0.031 A 
BRANCH  57  71
ATOM     71  C   UNL     1      15.591  11.467   8.295  1.00  0.00    -0.014 A 
ATOM     72  C   UNL     1      15.270  12.147   9.481  1.00  0.00     0.009 A 
ATOM     73  C   UNL     1      16.409  12.105   7.349  1.00  0.00     0.009 A 
ATOM     74  C   UNL     1      15.726  13.450   9.695  1.00  0.00     0.001 A 
ATOM     75  C   UNL     1      16.892  13.393   7.581  1.00  0.00     0.001 A 
ATOM     76  C   UNL     1      16.541  14.069   8.748  1.00  0.00     0.000 A 
ENDBRANCH  57  71
BRANCH  58  77
ATOM     77  C   UNL     1      11.893   2.439   6.159  1.00  0.00    -0.014 A 
ATOM     78  C   UNL     1      11.958   1.368   7.063  1.00  0.00     0.009 A 
ATOM     79  C   UNL     1      11.335   2.219   4.889  1.00  0.00     0.009 A 
ATOM     80  C   UNL     1      11.499   0.100   6.694  1.00  0.00     0.001 A 
ATOM     81  C   UNL     1      10.847   0.960   4.535  1.00  0.00     0.001 A 
ATOM     82  C   UNL     1      10.939  -0.101   5.433  1.00  0.00     0.000 A 
ENDBRANCH  58  77
BRANCH  70  83
ATOM     83  C   UNL     1      18.313   4.840   7.442  1.00  0.00    -0.014 A 
ATOM     84  C   UNL     1      18.952   4.358   6.289  1.00  0.00     0.009 A 
ATOM     85  C   UNL     1      18.972   4.732   8.678  1.00  0.00     0.009 A 
ATOM     86  C   UNL     1      20.206   3.748   6.379  1.00  0.00     0.001 A 
ATOM     87  C   UNL     1      20.240   4.154   8.759  1.00  0.00     0.001 A 
ATOM     88  C   UNL     1      20.851   3.652   7.612  1.00  0.00     0.000 A 
ENDBRANCH  70  83
ENDBRANCH  44  45
ENDBRANCH  37  39
ENDBRANCH  36  37
ENDBRANCH  35  36
ENDBRANCH  34  35
ENDBRANCH  33  34
ENDBRANCH  32  33
ENDBRANCH  31  32
ENDBRANCH  30  31
ENDBRANCH   1  30
TORSDOF 24
