REMARK SMILES O=C(OCCOCCOCCOCCOC(=O)[C@H]1[C@H](C(=O)NC2CC[NH+](Cc3ccccc3)CC2)[C@H]2C=C[C@@H]1C2)c1ccc(-c2c3nc(c(-c4ccccc4)c4ccc([nH]4)c(-c4ccccc4)c4nc(c(-c5ccccc5)c5ccc2[nH]5)C=C4)C=C3)cc1
REMARK SMILES IDX 10 1 9 2 8 3 7 4 6 5 5 6 4 7 3 8 2 9 1 10 41 11 42 12 88 13
REMARK SMILES IDX 43 14 87 15 44 16 45 17 46 18 81 19 47 20 86 21 80 22 82 23
REMARK SMILES IDX 48 24 85 25 79 26 78 27 49 29 71 30 56 31 70 32 57 33 60 34
REMARK SMILES IDX 69 35 83 36 58 37 59 38 68 40 84 41 61 42 50 43 51 44 55 45
REMARK SMILES IDX 52 46 54 47 53 48 72 49 73 50 77 51 74 52 76 53 75 54 62 55
REMARK SMILES IDX 63 56 67 57 64 58 66 59 65 60 11 61 12 62 13 63 14 64 15 65
REMARK SMILES IDX 16 66 17 67 18 68 19 69 39 70 36 71 38 72 40 73 37 74 20 75
REMARK SMILES IDX 21 76 22 77 23 79 24 80 35 81 25 82 34 83 26 84 27 86 28 87
REMARK SMILES IDX 29 88 33 89 30 90 32 91 31 92
REMARK H PARENT 82 28 60 39 22 78 26 85
REMARK Flexibility Score: inf
ROOT
ATOM      1  C   UNL     1       5.318  -3.835   1.341  1.00  0.00     0.188 C 
ENDROOT
BRANCH   1   2
ATOM      2  O   UNL     1       5.466  -2.433   1.179  1.00  0.00    -0.377 OA
BRANCH   2   3
ATOM      3  C   UNL     1       5.852  -1.724   2.349  1.00  0.00     0.188 C 
BRANCH   3   4
ATOM      4  C   UNL     1       5.048  -2.088   3.597  1.00  0.00     0.188 C 
BRANCH   4   5
ATOM      5  O   UNL     1       5.403  -3.388   4.072  1.00  0.00    -0.376 OA
BRANCH   5   6
ATOM      6  C   UNL     1       4.344  -4.234   4.518  1.00  0.00     0.202 C 
BRANCH   6   7
ATOM      7  C   UNL     1       3.836  -3.928   5.922  1.00  0.00     0.261 C 
BRANCH   7   8
ATOM      8  O   UNL     1       3.966  -2.550   6.285  1.00  0.00    -0.460 OA
BRANCH   8   9
ATOM      9  C   UNL     1       5.060  -1.883   6.723  1.00  0.00     0.338 C 
ATOM     10  O   UNL     1       4.929  -0.679   6.953  1.00  0.00    -0.246 OA
BRANCH   9  11
ATOM     11  C   UNL     1       6.431  -2.469   6.908  1.00  0.00     0.060 A 
ATOM     12  C   UNL     1       6.896  -3.694   6.417  1.00  0.00     0.016 A 
ATOM     13  C   UNL     1       7.353  -1.659   7.597  1.00  0.00     0.016 A 
ATOM     14  C   UNL     1       8.212  -4.102   6.574  1.00  0.00     0.010 A 
ATOM     15  C   UNL     1       8.663  -2.080   7.817  1.00  0.00     0.010 A 
ATOM     16  C   UNL     1       9.078  -3.320   7.323  1.00  0.00    -0.014 A 
BRANCH  16  17
ATOM     17  C   UNL     1      10.282  -3.968   7.851  1.00  0.00     0.031 A 
ATOM     18  C   UNL     1      10.180  -4.527   9.234  1.00  0.00     0.074 A 
ATOM     19  C   UNL     1      11.365  -4.139   7.080  1.00  0.00     0.049 A 
ATOM     20  N   UNL     1      11.114  -4.977  10.021  1.00  0.00    -0.248 NA
ATOM     21  C   UNL     1       8.823  -4.585   9.810  1.00  0.00     0.031 C 
ATOM     22  C   UNL     1      11.458  -3.791   5.662  1.00  0.00     0.029 A 
ATOM     23  N   UNL     1      12.592  -4.653   7.389  1.00  0.00    -0.354 N 
ATOM     24  C   UNL     1      10.467  -5.309  11.204  1.00  0.00     0.074 A 
ATOM     25  C   UNL     1       9.063  -5.029  11.030  1.00  0.00     0.031 C 
ATOM     26  C   UNL     1      12.697  -4.078   5.228  1.00  0.00     0.029 A 
ATOM     27  C   UNL     1      13.491  -4.546   6.359  1.00  0.00     0.049 A 
ATOM     28  H   UNL     1      12.808  -5.059   8.259  1.00  0.00     0.167 HD
ATOM     29  C   UNL     1      11.021  -5.772  12.346  1.00  0.00     0.031 A 
ATOM     30  C   UNL     1      14.823  -4.736   6.372  1.00  0.00     0.031 A 
ATOM     31  C   UNL     1      12.432  -6.001  12.466  1.00  0.00     0.049 A 
ATOM     32  C   UNL     1      15.450  -5.140   7.679  1.00  0.00     0.074 A 
ATOM     33  C   UNL     1      13.161  -6.401  13.566  1.00  0.00     0.029 A 
ATOM     34  N   UNL     1      13.331  -5.835  11.416  1.00  0.00    -0.354 N 
ATOM     35  N   UNL     1      14.867  -5.367   8.836  1.00  0.00    -0.248 NA
ATOM     36  C   UNL     1      16.907  -5.301   7.697  1.00  0.00     0.031 C 
ATOM     37  C   UNL     1      14.511  -6.417  13.196  1.00  0.00     0.029 A 
ATOM     38  C   UNL     1      14.614  -6.100  11.846  1.00  0.00     0.049 A 
ATOM     39  H   UNL     1      13.087  -5.567  10.501  1.00  0.00     0.167 HD
ATOM     40  C   UNL     1      15.879  -5.720   9.715  1.00  0.00     0.074 A 
ATOM     41  C   UNL     1      17.114  -5.680   8.952  1.00  0.00     0.031 C 
ATOM     42  C   UNL     1      15.803  -6.052  11.029  1.00  0.00     0.031 A 
BRANCH  29  43
ATOM     43  C   UNL     1      10.110  -5.903  13.534  1.00  0.00    -0.014 A 
ATOM     44  C   UNL     1       9.076  -6.853  13.585  1.00  0.00     0.009 A 
ATOM     45  C   UNL     1      10.226  -4.977  14.583  1.00  0.00     0.009 A 
ATOM     46  C   UNL     1       8.140  -6.828  14.624  1.00  0.00     0.001 A 
ATOM     47  C   UNL     1       9.311  -4.976  15.638  1.00  0.00     0.001 A 
ATOM     48  C   UNL     1       8.257  -5.888  15.647  1.00  0.00     0.000 A 
ENDBRANCH  29  43
BRANCH  30  49
ATOM     49  C   UNL     1      15.620  -4.454   5.149  1.00  0.00    -0.014 A 
ATOM     50  C   UNL     1      16.246  -5.485   4.436  1.00  0.00     0.009 A 
ATOM     51  C   UNL     1      15.710  -3.141   4.652  1.00  0.00     0.009 A 
ATOM     52  C   UNL     1      16.945  -5.208   3.256  1.00  0.00     0.001 A 
ATOM     53  C   UNL     1      16.384  -2.870   3.459  1.00  0.00     0.001 A 
ATOM     54  C   UNL     1      17.006  -3.904   2.764  1.00  0.00     0.000 A 
ENDBRANCH  30  49
BRANCH  42  55
ATOM     55  C   UNL     1      17.081  -6.454  11.703  1.00  0.00    -0.014 A 
ATOM     56  C   UNL     1      18.033  -5.501  12.088  1.00  0.00     0.009 A 
ATOM     57  C   UNL     1      17.265  -7.800  12.059  1.00  0.00     0.009 A 
ATOM     58  C   UNL     1      19.158  -5.894  12.813  1.00  0.00     0.001 A 
ATOM     59  C   UNL     1      18.374  -8.183  12.809  1.00  0.00     0.001 A 
ATOM     60  C   UNL     1      19.321  -7.231  13.182  1.00  0.00     0.000 A 
ENDBRANCH  42  55
ENDBRANCH  16  17
ENDBRANCH   9  11
ENDBRANCH   8   9
ENDBRANCH   7   8
ENDBRANCH   6   7
ENDBRANCH   5   6
ENDBRANCH   4   5
ENDBRANCH   3   4
ENDBRANCH   2   3
ENDBRANCH   1   2
BRANCH   1  61
ATOM     61  C   UNL     1       6.547  -4.637   1.837  1.00  0.00     0.188 C 
BRANCH  61  62
ATOM     62  O   UNL     1       7.740  -3.889   1.825  1.00  0.00    -0.376 OA
BRANCH  62  63
ATOM     63  C   UNL     1       8.494  -3.876   0.627  1.00  0.00     0.202 C 
BRANCH  63  64
ATOM     64  C   UNL     1       7.834  -3.882  -0.769  1.00  0.00     0.261 C 
BRANCH  64  65
ATOM     65  O   UNL     1       6.612  -4.620  -0.968  1.00  0.00    -0.463 OA
BRANCH  65  66
ATOM     66  C   UNL     1       6.600  -5.984  -0.913  1.00  0.00     0.310 C 
ATOM     67  O   UNL     1       7.597  -6.662  -0.807  1.00  0.00    -0.252 OA
BRANCH  66  68
ATOM     68  C   UNL     1       5.135  -6.481  -0.968  1.00  0.00     0.119 C 
ATOM     69  C   UNL     1       5.089  -7.893  -1.590  1.00  0.00     0.100 C 
ATOM     70  C   UNL     1       4.295  -6.699   0.343  1.00  0.00     0.027 C 
ATOM     71  C   UNL     1       4.215  -8.715  -0.610  1.00  0.00     0.025 C 
ATOM     72  C   UNL     1       5.001  -7.635   1.284  1.00  0.00    -0.027 C 
ATOM     73  C   UNL     1       3.213  -7.708  -0.072  1.00  0.00     0.017 C 
ATOM     74  C   UNL     1       4.981  -8.846   0.705  1.00  0.00    -0.027 C 
BRANCH  69  75
ATOM     75  C   UNL     1       4.738  -7.859  -3.067  1.00  0.00     0.224 C 
ATOM     76  O   UNL     1       5.401  -8.544  -3.855  1.00  0.00    -0.275 OA
ATOM     77  N   UNL     1       3.783  -7.071  -3.623  1.00  0.00    -0.353 N 
ATOM     78  H   UNL     1       3.937  -6.887  -4.578  1.00  0.00     0.163 HD
BRANCH  77  79
ATOM     79  C   UNL     1       2.567  -6.436  -3.098  1.00  0.00     0.093 C 
ATOM     80  C   UNL     1       1.427  -7.453  -3.064  1.00  0.00     0.086 C 
ATOM     81  C   UNL     1       2.137  -5.207  -3.891  1.00  0.00     0.086 C 
ATOM     82  C   UNL     1       1.007  -7.814  -4.479  1.00  0.00     0.264 C 
ATOM     83  C   UNL     1       1.636  -5.575  -5.279  1.00  0.00     0.264 C 
ATOM     84  N   UNL     1       0.622  -6.639  -5.264  1.00  0.00    -0.331 N 
ATOM     85  H   UNL     1      -0.184  -6.238  -4.783  1.00  0.00     0.348 HD
BRANCH  84  86
ATOM     86  C   UNL     1       0.201  -7.016  -6.633  1.00  0.00     0.299 C 
BRANCH  86  87
ATOM     87  C   UNL     1       1.327  -7.448  -7.557  1.00  0.00     0.006 A 
ATOM     88  C   UNL     1       1.903  -6.524  -8.442  1.00  0.00     0.009 A 
ATOM     89  C   UNL     1       1.885  -8.732  -7.469  1.00  0.00     0.009 A 
ATOM     90  C   UNL     1       3.047  -6.857  -9.169  1.00  0.00     0.001 A 
ATOM     91  C   UNL     1       3.043  -9.055  -8.176  1.00  0.00     0.001 A 
ATOM     92  C   UNL     1       3.627  -8.114  -9.020  1.00  0.00     0.000 A 
ENDBRANCH  86  87
ENDBRANCH  84  86
ENDBRANCH  77  79
ENDBRANCH  69  75
ENDBRANCH  66  68
ENDBRANCH  65  66
ENDBRANCH  64  65
ENDBRANCH  63  64
ENDBRANCH  62  63
ENDBRANCH  61  62
ENDBRANCH   1  61
TORSDOF 24
