REMARK SMILES Cc1ccccc1/[NH+]=C1\S[C@@H](CC(=O)Nc2ccc(C(=O)OCCOCCOCCOCCOC(=O)c3ccc(-c4c5nc(c(-c6ccccc6)c6ccc([nH]6)c(-c6ccccc6)c6nc(c(-c7ccccc7)c7ccc4[nH]7)C=C6)C=C5)cc3)cc2)C(=O)N1C
REMARK SMILES IDX 27 1 26 2 25 3 24 4 23 5 22 6 20 7 21 8 19 9 16 10 17 11
REMARK SMILES IDX 86 12 18 13 85 14 15 15 13 16 14 17 12 19 11 20 8 21 9 22
REMARK SMILES IDX 10 24 89 25 87 26 90 27 88 28 7 29 1 30 2 31 3 32 4 33 6 34
REMARK SMILES IDX 5 35 28 36 29 37 30 38 31 39 32 40 33 41 34 42 35 43 36 44
REMARK SMILES IDX 37 45 38 46 84 47 39 48 83 49 40 50 41 51 42 52 77 53 43 54
REMARK SMILES IDX 82 55 76 56 78 57 44 58 81 59 75 60 74 61 45 63 67 64 52 65
REMARK SMILES IDX 66 66 53 67 56 68 65 69 79 70 54 71 55 72 64 74 80 75 57 76
REMARK SMILES IDX 46 77 47 78 51 79 48 80 50 81 49 82 68 83 69 84 73 85 70 86
REMARK SMILES IDX 72 87 71 88 58 89 59 90 63 91 60 92 62 93 61 94
REMARK H PARENT 15 18 8 23 78 62 56 73
REMARK Flexibility Score: inf
ROOT
ATOM      1  C   UNL     1       6.550   8.321  -0.493  1.00  0.00     0.188 C 
ENDROOT
BRANCH   1   2
ATOM      2  C   UNL     1       6.564   7.745  -1.935  1.00  0.00     0.188 C 
BRANCH   2   3
ATOM      3  O   UNL     1       6.213   6.359  -1.859  1.00  0.00    -0.376 OA
BRANCH   3   4
ATOM      4  C   UNL     1       5.307   5.890  -2.831  1.00  0.00     0.202 C 
BRANCH   4   5
ATOM      5  C   UNL     1       5.823   5.135  -3.979  1.00  0.00     0.261 C 
BRANCH   5   6
ATOM      6  O   UNL     1       6.661   4.094  -3.616  1.00  0.00    -0.460 OA
BRANCH   6   7
ATOM      7  C   UNL     1       7.877   4.553  -3.304  1.00  0.00     0.338 C 
ATOM      8  O   UNL     1       8.540   5.435  -3.852  1.00  0.00    -0.246 OA
BRANCH   7   9
ATOM      9  C   UNL     1       8.088   4.024  -1.974  1.00  0.00     0.060 A 
ATOM     10  C   UNL     1       8.149   3.298   0.643  1.00  0.00     0.041 A 
ATOM     11  C   UNL     1       6.996   3.289  -0.072  1.00  0.00     0.027 A 
ATOM     12  C   UNL     1       9.220   4.023   0.133  1.00  0.00     0.027 A 
ATOM     13  C   UNL     1       7.033   3.327  -1.412  1.00  0.00     0.018 A 
ATOM     14  C   UNL     1       9.143   4.472  -1.189  1.00  0.00     0.018 A 
BRANCH  10  15
ATOM     15  N   UNL     1       8.125   2.550   1.821  1.00  0.00    -0.326 N 
ATOM     16  C   UNL     1       7.259   1.500   2.125  1.00  0.00     0.226 C 
ATOM     17  O   UNL     1       7.233   1.076   3.284  1.00  0.00    -0.275 OA
ATOM     18  H   UNL     1       8.788   2.788   2.509  1.00  0.00     0.169 HD
BRANCH  16  19
ATOM     19  C   UNL     1       6.433   0.748   1.035  1.00  0.00     0.128 C 
BRANCH  19  20
ATOM     20  C   UNL     1       4.901   0.830   1.165  1.00  0.00     0.183 C 
ATOM     21  N   UNL     1       1.503   1.295  -0.151  1.00  0.00    -0.234 N 
ATOM     22  C   UNL     1       2.785   1.266  -0.175  1.00  0.00     0.319 C 
ATOM     23  H   UNL     1       1.131   2.206  -0.117  1.00  0.00     0.313 HD
ATOM     24  S   UNL     1       4.038   0.079  -0.315  1.00  0.00    -0.022 SA
ATOM     25  N   UNL     1       3.430   2.405   0.143  1.00  0.00    -0.193 N 
ATOM     26  C   UNL     1       4.292   2.235   1.191  1.00  0.00     0.324 C 
ATOM     27  C   UNL     1       3.481   3.498  -0.787  1.00  0.00     0.301 C 
ATOM     28  O   UNL     1       4.545   3.087   2.034  1.00  0.00    -0.245 OA
BRANCH  21  29
ATOM     29  C   UNL     1       0.527   0.295  -0.164  1.00  0.00     0.128 A 
ATOM     30  C   UNL     1       1.849  -1.652   0.871  1.00  0.00     0.049 C 
ATOM     31  C   UNL     1       0.629  -1.039   0.261  1.00  0.00    -0.004 A 
ATOM     32  C   UNL     1      -0.498  -1.881   0.194  1.00  0.00     0.008 A 
ATOM     33  C   UNL     1      -1.756  -1.386  -0.126  1.00  0.00     0.001 A 
ATOM     34  C   UNL     1      -0.769   0.779  -0.449  1.00  0.00     0.052 A 
ATOM     35  C   UNL     1      -1.901  -0.038  -0.409  1.00  0.00     0.004 A 
ENDBRANCH  21  29
ENDBRANCH  19  20
ENDBRANCH  16  19
ENDBRANCH  10  15
ENDBRANCH   7   9
ENDBRANCH   6   7
ENDBRANCH   5   6
ENDBRANCH   4   5
ENDBRANCH   3   4
ENDBRANCH   2   3
ENDBRANCH   1   2
BRANCH   1  36
ATOM     36  O   UNL     1       5.306   8.185   0.214  1.00  0.00    -0.377 OA
BRANCH  36  37
ATOM     37  C   UNL     1       4.379   9.251   0.460  1.00  0.00     0.188 C 
BRANCH  37  38
ATOM     38  C   UNL     1       4.042  10.305  -0.602  1.00  0.00     0.188 C 
BRANCH  38  39
ATOM     39  O   UNL     1       5.180  10.870  -1.220  1.00  0.00    -0.376 OA
BRANCH  39  40
ATOM     40  C   UNL     1       5.834  11.874  -0.457  1.00  0.00     0.202 C 
BRANCH  40  41
ATOM     41  C   UNL     1       4.963  13.111  -0.172  1.00  0.00     0.261 C 
BRANCH  41  42
ATOM     42  O   UNL     1       4.525  13.706  -1.412  1.00  0.00    -0.460 OA
BRANCH  42  43
ATOM     43  C   UNL     1       3.247  13.428  -1.797  1.00  0.00     0.338 C 
ATOM     44  O   UNL     1       2.262  13.480  -1.079  1.00  0.00    -0.246 OA
BRANCH  43  45
ATOM     45  C   UNL     1       3.276  12.715  -3.113  1.00  0.00     0.060 A 
ATOM     46  C   UNL     1       2.152  11.971  -3.483  1.00  0.00     0.016 A 
ATOM     47  C   UNL     1       4.522  12.396  -3.649  1.00  0.00     0.016 A 
ATOM     48  C   UNL     1       2.333  10.761  -4.156  1.00  0.00     0.010 A 
ATOM     49  C   UNL     1       4.710  11.110  -4.135  1.00  0.00     0.010 A 
ATOM     50  C   UNL     1       3.631  10.248  -4.344  1.00  0.00    -0.014 A 
BRANCH  50  51
ATOM     51  C   UNL     1       3.813   8.783  -4.563  1.00  0.00     0.031 A 
ATOM     52  C   UNL     1       4.920   8.210  -5.539  1.00  0.00     0.074 A 
ATOM     53  C   UNL     1       3.147   8.048  -3.630  1.00  0.00     0.049 A 
ATOM     54  N   UNL     1       5.170   6.991  -5.980  1.00  0.00    -0.248 NA
ATOM     55  C   UNL     1       5.853   9.161  -6.158  1.00  0.00     0.031 C 
ATOM     56  C   UNL     1       3.413   7.788  -2.207  1.00  0.00     0.029 A 
ATOM     57  N   UNL     1       1.930   7.418  -3.762  1.00  0.00    -0.354 N 
ATOM     58  C   UNL     1       6.410   6.991  -6.707  1.00  0.00     0.074 A 
ATOM     59  C   UNL     1       6.710   8.394  -6.829  1.00  0.00     0.031 C 
ATOM     60  C   UNL     1       2.675   6.778  -1.736  1.00  0.00     0.029 A 
ATOM     61  C   UNL     1       1.913   6.339  -2.868  1.00  0.00     0.049 A 
ATOM     62  H   UNL     1       1.203   7.679  -4.373  1.00  0.00     0.167 HD
ATOM     63  C   UNL     1       7.184   5.889  -7.085  1.00  0.00     0.031 A 
ATOM     64  C   UNL     1       0.981   5.395  -2.733  1.00  0.00     0.031 A 
ATOM     65  C   UNL     1       6.622   4.542  -6.749  1.00  0.00     0.049 A 
ATOM     66  C   UNL     1       1.445   4.257  -3.631  1.00  0.00     0.074 A 
ATOM     67  C   UNL     1       7.181   3.404  -6.166  1.00  0.00     0.029 A 
ATOM     68  N   UNL     1       5.246   4.254  -6.827  1.00  0.00    -0.354 N 
ATOM     69  N   UNL     1       2.611   4.167  -4.269  1.00  0.00    -0.248 NA
ATOM     70  C   UNL     1       0.673   3.027  -3.721  1.00  0.00     0.031 C 
ATOM     71  C   UNL     1       6.140   2.539  -5.733  1.00  0.00     0.029 A 
ATOM     72  C   UNL     1       4.921   3.124  -6.064  1.00  0.00     0.049 A 
ATOM     73  H   UNL     1       4.596   4.778  -7.349  1.00  0.00     0.167 HD
ATOM     74  C   UNL     1       2.652   2.969  -4.991  1.00  0.00     0.074 A 
ATOM     75  C   UNL     1       1.462   2.273  -4.502  1.00  0.00     0.031 C 
ATOM     76  C   UNL     1       3.567   2.560  -5.954  1.00  0.00     0.031 A 
BRANCH  63  77
ATOM     77  C   UNL     1       8.697   5.978  -7.626  1.00  0.00    -0.014 A 
ATOM     78  C   UNL     1       9.544   4.839  -7.663  1.00  0.00     0.009 A 
ATOM     79  C   UNL     1       9.354   7.127  -8.113  1.00  0.00     0.009 A 
ATOM     80  C   UNL     1      10.905   4.848  -8.053  1.00  0.00     0.001 A 
ATOM     81  C   UNL     1      10.713   7.155  -8.526  1.00  0.00     0.001 A 
ATOM     82  C   UNL     1      11.497   6.016  -8.486  1.00  0.00     0.000 A 
ENDBRANCH  63  77
BRANCH  64  83
ATOM     83  C   UNL     1      -0.294   6.032  -2.205  1.00  0.00    -0.014 A 
ATOM     84  C   UNL     1      -0.270   6.366  -0.820  1.00  0.00     0.009 A 
ATOM     85  C   UNL     1      -0.911   6.979  -3.053  1.00  0.00     0.009 A 
ATOM     86  C   UNL     1      -0.501   7.688  -0.382  1.00  0.00     0.001 A 
ATOM     87  C   UNL     1      -1.121   8.307  -2.613  1.00  0.00     0.001 A 
ATOM     88  C   UNL     1      -0.852   8.674  -1.296  1.00  0.00     0.000 A 
ENDBRANCH  64  83
BRANCH  76  89
ATOM     89  C   UNL     1       3.334   1.439  -6.984  1.00  0.00    -0.014 A 
ATOM     90  C   UNL     1       2.123   0.790  -7.219  1.00  0.00     0.009 A 
ATOM     91  C   UNL     1       4.370   1.139  -7.915  1.00  0.00     0.009 A 
ATOM     92  C   UNL     1       1.957  -0.085  -8.305  1.00  0.00     0.001 A 
ATOM     93  C   UNL     1       4.206   0.302  -9.015  1.00  0.00     0.001 A 
ATOM     94  C   UNL     1       2.987  -0.310  -9.213  1.00  0.00     0.000 A 
ENDBRANCH  76  89
ENDBRANCH  50  51
ENDBRANCH  43  45
ENDBRANCH  42  43
ENDBRANCH  41  42
ENDBRANCH  40  41
ENDBRANCH  39  40
ENDBRANCH  38  39
ENDBRANCH  37  38
ENDBRANCH  36  37
ENDBRANCH   1  36
TORSDOF 24
