REMARK SMILES O=C(OCCOCCOCCOCCOC(=O)[C@H]1[C@H]2C[C@@H]3[C@@H](OC(=O)[C@@H]31)[C@@H]2Sc1ccccc1)c1ccc(-c2c3nc(c(-c4ccccc4)c4ccc([nH]4)c(-c4ccccc4)c4nc(c(-c5ccccc5)c5ccc2[nH]5)C=C4)C=C3)cc1
REMARK SMILES IDX 9 1 8 2 7 3 6 4 5 5 4 6 3 7 2 8 1 9 35 10 36 11 82 12 37 13
REMARK SMILES IDX 81 14 38 15 39 16 40 17 75 18 41 19 80 20 74 21 76 22 42 23
REMARK SMILES IDX 79 24 73 25 72 26 43 28 65 29 50 30 64 31 51 32 54 33 63 34
REMARK SMILES IDX 77 35 52 36 53 37 62 39 78 40 55 41 44 42 45 43 49 44 46 45
REMARK SMILES IDX 48 46 47 47 66 48 67 49 71 50 68 51 70 52 69 53 56 54 57 55
REMARK SMILES IDX 61 56 58 57 60 58 59 59 10 60 11 61 12 62 13 63 14 64 15 65
REMARK SMILES IDX 16 66 17 67 18 68 19 69 26 70 20 71 27 72 21 73 24 74 22 75
REMARK SMILES IDX 23 76 25 77 28 78 29 79 30 80 34 81 31 82 33 83 32 84
REMARK H PARENT 76 27 54 38
REMARK Flexibility Score: inf
ROOT
ATOM      1  O   UNL     1       2.763  -3.705  -0.880  1.00  0.00    -0.377 OA
ENDROOT
BRANCH   1   2
ATOM      2  C   UNL     1       1.949  -2.538  -0.850  1.00  0.00     0.188 C 
BRANCH   2   3
ATOM      3  C   UNL     1       2.399  -1.403   0.074  1.00  0.00     0.188 C 
BRANCH   3   4
ATOM      4  O   UNL     1       3.686  -0.904  -0.276  1.00  0.00    -0.376 OA
BRANCH   4   5
ATOM      5  C   UNL     1       4.652  -0.683   0.752  1.00  0.00     0.202 C 
BRANCH   5   6
ATOM      6  C   UNL     1       4.307   0.376   1.783  1.00  0.00     0.261 C 
BRANCH   6   7
ATOM      7  O   UNL     1       2.958   0.859   1.752  1.00  0.00    -0.460 OA
BRANCH   7   8
ATOM      8  C   UNL     1       2.292   1.598   0.842  1.00  0.00     0.338 C 
ATOM      9  O   UNL     1       1.082   1.759   1.010  1.00  0.00    -0.246 OA
BRANCH   8  10
ATOM     10  C   UNL     1       2.900   2.259  -0.347  1.00  0.00     0.060 A 
ATOM     11  C   UNL     1       3.973   1.786  -1.103  1.00  0.00     0.016 A 
ATOM     12  C   UNL     1       2.244   3.414  -0.800  1.00  0.00     0.016 A 
ATOM     13  C   UNL     1       4.416   2.428  -2.241  1.00  0.00     0.010 A 
ATOM     14  C   UNL     1       2.684   4.085  -1.938  1.00  0.00     0.010 A 
ATOM     15  C   UNL     1       3.794   3.598  -2.634  1.00  0.00    -0.014 A 
BRANCH  15  16
ATOM     16  C   UNL     1       4.510   4.428  -3.599  1.00  0.00     0.031 A 
ATOM     17  C   UNL     1       5.292   5.567  -3.038  1.00  0.00     0.074 A 
ATOM     18  C   UNL     1       4.557   4.074  -4.890  1.00  0.00     0.049 A 
ATOM     19  N   UNL     1       5.853   6.566  -3.651  1.00  0.00    -0.248 NA
ATOM     20  C   UNL     1       5.460   5.579  -1.571  1.00  0.00     0.031 C 
ATOM     21  C   UNL     1       3.990   2.848  -5.456  1.00  0.00     0.029 A 
ATOM     22  N   UNL     1       5.116   4.716  -5.956  1.00  0.00    -0.354 N 
ATOM     23  C   UNL     1       6.376   7.363  -2.642  1.00  0.00     0.074 A 
ATOM     24  C   UNL     1       6.084   6.728  -1.381  1.00  0.00     0.031 C 
ATOM     25  C   UNL     1       4.209   2.841  -6.781  1.00  0.00     0.029 A 
ATOM     26  C   UNL     1       4.844   4.100  -7.151  1.00  0.00     0.049 A 
ATOM     27  H   UNL     1       5.658   5.534  -5.876  1.00  0.00     0.167 HD
ATOM     28  C   UNL     1       7.013   8.546  -2.781  1.00  0.00     0.031 A 
ATOM     29  C   UNL     1       5.023   4.563  -8.399  1.00  0.00     0.031 A 
ATOM     30  C   UNL     1       7.247   9.131  -4.070  1.00  0.00     0.049 A 
ATOM     31  C   UNL     1       5.620   5.936  -8.541  1.00  0.00     0.074 A 
ATOM     32  C   UNL     1       7.814  10.348  -4.386  1.00  0.00     0.029 A 
ATOM     33  N   UNL     1       6.908   8.512  -5.270  1.00  0.00    -0.354 N 
ATOM     34  N   UNL     1       6.026   6.757  -7.598  1.00  0.00    -0.248 NA
ATOM     35  C   UNL     1       5.773   6.455  -9.902  1.00  0.00     0.031 C 
ATOM     36  C   UNL     1       7.758  10.491  -5.777  1.00  0.00     0.029 A 
ATOM     37  C   UNL     1       7.231   9.330  -6.332  1.00  0.00     0.049 A 
ATOM     38  H   UNL     1       6.498   7.621  -5.349  1.00  0.00     0.167 HD
ATOM     39  C   UNL     1       6.511   7.880  -8.248  1.00  0.00     0.074 A 
ATOM     40  C   UNL     1       6.347   7.630  -9.670  1.00  0.00     0.031 C 
ATOM     41  C   UNL     1       7.051   9.012  -7.729  1.00  0.00     0.031 A 
BRANCH  28  42
ATOM     42  C   UNL     1       7.337   9.291  -1.517  1.00  0.00    -0.014 A 
ATOM     43  C   UNL     1       8.279   8.819  -0.589  1.00  0.00     0.009 A 
ATOM     44  C   UNL     1       6.599  10.444  -1.203  1.00  0.00     0.009 A 
ATOM     45  C   UNL     1       8.427   9.446   0.652  1.00  0.00     0.001 A 
ATOM     46  C   UNL     1       6.774  11.089   0.022  1.00  0.00     0.001 A 
ATOM     47  C   UNL     1       7.673  10.580   0.957  1.00  0.00     0.000 A 
ENDBRANCH  28  42
BRANCH  29  48
ATOM     48  C   UNL     1       4.553   3.760  -9.557  1.00  0.00    -0.014 A 
ATOM     49  C   UNL     1       5.462   3.184 -10.455  1.00  0.00     0.009 A 
ATOM     50  C   UNL     1       3.179   3.513  -9.736  1.00  0.00     0.009 A 
ATOM     51  C   UNL     1       5.006   2.386 -11.509  1.00  0.00     0.001 A 
ATOM     52  C   UNL     1       2.729   2.692 -10.772  1.00  0.00     0.001 A 
ATOM     53  C   UNL     1       3.642   2.133 -11.662  1.00  0.00     0.000 A 
ENDBRANCH  29  48
BRANCH  41  54
ATOM     54  C   UNL     1       7.561  10.029  -8.705  1.00  0.00    -0.014 A 
ATOM     55  C   UNL     1       6.689  10.861  -9.418  1.00  0.00     0.009 A 
ATOM     56  C   UNL     1       8.948  10.223  -8.814  1.00  0.00     0.009 A 
ATOM     57  C   UNL     1       7.200  11.868 -10.236  1.00  0.00     0.001 A 
ATOM     58  C   UNL     1       9.453  11.251  -9.605  1.00  0.00     0.001 A 
ATOM     59  C   UNL     1       8.579  12.070 -10.319  1.00  0.00     0.000 A 
ENDBRANCH  41  54
ENDBRANCH  15  16
ENDBRANCH   8  10
ENDBRANCH   7   8
ENDBRANCH   6   7
ENDBRANCH   5   6
ENDBRANCH   4   5
ENDBRANCH   3   4
ENDBRANCH   2   3
ENDBRANCH   1   2
BRANCH   1  60
ATOM     60  C   UNL     1       4.158  -3.480  -0.794  1.00  0.00     0.188 C 
BRANCH  60  61
ATOM     61  C   UNL     1       4.925  -2.861  -1.986  1.00  0.00     0.188 C 
BRANCH  61  62
ATOM     62  O   UNL     1       4.226  -1.942  -2.796  1.00  0.00    -0.376 OA
BRANCH  62  63
ATOM     63  C   UNL     1       3.446  -2.332  -3.916  1.00  0.00     0.202 C 
BRANCH  63  64
ATOM     64  C   UNL     1       2.975  -3.760  -4.263  1.00  0.00     0.261 C 
BRANCH  64  65
ATOM     65  O   UNL     1       3.221  -4.780  -3.302  1.00  0.00    -0.463 OA
BRANCH  65  66
ATOM     66  C   UNL     1       4.359  -5.496  -3.474  1.00  0.00     0.310 C 
ATOM     67  O   UNL     1       5.102  -5.410  -4.441  1.00  0.00    -0.252 OA
BRANCH  66  68
ATOM     68  C   UNL     1       4.654  -6.314  -2.228  1.00  0.00     0.118 C 
ATOM     69  C   UNL     1       4.404  -7.814  -2.421  1.00  0.00     0.022 C 
ATOM     70  C   UNL     1       6.162  -6.256  -1.849  1.00  0.00     0.120 C 
ATOM     71  C   UNL     1       5.689  -8.197  -3.156  1.00  0.00     0.014 C 
ATOM     72  C   UNL     1       4.553  -8.430  -0.997  1.00  0.00     0.097 C 
ATOM     73  C   UNL     1       6.604  -7.695  -2.069  1.00  0.00     0.047 C 
ATOM     74  C   UNL     1       6.449  -6.123  -0.377  1.00  0.00     0.310 C 
ATOM     75  C   UNL     1       6.087  -8.328  -0.775  1.00  0.00     0.194 C 
ATOM     76  O   UNL     1       6.393  -7.349   0.223  1.00  0.00    -0.461 OA
ATOM     77  O   UNL     1       6.692  -5.076   0.214  1.00  0.00    -0.252 OA
BRANCH  72  78
ATOM     78  S   UNL     1       3.832 -10.086  -0.668  1.00  0.00    -0.119 SA
BRANCH  78  79
ATOM     79  C   UNL     1       4.112 -10.892  -2.220  1.00  0.00     0.008 A 
ATOM     80  C   UNL     1       3.147 -10.809  -3.227  1.00  0.00     0.015 A 
ATOM     81  C   UNL     1       5.349 -11.487  -2.481  1.00  0.00     0.015 A 
ATOM     82  C   UNL     1       3.452 -11.234  -4.518  1.00  0.00     0.001 A 
ATOM     83  C   UNL     1       5.657 -11.899  -3.777  1.00  0.00     0.001 A 
ATOM     84  C   UNL     1       4.715 -11.756  -4.797  1.00  0.00     0.000 A 
ENDBRANCH  78  79
ENDBRANCH  72  78
ENDBRANCH  66  68
ENDBRANCH  65  66
ENDBRANCH  64  65
ENDBRANCH  63  64
ENDBRANCH  62  63
ENDBRANCH  61  62
ENDBRANCH  60  61
ENDBRANCH   1  60
TORSDOF 22
