REMARK SMILES C[N@H+]1CCO[C@@H](CNS(=O)(=O)N2CCC(C(=O)OCCOCCOCCOCCOC(=O)c3ccc(-c4c5nc(c(-c6ccccc6)c6ccc([nH]6)c(-c6ccccc6)c6nc(c(-c7ccccc7)c7ccc4[nH]7)C=C6)C=C5)cc3)CC2)C1
REMARK SMILES IDX 23 1 22 2 21 3 20 4 19 5 18 6 16 7 17 8 15 9 12 10 13 11
REMARK SMILES IDX 82 12 14 13 81 14 9 15 10 16 11 17 8 18 7 20 6 21 1 22 2 23
REMARK SMILES IDX 3 24 83 25 4 27 5 28 24 29 25 30 26 31 27 32 28 33 29 34
REMARK SMILES IDX 30 35 31 36 32 37 33 38 34 39 80 40 35 41 79 42 36 43 37 44
REMARK SMILES IDX 38 45 73 46 39 47 78 48 72 49 74 50 40 51 77 52 71 53 70 54
REMARK SMILES IDX 41 56 63 57 48 58 62 59 49 60 52 61 61 62 75 63 50 64 51 65
REMARK SMILES IDX 60 67 76 68 53 69 42 70 43 71 47 72 44 73 46 74 45 75 64 76
REMARK SMILES IDX 65 77 69 78 66 79 68 80 67 81 54 82 55 83 59 84 56 85 58 86
REMARK SMILES IDX 57 87
REMARK H PARENT 8 19 2 26 74 55 52 66
REMARK Flexibility Score: inf
ROOT
ATOM      1  C   UNL     1       7.383   5.378  -0.191  1.00  0.00     0.188 C 
ENDROOT
BRANCH   1   2
ATOM      2  C   UNL     1       8.870   5.522   0.162  1.00  0.00     0.188 C 
BRANCH   2   3
ATOM      3  O   UNL     1       9.870   5.319  -0.824  1.00  0.00    -0.376 OA
BRANCH   3   4
ATOM      4  C   UNL     1       9.793   4.224  -1.724  1.00  0.00     0.202 C 
BRANCH   4   5
ATOM      5  C   UNL     1       9.454   2.793  -1.265  1.00  0.00     0.261 C 
BRANCH   5   6
ATOM      6  O   UNL     1       8.470   2.638  -0.228  1.00  0.00    -0.463 OA
BRANCH   6   7
ATOM      7  C   UNL     1       8.948   2.355   1.008  1.00  0.00     0.309 C 
ATOM      8  O   UNL     1      10.139   2.290   1.291  1.00  0.00    -0.252 OA
BRANCH   7   9
ATOM      9  C   UNL     1       7.867   2.053   2.038  1.00  0.00     0.102 C 
ATOM     10  N   UNL     1       5.304   0.771   2.596  1.00  0.00    -0.189 NA
ATOM     11  C   UNL     1       6.554   0.080   3.007  1.00  0.00     0.104 C 
ATOM     12  C   UNL     1       5.450   2.216   2.757  1.00  0.00     0.104 C 
ATOM     13  C   UNL     1       7.742   0.531   2.155  1.00  0.00     0.032 C 
ATOM     14  C   UNL     1       6.519   2.744   1.829  1.00  0.00     0.032 C 
BRANCH  10  15
ATOM     15  S   UNL     1       4.496   0.105   1.287  1.00  0.00     0.279 S 
ATOM     16  O   UNL     1       3.470  -0.783   1.785  1.00  0.00    -0.195 OA
ATOM     17  O   UNL     1       5.457  -0.353   0.318  1.00  0.00    -0.195 OA
BRANCH  15  18
ATOM     18  N   UNL     1       3.752   1.408   0.543  1.00  0.00    -0.199 NA
ATOM     19  H   UNL     1       4.404   2.192   0.585  1.00  0.00     0.142 HD
BRANCH  18  20
ATOM     20  C   UNL     1       2.462   1.884   1.086  1.00  0.00     0.138 C 
BRANCH  20  21
ATOM     21  C   UNL     1       1.690   2.740   0.063  1.00  0.00     0.188 C 
ATOM     22  C   UNL     1       0.578  -0.251  -0.532  1.00  0.00     0.332 C 
ATOM     23  N   UNL     1       0.162   1.036  -1.078  1.00  0.00    -0.333 N 
ATOM     24  C   UNL     1      -0.943   1.649  -0.316  1.00  0.00     0.290 C 
ATOM     25  C   UNL     1       1.251   2.012  -1.228  1.00  0.00     0.295 C 
ATOM     26  H   UNL     1      -0.167   0.803  -2.014  1.00  0.00     0.348 HD
ATOM     27  C   UNL     1      -0.509   2.422   0.944  1.00  0.00     0.222 C 
ATOM     28  O   UNL     1       0.543   3.363   0.680  1.00  0.00    -0.365 OA
ENDBRANCH  20  21
ENDBRANCH  18  20
ENDBRANCH  15  18
ENDBRANCH  10  15
ENDBRANCH   7   9
ENDBRANCH   6   7
ENDBRANCH   5   6
ENDBRANCH   4   5
ENDBRANCH   3   4
ENDBRANCH   2   3
ENDBRANCH   1   2
BRANCH   1  29
ATOM     29  O   UNL     1       7.115   4.708  -1.402  1.00  0.00    -0.377 OA
BRANCH  29  30
ATOM     30  C   UNL     1       6.766   5.530  -2.505  1.00  0.00     0.188 C 
BRANCH  30  31
ATOM     31  C   UNL     1       7.483   6.890  -2.641  1.00  0.00     0.188 C 
BRANCH  31  32
ATOM     32  O   UNL     1       7.452   7.695  -1.469  1.00  0.00    -0.376 OA
BRANCH  32  33
ATOM     33  C   UNL     1       6.433   8.672  -1.317  1.00  0.00     0.202 C 
BRANCH  33  34
ATOM     34  C   UNL     1       4.969   8.206  -1.228  1.00  0.00     0.261 C 
BRANCH  34  35
ATOM     35  O   UNL     1       4.459   7.446  -2.333  1.00  0.00    -0.460 OA
BRANCH  35  36
ATOM     36  C   UNL     1       4.548   7.971  -3.572  1.00  0.00     0.338 C 
ATOM     37  O   UNL     1       4.959   9.072  -3.883  1.00  0.00    -0.246 OA
BRANCH  36  38
ATOM     38  C   UNL     1       4.239   6.884  -4.525  1.00  0.00     0.060 A 
ATOM     39  C   UNL     1       5.212   6.483  -5.452  1.00  0.00     0.016 A 
ATOM     40  C   UNL     1       2.995   6.252  -4.485  1.00  0.00     0.016 A 
ATOM     41  C   UNL     1       4.933   5.466  -6.366  1.00  0.00     0.010 A 
ATOM     42  C   UNL     1       2.705   5.258  -5.420  1.00  0.00     0.010 A 
ATOM     43  C   UNL     1       3.659   4.886  -6.385  1.00  0.00    -0.014 A 
BRANCH  43  44
ATOM     44  C   UNL     1       3.216   4.079  -7.544  1.00  0.00     0.031 A 
ATOM     45  C   UNL     1       2.422   4.778  -8.613  1.00  0.00     0.074 A 
ATOM     46  C   UNL     1       3.476   2.764  -7.639  1.00  0.00     0.049 A 
ATOM     47  N   UNL     1       1.762   4.276  -9.622  1.00  0.00    -0.248 NA
ATOM     48  C   UNL     1       2.359   6.248  -8.519  1.00  0.00     0.031 C 
ATOM     49  C   UNL     1       4.300   1.988  -6.716  1.00  0.00     0.029 A 
ATOM     50  N   UNL     1       3.041   1.844  -8.561  1.00  0.00    -0.354 N 
ATOM     51  C   UNL     1       1.193   5.364 -10.273  1.00  0.00     0.074 A 
ATOM     52  C   UNL     1       1.562   6.549  -9.532  1.00  0.00     0.031 C 
ATOM     53  C   UNL     1       4.292   0.700  -7.105  1.00  0.00     0.029 A 
ATOM     54  C   UNL     1       3.420   0.555  -8.270  1.00  0.00     0.049 A 
ATOM     55  H   UNL     1       2.510   2.084  -9.354  1.00  0.00     0.167 HD
ATOM     56  C   UNL     1       0.431   5.375 -11.390  1.00  0.00     0.031 A 
ATOM     57  C   UNL     1       3.064  -0.606  -8.855  1.00  0.00     0.031 A 
ATOM     58  C   UNL     1       0.044   4.193 -12.108  1.00  0.00     0.049 A 
ATOM     59  C   UNL     1       2.106  -0.579 -10.022  1.00  0.00     0.074 A 
ATOM     60  C   UNL     1      -0.745   4.090 -13.239  1.00  0.00     0.029 A 
ATOM     61  N   UNL     1       0.419   2.905 -11.758  1.00  0.00    -0.354 N 
ATOM     62  N   UNL     1       1.565   0.450 -10.628  1.00  0.00    -0.248 NA
ATOM     63  C   UNL     1       1.710  -1.879 -10.585  1.00  0.00     0.031 C 
ATOM     64  C   UNL     1      -0.893   2.734 -13.542  1.00  0.00     0.029 A 
ATOM     65  C   UNL     1      -0.136   2.000 -12.643  1.00  0.00     0.049 A 
ATOM     66  H   UNL     1       0.995   2.671 -10.995  1.00  0.00     0.167 HD
ATOM     67  C   UNL     1       0.807  -0.075 -11.670  1.00  0.00     0.074 A 
ATOM     68  C   UNL     1       0.960  -1.513 -11.616  1.00  0.00     0.031 C 
ATOM     69  C   UNL     1       0.056   0.574 -12.592  1.00  0.00     0.031 A 
BRANCH  56  70
ATOM     70  C   UNL     1      -0.062   6.707 -11.880  1.00  0.00    -0.014 A 
ATOM     71  C   UNL     1       0.817   7.646 -12.443  1.00  0.00     0.009 A 
ATOM     72  C   UNL     1      -1.429   7.015 -11.806  1.00  0.00     0.009 A 
ATOM     73  C   UNL     1       0.340   8.878 -12.895  1.00  0.00     0.001 A 
ATOM     74  C   UNL     1      -1.908   8.234 -12.288  1.00  0.00     0.001 A 
ATOM     75  C   UNL     1      -1.022   9.168 -12.823  1.00  0.00     0.000 A 
ENDBRANCH  56  70
BRANCH  57  76
ATOM     76  C   UNL     1       3.572  -1.905  -8.336  1.00  0.00    -0.014 A 
ATOM     77  C   UNL     1       4.408  -2.711  -9.126  1.00  0.00     0.009 A 
ATOM     78  C   UNL     1       3.178  -2.377  -7.074  1.00  0.00     0.009 A 
ATOM     79  C   UNL     1       4.803  -3.976  -8.681  1.00  0.00     0.001 A 
ATOM     80  C   UNL     1       3.604  -3.626  -6.616  1.00  0.00     0.001 A 
ATOM     81  C   UNL     1       4.403  -4.431  -7.426  1.00  0.00     0.000 A 
ENDBRANCH  57  76
BRANCH  69  82
ATOM     82  C   UNL     1      -0.593  -0.245 -13.674  1.00  0.00    -0.014 A 
ATOM     83  C   UNL     1      -1.702  -1.064 -13.415  1.00  0.00     0.009 A 
ATOM     84  C   UNL     1      -0.133  -0.120 -14.995  1.00  0.00     0.009 A 
ATOM     85  C   UNL     1      -2.323  -1.757 -14.457  1.00  0.00     0.001 A 
ATOM     86  C   UNL     1      -0.775  -0.788 -16.038  1.00  0.00     0.001 A 
ATOM     87  C   UNL     1      -1.866  -1.611 -15.767  1.00  0.00     0.000 A 
ENDBRANCH  69  82
ENDBRANCH  43  44
ENDBRANCH  36  38
ENDBRANCH  35  36
ENDBRANCH  34  35
ENDBRANCH  33  34
ENDBRANCH  32  33
ENDBRANCH  31  32
ENDBRANCH  30  31
ENDBRANCH  29  30
ENDBRANCH   1  29
TORSDOF 24
