REMARK SMILES Cc1nc2sc3c(c2c2nc(CCC(=O)OCCOCCOCCOCCOC(=O)c4ccc(-c5c6nc(c(-c7ccccc7)c7ccc([nH]7)c(-c7ccccc7)c7nc(c(-c8ccccc8)c8ccc5[nH]8)C=C7)C=C6)cc4)nn12)[C@@H](C)CCC3
REMARK SMILES IDX 22 1 21 2 20 3 19 4 18 5 17 6 16 7 14 8 15 9 13 10 12 11
REMARK SMILES IDX 11 12 1 13 2 14 3 15 80 16 4 17 9 18 79 19 5 20 8 21 10 22
REMARK SMILES IDX 6 23 7 24 85 25 81 26 84 27 82 28 83 29 23 30 24 31 25 32
REMARK SMILES IDX 26 33 27 34 28 35 29 36 30 37 31 38 32 39 78 40 33 41 77 42
REMARK SMILES IDX 34 43 35 44 36 45 71 46 37 47 76 48 70 49 72 50 38 51 75 52
REMARK SMILES IDX 69 53 68 54 39 56 61 57 46 58 60 59 47 60 50 61 59 62 73 63
REMARK SMILES IDX 48 64 49 65 58 67 74 68 51 69 40 70 41 71 45 72 42 73 44 74
REMARK SMILES IDX 43 75 62 76 63 77 67 78 64 79 66 80 65 81 52 82 53 83 57 84
REMARK SMILES IDX 54 85 56 86 55 87
REMARK H PARENT 72 55 50 66
REMARK Flexibility Score: inf
ROOT
ATOM      1  O   UNL     1       0.404   3.513   6.172  1.00  0.00    -0.377 OA
ENDROOT
BRANCH   1   2
ATOM      2  C   UNL     1      -0.444   4.626   6.406  1.00  0.00     0.188 C 
BRANCH   2   3
ATOM      3  C   UNL     1      -1.893   4.567   6.926  1.00  0.00     0.188 C 
BRANCH   3   4
ATOM      4  O   UNL     1      -2.268   3.553   7.832  1.00  0.00    -0.376 OA
BRANCH   4   5
ATOM      5  C   UNL     1      -3.131   2.497   7.421  1.00  0.00     0.202 C 
BRANCH   5   6
ATOM      6  C   UNL     1      -3.993   2.685   6.175  1.00  0.00     0.261 C 
BRANCH   6   7
ATOM      7  O   UNL     1      -3.188   2.728   4.975  1.00  0.00    -0.463 OA
BRANCH   7   8
ATOM      8  C   UNL     1      -3.704   3.484   3.976  1.00  0.00     0.306 C 
ATOM      9  O   UNL     1      -4.769   4.089   4.054  1.00  0.00    -0.252 OA
BRANCH   8  10
ATOM     10  C   UNL     1      -2.887   3.500   2.706  1.00  0.00     0.131 C 
BRANCH  10  11
ATOM     11  C   UNL     1      -1.380   3.341   2.840  1.00  0.00     0.091 C 
BRANCH  11  12
ATOM     12  C   UNL     1      -0.903   1.937   2.720  1.00  0.00     0.152 A 
ATOM     13  C   UNL     1       1.116  -0.305  -0.151  1.00  0.00     0.090 C 
ATOM     14  C   UNL     1       0.669  -0.746   1.209  1.00  0.00     0.131 A 
ATOM     15  N   UNL     1       0.924  -1.949   1.659  1.00  0.00    -0.222 NA
ATOM     16  N   UNL     1       0.003   0.216   1.978  1.00  0.00    -0.199 N 
ATOM     17  C   UNL     1       0.465  -2.228   2.923  1.00  0.00     0.129 A 
ATOM     18  C   UNL     1      -0.442  -0.037   3.248  1.00  0.00     0.168 A 
ATOM     19  N   UNL     1      -0.298   1.480   1.611  1.00  0.00    -0.150 NA
ATOM     20  S   UNL     1       0.707  -3.761   3.632  1.00  0.00    -0.120 S 
ATOM     21  C   UNL     1      -0.223  -1.393   3.794  1.00  0.00     0.060 A 
ATOM     22  N   UNL     1      -1.002   1.035   3.749  1.00  0.00    -0.211 NA
ATOM     23  C   UNL     1      -0.110  -3.302   5.056  1.00  0.00     0.011 A 
ATOM     24  C   UNL     1      -0.596  -2.003   5.027  1.00  0.00    -0.018 A 
ATOM     25  C   UNL     1      -0.277  -4.262   6.191  1.00  0.00     0.047 C 
ATOM     26  C   UNL     1      -1.354  -1.412   6.200  1.00  0.00     0.018 C 
ATOM     27  C   UNL     1      -0.532  -3.490   7.488  1.00  0.00     0.006 C 
ATOM     28  C   UNL     1      -2.687  -0.781   5.797  1.00  0.00     0.013 C 
ATOM     29  C   UNL     1      -1.656  -2.470   7.295  1.00  0.00     0.008 C 
ENDBRANCH  11  12
ENDBRANCH  10  11
ENDBRANCH   8  10
ENDBRANCH   7   8
ENDBRANCH   6   7
ENDBRANCH   5   6
ENDBRANCH   4   5
ENDBRANCH   3   4
ENDBRANCH   2   3
ENDBRANCH   1   2
BRANCH   1  30
ATOM     30  C   UNL     1       0.178   2.285   6.835  1.00  0.00     0.188 C 
BRANCH  30  31
ATOM     31  C   UNL     1       0.277   2.221   8.371  1.00  0.00     0.188 C 
BRANCH  31  32
ATOM     32  O   UNL     1       0.172   3.451   9.057  1.00  0.00    -0.376 OA
BRANCH  32  33
ATOM     33  C   UNL     1       1.270   4.332   9.223  1.00  0.00     0.202 C 
BRANCH  33  34
ATOM     34  C   UNL     1       2.479   4.360   8.289  1.00  0.00     0.261 C 
BRANCH  34  35
ATOM     35  O   UNL     1       2.909   3.114   7.775  1.00  0.00    -0.460 OA
BRANCH  35  36
ATOM     36  C   UNL     1       3.418   2.250   8.670  1.00  0.00     0.338 C 
ATOM     37  O   UNL     1       3.351   2.312   9.882  1.00  0.00    -0.246 OA
BRANCH  36  38
ATOM     38  C   UNL     1       4.201   1.258   7.920  1.00  0.00     0.060 A 
ATOM     39  C   UNL     1       4.765   0.220   8.659  1.00  0.00     0.016 A 
ATOM     40  C   UNL     1       4.593   1.526   6.596  1.00  0.00     0.016 A 
ATOM     41  C   UNL     1       5.880  -0.408   8.150  1.00  0.00     0.010 A 
ATOM     42  C   UNL     1       5.716   0.908   6.094  1.00  0.00     0.010 A 
ATOM     43  C   UNL     1       6.395   0.017   6.919  1.00  0.00    -0.014 A 
BRANCH  43  44
ATOM     44  C   UNL     1       7.710  -0.461   6.557  1.00  0.00     0.031 A 
ATOM     45  C   UNL     1       7.774  -1.843   6.055  1.00  0.00     0.074 A 
ATOM     46  C   UNL     1       8.805   0.315   6.643  1.00  0.00     0.049 A 
ATOM     47  N   UNL     1       8.387  -2.842   6.594  1.00  0.00    -0.248 NA
ATOM     48  C   UNL     1       7.000  -2.167   4.851  1.00  0.00     0.031 C 
ATOM     49  C   UNL     1       8.873   1.761   6.862  1.00  0.00     0.029 A 
ATOM     50  N   UNL     1      10.104  -0.041   6.452  1.00  0.00    -0.354 N 
ATOM     51  C   UNL     1       8.209  -3.904   5.719  1.00  0.00     0.074 A 
ATOM     52  C   UNL     1       7.259  -3.468   4.726  1.00  0.00     0.031 C 
ATOM     53  C   UNL     1      10.126   2.187   6.584  1.00  0.00     0.029 A 
ATOM     54  C   UNL     1      10.961   1.033   6.287  1.00  0.00     0.049 A 
ATOM     55  H   UNL     1      10.407  -0.978   6.433  1.00  0.00     0.167 HD
ATOM     56  C   UNL     1       9.007  -5.003   5.759  1.00  0.00     0.031 A 
ATOM     57  C   UNL     1      12.250   0.979   5.877  1.00  0.00     0.031 A 
ATOM     58  C   UNL     1       9.719  -5.121   7.003  1.00  0.00     0.049 A 
ATOM     59  C   UNL     1      12.743  -0.401   6.090  1.00  0.00     0.074 A 
ATOM     60  C   UNL     1       9.349  -5.251   8.326  1.00  0.00     0.029 A 
ATOM     61  N   UNL     1      11.050  -4.780   7.012  1.00  0.00    -0.354 N 
ATOM     62  N   UNL     1      13.003  -0.905   7.262  1.00  0.00    -0.248 NA
ATOM     63  C   UNL     1      12.614  -1.372   5.013  1.00  0.00     0.031 C 
ATOM     64  C   UNL     1      10.353  -4.566   9.069  1.00  0.00     0.029 A 
ATOM     65  C   UNL     1      11.284  -4.064   8.158  1.00  0.00     0.049 A 
ATOM     66  H   UNL     1      11.714  -5.009   6.322  1.00  0.00     0.167 HD
ATOM     67  C   UNL     1      12.651  -2.243   7.160  1.00  0.00     0.074 A 
ATOM     68  C   UNL     1      12.560  -2.500   5.727  1.00  0.00     0.031 C 
ATOM     69  C   UNL     1      12.186  -2.935   8.242  1.00  0.00     0.031 A 
BRANCH  56  70
ATOM     70  C   UNL     1       9.399  -5.772   4.529  1.00  0.00    -0.014 A 
ATOM     71  C   UNL     1      10.145  -6.954   4.675  1.00  0.00     0.009 A 
ATOM     72  C   UNL     1       9.295  -5.242   3.228  1.00  0.00     0.009 A 
ATOM     73  C   UNL     1      10.795  -7.541   3.583  1.00  0.00     0.001 A 
ATOM     74  C   UNL     1       9.904  -5.851   2.129  1.00  0.00     0.001 A 
ATOM     75  C   UNL     1      10.676  -6.988   2.312  1.00  0.00     0.000 A 
ENDBRANCH  56  70
BRANCH  57  76
ATOM     76  C   UNL     1      13.037   2.008   5.169  1.00  0.00    -0.014 A 
ATOM     77  C   UNL     1      14.436   1.919   5.098  1.00  0.00     0.009 A 
ATOM     78  C   UNL     1      12.402   2.970   4.362  1.00  0.00     0.009 A 
ATOM     79  C   UNL     1      15.166   2.744   4.234  1.00  0.00     0.001 A 
ATOM     80  C   UNL     1      13.131   3.804   3.510  1.00  0.00     0.001 A 
ATOM     81  C   UNL     1      14.513   3.681   3.436  1.00  0.00     0.000 A 
ENDBRANCH  57  76
BRANCH  69  82
ATOM     82  C   UNL     1      12.334  -2.299   9.604  1.00  0.00    -0.014 A 
ATOM     83  C   UNL     1      11.746  -1.063   9.925  1.00  0.00     0.009 A 
ATOM     84  C   UNL     1      12.938  -3.036  10.634  1.00  0.00     0.009 A 
ATOM     85  C   UNL     1      11.790  -0.564  11.229  1.00  0.00     0.001 A 
ATOM     86  C   UNL     1      12.961  -2.548  11.944  1.00  0.00     0.001 A 
ATOM     87  C   UNL     1      12.393  -1.310  12.239  1.00  0.00     0.000 A 
ENDBRANCH  69  82
ENDBRANCH  43  44
ENDBRANCH  36  38
ENDBRANCH  35  36
ENDBRANCH  34  35
ENDBRANCH  33  34
ENDBRANCH  32  33
ENDBRANCH  31  32
ENDBRANCH  30  31
ENDBRANCH   1  30
TORSDOF 22
