REMARK SMILES O=C(OCCOCCOCCOCCOC(=O)[C@H]1C[C@H]2CCCC[C@@H]2[N@@H+]1CC[C@@H]1CCCO1)c1ccc(-c2c3nc(c(-c4ccccc4)c4ccc([nH]4)c(-c4ccccc4)c4nc(c(-c5ccccc5)c5ccc2[nH]5)C=C4)C=C3)cc1
REMARK SMILES IDX 10 1 9 2 8 3 7 4 6 5 5 6 4 7 3 8 2 9 1 10 34 11 35 12 81 13
REMARK SMILES IDX 36 14 80 15 37 16 38 17 39 18 74 19 40 20 79 21 73 22 75 23
REMARK SMILES IDX 41 24 78 25 72 26 71 27 42 29 64 30 49 31 63 32 50 33 53 34
REMARK SMILES IDX 62 35 76 36 51 37 52 38 61 40 77 41 54 42 43 43 44 44 48 45
REMARK SMILES IDX 45 46 47 47 46 48 65 49 66 50 70 51 67 52 69 53 68 54 55 55
REMARK SMILES IDX 56 56 60 57 57 58 59 59 58 60 11 61 12 62 13 63 14 64 15 65
REMARK SMILES IDX 16 66 17 67 18 68 19 69 26 70 20 71 25 72 21 74 24 75 22 76
REMARK SMILES IDX 23 77 27 78 28 79 29 80 30 81 33 82 31 83 32 84
REMARK H PARENT 75 28 53 39 26 73
REMARK Flexibility Score: inf
ROOT
ATOM      1  C   UNL     1       5.005   3.291   0.189  1.00  0.00     0.188 C 
ENDROOT
BRANCH   1   2
ATOM      2  O   UNL     1       6.182   3.825  -0.411  1.00  0.00    -0.377 OA
BRANCH   2   3
ATOM      3  C   UNL     1       6.907   2.995  -1.322  1.00  0.00     0.188 C 
BRANCH   3   4
ATOM      4  C   UNL     1       7.390   1.688  -0.698  1.00  0.00     0.188 C 
BRANCH   4   5
ATOM      5  O   UNL     1       6.247   0.886  -0.425  1.00  0.00    -0.376 OA
BRANCH   5   6
ATOM      6  C   UNL     1       6.356  -0.037   0.642  1.00  0.00     0.202 C 
BRANCH   6   7
ATOM      7  C   UNL     1       7.115  -1.317   0.297  1.00  0.00     0.261 C 
BRANCH   7   8
ATOM      8  O   UNL     1       7.925  -1.210  -0.891  1.00  0.00    -0.460 OA
BRANCH   8   9
ATOM      9  C   UNL     1       7.588  -1.647  -2.134  1.00  0.00     0.338 C 
ATOM     10  O   UNL     1       8.440  -1.767  -3.005  1.00  0.00    -0.246 OA
BRANCH   9  11
ATOM     11  C   UNL     1       6.192  -2.043  -2.442  1.00  0.00     0.060 A 
ATOM     12  C   UNL     1       5.107  -1.230  -2.138  1.00  0.00     0.016 A 
ATOM     13  C   UNL     1       5.960  -3.230  -3.142  1.00  0.00     0.016 A 
ATOM     14  C   UNL     1       3.808  -1.681  -2.293  1.00  0.00     0.010 A 
ATOM     15  C   UNL     1       4.649  -3.628  -3.433  1.00  0.00     0.010 A 
ATOM     16  C   UNL     1       3.559  -2.886  -2.948  1.00  0.00    -0.014 A 
BRANCH  16  17
ATOM     17  C   UNL     1       2.165  -3.389  -3.006  1.00  0.00     0.031 A 
ATOM     18  C   UNL     1       1.838  -4.686  -2.318  1.00  0.00     0.074 A 
ATOM     19  C   UNL     1       1.183  -2.634  -3.539  1.00  0.00     0.049 A 
ATOM     20  N   UNL     1       0.721  -5.364  -2.315  1.00  0.00    -0.248 NA
ATOM     21  C   UNL     1       2.916  -5.305  -1.526  1.00  0.00     0.031 C 
ATOM     22  C   UNL     1       1.360  -1.305  -4.134  1.00  0.00     0.029 A 
ATOM     23  N   UNL     1      -0.169  -2.849  -3.618  1.00  0.00    -0.354 N 
ATOM     24  C   UNL     1       0.981  -6.510  -1.575  1.00  0.00     0.074 A 
ATOM     25  C   UNL     1       2.358  -6.443  -1.147  1.00  0.00     0.031 C 
ATOM     26  C   UNL     1       0.158  -0.795  -4.443  1.00  0.00     0.029 A 
ATOM     27  C   UNL     1      -0.863  -1.798  -4.169  1.00  0.00     0.049 A 
ATOM     28  H   UNL     1      -0.601  -3.678  -3.310  1.00  0.00     0.167 HD
ATOM     29  C   UNL     1       0.143  -7.532  -1.283  1.00  0.00     0.031 A 
ATOM     30  C   UNL     1      -2.173  -1.674  -4.455  1.00  0.00     0.031 A 
ATOM     31  C   UNL     1      -1.230  -7.573  -1.696  1.00  0.00     0.049 A 
ATOM     32  C   UNL     1      -3.071  -2.845  -4.172  1.00  0.00     0.074 A 
ATOM     33  C   UNL     1      -2.153  -8.591  -1.554  1.00  0.00     0.029 A 
ATOM     34  N   UNL     1      -1.883  -6.518  -2.319  1.00  0.00    -0.354 N 
ATOM     35  N   UNL     1      -2.781  -3.986  -3.591  1.00  0.00    -0.248 NA
ATOM     36  C   UNL     1      -4.467  -2.727  -4.611  1.00  0.00     0.031 C 
ATOM     37  C   UNL     1      -3.362  -8.159  -2.113  1.00  0.00     0.029 A 
ATOM     38  C   UNL     1      -3.200  -6.858  -2.565  1.00  0.00     0.049 A 
ATOM     39  H   UNL     1      -1.469  -5.656  -2.551  1.00  0.00     0.167 HD
ATOM     40  C   UNL     1      -3.955  -4.725  -3.602  1.00  0.00     0.074 A 
ATOM     41  C   UNL     1      -4.970  -3.886  -4.209  1.00  0.00     0.031 C 
ATOM     42  C   UNL     1      -4.175  -5.991  -3.172  1.00  0.00     0.031 A 
BRANCH  29  43
ATOM     43  C   UNL     1       0.733  -8.697  -0.541  1.00  0.00    -0.014 A 
ATOM     44  C   UNL     1       1.037  -8.617   0.827  1.00  0.00     0.009 A 
ATOM     45  C   UNL     1       1.039  -9.875  -1.239  1.00  0.00     0.009 A 
ATOM     46  C   UNL     1       1.675  -9.681   1.471  1.00  0.00     0.001 A 
ATOM     47  C   UNL     1       1.656 -10.945  -0.587  1.00  0.00     0.001 A 
ATOM     48  C   UNL     1       1.984 -10.842   0.764  1.00  0.00     0.000 A 
ENDBRANCH  29  43
BRANCH  30  49
ATOM     49  C   UNL     1      -2.694  -0.442  -5.109  1.00  0.00    -0.014 A 
ATOM     50  C   UNL     1      -3.611   0.395  -4.455  1.00  0.00     0.009 A 
ATOM     51  C   UNL     1      -2.285  -0.103  -6.410  1.00  0.00     0.009 A 
ATOM     52  C   UNL     1      -4.120   1.529  -5.096  1.00  0.00     0.001 A 
ATOM     53  C   UNL     1      -2.768   1.049  -7.035  1.00  0.00     0.001 A 
ATOM     54  C   UNL     1      -3.693   1.858  -6.382  1.00  0.00     0.000 A 
ENDBRANCH  30  49
BRANCH  42  55
ATOM     55  C   UNL     1      -5.568  -6.521  -3.335  1.00  0.00    -0.014 A 
ATOM     56  C   UNL     1      -6.042  -6.920  -4.594  1.00  0.00     0.009 A 
ATOM     57  C   UNL     1      -6.399  -6.647  -2.213  1.00  0.00     0.009 A 
ATOM     58  C   UNL     1      -7.342  -7.408  -4.730  1.00  0.00     0.001 A 
ATOM     59  C   UNL     1      -7.689  -7.158  -2.350  1.00  0.00     0.001 A 
ATOM     60  C   UNL     1      -8.162  -7.530  -3.608  1.00  0.00     0.000 A 
ENDBRANCH  42  55
ENDBRANCH  16  17
ENDBRANCH   9  11
ENDBRANCH   8   9
ENDBRANCH   7   8
ENDBRANCH   6   7
ENDBRANCH   5   6
ENDBRANCH   4   5
ENDBRANCH   3   4
ENDBRANCH   2   3
ENDBRANCH   1   2
BRANCH   1  61
ATOM     61  C   UNL     1       3.771   3.110  -0.709  1.00  0.00     0.188 C 
BRANCH  61  62
ATOM     62  O   UNL     1       4.075   2.744  -2.053  1.00  0.00    -0.376 OA
BRANCH  62  63
ATOM     63  C   UNL     1       3.367   3.519  -3.024  1.00  0.00     0.202 C 
BRANCH  63  64
ATOM     64  C   UNL     1       3.939   4.926  -3.280  1.00  0.00     0.261 C 
BRANCH  64  65
ATOM     65  O   UNL     1       4.542   5.510  -2.116  1.00  0.00    -0.459 OA
BRANCH  65  66
ATOM     66  C   UNL     1       3.888   6.497  -1.438  1.00  0.00     0.365 C 
ATOM     67  O   UNL     1       2.807   6.955  -1.778  1.00  0.00    -0.245 OA
BRANCH  66  68
ATOM     68  C   UNL     1       4.634   6.787  -0.110  1.00  0.00     0.295 C 
ATOM     69  C   UNL     1       6.171   6.778  -0.275  1.00  0.00     0.087 C 
ATOM     70  N   UNL     1       4.287   8.133   0.440  1.00  0.00    -0.320 N 
ATOM     71  C   UNL     1       6.624   8.053   0.389  1.00  0.00     0.054 C 
ATOM     72  C   UNL     1       5.444   8.977   0.146  1.00  0.00     0.188 C 
ATOM     73  H   UNL     1       3.474   8.555  -0.009  1.00  0.00     0.349 HD
ATOM     74  C   UNL     1       7.941   8.658  -0.053  1.00  0.00     0.010 C 
ATOM     75  C   UNL     1       5.598  10.356   0.777  1.00  0.00     0.065 C 
ATOM     76  C   UNL     1       8.131   9.995   0.669  1.00  0.00     0.001 C 
ATOM     77  C   UNL     1       6.963  10.956   0.414  1.00  0.00     0.006 C 
BRANCH  70  78
ATOM     78  C   UNL     1       3.728   8.115   1.804  1.00  0.00     0.265 C 
BRANCH  78  79
ATOM     79  C   UNL     1       4.471   7.438   2.987  1.00  0.00     0.093 C 
BRANCH  79  80
ATOM     80  C   UNL     1       5.524   8.300   3.672  1.00  0.00     0.123 C 
ATOM     81  C   UNL     1       6.359   7.591   4.720  1.00  0.00     0.034 C 
ATOM     82  O   UNL     1       4.965   9.404   4.394  1.00  0.00    -0.378 OA
ATOM     83  C   UNL     1       7.036   8.773   5.386  1.00  0.00     0.031 C 
ATOM     84  C   UNL     1       6.048   9.918   5.192  1.00  0.00     0.160 C 
ENDBRANCH  79  80
ENDBRANCH  78  79
ENDBRANCH  70  78
ENDBRANCH  66  68
ENDBRANCH  65  66
ENDBRANCH  64  65
ENDBRANCH  63  64
ENDBRANCH  62  63
ENDBRANCH  61  62
ENDBRANCH   1  61
TORSDOF 23
