REMARK SMILES CSc1ccc(C=C2C(C)=C(CC(=O)OCCOCCOCCOCCOC(=O)c3ccc(-c4c5nc(c(-c6ccccc6)c6ccc([nH]6)c(-c6ccccc6)c6nc(c(-c7ccccc7)c7ccc4[nH]7)C=C6)C=C5)cc3)c3cc(F)ccc32)cc1
REMARK SMILES IDX 20 1 19 2 18 3 17 4 16 5 15 6 13 7 14 8 12 9 11 10 7 11 8 12
REMARK SMILES IDX 9 13 84 14 10 15 78 16 83 17 79 18 82 19 80 20 81 21 6 22
REMARK SMILES IDX 3 23 4 24 86 25 5 26 85 27 2 28 1 29 21 30 22 31 23 32 24 33
REMARK SMILES IDX 25 34 26 35 27 36 28 37 29 38 30 39 31 40 77 41 32 42 76 43
REMARK SMILES IDX 33 44 34 45 35 46 70 47 36 48 75 49 69 50 71 51 37 52 74 53
REMARK SMILES IDX 68 54 67 55 38 57 60 58 45 59 59 60 46 61 49 62 58 63 72 64
REMARK SMILES IDX 47 65 48 66 57 68 73 69 50 70 39 71 40 72 44 73 41 74 43 75
REMARK SMILES IDX 42 76 61 77 62 78 66 79 63 80 65 81 64 82 51 83 52 84 56 85
REMARK SMILES IDX 53 86 55 87 54 88
REMARK H PARENT 71 56 49 67
REMARK Flexibility Score: inf
ROOT
ATOM      1  C   UNL     1       3.155  -9.507  -5.046  1.00  0.00     0.188 C 
ENDROOT
BRANCH   1   2
ATOM      2  C   UNL     1       3.190 -10.509  -6.195  1.00  0.00     0.188 C 
BRANCH   2   3
ATOM      3  O   UNL     1       4.456 -11.043  -6.482  1.00  0.00    -0.376 OA
BRANCH   3   4
ATOM      4  C   UNL     1       5.455 -10.304  -7.153  1.00  0.00     0.202 C 
BRANCH   4   5
ATOM      5  C   UNL     1       5.431  -8.800  -7.511  1.00  0.00     0.261 C 
BRANCH   5   6
ATOM      6  O   UNL     1       4.285  -8.008  -7.184  1.00  0.00    -0.463 OA
BRANCH   6   7
ATOM      7  C   UNL     1       3.328  -7.832  -8.128  1.00  0.00     0.310 C 
ATOM      8  O   UNL     1       3.386  -8.309  -9.254  1.00  0.00    -0.252 OA
BRANCH   7   9
ATOM      9  C   UNL     1       2.192  -6.919  -7.654  1.00  0.00     0.159 C 
BRANCH   9  10
ATOM     10  C   UNL     1       1.720  -7.078  -6.225  1.00  0.00    -0.025 C 
ATOM     11  C   UNL     1       0.904  -4.083  -5.257  1.00  0.00     0.017 C 
ATOM     12  C   UNL     1       0.843  -5.400  -4.960  1.00  0.00    -0.014 C 
ATOM     13  C   UNL     1       2.042  -6.249  -5.190  1.00  0.00    -0.039 C 
ATOM     14  C   UNL     1      -0.282  -6.339  -5.204  1.00  0.00    -0.010 A 
ATOM     15  C   UNL     1       2.274  -6.845  -3.767  1.00  0.00     0.045 C 
ATOM     16  C   UNL     1       0.279  -7.377  -5.987  1.00  0.00    -0.011 A 
ATOM     17  C   UNL     1      -1.360  -6.597  -4.367  1.00  0.00     0.012 A 
ATOM     18  C   UNL     1      -0.265  -8.657  -6.006  1.00  0.00     0.048 A 
ATOM     19  C   UNL     1      -1.848  -7.913  -4.307  1.00  0.00     0.040 A 
ATOM     20  C   UNL     1      -1.303  -8.918  -5.118  1.00  0.00     0.123 A 
ATOM     21  F   UNL     1      -1.689 -10.189  -4.932  1.00  0.00    -0.207 F 
BRANCH  11  22
ATOM     22  C   UNL     1       1.175  -3.159  -4.106  1.00  0.00    -0.025 A 
ATOM     23  C   UNL     1       0.995  -1.654  -1.752  1.00  0.00     0.007 A 
ATOM     24  C   UNL     1       1.608  -2.896  -1.728  1.00  0.00     0.015 A 
ATOM     25  C   UNL     1       0.704  -1.065  -2.987  1.00  0.00     0.015 A 
ATOM     26  C   UNL     1       1.754  -3.604  -2.912  1.00  0.00     0.009 A 
ATOM     27  C   UNL     1       0.785  -1.823  -4.167  1.00  0.00     0.009 A 
BRANCH  23  28
ATOM     28  S   UNL     1       0.375  -1.025  -0.206  1.00  0.00    -0.130 SA
ATOM     29  C   UNL     1       1.329   0.487  -0.041  1.00  0.00     0.091 C 
ENDBRANCH  23  28
ENDBRANCH  11  22
ENDBRANCH   9  10
ENDBRANCH   7   9
ENDBRANCH   6   7
ENDBRANCH   5   6
ENDBRANCH   4   5
ENDBRANCH   3   4
ENDBRANCH   2   3
ENDBRANCH   1   2
BRANCH   1  30
ATOM     30  O   UNL     1       3.550  -9.813  -3.728  1.00  0.00    -0.377 OA
BRANCH  30  31
ATOM     31  C   UNL     1       4.754 -10.523  -3.615  1.00  0.00     0.188 C 
BRANCH  31  32
ATOM     32  C   UNL     1       4.459 -12.002  -3.386  1.00  0.00     0.188 C 
BRANCH  32  33
ATOM     33  O   UNL     1       3.200 -12.490  -3.811  1.00  0.00    -0.376 OA
BRANCH  33  34
ATOM     34  C   UNL     1       1.964 -12.091  -3.228  1.00  0.00     0.202 C 
BRANCH  34  35
ATOM     35  C   UNL     1       1.713 -11.253  -1.951  1.00  0.00     0.261 C 
BRANCH  35  36
ATOM     36  O   UNL     1       2.801 -10.587  -1.323  1.00  0.00    -0.460 OA
BRANCH  36  37
ATOM     37  C   UNL     1       3.453 -11.288  -0.372  1.00  0.00     0.338 C 
ATOM     38  O   UNL     1       3.234 -12.413   0.010  1.00  0.00    -0.246 OA
BRANCH  37  39
ATOM     39  C   UNL     1       4.644 -10.493  -0.020  1.00  0.00     0.060 A 
ATOM     40  C   UNL     1       5.900 -11.051  -0.285  1.00  0.00     0.016 A 
ATOM     41  C   UNL     1       4.524  -9.212   0.526  1.00  0.00     0.016 A 
ATOM     42  C   UNL     1       7.049 -10.329  -0.003  1.00  0.00     0.010 A 
ATOM     43  C   UNL     1       5.680  -8.507   0.859  1.00  0.00     0.010 A 
ATOM     44  C   UNL     1       6.941  -9.081   0.621  1.00  0.00    -0.014 A 
BRANCH  44  45
ATOM     45  C   UNL     1       8.150  -8.531   1.261  1.00  0.00     0.031 A 
ATOM     46  C   UNL     1       8.401  -8.899   2.693  1.00  0.00     0.074 A 
ATOM     47  C   UNL     1       9.032  -7.796   0.568  1.00  0.00     0.049 A 
ATOM     48  N   UNL     1       9.407  -8.588   3.467  1.00  0.00    -0.248 NA
ATOM     49  C   UNL     1       7.376  -9.738   3.338  1.00  0.00     0.031 C 
ATOM     50  C   UNL     1       8.911  -7.435  -0.843  1.00  0.00     0.029 A 
ATOM     51  N   UNL     1      10.213  -7.229   0.967  1.00  0.00    -0.354 N 
ATOM     52  C   UNL     1       9.132  -9.189   4.689  1.00  0.00     0.074 A 
ATOM     53  C   UNL     1       7.853  -9.851   4.565  1.00  0.00     0.031 C 
ATOM     54  C   UNL     1       9.977  -6.694  -1.191  1.00  0.00     0.029 A 
ATOM     55  C   UNL     1      10.833  -6.508  -0.020  1.00  0.00     0.049 A 
ATOM     56  H   UNL     1      10.580  -7.329   1.875  1.00  0.00     0.167 HD
ATOM     57  C   UNL     1       9.881  -9.189   5.815  1.00  0.00     0.031 A 
ATOM     58  C   UNL     1      11.956  -5.768   0.029  1.00  0.00     0.031 A 
ATOM     59  C   UNL     1      11.132  -8.492   5.937  1.00  0.00     0.049 A 
ATOM     60  C   UNL     1      12.733  -5.707   1.317  1.00  0.00     0.074 A 
ATOM     61  C   UNL     1      11.978  -8.420   7.027  1.00  0.00     0.029 A 
ATOM     62  N   UNL     1      11.704  -7.725   4.931  1.00  0.00    -0.354 N 
ATOM     63  N   UNL     1      12.485  -6.298   2.462  1.00  0.00    -0.248 NA
ATOM     64  C   UNL     1      13.953  -4.888   1.314  1.00  0.00     0.031 C 
ATOM     65  C   UNL     1      13.025  -7.550   6.705  1.00  0.00     0.029 A 
ATOM     66  C   UNL     1      12.874  -7.145   5.387  1.00  0.00     0.049 A 
ATOM     67  H   UNL     1      11.332  -7.611   4.026  1.00  0.00     0.167 HD
ATOM     68  C   UNL     1      13.528  -5.944   3.309  1.00  0.00     0.074 A 
ATOM     69  C   UNL     1      14.419  -5.099   2.538  1.00  0.00     0.031 C 
ATOM     70  C   UNL     1      13.736  -6.293   4.604  1.00  0.00     0.031 A 
BRANCH  57  71
ATOM     71  C   UNL     1       9.312  -9.904   7.010  1.00  0.00    -0.014 A 
ATOM     72  C   UNL     1       9.150 -11.300   7.030  1.00  0.00     0.009 A 
ATOM     73  C   UNL     1       8.893  -9.159   8.123  1.00  0.00     0.009 A 
ATOM     74  C   UNL     1       8.529 -11.925   8.114  1.00  0.00     0.001 A 
ATOM     75  C   UNL     1       8.307  -9.790   9.221  1.00  0.00     0.001 A 
ATOM     76  C   UNL     1       8.111 -11.170   9.209  1.00  0.00     0.000 A 
ENDBRANCH  57  71
BRANCH  58  77
ATOM     77  C   UNL     1      12.390  -5.014  -1.176  1.00  0.00    -0.014 A 
ATOM     78  C   UNL     1      13.537  -5.389  -1.890  1.00  0.00     0.009 A 
ATOM     79  C   UNL     1      11.632  -3.923  -1.634  1.00  0.00     0.009 A 
ATOM     80  C   UNL     1      13.922  -4.679  -3.031  1.00  0.00     0.001 A 
ATOM     81  C   UNL     1      12.003  -3.235  -2.791  1.00  0.00     0.001 A 
ATOM     82  C   UNL     1      13.150  -3.610  -3.485  1.00  0.00     0.000 A 
ENDBRANCH  58  77
BRANCH  70  83
ATOM     83  C   UNL     1      14.993  -5.786   5.260  1.00  0.00    -0.014 A 
ATOM     84  C   UNL     1      15.160  -4.429   5.579  1.00  0.00     0.009 A 
ATOM     85  C   UNL     1      16.005  -6.695   5.607  1.00  0.00     0.009 A 
ATOM     86  C   UNL     1      16.334  -3.990   6.197  1.00  0.00     0.001 A 
ATOM     87  C   UNL     1      17.160  -6.259   6.256  1.00  0.00     0.001 A 
ATOM     88  C   UNL     1      17.329  -4.905   6.540  1.00  0.00     0.000 A 
ENDBRANCH  70  83
ENDBRANCH  44  45
ENDBRANCH  37  39
ENDBRANCH  36  37
ENDBRANCH  35  36
ENDBRANCH  34  35
ENDBRANCH  33  34
ENDBRANCH  32  33
ENDBRANCH  31  32
ENDBRANCH  30  31
ENDBRANCH   1  30
TORSDOF 23
