REMARK SMILES COc1ccc(NC(=O)N2CC[C@@H](C(=O)OCCOCCOCCOCCOC(=O)c3ccc(-c4c5nc(c(-c6ccccc6)c6ccc([nH]6)c(-c6ccccc6)c6nc(c(-c7ccccc7)c7ccc4[nH]7)C=C6)C=C5)cc3)[C@H]2C)cc1F
REMARK SMILES IDX 21 1 20 2 19 3 18 4 17 5 16 6 14 7 15 8 13 9 10 10 11 11
REMARK SMILES IDX 79 12 12 13 80 14 8 15 7 16 9 18 6 19 3 20 4 21 82 22 5 23
REMARK SMILES IDX 81 24 83 25 2 26 1 27 22 28 23 29 24 30 25 31 26 32 27 33
REMARK SMILES IDX 28 34 29 35 30 36 31 37 32 38 78 39 33 40 77 41 34 42 35 43
REMARK SMILES IDX 36 44 71 45 37 46 76 47 70 48 72 49 38 50 75 51 69 52 68 53
REMARK SMILES IDX 39 55 61 56 46 57 60 58 47 59 50 60 59 61 73 62 48 63 49 64
REMARK SMILES IDX 58 66 74 67 51 68 40 69 41 70 45 71 42 72 44 73 43 74 62 75
REMARK SMILES IDX 63 76 67 77 64 78 66 79 65 80 52 81 53 82 57 83 54 84 56 85
REMARK SMILES IDX 55 86
REMARK H PARENT 7 17 72 54 50 65
REMARK Flexibility Score: inf
ROOT
ATOM      1  C   UNL     1      -2.974  -1.489   4.525  1.00  0.00     0.188 C 
ENDROOT
BRANCH   1   2
ATOM      2  C   UNL     1      -4.403  -0.930   4.624  1.00  0.00     0.188 C 
BRANCH   2   3
ATOM      3  O   UNL     1      -4.877  -0.430   3.385  1.00  0.00    -0.376 OA
BRANCH   3   4
ATOM      4  C   UNL     1      -5.794   0.647   3.433  1.00  0.00     0.202 C 
BRANCH   4   5
ATOM      5  C   UNL     1      -5.159   2.025   3.674  1.00  0.00     0.261 C 
BRANCH   5   6
ATOM      6  O   UNL     1      -4.025   2.011   4.556  1.00  0.00    -0.463 OA
BRANCH   6   7
ATOM      7  C   UNL     1      -4.211   2.254   5.865  1.00  0.00     0.311 C 
ATOM      8  O   UNL     1      -5.305   2.510   6.357  1.00  0.00    -0.252 OA
BRANCH   7   9
ATOM      9  C   UNL     1      -2.940   2.180   6.702  1.00  0.00     0.123 C 
ATOM     10  N   UNL     1      -0.572   2.430   7.027  1.00  0.00    -0.321 N 
ATOM     11  C   UNL     1      -1.275   3.357   7.896  1.00  0.00     0.122 C 
ATOM     12  C   UNL     1      -1.559   1.666   6.198  1.00  0.00     0.098 C 
ATOM     13  C   UNL     1      -2.614   3.574   7.231  1.00  0.00     0.039 C 
ATOM     14  C   UNL     1      -1.311   1.786   4.705  1.00  0.00     0.032 C 
BRANCH  10  15
ATOM     15  C   UNL     1       0.610   1.917   7.517  1.00  0.00     0.322 C 
ATOM     16  N   UNL     1       1.579   1.483   6.671  1.00  0.00    -0.308 N 
ATOM     17  H   UNL     1       2.157   0.777   7.043  1.00  0.00     0.171 HD
ATOM     18  O   UNL     1       0.818   1.807   8.728  1.00  0.00    -0.248 OA
BRANCH  16  19
ATOM     19  C   UNL     1       1.901   1.863   5.363  1.00  0.00     0.046 A 
ATOM     20  C   UNL     1       2.109   2.221   2.623  1.00  0.00     0.154 A 
ATOM     21  C   UNL     1       1.532   3.222   3.396  1.00  0.00     0.052 A 
ATOM     22  C   UNL     1       2.761   1.153   3.240  1.00  0.00     0.167 A 
ATOM     23  C   UNL     1       1.443   3.048   4.777  1.00  0.00     0.030 A 
ATOM     24  C   UNL     1       2.668   0.972   4.612  1.00  0.00     0.069 A 
ATOM     25  F   UNL     1       3.397   0.225   2.509  1.00  0.00    -0.203 F 
BRANCH  20  26
ATOM     26  O   UNL     1       1.924   2.315   1.273  1.00  0.00    -0.494 OA
ATOM     27  C   UNL     1       1.465   1.076   0.733  1.00  0.00     0.278 C 
ENDBRANCH  20  26
ENDBRANCH  16  19
ENDBRANCH  10  15
ENDBRANCH   7   9
ENDBRANCH   6   7
ENDBRANCH   5   6
ENDBRANCH   4   5
ENDBRANCH   3   4
ENDBRANCH   2   3
ENDBRANCH   1   2
BRANCH   1  28
ATOM     28  O   UNL     1      -2.122  -1.029   3.479  1.00  0.00    -0.377 OA
BRANCH  28  29
ATOM     29  C   UNL     1      -2.617  -1.007   2.139  1.00  0.00     0.188 C 
BRANCH  29  30
ATOM     30  C   UNL     1      -3.465  -2.197   1.639  1.00  0.00     0.188 C 
BRANCH  30  31
ATOM     31  O   UNL     1      -3.471  -3.327   2.498  1.00  0.00    -0.376 OA
BRANCH  31  32
ATOM     32  C   UNL     1      -2.523  -4.349   2.215  1.00  0.00     0.202 C 
BRANCH  32  33
ATOM     33  C   UNL     1      -1.047  -3.934   2.256  1.00  0.00     0.261 C 
BRANCH  33  34
ATOM     34  O   UNL     1      -0.632  -3.029   1.218  1.00  0.00    -0.460 OA
BRANCH  34  35
ATOM     35  C   UNL     1      -0.823  -3.401  -0.070  1.00  0.00     0.338 C 
ATOM     36  O   UNL     1      -1.280  -4.430  -0.496  1.00  0.00    -0.246 OA
BRANCH  35  37
ATOM     37  C   UNL     1      -0.429  -2.245  -0.895  1.00  0.00     0.060 A 
ATOM     38  C   UNL     1      -1.399  -1.446  -1.516  1.00  0.00     0.016 A 
ATOM     39  C   UNL     1       0.925  -1.969  -1.042  1.00  0.00     0.016 A 
ATOM     40  C   UNL     1      -1.008  -0.351  -2.296  1.00  0.00     0.010 A 
ATOM     41  C   UNL     1       1.310  -0.888  -1.829  1.00  0.00     0.010 A 
ATOM     42  C   UNL     1       0.352  -0.073  -2.469  1.00  0.00    -0.014 A 
BRANCH  42  43
ATOM     43  C   UNL     1       0.847   0.928  -3.450  1.00  0.00     0.031 A 
ATOM     44  C   UNL     1       1.569   0.391  -4.655  1.00  0.00     0.074 A 
ATOM     45  C   UNL     1       0.755   2.258  -3.261  1.00  0.00     0.049 A 
ATOM     46  N   UNL     1       2.355   1.003  -5.500  1.00  0.00    -0.248 NA
ATOM     47  C   UNL     1       1.410  -1.052  -4.908  1.00  0.00     0.031 C 
ATOM     48  C   UNL     1       0.040   2.932  -2.180  1.00  0.00     0.029 A 
ATOM     49  N   UNL     1       1.315   3.289  -3.980  1.00  0.00    -0.354 N 
ATOM     50  C   UNL     1       2.823   0.010  -6.350  1.00  0.00     0.074 A 
ATOM     51  C   UNL     1       2.269  -1.245  -5.894  1.00  0.00     0.031 C 
ATOM     52  C   UNL     1       0.235   4.260  -2.283  1.00  0.00     0.029 A 
ATOM     53  C   UNL     1       1.106   4.530  -3.423  1.00  0.00     0.049 A 
ATOM     54  H   UNL     1       1.818   3.152  -4.815  1.00  0.00     0.167 HD
ATOM     55  C   UNL     1       3.628   0.129  -7.430  1.00  0.00     0.031 A 
ATOM     56  C   UNL     1       1.585   5.738  -3.783  1.00  0.00     0.031 A 
ATOM     57  C   UNL     1       4.148   1.376  -7.910  1.00  0.00     0.049 A 
ATOM     58  C   UNL     1       2.511   5.844  -4.971  1.00  0.00     0.074 A 
ATOM     59  C   UNL     1       4.969   1.607  -8.998  1.00  0.00     0.029 A 
ATOM     60  N   UNL     1       3.872   2.607  -7.340  1.00  0.00    -0.354 N 
ATOM     61  N   UNL     1       2.953   4.900  -5.766  1.00  0.00    -0.248 NA
ATOM     62  C   UNL     1       2.998   7.191  -5.315  1.00  0.00     0.031 C 
ATOM     63  C   UNL     1       5.203   2.982  -9.079  1.00  0.00     0.029 A 
ATOM     64  C   UNL     1       4.494   3.606  -8.065  1.00  0.00     0.049 A 
ATOM     65  H   UNL     1       3.317   2.750  -6.540  1.00  0.00     0.167 HD
ATOM     66  C   UNL     1       3.722   5.543  -6.729  1.00  0.00     0.074 A 
ATOM     67  C   UNL     1       3.688   6.957  -6.423  1.00  0.00     0.031 C 
ATOM     68  C   UNL     1       4.398   5.011  -7.776  1.00  0.00     0.031 A 
BRANCH  55  69
ATOM     69  C   UNL     1       3.984  -1.135  -8.153  1.00  0.00    -0.014 A 
ATOM     70  C   UNL     1       3.022  -1.834  -8.901  1.00  0.00     0.009 A 
ATOM     71  C   UNL     1       5.289  -1.643  -8.075  1.00  0.00     0.009 A 
ATOM     72  C   UNL     1       3.348  -3.043  -9.516  1.00  0.00     0.001 A 
ATOM     73  C   UNL     1       5.621  -2.835  -8.719  1.00  0.00     0.001 A 
ATOM     74  C   UNL     1       4.648  -3.540  -9.427  1.00  0.00     0.000 A 
ENDBRANCH  55  69
BRANCH  56  75
ATOM     75  C   UNL     1       1.219   6.967  -3.027  1.00  0.00    -0.014 A 
ATOM     76  C   UNL     1       0.415   7.952  -3.626  1.00  0.00     0.009 A 
ATOM     77  C   UNL     1       1.738   7.208  -1.746  1.00  0.00     0.009 A 
ATOM     78  C   UNL     1       0.183   9.170  -2.982  1.00  0.00     0.001 A 
ATOM     79  C   UNL     1       1.480   8.416  -1.091  1.00  0.00     0.001 A 
ATOM     80  C   UNL     1       0.717   9.402  -1.716  1.00  0.00     0.000 A 
ENDBRANCH  56  75
BRANCH  68  81
ATOM     81  C   UNL     1       5.075   5.953  -8.729  1.00  0.00    -0.014 A 
ATOM     82  C   UNL     1       6.279   6.591  -8.399  1.00  0.00     0.009 A 
ATOM     83  C   UNL     1       4.543   6.121 -10.018  1.00  0.00     0.009 A 
ATOM     84  C   UNL     1       6.931   7.390  -9.340  1.00  0.00     0.001 A 
ATOM     85  C   UNL     1       5.209   6.899 -10.963  1.00  0.00     0.001 A 
ATOM     86  C   UNL     1       6.401   7.536 -10.623  1.00  0.00     0.000 A 
ENDBRANCH  68  81
ENDBRANCH  42  43
ENDBRANCH  35  37
ENDBRANCH  34  35
ENDBRANCH  33  34
ENDBRANCH  32  33
ENDBRANCH  31  32
ENDBRANCH  30  31
ENDBRANCH  29  30
ENDBRANCH  28  29
ENDBRANCH   1  28
TORSDOF 23
