REMARK SMILES CC[C@@H]1C=CCN1S(=O)(=O)c1sc2c(c1C(=O)OCCOCCOCCOCCOC(=O)c1ccc(-c3c4nc(c(-c5ccccc5)c5ccc([nH]5)c(-c5ccccc5)c5nc(c(-c6ccccc6)c6ccc3[nH]6)C=C5)C=C4)cc1)CC[NH2+]C2
REMARK SMILES IDX 23 1 22 2 21 3 20 4 19 5 18 6 16 7 17 8 15 9 11 10 12 11
REMARK SMILES IDX 13 12 14 13 84 14 81 15 83 16 82 17 8 20 9 21 10 22 7 23
REMARK SMILES IDX 3 24 4 25 5 26 6 27 2 28 1 29 24 30 25 31 26 32 27 33 28 34
REMARK SMILES IDX 29 35 30 36 31 37 32 38 33 39 34 40 80 41 35 42 79 43 36 44
REMARK SMILES IDX 37 45 38 46 73 47 39 48 78 49 72 50 74 51 40 52 77 53 71 54
REMARK SMILES IDX 70 55 41 57 63 58 48 59 62 60 49 61 52 62 61 63 75 64 50 65
REMARK SMILES IDX 51 66 60 68 76 69 53 70 42 71 43 72 47 73 44 74 46 75 45 76
REMARK SMILES IDX 64 77 65 78 69 79 66 80 68 81 67 82 54 83 55 84 59 85 56 86
REMARK SMILES IDX 58 87 57 88
REMARK H PARENT 83 18 83 19 74 56 52 67
REMARK Flexibility Score: inf
ROOT
ATOM      1  C   UNL     1       5.875   3.923   3.830  1.00  0.00     0.188 C 
ENDROOT
BRANCH   1   2
ATOM      2  C   UNL     1       6.003   3.603   5.342  1.00  0.00     0.188 C 
BRANCH   2   3
ATOM      3  O   UNL     1       6.299   2.250   5.636  1.00  0.00    -0.376 OA
BRANCH   3   4
ATOM      4  C   UNL     1       5.327   1.484   6.315  1.00  0.00     0.202 C 
BRANCH   4   5
ATOM      5  C   UNL     1       4.033   1.198   5.544  1.00  0.00     0.261 C 
BRANCH   5   6
ATOM      6  O   UNL     1       3.492   2.318   4.828  1.00  0.00    -0.460 OA
BRANCH   6   7
ATOM      7  C   UNL     1       2.759   3.216   5.525  1.00  0.00     0.340 C 
ATOM      8  O   UNL     1       2.546   3.136   6.728  1.00  0.00    -0.246 OA
BRANCH   7   9
ATOM      9  C   UNL     1       2.422   4.406   4.739  1.00  0.00     0.095 A 
ATOM     10  C   UNL     1       1.855   4.398   3.458  1.00  0.00     0.150 A 
ATOM     11  S   UNL     1       1.506   5.997   2.944  1.00  0.00    -0.120 S 
ATOM     12  C   UNL     1       2.089   6.697   4.353  1.00  0.00     0.064 A 
ATOM     13  C   UNL     1       2.654   5.768   5.197  1.00  0.00    -0.007 A 
ATOM     14  C   UNL     1       1.979   8.165   4.630  1.00  0.00     0.308 C 
ATOM     15  C   UNL     1       3.408   6.245   6.411  1.00  0.00     0.099 C 
ATOM     16  N   UNL     1       3.033   8.600   5.560  1.00  0.00    -0.342 N 
ATOM     17  C   UNL     1       3.074   7.719   6.746  1.00  0.00     0.265 C 
ATOM     18  H   UNL     1       3.935   8.565   5.085  1.00  0.00     0.346 HD
ATOM     19  H   UNL     1       2.832   9.553   5.864  1.00  0.00     0.346 HD
BRANCH  10  20
ATOM     20  S   UNL     1       1.272   3.090   2.356  1.00  0.00     0.254 S 
ATOM     21  O   UNL     1      -0.096   2.877   2.784  1.00  0.00    -0.206 OA
ATOM     22  O   UNL     1       2.246   2.023   2.472  1.00  0.00    -0.206 OA
BRANCH  20  23
ATOM     23  N   UNL     1       1.237   3.527   0.700  1.00  0.00    -0.186 NA
ATOM     24  C   UNL     1       0.849   2.387  -0.218  1.00  0.00     0.096 C 
ATOM     25  C   UNL     1      -0.199   2.996  -1.098  1.00  0.00    -0.010 C 
ATOM     26  C   UNL     1      -0.389   4.285  -0.828  1.00  0.00    -0.013 C 
ATOM     27  C   UNL     1       0.426   4.715   0.328  1.00  0.00     0.130 C 
BRANCH  24  28
ATOM     28  C   UNL     1       2.090   1.865  -0.976  1.00  0.00     0.021 C 
ATOM     29  C   UNL     1       2.002   1.876  -2.502  1.00  0.00     0.006 C 
ENDBRANCH  24  28
ENDBRANCH  20  23
ENDBRANCH  10  20
ENDBRANCH   7   9
ENDBRANCH   6   7
ENDBRANCH   5   6
ENDBRANCH   4   5
ENDBRANCH   3   4
ENDBRANCH   2   3
ENDBRANCH   1   2
BRANCH   1  30
ATOM     30  O   UNL     1       6.370   3.074   2.797  1.00  0.00    -0.377 OA
BRANCH  30  31
ATOM     31  C   UNL     1       7.130   1.924   3.135  1.00  0.00     0.188 C 
BRANCH  31  32
ATOM     32  C   UNL     1       8.464   2.171   3.875  1.00  0.00     0.188 C 
BRANCH  32  33
ATOM     33  O   UNL     1       8.556   3.446   4.501  1.00  0.00    -0.376 OA
BRANCH  33  34
ATOM     34  C   UNL     1       9.390   4.456   3.962  1.00  0.00     0.202 C 
BRANCH  34  35
ATOM     35  C   UNL     1       9.068   5.009   2.577  1.00  0.00     0.261 C 
BRANCH  35  36
ATOM     36  O   UNL     1       8.729   4.028   1.620  1.00  0.00    -0.460 OA
BRANCH  36  37
ATOM     37  C   UNL     1       9.707   3.175   1.278  1.00  0.00     0.338 C 
ATOM     38  O   UNL     1      10.823   3.094   1.758  1.00  0.00    -0.246 OA
BRANCH  37  39
ATOM     39  C   UNL     1       9.244   2.421   0.108  1.00  0.00     0.060 A 
ATOM     40  C   UNL     1      10.143   1.484  -0.396  1.00  0.00     0.016 A 
ATOM     41  C   UNL     1       8.200   2.962  -0.659  1.00  0.00     0.016 A 
ATOM     42  C   UNL     1      10.203   1.343  -1.758  1.00  0.00     0.010 A 
ATOM     43  C   UNL     1       8.284   2.852  -2.020  1.00  0.00     0.010 A 
ATOM     44  C   UNL     1       9.356   2.136  -2.541  1.00  0.00    -0.014 A 
BRANCH  44  45
ATOM     45  C   UNL     1       9.655   2.221  -3.945  1.00  0.00     0.031 A 
ATOM     46  C   UNL     1       9.144   1.091  -4.729  1.00  0.00     0.074 A 
ATOM     47  C   UNL     1      10.281   3.281  -4.481  1.00  0.00     0.049 A 
ATOM     48  N   UNL     1       9.829   0.162  -5.303  1.00  0.00    -0.248 NA
ATOM     49  C   UNL     1       7.688   0.894  -4.751  1.00  0.00     0.031 C 
ATOM     50  C   UNL     1      10.540   4.591  -3.879  1.00  0.00     0.029 A 
ATOM     51  N   UNL     1      10.705   3.432  -5.760  1.00  0.00    -0.354 N 
ATOM     52  C   UNL     1       8.890  -0.653  -5.916  1.00  0.00     0.074 A 
ATOM     53  C   UNL     1       7.602  -0.267  -5.395  1.00  0.00     0.031 C 
ATOM     54  C   UNL     1      10.842   5.467  -4.865  1.00  0.00     0.029 A 
ATOM     55  C   UNL     1      10.914   4.748  -6.128  1.00  0.00     0.049 A 
ATOM     56  H   UNL     1      10.850   2.674  -6.370  1.00  0.00     0.167 HD
ATOM     57  C   UNL     1       9.207  -1.406  -7.001  1.00  0.00     0.031 A 
ATOM     58  C   UNL     1      11.017   5.201  -7.401  1.00  0.00     0.031 A 
ATOM     59  C   UNL     1      10.629  -1.563  -7.161  1.00  0.00     0.049 A 
ATOM     60  C   UNL     1      11.326   4.038  -8.274  1.00  0.00     0.074 A 
ATOM     61  C   UNL     1      11.642  -2.060  -6.364  1.00  0.00     0.029 A 
ATOM     62  N   UNL     1      11.251  -0.815  -8.133  1.00  0.00    -0.354 N 
ATOM     63  N   UNL     1      12.459   3.394  -8.247  1.00  0.00    -0.248 NA
ATOM     64  C   UNL     1      10.214   3.305  -8.865  1.00  0.00     0.031 C 
ATOM     65  C   UNL     1      12.755  -1.203  -6.603  1.00  0.00     0.029 A 
ATOM     66  C   UNL     1      12.370  -0.265  -7.563  1.00  0.00     0.049 A 
ATOM     67  H   UNL     1      10.949  -0.696  -9.063  1.00  0.00     0.167 HD
ATOM     68  C   UNL     1      12.118   2.058  -8.413  1.00  0.00     0.074 A 
ATOM     69  C   UNL     1      10.738   2.076  -8.893  1.00  0.00     0.031 C 
ATOM     70  C   UNL     1      12.876   1.055  -7.874  1.00  0.00     0.031 A 
BRANCH  57  71
ATOM     71  C   UNL     1       8.232  -1.637  -8.122  1.00  0.00    -0.014 A 
ATOM     72  C   UNL     1       8.586  -2.516  -9.156  1.00  0.00     0.009 A 
ATOM     73  C   UNL     1       7.102  -0.822  -8.337  1.00  0.00     0.009 A 
ATOM     74  C   UNL     1       7.876  -2.536 -10.361  1.00  0.00     0.001 A 
ATOM     75  C   UNL     1       6.362  -0.874  -9.517  1.00  0.00     0.001 A 
ATOM     76  C   UNL     1       6.767  -1.714 -10.542  1.00  0.00     0.000 A 
ENDBRANCH  57  71
BRANCH  58  77
ATOM     77  C   UNL     1      10.537   6.496  -7.928  1.00  0.00    -0.014 A 
ATOM     78  C   UNL     1      10.935   6.949  -9.194  1.00  0.00     0.009 A 
ATOM     79  C   UNL     1       9.488   7.187  -7.289  1.00  0.00     0.009 A 
ATOM     80  C   UNL     1      10.290   8.033  -9.806  1.00  0.00     0.001 A 
ATOM     81  C   UNL     1       8.852   8.274  -7.893  1.00  0.00     0.001 A 
ATOM     82  C   UNL     1       9.244   8.689  -9.159  1.00  0.00     0.000 A 
ENDBRANCH  58  77
BRANCH  70  83
ATOM     83  C   UNL     1      14.221   1.411  -7.287  1.00  0.00    -0.014 A 
ATOM     84  C   UNL     1      14.373   2.334  -6.237  1.00  0.00     0.009 A 
ATOM     85  C   UNL     1      15.344   0.669  -7.685  1.00  0.00     0.009 A 
ATOM     86  C   UNL     1      15.617   2.531  -5.628  1.00  0.00     0.001 A 
ATOM     87  C   UNL     1      16.581   0.850  -7.062  1.00  0.00     0.001 A 
ATOM     88  C   UNL     1      16.719   1.784  -6.038  1.00  0.00     0.000 A 
ENDBRANCH  70  83
ENDBRANCH  44  45
ENDBRANCH  37  39
ENDBRANCH  36  37
ENDBRANCH  35  36
ENDBRANCH  34  35
ENDBRANCH  33  34
ENDBRANCH  32  33
ENDBRANCH  31  32
ENDBRANCH  30  31
ENDBRANCH   1  30
TORSDOF 23
