REMARK SMILES CC[C@@]1(C(=O)OCCOCCOCCOCCOC(=O)c2ccc(-c3c4nc(c(-c5ccccc5)c5ccc([nH]5)c(-c5ccccc5)c5nc(c(-c6ccccc6)c6ccc3[nH]6)C=C5)C=C4)cc2)CCC[N@@H+](Cc2ccc(C3CC3)cc2)C1
REMARK SMILES IDX 11 1 10 2 9 3 8 4 7 5 6 6 4 7 5 8 3 9 69 10 83 11 70 12
REMARK SMILES IDX 72 13 71 14 2 16 1 17 73 18 74 19 75 20 82 21 76 22 81 23
REMARK SMILES IDX 77 24 78 25 79 26 80 27 12 28 13 29 14 30 15 31 16 32 17 33
REMARK SMILES IDX 18 34 19 35 20 36 21 37 22 38 68 39 23 40 67 41 24 42 25 43
REMARK SMILES IDX 26 44 61 45 27 46 66 47 60 48 62 49 28 50 65 51 59 52 58 53
REMARK SMILES IDX 29 55 51 56 36 57 50 58 37 59 40 60 49 61 63 62 38 63 39 64
REMARK SMILES IDX 48 66 64 67 41 68 30 69 31 70 35 71 32 72 34 73 33 74 52 75
REMARK SMILES IDX 53 76 57 77 54 78 56 79 55 80 42 81 43 82 47 83 44 84 46 85
REMARK SMILES IDX 45 86
REMARK H PARENT 72 15 62 54 40 65
REMARK Flexibility Score: inf
ROOT
ATOM      1  C   UNL     1      -1.615   1.557   2.682  1.00  0.00     0.188 C 
ENDROOT
BRANCH   1   2
ATOM      2  C   UNL     1      -2.411   1.325   1.395  1.00  0.00     0.188 C 
BRANCH   2   3
ATOM      3  O   UNL     1      -2.889   0.023   1.109  1.00  0.00    -0.376 OA
BRANCH   3   4
ATOM      4  C   UNL     1      -1.976  -1.063   1.222  1.00  0.00     0.202 C 
BRANCH   4   5
ATOM      5  C   UNL     1      -0.579  -0.989   0.560  1.00  0.00     0.261 C 
BRANCH   5   6
ATOM      6  O   UNL     1       0.268   0.152   0.870  1.00  0.00    -0.463 OA
BRANCH   6   7
ATOM      7  C   UNL     1       0.407   1.085  -0.111  1.00  0.00     0.317 C 
ATOM      8  O   UNL     1      -0.204   1.015  -1.175  1.00  0.00    -0.251 OA
BRANCH   7   9
ATOM      9  C   UNL     1       1.366   2.266   0.217  1.00  0.00     0.117 C 
ATOM     10  C   UNL     1       2.510   1.906   1.186  1.00  0.00     0.030 C 
ATOM     11  C   UNL     1       0.565   3.537   0.664  1.00  0.00     0.281 C 
ATOM     12  C   UNL     1       2.235   2.253   2.644  1.00  0.00     0.063 C 
ATOM     13  N   UNL     1       0.611   4.017   2.055  1.00  0.00    -0.330 N 
ATOM     14  C   UNL     1       1.831   3.715   2.793  1.00  0.00     0.262 C 
ATOM     15  H   UNL     1      -0.091   3.442   2.521  1.00  0.00     0.348 HD
BRANCH   9  16
ATOM     16  C   UNL     1       1.975   2.664  -1.185  1.00  0.00     0.021 C 
ATOM     17  C   UNL     1       2.997   1.709  -1.776  1.00  0.00     0.005 C 
ENDBRANCH   9  16
BRANCH  13  18
ATOM     18  C   UNL     1       0.163   5.427   2.207  1.00  0.00     0.299 C 
BRANCH  18  19
ATOM     19  C   UNL     1       1.226   6.481   1.938  1.00  0.00     0.006 A 
ATOM     20  C   UNL     1       1.818   7.180   2.995  1.00  0.00     0.010 A 
ATOM     21  C   UNL     1       1.721   6.707   0.651  1.00  0.00     0.010 A 
ATOM     22  C   UNL     1       2.967   7.953   2.780  1.00  0.00     0.004 A 
ATOM     23  C   UNL     1       2.892   7.441   0.452  1.00  0.00     0.004 A 
ATOM     24  C   UNL     1       3.577   8.039   1.518  1.00  0.00    -0.045 A 
BRANCH  24  25
ATOM     25  C   UNL     1       4.926   8.715   1.364  1.00  0.00     0.019 C 
ATOM     26  C   UNL     1       5.901   8.270   0.295  1.00  0.00     0.009 C 
ATOM     27  C   UNL     1       5.229   9.609   0.189  1.00  0.00     0.009 C 
ENDBRANCH  24  25
ENDBRANCH  18  19
ENDBRANCH  13  18
ENDBRANCH   7   9
ENDBRANCH   6   7
ENDBRANCH   5   6
ENDBRANCH   4   5
ENDBRANCH   3   4
ENDBRANCH   2   3
ENDBRANCH   1   2
BRANCH   1  28
ATOM     28  O   UNL     1      -0.974   0.417   3.221  1.00  0.00    -0.377 OA
BRANCH  28  29
ATOM     29  C   UNL     1      -1.228   0.043   4.564  1.00  0.00     0.188 C 
BRANCH  29  30
ATOM     30  C   UNL     1      -2.457   0.669   5.222  1.00  0.00     0.188 C 
BRANCH  30  31
ATOM     31  O   UNL     1      -2.387   2.051   5.596  1.00  0.00    -0.376 OA
BRANCH  31  32
ATOM     32  C   UNL     1      -1.113   2.668   5.772  1.00  0.00     0.202 C 
BRANCH  32  33
ATOM     33  C   UNL     1      -0.551   2.539   7.186  1.00  0.00     0.261 C 
BRANCH  33  34
ATOM     34  O   UNL     1      -0.142   1.192   7.460  1.00  0.00    -0.460 OA
BRANCH  34  35
ATOM     35  C   UNL     1      -1.066   0.422   8.075  1.00  0.00     0.338 C 
ATOM     36  O   UNL     1      -2.165   0.755   8.493  1.00  0.00    -0.246 OA
BRANCH  35  37
ATOM     37  C   UNL     1      -0.610  -0.975   8.037  1.00  0.00     0.060 A 
ATOM     38  C   UNL     1      -1.495  -1.963   7.583  1.00  0.00     0.016 A 
ATOM     39  C   UNL     1       0.660  -1.310   8.508  1.00  0.00     0.016 A 
ATOM     40  C   UNL     1      -1.130  -3.301   7.641  1.00  0.00     0.010 A 
ATOM     41  C   UNL     1       1.016  -2.653   8.594  1.00  0.00     0.010 A 
ATOM     42  C   UNL     1       0.102  -3.648   8.204  1.00  0.00    -0.014 A 
BRANCH  42  43
ATOM     43  C   UNL     1       0.337  -5.043   8.617  1.00  0.00     0.031 A 
ATOM     44  C   UNL     1       0.074  -5.401  10.053  1.00  0.00     0.074 A 
ATOM     45  C   UNL     1       0.760  -5.961   7.735  1.00  0.00     0.049 A 
ATOM     46  N   UNL     1       0.293  -6.525  10.680  1.00  0.00    -0.248 NA
ATOM     47  C   UNL     1      -0.510  -4.341  10.896  1.00  0.00     0.031 C 
ATOM     48  C   UNL     1       0.977  -5.729   6.308  1.00  0.00     0.029 A 
ATOM     49  N   UNL     1       1.091  -7.276   7.923  1.00  0.00    -0.354 N 
ATOM     50  C   UNL     1      -0.110  -6.304  11.991  1.00  0.00     0.074 A 
ATOM     51  C   UNL     1      -0.559  -4.933  12.078  1.00  0.00     0.031 C 
ATOM     52  C   UNL     1       1.423  -6.867   5.749  1.00  0.00     0.029 A 
ATOM     53  C   UNL     1       1.561  -7.886   6.787  1.00  0.00     0.049 A 
ATOM     54  H   UNL     1       1.001  -7.738   8.787  1.00  0.00     0.167 HD
ATOM     55  C   UNL     1      -0.108  -7.171  13.028  1.00  0.00     0.031 A 
ATOM     56  C   UNL     1       2.074  -9.119   6.623  1.00  0.00     0.031 A 
ATOM     57  C   UNL     1       0.361  -8.526  12.930  1.00  0.00     0.049 A 
ATOM     58  C   UNL     1       2.158 -10.034   7.817  1.00  0.00     0.074 A 
ATOM     59  C   UNL     1       0.412  -9.496  13.914  1.00  0.00     0.029 A 
ATOM     60  N   UNL     1       0.867  -9.099  11.772  1.00  0.00    -0.354 N 
ATOM     61  N   UNL     1       1.768  -9.824   9.053  1.00  0.00    -0.248 NA
ATOM     62  C   UNL     1       2.747 -11.361   7.590  1.00  0.00     0.031 C 
ATOM     63  C   UNL     1       1.008 -10.636  13.367  1.00  0.00     0.029 A 
ATOM     64  C   UNL     1       1.258 -10.401  12.023  1.00  0.00     0.049 A 
ATOM     65  H   UNL     1       0.936  -8.645  10.901  1.00  0.00     0.167 HD
ATOM     66  C   UNL     1       2.030 -11.003   9.740  1.00  0.00     0.074 A 
ATOM     67  C   UNL     1       2.599 -11.927   8.780  1.00  0.00     0.031 C 
ATOM     68  C   UNL     1       1.817 -11.300  11.046  1.00  0.00     0.031 A 
BRANCH  55  69
ATOM     69  C   UNL     1      -0.584  -6.662  14.361  1.00  0.00    -0.014 A 
ATOM     70  C   UNL     1      -1.933  -6.349  14.587  1.00  0.00     0.009 A 
ATOM     71  C   UNL     1       0.332  -6.514  15.414  1.00  0.00     0.009 A 
ATOM     72  C   UNL     1      -2.349  -5.867  15.831  1.00  0.00     0.001 A 
ATOM     73  C   UNL     1      -0.091  -6.063  16.665  1.00  0.00     0.001 A 
ATOM     74  C   UNL     1      -1.429  -5.731  16.870  1.00  0.00     0.000 A 
ENDBRANCH  55  69
BRANCH  56  75
ATOM     75  C   UNL     1       2.570  -9.554   5.292  1.00  0.00    -0.014 A 
ATOM     76  C   UNL     1       1.925 -10.583   4.589  1.00  0.00     0.009 A 
ATOM     77  C   UNL     1       3.709  -8.959   4.726  1.00  0.00     0.009 A 
ATOM     78  C   UNL     1       2.429 -11.029   3.364  1.00  0.00     0.001 A 
ATOM     79  C   UNL     1       4.191  -9.383   3.486  1.00  0.00     0.001 A 
ATOM     80  C   UNL     1       3.558 -10.426   2.812  1.00  0.00     0.000 A 
ENDBRANCH  56  75
BRANCH  68  81
ATOM     81  C   UNL     1       2.148 -12.696  11.497  1.00  0.00    -0.014 A 
ATOM     82  C   UNL     1       3.476 -13.138  11.606  1.00  0.00     0.009 A 
ATOM     83  C   UNL     1       1.109 -13.565  11.866  1.00  0.00     0.009 A 
ATOM     84  C   UNL     1       3.752 -14.437  12.037  1.00  0.00     0.001 A 
ATOM     85  C   UNL     1       1.390 -14.850  12.331  1.00  0.00     0.001 A 
ATOM     86  C   UNL     1       2.711 -15.288  12.406  1.00  0.00     0.000 A 
ENDBRANCH  68  81
ENDBRANCH  42  43
ENDBRANCH  35  37
ENDBRANCH  34  35
ENDBRANCH  33  34
ENDBRANCH  32  33
ENDBRANCH  31  32
ENDBRANCH  30  31
ENDBRANCH  29  30
ENDBRANCH  28  29
ENDBRANCH   1  28
TORSDOF 24
