REMARK SMILES O=C(C[N@@H+]1CCC[C@@H]1c1ccccc1Cl)OCCOCCOCCOCCOC(=O)c1ccc(-c2c3nc(c(-c4ccccc4)c4ccc([nH]4)c(-c4ccccc4)c4nc(c(-c5ccccc5)c5ccc2[nH]5)C=C4)C=C3)cc1
REMARK SMILES IDX 22 1 21 2 20 3 19 4 18 5 17 6 16 7 2 8 1 9 3 10 4 11 5 12
REMARK SMILES IDX 8 13 6 15 7 16 9 17 10 18 14 19 11 20 13 21 15 22 12 23
REMARK SMILES IDX 23 24 24 25 25 26 26 27 27 28 28 29 29 30 30 31 31 32 32 33
REMARK SMILES IDX 78 34 33 35 77 36 34 37 35 38 36 39 71 40 37 41 76 42 70 43
REMARK SMILES IDX 72 44 38 45 75 46 69 47 68 48 39 50 61 51 46 52 60 53 47 54
REMARK SMILES IDX 50 55 59 56 73 57 48 58 49 59 58 61 74 62 51 63 40 64 41 65
REMARK SMILES IDX 45 66 42 67 44 68 43 69 62 70 63 71 67 72 64 73 66 74 65 75
REMARK SMILES IDX 52 76 53 77 57 78 54 79 56 80 55 81
REMARK H PARENT 4 14 72 49 50 60
REMARK Flexibility Score: inf
ROOT
ATOM      1  O   UNL     1       3.687   2.944  -1.190  1.00  0.00    -0.377 OA
ENDROOT
BRANCH   1   2
ATOM      2  C   UNL     1       2.386   2.739  -0.658  1.00  0.00     0.188 C 
BRANCH   2   3
ATOM      3  C   UNL     1       2.288   1.448   0.145  1.00  0.00     0.188 C 
BRANCH   3   4
ATOM      4  O   UNL     1       3.489   0.931   0.697  1.00  0.00    -0.376 OA
BRANCH   4   5
ATOM      5  C   UNL     1       4.499   0.412  -0.155  1.00  0.00     0.202 C 
BRANCH   5   6
ATOM      6  C   UNL     1       4.124  -0.535  -1.292  1.00  0.00     0.261 C 
BRANCH   6   7
ATOM      7  O   UNL     1       2.838  -1.183  -1.311  1.00  0.00    -0.459 OA
BRANCH   7   8
ATOM      8  C   UNL     1       2.282  -1.987  -0.383  1.00  0.00     0.361 C 
ATOM      9  O   UNL     1       1.299  -2.665  -0.689  1.00  0.00    -0.245 OA
BRANCH   8  10
ATOM     10  C   UNL     1       2.782  -1.963   1.053  1.00  0.00     0.387 C 
BRANCH  10  11
ATOM     11  N   UNL     1       4.165  -2.433   1.180  1.00  0.00    -0.319 N 
ATOM     12  C   UNL     1       4.207  -3.903   1.049  1.00  0.00     0.263 C 
ATOM     13  C   UNL     1       4.893  -2.146   2.455  1.00  0.00     0.217 C 
ATOM     14  H   UNL     1       4.632  -1.906   0.442  1.00  0.00     0.349 HD
ATOM     15  C   UNL     1       4.052  -4.410   2.470  1.00  0.00     0.068 C 
ATOM     16  C   UNL     1       4.888  -3.439   3.280  1.00  0.00     0.076 C 
BRANCH  13  17
ATOM     17  C   UNL     1       4.600  -0.914   3.308  1.00  0.00     0.028 A 
ATOM     18  C   UNL     1       3.312  -0.669   3.828  1.00  0.00     0.011 A 
ATOM     19  C   UNL     1       5.621  -0.026   3.713  1.00  0.00     0.050 A 
ATOM     20  C   UNL     1       3.034   0.453   4.618  1.00  0.00     0.001 A 
ATOM     21  C   UNL     1       5.348   1.077   4.537  1.00  0.00     0.021 A 
ATOM     22  Cl  UNL     1       7.286  -0.251   3.287  1.00  0.00    -0.084 Cl
ATOM     23  C   UNL     1       4.052   1.327   4.974  1.00  0.00     0.002 A 
ENDBRANCH  13  17
ENDBRANCH  10  11
ENDBRANCH   8  10
ENDBRANCH   7   8
ENDBRANCH   6   7
ENDBRANCH   5   6
ENDBRANCH   4   5
ENDBRANCH   3   4
ENDBRANCH   2   3
ENDBRANCH   1   2
BRANCH   1  24
ATOM     24  C   UNL     1       4.420   3.945  -0.484  1.00  0.00     0.188 C 
BRANCH  24  25
ATOM     25  C   UNL     1       4.713   3.694   1.010  1.00  0.00     0.188 C 
BRANCH  25  26
ATOM     26  O   UNL     1       3.507   3.720   1.781  1.00  0.00    -0.376 OA
BRANCH  26  27
ATOM     27  C   UNL     1       3.539   4.577   2.917  1.00  0.00     0.202 C 
BRANCH  27  28
ATOM     28  C   UNL     1       2.932   5.947   2.598  1.00  0.00     0.261 C 
BRANCH  28  29
ATOM     29  O   UNL     1       3.412   6.523   1.374  1.00  0.00    -0.460 OA
BRANCH  29  30
ATOM     30  C   UNL     1       4.686   6.973   1.350  1.00  0.00     0.338 C 
ATOM     31  O   UNL     1       5.466   7.020   2.285  1.00  0.00    -0.246 OA
BRANCH  30  32
ATOM     32  C   UNL     1       5.046   7.180  -0.075  1.00  0.00     0.060 A 
ATOM     33  C   UNL     1       6.286   6.713  -0.536  1.00  0.00     0.016 A 
ATOM     34  C   UNL     1       4.112   7.705  -0.976  1.00  0.00     0.016 A 
ATOM     35  C   UNL     1       6.591   6.768  -1.900  1.00  0.00     0.010 A 
ATOM     36  C   UNL     1       4.423   7.777  -2.331  1.00  0.00     0.010 A 
ATOM     37  C   UNL     1       5.672   7.331  -2.795  1.00  0.00    -0.014 A 
BRANCH  37  38
ATOM     38  C   UNL     1       6.089   7.742  -4.154  1.00  0.00     0.031 A 
ATOM     39  C   UNL     1       6.641   9.131  -4.298  1.00  0.00     0.074 A 
ATOM     40  C   UNL     1       5.888   6.966  -5.233  1.00  0.00     0.049 A 
ATOM     41  N   UNL     1       6.921   9.811  -5.377  1.00  0.00    -0.248 NA
ATOM     42  C   UNL     1       6.885   9.862  -3.041  1.00  0.00     0.031 C 
ATOM     43  C   UNL     1       5.369   5.600  -5.217  1.00  0.00     0.029 A 
ATOM     44  N   UNL     1       6.069   7.246  -6.565  1.00  0.00    -0.354 N 
ATOM     45  C   UNL     1       7.350  11.053  -4.929  1.00  0.00     0.074 A 
ATOM     46  C   UNL     1       7.279  11.042  -3.487  1.00  0.00     0.031 C 
ATOM     47  C   UNL     1       5.241   5.171  -6.487  1.00  0.00     0.029 A 
ATOM     48  C   UNL     1       5.635   6.244  -7.399  1.00  0.00     0.049 A 
ATOM     49  H   UNL     1       6.471   8.083  -6.891  1.00  0.00     0.167 HD
ATOM     50  C   UNL     1       7.758  12.119  -5.654  1.00  0.00     0.031 A 
ATOM     51  C   UNL     1       5.534   6.218  -8.743  1.00  0.00     0.031 A 
ATOM     52  C   UNL     1       7.790  12.141  -7.088  1.00  0.00     0.049 A 
ATOM     53  C   UNL     1       5.950   7.431  -9.537  1.00  0.00     0.074 A 
ATOM     54  C   UNL     1       8.208  13.158  -7.926  1.00  0.00     0.029 A 
ATOM     55  N   UNL     1       7.368  11.095  -7.894  1.00  0.00    -0.354 N 
ATOM     56  N   UNL     1       6.407   8.583  -9.107  1.00  0.00    -0.248 NA
ATOM     57  C   UNL     1       5.838   7.339 -11.001  1.00  0.00     0.031 C 
ATOM     58  C   UNL     1       7.990  12.744  -9.244  1.00  0.00     0.029 A 
ATOM     59  C   UNL     1       7.488  11.451  -9.224  1.00  0.00     0.049 A 
ATOM     60  H   UNL     1       7.032  10.229  -7.568  1.00  0.00     0.167 HD
ATOM     61  C   UNL     1       6.659   9.343 -10.244  1.00  0.00     0.074 A 
ATOM     62  C   UNL     1       6.310   8.519 -11.383  1.00  0.00     0.031 C 
ATOM     63  C   UNL     1       7.140  10.607 -10.338  1.00  0.00     0.031 A 
BRANCH  50  64
ATOM     64  C   UNL     1       8.139  13.352  -4.888  1.00  0.00    -0.014 A 
ATOM     65  C   UNL     1       9.308  13.396  -4.111  1.00  0.00     0.009 A 
ATOM     66  C   UNL     1       7.294  14.471  -4.912  1.00  0.00     0.009 A 
ATOM     67  C   UNL     1       9.597  14.520  -3.335  1.00  0.00     0.001 A 
ATOM     68  C   UNL     1       7.601  15.604  -4.158  1.00  0.00     0.001 A 
ATOM     69  C   UNL     1       8.744  15.623  -3.360  1.00  0.00     0.000 A 
ENDBRANCH  50  64
BRANCH  51  70
ATOM     70  C   UNL     1       4.987   5.014  -9.425  1.00  0.00    -0.014 A 
ATOM     71  C   UNL     1       5.825   4.164 -10.161  1.00  0.00     0.009 A 
ATOM     72  C   UNL     1       3.619   4.708  -9.338  1.00  0.00     0.009 A 
ATOM     73  C   UNL     1       5.303   3.039 -10.807  1.00  0.00     0.001 A 
ATOM     74  C   UNL     1       3.104   3.570  -9.965  1.00  0.00     0.001 A 
ATOM     75  C   UNL     1       3.945   2.740 -10.704  1.00  0.00     0.000 A 
ENDBRANCH  51  70
BRANCH  63  76
ATOM     76  C   UNL     1       7.357  11.169 -11.713  1.00  0.00    -0.014 A 
ATOM     77  C   UNL     1       6.283  11.619 -12.494  1.00  0.00     0.009 A 
ATOM     78  C   UNL     1       8.667  11.337 -12.189  1.00  0.00     0.009 A 
ATOM     79  C   UNL     1       6.517  12.213 -13.736  1.00  0.00     0.001 A 
ATOM     80  C   UNL     1       8.899  11.954 -13.419  1.00  0.00     0.001 A 
ATOM     81  C   UNL     1       7.824  12.387 -14.193  1.00  0.00     0.000 A 
ENDBRANCH  63  76
ENDBRANCH  37  38
ENDBRANCH  30  32
ENDBRANCH  29  30
ENDBRANCH  28  29
ENDBRANCH  27  28
ENDBRANCH  26  27
ENDBRANCH  25  26
ENDBRANCH  24  25
ENDBRANCH   1  24
TORSDOF 22
