REMARK SMILES COc1cc(Nc2cn[nH]c(=O)n2)c(C(=O)OCCOCCOCCOCCOC(=O)c2ccc(-c3c4nc(c(-c5ccccc5)c5ccc([nH]5)c(-c5ccccc5)c5nc(c(-c6ccccc6)c6ccc3[nH]6)C=C5)C=C4)cc2)cc1OC
REMARK SMILES IDX 23 1 22 2 21 3 20 4 19 5 18 6 17 7 15 8 16 9 14 10 3 11 4 12
REMARK SMILES IDX 81 13 5 14 80 15 2 16 1 17 82 18 83 19 6 20 7 22 8 23 13 24
REMARK SMILES IDX 9 25 11 26 10 27 12 28 24 30 25 31 26 32 27 33 28 34 29 35
REMARK SMILES IDX 30 36 31 37 32 38 33 39 79 40 34 41 78 42 35 43 36 44 37 45
REMARK SMILES IDX 72 46 38 47 77 48 71 49 73 50 39 51 76 52 70 53 69 54 40 56
REMARK SMILES IDX 62 57 47 58 61 59 48 60 51 61 60 62 74 63 49 64 50 65 59 67
REMARK SMILES IDX 75 68 52 69 41 70 42 71 46 72 43 73 45 74 44 75 63 76 64 77
REMARK SMILES IDX 68 78 65 79 67 80 66 81 53 82 54 83 58 84 55 85 57 86 56 87
REMARK H PARENT 6 21 10 29 73 55 51 66
REMARK Flexibility Score: inf
ROOT
ATOM      1  O   UNL     1       3.964   1.521   7.155  1.00  0.00    -0.377 OA
ENDROOT
BRANCH   1   2
ATOM      2  C   UNL     1       2.566   1.693   7.013  1.00  0.00     0.188 C 
BRANCH   2   3
ATOM      3  C   UNL     1       1.659   1.020   8.057  1.00  0.00     0.188 C 
BRANCH   3   4
ATOM      4  O   UNL     1       2.369   0.271   9.039  1.00  0.00    -0.376 OA
BRANCH   4   5
ATOM      5  C   UNL     1       2.236  -1.140   8.974  1.00  0.00     0.202 C 
BRANCH   5   6
ATOM      6  C   UNL     1       3.043  -1.803   7.854  1.00  0.00     0.261 C 
BRANCH   6   7
ATOM      7  O   UNL     1       2.718  -1.378   6.522  1.00  0.00    -0.460 OA
BRANCH   7   8
ATOM      8  C   UNL     1       1.455  -1.571   6.078  1.00  0.00     0.340 C 
ATOM      9  O   UNL     1       0.530  -2.068   6.681  1.00  0.00    -0.246 OA
BRANCH   8  10
ATOM     10  C   UNL     1       1.311  -0.893   4.765  1.00  0.00     0.087 A 
ATOM     11  C   UNL     1       1.108   0.334   2.276  1.00  0.00     0.162 A 
ATOM     12  C   UNL     1       0.060   0.448   3.211  1.00  0.00     0.077 A 
ATOM     13  C   UNL     1       2.295  -0.320   2.611  1.00  0.00     0.161 A 
ATOM     14  C   UNL     1       0.132  -0.177   4.465  1.00  0.00     0.058 A 
ATOM     15  C   UNL     1       2.381  -0.937   3.859  1.00  0.00     0.068 A 
BRANCH  11  16
ATOM     16  O   UNL     1       0.941   0.945   1.062  1.00  0.00    -0.493 OA
ATOM     17  C   UNL     1       0.085   0.168   0.218  1.00  0.00     0.278 C 
ENDBRANCH  11  16
BRANCH  13  18
ATOM     18  O   UNL     1       3.448  -0.442   1.889  1.00  0.00    -0.493 OA
ATOM     19  C   UNL     1       3.425  -0.146   0.504  1.00  0.00     0.278 C 
ENDBRANCH  13  18
BRANCH  14  20
ATOM     20  N   UNL     1      -0.870   0.011   5.453  1.00  0.00    -0.338 N 
ATOM     21  H   UNL     1      -0.716  -0.395   6.336  1.00  0.00     0.168 HD
BRANCH  20  22
ATOM     22  C   UNL     1      -2.037   0.714   5.276  1.00  0.00     0.156 A 
ATOM     23  C   UNL     1      -2.071   2.141   5.770  1.00  0.00     0.180 A 
ATOM     24  N   UNL     1      -3.093   0.181   4.750  1.00  0.00    -0.173 NA
ATOM     25  N   UNL     1      -3.137   2.866   5.687  1.00  0.00    -0.176 NA
ATOM     26  C   UNL     1      -4.223   0.946   4.630  1.00  0.00     0.363 A 
ATOM     27  N   UNL     1      -4.202   2.240   5.112  1.00  0.00    -0.227 N 
ATOM     28  O   UNL     1      -5.249   0.520   4.107  1.00  0.00    -0.244 OA
ATOM     29  H   UNL     1      -5.036   2.758   5.034  1.00  0.00     0.195 HD
ENDBRANCH  20  22
ENDBRANCH  14  20
ENDBRANCH   8  10
ENDBRANCH   7   8
ENDBRANCH   6   7
ENDBRANCH   5   6
ENDBRANCH   4   5
ENDBRANCH   3   4
ENDBRANCH   2   3
ENDBRANCH   1   2
BRANCH   1  30
ATOM     30  C   UNL     1       4.591   1.844   8.392  1.00  0.00     0.188 C 
BRANCH  30  31
ATOM     31  C   UNL     1       3.888   2.698   9.471  1.00  0.00     0.188 C 
BRANCH  31  32
ATOM     32  O   UNL     1       2.842   3.533   8.989  1.00  0.00    -0.376 OA
BRANCH  32  33
ATOM     33  C   UNL     1       3.090   4.930   9.000  1.00  0.00     0.202 C 
BRANCH  33  34
ATOM     34  C   UNL     1       3.986   5.393   7.847  1.00  0.00     0.261 C 
BRANCH  34  35
ATOM     35  O   UNL     1       5.318   4.859   7.875  1.00  0.00    -0.460 OA
BRANCH  35  36
ATOM     36  C   UNL     1       6.074   5.159   8.953  1.00  0.00     0.338 C 
ATOM     37  O   UNL     1       5.778   5.867   9.897  1.00  0.00    -0.246 OA
BRANCH  36  38
ATOM     38  C   UNL     1       7.286   4.323   8.889  1.00  0.00     0.060 A 
ATOM     39  C   UNL     1       7.587   3.481   9.966  1.00  0.00     0.016 A 
ATOM     40  C   UNL     1       8.110   4.369   7.763  1.00  0.00     0.016 A 
ATOM     41  C   UNL     1       8.744   2.704   9.934  1.00  0.00     0.010 A 
ATOM     42  C   UNL     1       9.276   3.607   7.739  1.00  0.00     0.010 A 
ATOM     43  C   UNL     1       9.614   2.800   8.840  1.00  0.00    -0.014 A 
BRANCH  43  44
ATOM     44  C   UNL     1      10.976   2.232   8.930  1.00  0.00     0.031 A 
ATOM     45  C   UNL     1      12.090   3.135   9.380  1.00  0.00     0.074 A 
ATOM     46  C   UNL     1      11.226   0.952   8.607  1.00  0.00     0.049 A 
ATOM     47  N   UNL     1      13.367   2.883   9.497  1.00  0.00    -0.248 NA
ATOM     48  C   UNL     1      11.708   4.511   9.738  1.00  0.00     0.031 C 
ATOM     49  C   UNL     1      10.228  -0.025   8.177  1.00  0.00     0.029 A 
ATOM     50  N   UNL     1      12.412   0.264   8.579  1.00  0.00    -0.354 N 
ATOM     51  C   UNL     1      13.942   4.070   9.934  1.00  0.00     0.074 A 
ATOM     52  C   UNL     1      12.881   5.048  10.034  1.00  0.00     0.031 C 
ATOM     53  C   UNL     1      10.850  -1.187   7.908  1.00  0.00     0.029 A 
ATOM     54  C   UNL     1      12.287  -1.024   8.121  1.00  0.00     0.049 A 
ATOM     55  H   UNL     1      13.270   0.656   8.859  1.00  0.00     0.167 HD
ATOM     56  C   UNL     1      15.238   4.324  10.229  1.00  0.00     0.031 A 
ATOM     57  C   UNL     1      13.231  -1.954   7.881  1.00  0.00     0.031 A 
ATOM     58  C   UNL     1      16.296   3.361  10.104  1.00  0.00     0.049 A 
ATOM     59  C   UNL     1      14.676  -1.631   8.156  1.00  0.00     0.074 A 
ATOM     60  C   UNL     1      17.639   3.511  10.403  1.00  0.00     0.029 A 
ATOM     61  N   UNL     1      16.132   2.071   9.624  1.00  0.00    -0.354 N 
ATOM     62  N   UNL     1      15.203  -0.524   8.621  1.00  0.00    -0.248 NA
ATOM     63  C   UNL     1      15.655  -2.693   7.881  1.00  0.00     0.031 C 
ATOM     64  C   UNL     1      18.297   2.329  10.048  1.00  0.00     0.029 A 
ATOM     65  C   UNL     1      17.355   1.424   9.585  1.00  0.00     0.049 A 
ATOM     66  H   UNL     1      15.273   1.675   9.351  1.00  0.00     0.167 HD
ATOM     67  C   UNL     1      16.569  -0.762   8.717  1.00  0.00     0.074 A 
ATOM     68  C   UNL     1      16.787  -2.125   8.275  1.00  0.00     0.031 C 
ATOM     69  C   UNL     1      17.554   0.070   9.136  1.00  0.00     0.031 A 
BRANCH  56  70
ATOM     70  C   UNL     1      15.575   5.720  10.669  1.00  0.00    -0.014 A 
ATOM     71  C   UNL     1      15.175   6.208  11.924  1.00  0.00     0.009 A 
ATOM     72  C   UNL     1      16.301   6.561   9.812  1.00  0.00     0.009 A 
ATOM     73  C   UNL     1      15.460   7.525  12.293  1.00  0.00     0.001 A 
ATOM     74  C   UNL     1      16.609   7.867  10.195  1.00  0.00     0.001 A 
ATOM     75  C   UNL     1      16.178   8.351  11.430  1.00  0.00     0.000 A 
ENDBRANCH  56  70
BRANCH  57  76
ATOM     76  C   UNL     1      12.841  -3.276   7.325  1.00  0.00    -0.014 A 
ATOM     77  C   UNL     1      12.911  -4.436   8.110  1.00  0.00     0.009 A 
ATOM     78  C   UNL     1      12.398  -3.381   5.997  1.00  0.00     0.009 A 
ATOM     79  C   UNL     1      12.564  -5.677   7.570  1.00  0.00     0.001 A 
ATOM     80  C   UNL     1      12.027  -4.619   5.468  1.00  0.00     0.001 A 
ATOM     81  C   UNL     1      12.118  -5.767   6.253  1.00  0.00     0.000 A 
ENDBRANCH  57  76
BRANCH  69  82
ATOM     82  C   UNL     1      18.955  -0.476   9.164  1.00  0.00    -0.014 A 
ATOM     83  C   UNL     1      19.678  -0.692   7.981  1.00  0.00     0.009 A 
ATOM     84  C   UNL     1      19.577  -0.727  10.397  1.00  0.00     0.009 A 
ATOM     85  C   UNL     1      20.987  -1.177   8.033  1.00  0.00     0.001 A 
ATOM     86  C   UNL     1      20.894  -1.184  10.447  1.00  0.00     0.001 A 
ATOM     87  C   UNL     1      21.595  -1.417   9.265  1.00  0.00     0.000 A 
ENDBRANCH  69  82
ENDBRANCH  43  44
ENDBRANCH  36  38
ENDBRANCH  35  36
ENDBRANCH  34  35
ENDBRANCH  33  34
ENDBRANCH  32  33
ENDBRANCH  31  32
ENDBRANCH  30  31
ENDBRANCH   1  30
TORSDOF 24
