REMARK SMILES COc1cc(NS(=O)(=O)c2cc(C)c(C(=O)OCCOCCOCCOCCOC(=O)c3ccc(-c4c5nc(c(-c6ccccc6)c6ccc([nH]6)c(-c6ccccc6)c6nc(c(-c7ccccc7)c7ccc4[nH]7)C=C6)C=C5)cc3)s2)cc(OC)c1
REMARK SMILES IDX 22 1 21 2 20 3 19 4 18 5 17 6 15 7 16 8 14 9 10 10 11 11
REMARK SMILES IDX 80 12 12 13 13 14 7 15 8 16 9 17 6 18 5 20 3 21 4 22 85 23
REMARK SMILES IDX 82 24 81 25 2 26 1 27 83 28 84 29 23 30 24 31 25 32 26 33
REMARK SMILES IDX 27 34 28 35 29 36 30 37 31 38 32 39 33 40 79 41 34 42 78 43
REMARK SMILES IDX 35 44 36 45 37 46 72 47 38 48 77 49 71 50 73 51 39 52 76 53
REMARK SMILES IDX 70 54 69 55 40 57 62 58 47 59 61 60 48 61 51 62 60 63 74 64
REMARK SMILES IDX 49 65 50 66 59 68 75 69 52 70 41 71 42 72 46 73 43 74 45 75
REMARK SMILES IDX 44 76 63 77 64 78 68 79 65 80 67 81 66 82 53 83 54 84 58 85
REMARK SMILES IDX 55 86 57 87 56 88
REMARK H PARENT 6 19 73 56 51 67
REMARK Flexibility Score: inf
ROOT
ATOM      1  C   UNL     1      -0.953  -0.013   1.145  1.00  0.00     0.188 C 
ENDROOT
BRANCH   1   2
ATOM      2  C   UNL     1      -1.376   1.291   0.442  1.00  0.00     0.188 C 
BRANCH   2   3
ATOM      3  O   UNL     1      -2.212   2.246   1.078  1.00  0.00    -0.376 OA
BRANCH   3   4
ATOM      4  C   UNL     1      -3.039   1.845   2.153  1.00  0.00     0.202 C 
BRANCH   4   5
ATOM      5  C   UNL     1      -4.142   0.810   1.869  1.00  0.00     0.261 C 
BRANCH   5   6
ATOM      6  O   UNL     1      -3.787  -0.278   0.994  1.00  0.00    -0.459 OA
BRANCH   6   7
ATOM      7  C   UNL     1      -4.189  -0.177  -0.313  1.00  0.00     0.348 C 
ATOM      8  O   UNL     1      -4.855   0.745  -0.743  1.00  0.00    -0.245 OA
BRANCH   7   9
ATOM      9  C   UNL     1      -3.639  -1.282  -1.114  1.00  0.00     0.116 A 
ATOM     10  C   UNL     1      -2.801  -2.536  -3.111  1.00  0.00     0.141 A 
ATOM     11  C   UNL     1      -2.810  -3.295  -1.957  1.00  0.00     0.038 A 
ATOM     12  S   UNL     1      -3.413  -0.977  -2.811  1.00  0.00    -0.115 S 
ATOM     13  C   UNL     1      -3.210  -2.567  -0.781  1.00  0.00    -0.024 A 
ATOM     14  C   UNL     1      -3.165  -3.205   0.575  1.00  0.00     0.046 C 
BRANCH  10  15
ATOM     15  S   UNL     1      -2.242  -2.929  -4.772  1.00  0.00     0.271 S 
ATOM     16  O   UNL     1      -3.295  -2.478  -5.657  1.00  0.00    -0.200 OA
ATOM     17  O   UNL     1      -1.881  -4.330  -4.706  1.00  0.00    -0.200 OA
BRANCH  15  18
ATOM     18  N   UNL     1      -0.845  -2.055  -5.196  1.00  0.00    -0.279 N 
ATOM     19  H   UNL     1      -0.900  -1.385  -5.915  1.00  0.00     0.180 HD
BRANCH  18  20
ATOM     20  C   UNL     1       0.415  -2.267  -4.532  1.00  0.00     0.056 A 
ATOM     21  C   UNL     1       1.692  -2.510  -2.511  1.00  0.00     0.124 A 
ATOM     22  C   UNL     1       0.479  -2.553  -3.179  1.00  0.00     0.073 A 
ATOM     23  C   UNL     1       2.879  -2.223  -3.155  1.00  0.00     0.093 A 
ATOM     24  C   UNL     1       2.839  -1.859  -4.491  1.00  0.00     0.124 A 
ATOM     25  C   UNL     1       1.609  -1.894  -5.181  1.00  0.00     0.073 A 
BRANCH  21  26
ATOM     26  O   UNL     1       1.685  -2.587  -1.148  1.00  0.00    -0.497 OA
ATOM     27  C   UNL     1       1.622  -1.240  -0.684  1.00  0.00     0.278 C 
ENDBRANCH  21  26
BRANCH  24  28
ATOM     28  O   UNL     1       3.935  -1.407  -5.179  1.00  0.00    -0.497 OA
ATOM     29  C   UNL     1       5.008  -0.922  -4.362  1.00  0.00     0.278 C 
ENDBRANCH  24  28
ENDBRANCH  18  20
ENDBRANCH  15  18
ENDBRANCH  10  15
ENDBRANCH   7   9
ENDBRANCH   6   7
ENDBRANCH   5   6
ENDBRANCH   4   5
ENDBRANCH   3   4
ENDBRANCH   2   3
ENDBRANCH   1   2
BRANCH   1  30
ATOM     30  O   UNL     1      -1.130  -0.084   2.549  1.00  0.00    -0.377 OA
BRANCH  30  31
ATOM     31  C   UNL     1       0.079   0.031   3.300  1.00  0.00     0.188 C 
BRANCH  31  32
ATOM     32  C   UNL     1       0.853   1.335   3.050  1.00  0.00     0.188 C 
BRANCH  32  33
ATOM     33  O   UNL     1       1.397   1.347   1.724  1.00  0.00    -0.376 OA
BRANCH  33  34
ATOM     34  C   UNL     1       2.800   1.549   1.618  1.00  0.00     0.202 C 
BRANCH  34  35
ATOM     35  C   UNL     1       3.627   0.260   1.735  1.00  0.00     0.261 C 
BRANCH  35  36
ATOM     36  O   UNL     1       3.215  -0.590   2.812  1.00  0.00    -0.460 OA
BRANCH  36  37
ATOM     37  C   UNL     1       3.717  -0.229   4.009  1.00  0.00     0.338 C 
ATOM     38  O   UNL     1       4.499   0.680   4.229  1.00  0.00    -0.246 OA
BRANCH  37  39
ATOM     39  C   UNL     1       3.008  -0.958   5.071  1.00  0.00     0.060 A 
ATOM     40  C   UNL     1       2.387  -0.181   6.053  1.00  0.00     0.016 A 
ATOM     41  C   UNL     1       3.011  -2.354   5.149  1.00  0.00     0.016 A 
ATOM     42  C   UNL     1       1.832  -0.792   7.166  1.00  0.00     0.010 A 
ATOM     43  C   UNL     1       2.469  -2.968   6.282  1.00  0.00     0.010 A 
ATOM     44  C   UNL     1       1.933  -2.180   7.316  1.00  0.00    -0.014 A 
BRANCH  44  45
ATOM     45  C   UNL     1       1.700  -2.737   8.665  1.00  0.00     0.031 A 
ATOM     46  C   UNL     1       2.890  -2.943   9.562  1.00  0.00     0.074 A 
ATOM     47  C   UNL     1       0.451  -2.924   9.122  1.00  0.00     0.049 A 
ATOM     48  N   UNL     1       2.932  -3.325  10.812  1.00  0.00    -0.248 NA
ATOM     49  C   UNL     1       4.212  -2.668   8.973  1.00  0.00     0.031 C 
ATOM     50  C   UNL     1      -0.773  -2.683   8.360  1.00  0.00     0.029 A 
ATOM     51  N   UNL     1       0.011  -3.339  10.351  1.00  0.00    -0.354 N 
ATOM     52  C   UNL     1       4.279  -3.339  11.154  1.00  0.00     0.074 A 
ATOM     53  C   UNL     1       5.025  -2.961   9.976  1.00  0.00     0.031 C 
ATOM     54  C   UNL     1      -1.832  -2.948   9.146  1.00  0.00     0.029 A 
ATOM     55  C   UNL     1      -1.356  -3.404  10.449  1.00  0.00     0.049 A 
ATOM     56  H   UNL     1       0.617  -3.567  11.093  1.00  0.00     0.167 HD
ATOM     57  C   UNL     1       4.844  -3.631  12.349  1.00  0.00     0.031 A 
ATOM     58  C   UNL     1      -2.130  -3.801  11.477  1.00  0.00     0.031 A 
ATOM     59  C   UNL     1       4.095  -4.025  13.511  1.00  0.00     0.049 A 
ATOM     60  C   UNL     1      -1.471  -4.211  12.767  1.00  0.00     0.074 A 
ATOM     61  C   UNL     1       4.564  -4.351  14.771  1.00  0.00     0.029 A 
ATOM     62  N   UNL     1       2.715  -4.155  13.549  1.00  0.00    -0.354 N 
ATOM     63  N   UNL     1      -0.198  -4.208  13.086  1.00  0.00    -0.248 NA
ATOM     64  C   UNL     1      -2.360  -4.666  13.844  1.00  0.00     0.031 C 
ATOM     65  C   UNL     1       3.471  -4.742  15.552  1.00  0.00     0.029 A 
ATOM     66  C   UNL     1       2.316  -4.587  14.802  1.00  0.00     0.049 A 
ATOM     67  H   UNL     1       2.108  -3.967  12.796  1.00  0.00     0.167 HD
ATOM     68  C   UNL     1      -0.136  -4.633  14.407  1.00  0.00     0.074 A 
ATOM     69  C   UNL     1      -1.502  -4.861  14.835  1.00  0.00     0.031 C 
ATOM     70  C   UNL     1       0.950  -4.817  15.199  1.00  0.00     0.031 A 
BRANCH  57  71
ATOM     71  C   UNL     1       6.345  -3.587  12.434  1.00  0.00    -0.014 A 
ATOM     72  C   UNL     1       7.051  -2.374  12.370  1.00  0.00     0.009 A 
ATOM     73  C   UNL     1       7.065  -4.781  12.592  1.00  0.00     0.009 A 
ATOM     74  C   UNL     1       8.447  -2.364  12.427  1.00  0.00     0.001 A 
ATOM     75  C   UNL     1       8.458  -4.765  12.681  1.00  0.00     0.001 A 
ATOM     76  C   UNL     1       9.149  -3.558  12.588  1.00  0.00     0.000 A 
ENDBRANCH  57  71
BRANCH  58  77
ATOM     77  C   UNL     1      -3.608  -3.852  11.322  1.00  0.00    -0.014 A 
ATOM     78  C   UNL     1      -4.443  -2.998  12.058  1.00  0.00     0.009 A 
ATOM     79  C   UNL     1      -4.194  -4.781  10.447  1.00  0.00     0.009 A 
ATOM     80  C   UNL     1      -5.832  -3.092  11.941  1.00  0.00     0.001 A 
ATOM     81  C   UNL     1      -5.582  -4.851  10.307  1.00  0.00     0.001 A 
ATOM     82  C   UNL     1      -6.400  -4.014  11.063  1.00  0.00     0.000 A 
ENDBRANCH  58  77
BRANCH  70  83
ATOM     83  C   UNL     1       0.695  -5.254  16.616  1.00  0.00    -0.014 A 
ATOM     84  C   UNL     1       0.214  -6.539  16.913  1.00  0.00     0.009 A 
ATOM     85  C   UNL     1       0.965  -4.369  17.673  1.00  0.00     0.009 A 
ATOM     86  C   UNL     1      -0.039  -6.910  18.235  1.00  0.00     0.001 A 
ATOM     87  C   UNL     1       0.747  -4.756  18.995  1.00  0.00     0.001 A 
ATOM     88  C   UNL     1       0.231  -6.020  19.274  1.00  0.00     0.000 A 
ENDBRANCH  70  83
ENDBRANCH  44  45
ENDBRANCH  37  39
ENDBRANCH  36  37
ENDBRANCH  35  36
ENDBRANCH  34  35
ENDBRANCH  33  34
ENDBRANCH  32  33
ENDBRANCH  31  32
ENDBRANCH  30  31
ENDBRANCH   1  30
TORSDOF 25
