REMARK SMILES COc1cccc([C@@H]2[NH2+][C@@](C)(C(=O)OCCOCCOCCOCCOC(=O)c3ccc(-c4c5nc(c(-c6ccccc6)c6ccc([nH]6)c(-c6ccccc6)c6nc(c(-c7ccccc7)c7ccc4[nH]7)C=C6)C=C5)cc3)[C@@H]3C(=O)N(C)C(=O)[C@@H]32)c1O
REMARK SMILES IDX 20 1 19 2 18 3 17 4 16 5 15 6 14 7 12 8 13 9 10 10 8 11 9 12
REMARK SMILES IDX 84 13 77 16 82 17 11 18 78 19 80 20 83 21 79 22 81 23 7 24
REMARK SMILES IDX 3 25 4 26 85 27 5 28 6 29 2 30 1 31 86 32 21 34 22 35 23 36
REMARK SMILES IDX 24 37 25 38 26 39 27 40 28 41 29 42 30 43 76 44 31 45 75 46
REMARK SMILES IDX 32 47 33 48 34 49 69 50 35 51 74 52 68 53 70 54 36 55 73 56
REMARK SMILES IDX 67 57 66 58 37 60 59 61 44 62 58 63 45 64 48 65 57 66 71 67
REMARK SMILES IDX 46 68 47 69 56 71 72 72 49 73 38 74 39 75 43 76 40 77 42 78
REMARK SMILES IDX 41 79 60 80 61 81 65 82 62 83 64 84 63 85 50 86 51 87 55 88
REMARK SMILES IDX 52 89 54 90 53 91
REMARK H PARENT 9 14 9 15 86 33 70 59 48 70
REMARK Flexibility Score: inf
ROOT
ATOM      1  O   UNL     1       1.738  -8.670   3.146  1.00  0.00    -0.377 OA
ENDROOT
BRANCH   1   2
ATOM      2  C   UNL     1       2.392  -7.675   2.388  1.00  0.00     0.188 C 
BRANCH   2   3
ATOM      3  C   UNL     1       3.789  -7.297   2.920  1.00  0.00     0.188 C 
BRANCH   3   4
ATOM      4  O   UNL     1       4.221  -7.710   4.209  1.00  0.00    -0.376 OA
BRANCH   4   5
ATOM      5  C   UNL     1       3.265  -7.976   5.220  1.00  0.00     0.202 C 
BRANCH   5   6
ATOM      6  C   UNL     1       2.205  -6.917   5.593  1.00  0.00     0.261 C 
BRANCH   6   7
ATOM      7  O   UNL     1       1.705  -6.060   4.545  1.00  0.00    -0.459 OA
BRANCH   7   8
ATOM      8  C   UNL     1       2.341  -4.872   4.401  1.00  0.00     0.368 C 
ATOM      9  O   UNL     1       3.254  -4.514   5.145  1.00  0.00    -0.245 OA
BRANCH   8  10
ATOM     10  C   UNL     1       1.818  -3.943   3.253  1.00  0.00     0.204 C 
ATOM     11  C   UNL     1       1.746  -4.544   0.872  1.00  0.00     0.232 C 
ATOM     12  N   UNL     1       1.013  -4.598   2.165  1.00  0.00    -0.325 N 
ATOM     13  C   UNL     1       3.171  -4.131   1.214  1.00  0.00     0.161 C 
ATOM     14  H   UNL     1       0.842  -5.572   2.414  1.00  0.00     0.347 HD
ATOM     15  H   UNL     1       0.128  -4.101   2.065  1.00  0.00     0.347 HD
ATOM     16  C   UNL     1       3.077  -3.419   2.558  1.00  0.00     0.170 C 
ATOM     17  C   UNL     1       3.827  -3.114   0.329  1.00  0.00     0.239 C 
ATOM     18  C   UNL     1       0.923  -2.966   4.025  1.00  0.00     0.093 C 
ATOM     19  C   UNL     1       3.154  -1.969   2.179  1.00  0.00     0.240 C 
ATOM     20  N   UNL     1       3.739  -1.896   0.944  1.00  0.00    -0.285 N 
ATOM     21  O   UNL     1       4.326  -3.354  -0.759  1.00  0.00    -0.274 OA
ATOM     22  O   UNL     1       2.785  -1.022   2.854  1.00  0.00    -0.274 OA
ATOM     23  C   UNL     1       4.163  -0.672   0.317  1.00  0.00     0.156 C 
BRANCH  11  24
ATOM     24  C   UNL     1       1.095  -3.775  -0.279  1.00  0.00     0.056 A 
ATOM     25  C   UNL     1       0.254  -1.711  -1.306  1.00  0.00     0.161 A 
ATOM     26  C   UNL     1       0.292  -2.329  -2.559  1.00  0.00     0.050 A 
ATOM     27  C   UNL     1       0.615  -2.456  -0.172  1.00  0.00     0.166 A 
ATOM     28  C   UNL     1       0.707  -3.651  -2.689  1.00  0.00     0.005 A 
ATOM     29  C   UNL     1       1.116  -4.362  -1.561  1.00  0.00     0.014 A 
BRANCH  25  30
ATOM     30  O   UNL     1      -0.214  -0.426  -1.353  1.00  0.00    -0.493 OA
ATOM     31  C   UNL     1       0.313   0.510  -0.425  1.00  0.00     0.278 C 
ENDBRANCH  25  30
BRANCH  27  32
ATOM     32  O   UNL     1       0.471  -1.974   1.091  1.00  0.00    -0.504 OA
ATOM     33  H   UNL     1       0.156  -1.102   1.227  1.00  0.00     0.293 HD
ENDBRANCH  27  32
ENDBRANCH  11  24
ENDBRANCH   8  10
ENDBRANCH   7   8
ENDBRANCH   6   7
ENDBRANCH   5   6
ENDBRANCH   4   5
ENDBRANCH   3   4
ENDBRANCH   2   3
ENDBRANCH   1   2
BRANCH   1  34
ATOM     34  C   UNL     1       1.788  -9.976   2.614  1.00  0.00     0.188 C 
BRANCH  34  35
ATOM     35  C   UNL     1       3.154 -10.463   2.102  1.00  0.00     0.188 C 
BRANCH  35  36
ATOM     36  O   UNL     1       3.749  -9.589   1.147  1.00  0.00    -0.376 OA
BRANCH  36  37
ATOM     37  C   UNL     1       3.667  -9.913  -0.232  1.00  0.00     0.202 C 
BRANCH  37  38
ATOM     38  C   UNL     1       2.311  -9.703  -0.926  1.00  0.00     0.261 C 
BRANCH  38  39
ATOM     39  O   UNL     1       1.182 -10.368  -0.344  1.00  0.00    -0.460 OA
BRANCH  39  40
ATOM     40  C   UNL     1       1.219 -11.714  -0.265  1.00  0.00     0.338 C 
ATOM     41  O   UNL     1       2.097 -12.452  -0.680  1.00  0.00    -0.246 OA
BRANCH  40  42
ATOM     42  C   UNL     1       0.104 -12.145   0.605  1.00  0.00     0.060 A 
ATOM     43  C   UNL     1       0.400 -12.874   1.765  1.00  0.00     0.016 A 
ATOM     44  C   UNL     1      -1.216 -11.802   0.302  1.00  0.00     0.016 A 
ATOM     45  C   UNL     1      -0.627 -13.292   2.609  1.00  0.00     0.010 A 
ATOM     46  C   UNL     1      -2.249 -12.253   1.129  1.00  0.00     0.010 A 
ATOM     47  C   UNL     1      -1.959 -13.033   2.263  1.00  0.00    -0.014 A 
BRANCH  47  48
ATOM     48  C   UNL     1      -3.038 -13.798   2.930  1.00  0.00     0.031 A 
ATOM     49  C   UNL     1      -3.506 -15.064   2.264  1.00  0.00     0.074 A 
ATOM     50  C   UNL     1      -3.561 -13.416   4.107  1.00  0.00     0.049 A 
ATOM     51  N   UNL     1      -4.452 -15.893   2.622  1.00  0.00    -0.248 NA
ATOM     52  C   UNL     1      -2.807 -15.447   1.024  1.00  0.00     0.031 C 
ATOM     53  C   UNL     1      -3.155 -12.243   4.879  1.00  0.00     0.029 A 
ATOM     54  N   UNL     1      -4.561 -13.984   4.857  1.00  0.00    -0.354 N 
ATOM     55  C   UNL     1      -4.460 -16.890   1.654  1.00  0.00     0.074 A 
ATOM     56  C   UNL     1      -3.454 -16.547   0.675  1.00  0.00     0.031 C 
ATOM     57  C   UNL     1      -3.913 -12.169   5.988  1.00  0.00     0.029 A 
ATOM     58  C   UNL     1      -4.876 -13.270   5.987  1.00  0.00     0.049 A 
ATOM     59  H   UNL     1      -5.010 -14.825   4.608  1.00  0.00     0.167 HD
ATOM     60  C   UNL     1      -5.228 -18.001   1.590  1.00  0.00     0.031 A 
ATOM     61  C   UNL     1      -5.849 -13.470   6.897  1.00  0.00     0.031 A 
ATOM     62  C   UNL     1      -6.249 -18.329   2.546  1.00  0.00     0.049 A 
ATOM     63  C   UNL     1      -6.760 -14.664   6.751  1.00  0.00     0.074 A 
ATOM     64  C   UNL     1      -7.097 -19.421   2.562  1.00  0.00     0.029 A 
ATOM     65  N   UNL     1      -6.561 -17.559   3.656  1.00  0.00    -0.354 N 
ATOM     66  N   UNL     1      -6.753 -15.607   5.838  1.00  0.00    -0.248 NA
ATOM     67  C   UNL     1      -7.807 -14.828   7.771  1.00  0.00     0.031 C 
ATOM     68  C   UNL     1      -7.962 -19.284   3.652  1.00  0.00     0.029 A 
ATOM     69  C   UNL     1      -7.603 -18.144   4.354  1.00  0.00     0.049 A 
ATOM     70  H   UNL     1      -6.110 -16.722   3.909  1.00  0.00     0.167 HD
ATOM     71  C   UNL     1      -7.765 -16.491   6.195  1.00  0.00     0.074 A 
ATOM     72  C   UNL     1      -8.355 -15.981   7.415  1.00  0.00     0.031 C 
ATOM     73  C   UNL     1      -8.169 -17.626   5.573  1.00  0.00     0.031 A 
BRANCH  60  74
ATOM     74  C   UNL     1      -5.010 -18.924   0.423  1.00  0.00    -0.014 A 
ATOM     75  C   UNL     1      -3.843 -19.697   0.315  1.00  0.00     0.009 A 
ATOM     76  C   UNL     1      -5.996 -19.039  -0.569  1.00  0.00     0.009 A 
ATOM     77  C   UNL     1      -3.655 -20.545  -0.778  1.00  0.00     0.001 A 
ATOM     78  C   UNL     1      -5.819 -19.910  -1.645  1.00  0.00     0.001 A 
ATOM     79  C   UNL     1      -4.646 -20.655  -1.753  1.00  0.00     0.000 A 
ENDBRANCH  60  74
BRANCH  61  80
ATOM     80  C   UNL     1      -6.047 -12.505   8.012  1.00  0.00    -0.014 A 
ATOM     81  C   UNL     1      -5.830 -12.884   9.346  1.00  0.00     0.009 A 
ATOM     82  C   UNL     1      -6.504 -11.203   7.747  1.00  0.00     0.009 A 
ATOM     83  C   UNL     1      -6.102 -11.994  10.390  1.00  0.00     0.001 A 
ATOM     84  C   UNL     1      -6.742 -10.305   8.790  1.00  0.00     0.001 A 
ATOM     85  C   UNL     1      -6.554 -10.706  10.111  1.00  0.00     0.000 A 
ENDBRANCH  61  80
BRANCH  73  86
ATOM     86  C   UNL     1      -9.261 -18.427   6.229  1.00  0.00    -0.014 A 
ATOM     87  C   UNL     1     -10.588 -17.971   6.269  1.00  0.00     0.009 A 
ATOM     88  C   UNL     1      -8.959 -19.686   6.774  1.00  0.00     0.009 A 
ATOM     89  C   UNL     1     -11.581 -18.743   6.878  1.00  0.00     0.001 A 
ATOM     90  C   UNL     1      -9.959 -20.470   7.350  1.00  0.00     0.001 A 
ATOM     91  C   UNL     1     -11.267 -19.993   7.412  1.00  0.00     0.000 A 
ENDBRANCH  73  86
ENDBRANCH  47  48
ENDBRANCH  40  42
ENDBRANCH  39  40
ENDBRANCH  38  39
ENDBRANCH  37  38
ENDBRANCH  36  37
ENDBRANCH  35  36
ENDBRANCH  34  35
ENDBRANCH   1  34
TORSDOF 23
