REMARK SMILES O=C(OCCOCCOCCOCCOC(=O)[C@]1(NC(=O)C2CCN(C(=O)C3CC3)CC2)CCCc2ccccc21)c1ccc(-c2c3nc(c(-c4ccccc4)c4ccc([nH]4)c(-c4ccccc4)c4nc(c(-c5ccccc5)c5ccc2[nH]5)C=C4)C=C3)cc1
REMARK SMILES IDX 10 1 9 2 8 3 7 4 6 5 5 6 4 7 3 8 2 9 1 10 42 11 43 12 89 13
REMARK SMILES IDX 44 14 88 15 45 16 46 17 47 18 82 19 48 20 87 21 81 22 83 23
REMARK SMILES IDX 49 24 86 25 80 26 79 27 50 29 72 30 57 31 71 32 58 33 61 34
REMARK SMILES IDX 70 35 84 36 59 37 60 38 69 40 85 41 62 42 51 43 52 44 56 45
REMARK SMILES IDX 53 46 55 47 54 48 73 49 74 50 78 51 75 52 77 53 76 54 63 55
REMARK SMILES IDX 64 56 68 57 65 58 67 59 66 60 11 61 12 62 13 63 14 64 15 65
REMARK SMILES IDX 16 66 17 67 18 68 33 69 41 70 34 71 36 72 40 73 35 74 37 75
REMARK SMILES IDX 39 76 38 77 19 78 20 79 21 81 22 82 23 83 32 84 24 85 31 86
REMARK SMILES IDX 25 87 26 88 27 89 28 90 29 91 30 92
REMARK H PARENT 83 28 61 39 19 80
REMARK Flexibility Score: inf
ROOT
ATOM      1  C   UNL     1       3.488   2.669  -1.894  1.00  0.00     0.188 C 
ENDROOT
BRANCH   1   2
ATOM      2  O   UNL     1       2.158   2.975  -1.546  1.00  0.00    -0.377 OA
BRANCH   2   3
ATOM      3  C   UNL     1       1.493   2.056  -0.697  1.00  0.00     0.188 C 
BRANCH   3   4
ATOM      4  C   UNL     1       1.970   0.605  -0.748  1.00  0.00     0.188 C 
BRANCH   4   5
ATOM      5  O   UNL     1       3.344   0.519  -0.359  1.00  0.00    -0.376 OA
BRANCH   5   6
ATOM      6  C   UNL     1       4.155  -0.397  -1.101  1.00  0.00     0.202 C 
BRANCH   6   7
ATOM      7  C   UNL     1       4.115  -1.824  -0.575  1.00  0.00     0.261 C 
BRANCH   7   8
ATOM      8  O   UNL     1       2.852  -2.171   0.000  1.00  0.00    -0.460 OA
BRANCH   8   9
ATOM      9  C   UNL     1       2.353  -1.829   1.213  1.00  0.00     0.338 C 
ATOM     10  O   UNL     1       1.204  -2.192   1.470  1.00  0.00    -0.246 OA
BRANCH   9  11
ATOM     11  C   UNL     1       3.063  -1.006   2.255  1.00  0.00     0.060 A 
ATOM     12  C   UNL     1       4.268  -0.315   2.095  1.00  0.00     0.016 A 
ATOM     13  C   UNL     1       2.418  -0.896   3.503  1.00  0.00     0.016 A 
ATOM     14  C   UNL     1       4.812   0.462   3.103  1.00  0.00     0.010 A 
ATOM     15  C   UNL     1       2.986  -0.171   4.553  1.00  0.00     0.010 A 
ATOM     16  C   UNL     1       4.205   0.480   4.351  1.00  0.00    -0.014 A 
BRANCH  16  17
ATOM     17  C   UNL     1       5.061   0.896   5.467  1.00  0.00     0.031 A 
ATOM     18  C   UNL     1       5.819  -0.194   6.166  1.00  0.00     0.074 A 
ATOM     19  C   UNL     1       5.312   2.198   5.676  1.00  0.00     0.049 A 
ATOM     20  N   UNL     1       6.639  -0.122   7.176  1.00  0.00    -0.248 NA
ATOM     21  C   UNL     1       5.652  -1.557   5.623  1.00  0.00     0.031 C 
ATOM     22  C   UNL     1       4.773   3.302   4.878  1.00  0.00     0.029 A 
ATOM     23  N   UNL     1       6.120   2.806   6.593  1.00  0.00    -0.354 N 
ATOM     24  C   UNL     1       7.054  -1.427   7.408  1.00  0.00     0.074 A 
ATOM     25  C   UNL     1       6.408  -2.274   6.436  1.00  0.00     0.031 C 
ATOM     26  C   UNL     1       5.272   4.459   5.345  1.00  0.00     0.029 A 
ATOM     27  C   UNL     1       6.105   4.175   6.508  1.00  0.00     0.049 A 
ATOM     28  H   UNL     1       6.661   2.310   7.250  1.00  0.00     0.167 HD
ATOM     29  C   UNL     1       7.892  -1.874   8.369  1.00  0.00     0.031 A 
ATOM     30  C   UNL     1       6.673   5.081   7.324  1.00  0.00     0.031 A 
ATOM     31  C   UNL     1       8.487  -0.995   9.334  1.00  0.00     0.049 A 
ATOM     32  C   UNL     1       7.468   4.553   8.489  1.00  0.00     0.074 A 
ATOM     33  C   UNL     1       9.268  -1.304  10.429  1.00  0.00     0.029 A 
ATOM     34  N   UNL     1       8.348   0.388   9.306  1.00  0.00    -0.354 N 
ATOM     35  N   UNL     1       7.778   3.309   8.782  1.00  0.00    -0.248 NA
ATOM     36  C   UNL     1       7.980   5.543   9.441  1.00  0.00     0.031 C 
ATOM     37  C   UNL     1       9.549  -0.108  11.100  1.00  0.00     0.029 A 
ATOM     38  C   UNL     1       9.007   0.950  10.380  1.00  0.00     0.049 A 
ATOM     39  H   UNL     1       7.853   0.892   8.621  1.00  0.00     0.167 HD
ATOM     40  C   UNL     1       8.541   3.368   9.939  1.00  0.00     0.074 A 
ATOM     41  C   UNL     1       8.661   4.774  10.279  1.00  0.00     0.031 C 
ATOM     42  C   UNL     1       9.093   2.362  10.663  1.00  0.00     0.031 A 
BRANCH  29  43
ATOM     43  C   UNL     1       8.080  -3.361   8.468  1.00  0.00    -0.014 A 
ATOM     44  C   UNL     1       8.791  -4.090   7.500  1.00  0.00     0.009 A 
ATOM     45  C   UNL     1       7.458  -4.058   9.516  1.00  0.00     0.009 A 
ATOM     46  C   UNL     1       8.833  -5.486   7.555  1.00  0.00     0.001 A 
ATOM     47  C   UNL     1       7.527  -5.450   9.585  1.00  0.00     0.001 A 
ATOM     48  C   UNL     1       8.202  -6.164   8.597  1.00  0.00     0.000 A 
ENDBRANCH  29  43
BRANCH  30  49
ATOM     49  C   UNL     1       6.444   6.538   7.124  1.00  0.00    -0.014 A 
ATOM     50  C   UNL     1       7.506   7.411   6.848  1.00  0.00     0.009 A 
ATOM     51  C   UNL     1       5.149   7.073   7.237  1.00  0.00     0.009 A 
ATOM     52  C   UNL     1       7.281   8.786   6.720  1.00  0.00     0.001 A 
ATOM     53  C   UNL     1       4.921   8.441   7.077  1.00  0.00     0.001 A 
ATOM     54  C   UNL     1       5.989   9.299   6.831  1.00  0.00     0.000 A 
ENDBRANCH  30  49
BRANCH  42  55
ATOM     55  C   UNL     1       9.912   2.762  11.854  1.00  0.00    -0.014 A 
ATOM     56  C   UNL     1       9.312   3.264  13.018  1.00  0.00     0.009 A 
ATOM     57  C   UNL     1      11.303   2.578  11.820  1.00  0.00     0.009 A 
ATOM     58  C   UNL     1      10.098   3.607  14.117  1.00  0.00     0.001 A 
ATOM     59  C   UNL     1      12.081   2.886  12.934  1.00  0.00     0.001 A 
ATOM     60  C   UNL     1      11.479   3.411  14.076  1.00  0.00     0.000 A 
ENDBRANCH  42  55
ENDBRANCH  16  17
ENDBRANCH   9  11
ENDBRANCH   8   9
ENDBRANCH   7   8
ENDBRANCH   6   7
ENDBRANCH   5   6
ENDBRANCH   4   5
ENDBRANCH   3   4
ENDBRANCH   2   3
ENDBRANCH   1   2
BRANCH   1  61
ATOM     61  C   UNL     1       4.681   2.993  -0.946  1.00  0.00     0.188 C 
BRANCH  61  62
ATOM     62  O   UNL     1       4.541   3.833   0.183  1.00  0.00    -0.376 OA
BRANCH  62  63
ATOM     63  C   UNL     1       3.586   4.869   0.133  1.00  0.00     0.202 C 
BRANCH  63  64
ATOM     64  C   UNL     1       3.606   5.825  -1.061  1.00  0.00     0.261 C 
BRANCH  64  65
ATOM     65  O   UNL     1       3.933   5.230  -2.343  1.00  0.00    -0.461 OA
BRANCH  65  66
ATOM     66  C   UNL     1       5.159   5.511  -2.869  1.00  0.00     0.336 C 
ATOM     67  O   UNL     1       5.945   6.241  -2.269  1.00  0.00    -0.249 OA
BRANCH  66  68
ATOM     68  C   UNL     1       5.361   5.008  -4.399  1.00  0.00     0.164 C 
ATOM     69  C   UNL     1       4.780   3.646  -4.893  1.00  0.00     0.046 C 
ATOM     70  C   UNL     1       6.913   4.928  -4.554  1.00  0.00    -0.008 A 
ATOM     71  C   UNL     1       5.514   2.380  -4.430  1.00  0.00     0.008 C 
ATOM     72  C   UNL     1       7.628   3.710  -4.543  1.00  0.00    -0.042 A 
ATOM     73  C   UNL     1       7.644   6.131  -4.477  1.00  0.00     0.007 A 
ATOM     74  C   UNL     1       6.977   2.383  -4.811  1.00  0.00     0.036 C 
ATOM     75  C   UNL     1       9.017   3.724  -4.335  1.00  0.00     0.004 A 
ATOM     76  C   UNL     1       9.018   6.128  -4.258  1.00  0.00     0.000 A 
ATOM     77  C   UNL     1       9.700   4.924  -4.159  1.00  0.00     0.000 A 
BRANCH  68  78
ATOM     78  N   UNL     1       4.849   6.040  -5.367  1.00  0.00    -0.336 N 
ATOM     79  C   UNL     1       3.632   6.654  -5.484  1.00  0.00     0.224 C 
ATOM     80  H   UNL     1       5.511   6.324  -6.039  1.00  0.00     0.164 HD
ATOM     81  O   UNL     1       3.221   6.918  -6.615  1.00  0.00    -0.275 OA
BRANCH  79  82
ATOM     82  C   UNL     1       2.876   7.129  -4.252  1.00  0.00     0.082 C 
ATOM     83  C   UNL     1       1.592   6.319  -3.993  1.00  0.00     0.035 C 
ATOM     84  C   UNL     1       2.673   8.649  -4.258  1.00  0.00     0.035 C 
ATOM     85  C   UNL     1       0.354   6.910  -4.667  1.00  0.00     0.120 C 
ATOM     86  C   UNL     1       1.398   9.068  -4.965  1.00  0.00     0.120 C 
ATOM     87  N   UNL     1       0.284   8.341  -4.374  1.00  0.00    -0.342 N 
ATOM     88  C   UNL     1      -0.610   8.772  -3.396  1.00  0.00     0.225 C 
ATOM     89  O   UNL     1      -1.390   7.968  -2.862  1.00  0.00    -0.275 OA
BRANCH  88  90
ATOM     90  C   UNL     1      -0.720  10.176  -2.892  1.00  0.00     0.079 C 
ATOM     91  C   UNL     1       0.411  11.139  -2.659  1.00  0.00     0.014 C 
ATOM     92  C   UNL     1      -0.604  11.411  -3.742  1.00  0.00     0.014 C 
ENDBRANCH  88  90
ENDBRANCH  79  82
ENDBRANCH  68  78
ENDBRANCH  66  68
ENDBRANCH  65  66
ENDBRANCH  64  65
ENDBRANCH  63  64
ENDBRANCH  62  63
ENDBRANCH  61  62
ENDBRANCH   1  61
TORSDOF 23
