REMARK SMILES CC(C)(C)[NH2+]CCC(=O)N1CCO[C@@H](CC(=O)OCCOCCOCCOCCOC(=O)c2ccc(-c3c4nc(c(-c5ccccc5)c5ccc([nH]5)c(-c5ccccc5)c5nc(c(-c6ccccc6)c6ccc3[nH]6)C=C5)C=C4)cc2)C1
REMARK SMILES IDX 22 1 21 2 20 3 19 4 18 5 16 6 17 7 15 8 14 9 10 10 11 11
REMARK SMILES IDX 81 12 12 13 13 14 8 15 9 16 7 17 6 18 5 19 2 22 1 23 3 24
REMARK SMILES IDX 4 25 23 26 24 27 25 28 26 29 27 30 28 31 29 32 30 33 31 34
REMARK SMILES IDX 32 35 33 36 34 37 80 38 35 39 79 40 36 41 37 42 38 43 73 44
REMARK SMILES IDX 39 45 78 46 72 47 74 48 40 49 77 50 71 51 70 52 41 54 63 55
REMARK SMILES IDX 48 56 62 57 49 58 52 59 61 60 75 61 50 62 51 63 60 65 76 66
REMARK SMILES IDX 53 67 42 68 43 69 47 70 44 71 46 72 45 73 64 74 65 75 69 76
REMARK SMILES IDX 66 77 68 78 67 79 54 80 55 81 59 82 56 83 58 84 57 85
REMARK H PARENT 5 20 5 21 74 53 52 64
REMARK Flexibility Score: inf
ROOT
ATOM      1  C   UNL     1       0.023   2.638   7.345  1.00  0.00     0.188 C 
ENDROOT
BRANCH   1   2
ATOM      2  O   UNL     1       1.018   2.814   8.325  1.00  0.00    -0.376 OA
BRANCH   2   3
ATOM      3  C   UNL     1       1.272   1.835   9.318  1.00  0.00     0.202 C 
BRANCH   3   4
ATOM      4  C   UNL     1       0.721   0.398   9.335  1.00  0.00     0.261 C 
BRANCH   4   5
ATOM      5  O   UNL     1       0.097  -0.096   8.147  1.00  0.00    -0.463 OA
BRANCH   5   6
ATOM      6  C   UNL     1      -1.228  -0.336   8.238  1.00  0.00     0.308 C 
ATOM      7  O   UNL     1      -1.910  -0.069   9.223  1.00  0.00    -0.252 OA
BRANCH   6   8
ATOM      8  C   UNL     1      -1.853  -0.926   7.006  1.00  0.00     0.156 C 
BRANCH   8   9
ATOM      9  C   UNL     1      -1.062  -1.285   5.753  1.00  0.00     0.148 C 
ATOM     10  N   UNL     1       0.792  -2.364   4.564  1.00  0.00    -0.338 N 
ATOM     11  C   UNL     1      -0.143  -3.159   3.782  1.00  0.00     0.148 C 
ATOM     12  C   UNL     1       0.275  -2.041   5.909  1.00  0.00     0.152 C 
ATOM     13  C   UNL     1      -1.476  -2.414   3.678  1.00  0.00     0.182 C 
ATOM     14  O   UNL     1      -1.991  -2.107   4.979  1.00  0.00    -0.374 OA
BRANCH  10  15
ATOM     15  C   UNL     1       2.135  -2.222   4.296  1.00  0.00     0.228 C 
ATOM     16  O   UNL     1       2.966  -2.379   5.200  1.00  0.00    -0.275 OA
BRANCH  15  17
ATOM     17  C   UNL     1       2.611  -1.577   2.986  1.00  0.00     0.161 C 
BRANCH  17  18
ATOM     18  C   UNL     1       2.108  -1.916   1.581  1.00  0.00     0.270 C 
BRANCH  18  19
ATOM     19  N   UNL     1       0.782  -1.496   1.129  1.00  0.00    -0.342 N 
ATOM     20  H   UNL     1       0.567  -2.060   0.307  1.00  0.00     0.346 HD
ATOM     21  H   UNL     1       0.218  -1.616   1.970  1.00  0.00     0.346 HD
BRANCH  19  22
ATOM     22  C   UNL     1       0.497  -0.103   0.759  1.00  0.00     0.088 C 
ATOM     23  C   UNL     1       1.280   0.333  -0.485  1.00  0.00     0.078 C 
ATOM     24  C   UNL     1       0.742   0.878   1.908  1.00  0.00     0.078 C 
ATOM     25  C   UNL     1      -1.008  -0.063   0.410  1.00  0.00     0.078 C 
ENDBRANCH  19  22
ENDBRANCH  18  19
ENDBRANCH  17  18
ENDBRANCH  15  17
ENDBRANCH  10  15
ENDBRANCH   8   9
ENDBRANCH   6   8
ENDBRANCH   5   6
ENDBRANCH   4   5
ENDBRANCH   3   4
ENDBRANCH   2   3
ENDBRANCH   1   2
BRANCH   1  26
ATOM     26  C   UNL     1       0.499   2.039   6.013  1.00  0.00     0.188 C 
BRANCH  26  27
ATOM     27  O   UNL     1       1.500   1.040   6.052  1.00  0.00    -0.377 OA
BRANCH  27  28
ATOM     28  C   UNL     1       2.835   1.371   6.434  1.00  0.00     0.188 C 
BRANCH  28  29
ATOM     29  C   UNL     1       3.317   2.834   6.574  1.00  0.00     0.188 C 
BRANCH  29  30
ATOM     30  O   UNL     1       2.573   3.790   5.839  1.00  0.00    -0.376 OA
BRANCH  30  31
ATOM     31  C   UNL     1       3.138   4.266   4.628  1.00  0.00     0.202 C 
BRANCH  31  32
ATOM     32  C   UNL     1       3.308   3.226   3.513  1.00  0.00     0.261 C 
BRANCH  32  33
ATOM     33  O   UNL     1       4.175   2.119   3.816  1.00  0.00    -0.460 OA
BRANCH  33  34
ATOM     34  C   UNL     1       5.473   2.412   4.052  1.00  0.00     0.338 C 
ATOM     35  O   UNL     1       6.003   3.503   3.980  1.00  0.00    -0.246 OA
BRANCH  34  36
ATOM     36  C   UNL     1       6.134   1.207   4.596  1.00  0.00     0.060 A 
ATOM     37  C   UNL     1       6.654   1.256   5.896  1.00  0.00     0.016 A 
ATOM     38  C   UNL     1       6.278   0.055   3.820  1.00  0.00     0.016 A 
ATOM     39  C   UNL     1       7.356   0.167   6.409  1.00  0.00     0.010 A 
ATOM     40  C   UNL     1       6.999  -1.030   4.331  1.00  0.00     0.010 A 
ATOM     41  C   UNL     1       7.574  -0.966   5.613  1.00  0.00    -0.014 A 
BRANCH  41  42
ATOM     42  C   UNL     1       8.552  -1.992   6.055  1.00  0.00     0.031 A 
ATOM     43  C   UNL     1       9.949  -1.946   5.494  1.00  0.00     0.074 A 
ATOM     44  C   UNL     1       8.226  -2.925   6.968  1.00  0.00     0.049 A 
ATOM     45  N   UNL     1      10.961  -2.747   5.715  1.00  0.00    -0.248 NA
ATOM     46  C   UNL     1      10.244  -0.849   4.558  1.00  0.00     0.031 C 
ATOM     47  C   UNL     1       6.925  -3.053   7.622  1.00  0.00     0.029 A 
ATOM     48  N   UNL     1       8.974  -3.948   7.499  1.00  0.00    -0.354 N 
ATOM     49  C   UNL     1      12.004  -2.260   4.936  1.00  0.00     0.074 A 
ATOM     50  C   UNL     1      11.498  -1.110   4.220  1.00  0.00     0.031 C 
ATOM     51  C   UNL     1       6.965  -4.101   8.465  1.00  0.00     0.029 A 
ATOM     52  C   UNL     1       8.277  -4.740   8.379  1.00  0.00     0.049 A 
ATOM     53  H   UNL     1       9.920  -4.098   7.271  1.00  0.00     0.167 HD
ATOM     54  C   UNL     1      13.270  -2.728   4.827  1.00  0.00     0.031 A 
ATOM     55  C   UNL     1       8.646  -5.869   9.017  1.00  0.00     0.031 A 
ATOM     56  C   UNL     1      13.774  -3.876   5.532  1.00  0.00     0.049 A 
ATOM     57  C   UNL     1      10.039  -6.412   8.816  1.00  0.00     0.074 A 
ATOM     58  C   UNL     1      15.050  -4.411   5.503  1.00  0.00     0.029 A 
ATOM     59  N   UNL     1      13.025  -4.672   6.383  1.00  0.00    -0.354 N 
ATOM     60  N   UNL     1      11.026  -5.924   8.105  1.00  0.00    -0.248 NA
ATOM     61  C   UNL     1      10.368  -7.664   9.516  1.00  0.00     0.031 C 
ATOM     62  C   UNL     1      15.055  -5.571   6.282  1.00  0.00     0.029 A 
ATOM     63  C   UNL     1      13.802  -5.716   6.856  1.00  0.00     0.049 A 
ATOM     64  H   UNL     1      12.081  -4.519   6.616  1.00  0.00     0.167 HD
ATOM     65  C   UNL     1      12.098  -6.789   8.295  1.00  0.00     0.074 A 
ATOM     66  C   UNL     1      11.647  -7.820   9.205  1.00  0.00     0.031 C 
ATOM     67  C   UNL     1      13.344  -6.735   7.764  1.00  0.00     0.031 A 
BRANCH  54  68
ATOM     68  C   UNL     1      14.195  -2.021   3.875  1.00  0.00    -0.014 A 
ATOM     69  C   UNL     1      14.700  -0.742   4.154  1.00  0.00     0.009 A 
ATOM     70  C   UNL     1      14.609  -2.674   2.703  1.00  0.00     0.009 A 
ATOM     71  C   UNL     1      15.581  -0.121   3.265  1.00  0.00     0.001 A 
ATOM     72  C   UNL     1      15.512  -2.064   1.831  1.00  0.00     0.001 A 
ATOM     73  C   UNL     1      15.992  -0.785   2.109  1.00  0.00     0.000 A 
ENDBRANCH  54  68
BRANCH  55  74
ATOM     74  C   UNL     1       7.674  -6.598   9.877  1.00  0.00    -0.014 A 
ATOM     75  C   UNL     1       7.878  -6.713  11.261  1.00  0.00     0.009 A 
ATOM     76  C   UNL     1       6.558  -7.229   9.305  1.00  0.00     0.009 A 
ATOM     77  C   UNL     1       7.006  -7.473  12.046  1.00  0.00     0.001 A 
ATOM     78  C   UNL     1       5.668  -7.958  10.097  1.00  0.00     0.001 A 
ATOM     79  C   UNL     1       5.900  -8.091  11.464  1.00  0.00     0.000 A 
ENDBRANCH  55  74
BRANCH  67  80
ATOM     80  C   UNL     1      14.325  -7.796   8.185  1.00  0.00    -0.014 A 
ATOM     81  C   UNL     1      14.191  -9.129   7.768  1.00  0.00     0.009 A 
ATOM     82  C   UNL     1      15.428  -7.443   8.981  1.00  0.00     0.009 A 
ATOM     83  C   UNL     1      15.118 -10.093   8.172  1.00  0.00     0.001 A 
ATOM     84  C   UNL     1      16.371  -8.401   9.354  1.00  0.00     0.001 A 
ATOM     85  C   UNL     1      16.209  -9.727   8.959  1.00  0.00     0.000 A 
ENDBRANCH  67  80
ENDBRANCH  41  42
ENDBRANCH  34  36
ENDBRANCH  33  34
ENDBRANCH  32  33
ENDBRANCH  31  32
ENDBRANCH  30  31
ENDBRANCH  29  30
ENDBRANCH  28  29
ENDBRANCH  27  28
ENDBRANCH  26  27
ENDBRANCH   1  26
TORSDOF 26
