REMARK SMILES CC(C)[C@H](NC(=O)OCc1ccccc1)C(=O)NCC(=O)OCCOCCOCCOCCOC(=O)c1ccc(-c2c3nc(c(-c4ccccc4)c4ccc([nH]4)c(-c4ccccc4)c4nc(c(-c5ccccc5)c5ccc2[nH]5)C=C4)C=C3)cc1
REMARK SMILES IDX 26 1 25 2 24 3 23 4 22 5 20 6 21 7 19 8 18 9 16 10 17 11
REMARK SMILES IDX 4 13 2 14 1 15 3 16 5 17 6 18 7 20 8 21 9 22 10 23 11 24
REMARK SMILES IDX 15 25 12 26 14 27 13 28 27 29 28 30 29 31 30 32 31 33 32 34
REMARK SMILES IDX 33 35 34 36 35 37 36 38 37 39 38 40 84 41 39 42 83 43 40 44
REMARK SMILES IDX 41 45 42 46 77 47 43 48 82 49 76 50 78 51 44 52 81 53 75 54
REMARK SMILES IDX 74 55 45 57 67 58 52 59 66 60 53 61 56 62 65 63 79 64 54 65
REMARK SMILES IDX 55 66 64 68 80 69 57 70 46 71 47 72 51 73 48 74 50 75 49 76
REMARK SMILES IDX 68 77 69 78 73 79 70 80 72 81 71 82 58 83 59 84 63 85 60 86
REMARK SMILES IDX 62 87 61 88
REMARK H PARENT 18 12 5 19 78 56 56 67
REMARK Flexibility Score: inf
ROOT
ATOM      1  C   UNL     1       0.983   3.324   6.563  1.00  0.00     0.188 C 
ENDROOT
BRANCH   1   2
ATOM      2  O   UNL     1       2.404   3.270   6.543  1.00  0.00    -0.376 OA
BRANCH   2   3
ATOM      3  C   UNL     1       3.157   3.243   5.339  1.00  0.00     0.202 C 
BRANCH   3   4
ATOM      4  C   UNL     1       2.936   2.121   4.318  1.00  0.00     0.261 C 
BRANCH   4   5
ATOM      5  O   UNL     1       1.602   2.041   3.792  1.00  0.00    -0.462 OA
BRANCH   5   6
ATOM      6  C   UNL     1       0.803   1.093   4.335  1.00  0.00     0.325 C 
ATOM      7  O   UNL     1       1.139   0.314   5.221  1.00  0.00    -0.250 OA
BRANCH   6   8
ATOM      8  C   UNL     1      -0.612   1.090   3.762  1.00  0.00     0.238 C 
BRANCH   8   9
ATOM      9  N   UNL     1      -0.956   2.073   2.746  1.00  0.00    -0.343 N 
ATOM     10  C   UNL     1      -1.163   1.960   1.412  1.00  0.00     0.243 C 
ATOM     11  O   UNL     1      -1.522   2.982   0.815  1.00  0.00    -0.273 OA
ATOM     12  H   UNL     1      -1.057   2.989   3.091  1.00  0.00     0.164 HD
BRANCH  10  13
ATOM     13  C   UNL     1      -0.877   0.667   0.620  1.00  0.00     0.177 C 
BRANCH  13  14
ATOM     14  C   UNL     1      -1.687  -0.591   0.995  1.00  0.00     0.015 C 
ATOM     15  C   UNL     1      -3.173  -0.272   1.202  1.00  0.00     0.010 C 
ATOM     16  C   UNL     1      -1.544  -1.667  -0.086  1.00  0.00     0.010 C 
ENDBRANCH  13  14
BRANCH  13  17
ATOM     17  N   UNL     1       0.581   0.570   0.497  1.00  0.00    -0.309 N 
ATOM     18  C   UNL     1       1.503  -0.060   1.273  1.00  0.00     0.408 C 
ATOM     19  H   UNL     1       0.957   1.041  -0.281  1.00  0.00     0.167 HD
ATOM     20  O   UNL     1       2.676   0.286   1.249  1.00  0.00    -0.225 OA
BRANCH  18  21
ATOM     21  O   UNL     1       0.989  -1.033   2.055  1.00  0.00    -0.445 OA
BRANCH  21  22
ATOM     22  C   UNL     1       1.873  -1.588   3.038  1.00  0.00     0.270 C 
BRANCH  22  23
ATOM     23  C   UNL     1       2.691  -2.733   2.521  1.00  0.00    -0.011 A 
ATOM     24  C   UNL     1       2.171  -4.031   2.485  1.00  0.00     0.007 A 
ATOM     25  C   UNL     1       4.008  -2.506   2.100  1.00  0.00     0.007 A 
ATOM     26  C   UNL     1       2.969  -5.089   2.054  1.00  0.00     0.000 A 
ATOM     27  C   UNL     1       4.801  -3.562   1.666  1.00  0.00     0.000 A 
ATOM     28  C   UNL     1       4.283  -4.855   1.647  1.00  0.00     0.000 A 
ENDBRANCH  22  23
ENDBRANCH  21  22
ENDBRANCH  18  21
ENDBRANCH  13  17
ENDBRANCH  10  13
ENDBRANCH   8   9
ENDBRANCH   6   8
ENDBRANCH   5   6
ENDBRANCH   4   5
ENDBRANCH   3   4
ENDBRANCH   2   3
ENDBRANCH   1   2
BRANCH   1  29
ATOM     29  C   UNL     1       0.164   4.048   5.479  1.00  0.00     0.188 C 
BRANCH  29  30
ATOM     30  O   UNL     1       0.913   4.591   4.415  1.00  0.00    -0.377 OA
BRANCH  30  31
ATOM     31  C   UNL     1       1.257   5.969   4.513  1.00  0.00     0.188 C 
BRANCH  31  32
ATOM     32  C   UNL     1       1.563   6.531   5.914  1.00  0.00     0.188 C 
BRANCH  32  33
ATOM     33  O   UNL     1       0.495   6.367   6.843  1.00  0.00    -0.376 OA
BRANCH  33  34
ATOM     34  C   UNL     1      -0.428   7.439   7.001  1.00  0.00     0.202 C 
BRANCH  34  35
ATOM     35  C   UNL     1      -1.362   7.718   5.812  1.00  0.00     0.261 C 
BRANCH  35  36
ATOM     36  O   UNL     1      -0.741   8.230   4.620  1.00  0.00    -0.460 OA
BRANCH  36  37
ATOM     37  C   UNL     1       0.094   9.284   4.724  1.00  0.00     0.338 C 
ATOM     38  O   UNL     1       0.313   9.966   5.706  1.00  0.00    -0.246 OA
BRANCH  37  39
ATOM     39  C   UNL     1       0.875   9.356   3.474  1.00  0.00     0.060 A 
ATOM     40  C   UNL     1       2.274   9.349   3.549  1.00  0.00     0.016 A 
ATOM     41  C   UNL     1       0.227   9.442   2.240  1.00  0.00     0.016 A 
ATOM     42  C   UNL     1       3.035   9.484   2.388  1.00  0.00     0.010 A 
ATOM     43  C   UNL     1       0.987   9.602   1.082  1.00  0.00     0.010 A 
ATOM     44  C   UNL     1       2.390   9.667   1.159  1.00  0.00    -0.014 A 
BRANCH  44  45
ATOM     45  C   UNL     1       3.141  10.194  -0.002  1.00  0.00     0.031 A 
ATOM     46  C   UNL     1       3.162  11.685  -0.197  1.00  0.00     0.074 A 
ATOM     47  C   UNL     1       3.763   9.383  -0.872  1.00  0.00     0.049 A 
ATOM     48  N   UNL     1       3.642  12.387  -1.190  1.00  0.00    -0.248 NA
ATOM     49  C   UNL     1       2.551  12.491   0.875  1.00  0.00     0.031 C 
ATOM     50  C   UNL     1       3.871   7.931  -0.754  1.00  0.00     0.029 A 
ATOM     51  N   UNL     1       4.413   9.679  -2.042  1.00  0.00    -0.354 N 
ATOM     52  C   UNL     1       3.376  13.713  -0.870  1.00  0.00     0.074 A 
ATOM     53  C   UNL     1       2.677  13.717   0.396  1.00  0.00     0.031 C 
ATOM     54  C   UNL     1       4.542   7.459  -1.821  1.00  0.00     0.029 A 
ATOM     55  C   UNL     1       4.867   8.571  -2.713  1.00  0.00     0.049 A 
ATOM     56  H   UNL     1       4.543  10.599  -2.370  1.00  0.00     0.167 HD
ATOM     57  C   UNL     1       3.681  14.830  -1.569  1.00  0.00     0.031 A 
ATOM     58  C   UNL     1       5.449   8.471  -3.924  1.00  0.00     0.031 A 
ATOM     59  C   UNL     1       4.348  14.821  -2.841  1.00  0.00     0.049 A 
ATOM     60  C   UNL     1       5.674   9.718  -4.740  1.00  0.00     0.074 A 
ATOM     61  C   UNL     1       4.707  15.896  -3.634  1.00  0.00     0.029 A 
ATOM     62  N   UNL     1       4.744  13.674  -3.510  1.00  0.00    -0.354 N 
ATOM     63  N   UNL     1       5.432  10.969  -4.427  1.00  0.00    -0.248 NA
ATOM     64  C   UNL     1       6.249   9.537  -6.082  1.00  0.00     0.031 C 
ATOM     65  C   UNL     1       5.271  15.395  -4.812  1.00  0.00     0.029 A 
ATOM     66  C   UNL     1       5.317  14.012  -4.723  1.00  0.00     0.049 A 
ATOM     67  H   UNL     1       4.633  12.756  -3.173  1.00  0.00     0.167 HD
ATOM     68  C   UNL     1       5.859  11.723  -5.513  1.00  0.00     0.074 A 
ATOM     69  C   UNL     1       6.374  10.791  -6.495  1.00  0.00     0.031 C 
ATOM     70  C   UNL     1       5.835  13.069  -5.679  1.00  0.00     0.031 A 
BRANCH  57  71
ATOM     71  C   UNL     1       3.240  16.142  -0.988  1.00  0.00    -0.014 A 
ATOM     72  C   UNL     1       3.849  16.676   0.158  1.00  0.00     0.009 A 
ATOM     73  C   UNL     1       2.189  16.849  -1.593  1.00  0.00     0.009 A 
ATOM     74  C   UNL     1       3.387  17.872   0.711  1.00  0.00     0.001 A 
ATOM     75  C   UNL     1       1.749  18.059  -1.054  1.00  0.00     0.001 A 
ATOM     76  C   UNL     1       2.339  18.563   0.103  1.00  0.00     0.000 A 
ENDBRANCH  57  71
BRANCH  58  77
ATOM     77  C   UNL     1       5.845   7.141  -4.456  1.00  0.00    -0.014 A 
ATOM     78  C   UNL     1       7.201   6.806  -4.589  1.00  0.00     0.009 A 
ATOM     79  C   UNL     1       4.874   6.207  -4.849  1.00  0.00     0.009 A 
ATOM     80  C   UNL     1       7.576   5.571  -5.124  1.00  0.00     0.001 A 
ATOM     81  C   UNL     1       5.252   4.963  -5.359  1.00  0.00     0.001 A 
ATOM     82  C   UNL     1       6.602   4.649  -5.504  1.00  0.00     0.000 A 
ENDBRANCH  58  77
BRANCH  70  83
ATOM     83  C   UNL     1       6.431  13.626  -6.941  1.00  0.00    -0.014 A 
ATOM     84  C   UNL     1       5.759  13.537  -8.169  1.00  0.00     0.009 A 
ATOM     85  C   UNL     1       7.648  14.323  -6.878  1.00  0.00     0.009 A 
ATOM     86  C   UNL     1       6.306  14.121  -9.314  1.00  0.00     0.001 A 
ATOM     87  C   UNL     1       8.179  14.928  -8.017  1.00  0.00     0.001 A 
ATOM     88  C   UNL     1       7.510  14.822  -9.235  1.00  0.00     0.000 A 
ENDBRANCH  70  83
ENDBRANCH  44  45
ENDBRANCH  37  39
ENDBRANCH  36  37
ENDBRANCH  35  36
ENDBRANCH  34  35
ENDBRANCH  33  34
ENDBRANCH  32  33
ENDBRANCH  31  32
ENDBRANCH  30  31
ENDBRANCH  29  30
ENDBRANCH   1  29
TORSDOF 27
