REMARK SMILES Cc1cc2c(cc1C(=O)c1ccccc1C(=O)OCCOCCOCCOCCOC(=O)c1ccc(-c3c4nc(c(-c5ccccc5)c5ccc([nH]5)c(-c5ccccc5)c5nc(c(-c6ccccc6)c6ccc3[nH]6)C=C5)C=C4)cc1)CCCC2
REMARK SMILES IDX 24 1 23 2 22 3 21 4 20 5 19 6 18 7 16 8 17 9 15 10 10 11
REMARK SMILES IDX 11 12 12 13 14 14 13 15 8 16 9 17 7 18 1 19 2 20 3 21 4 22
REMARK SMILES IDX 6 23 5 24 84 25 81 26 83 27 82 28 25 29 26 30 27 31 28 32
REMARK SMILES IDX 29 33 30 34 31 35 32 36 33 37 34 38 80 39 35 40 79 41 36 42
REMARK SMILES IDX 37 43 38 44 73 45 39 46 78 47 72 48 74 49 40 50 77 51 71 52
REMARK SMILES IDX 70 53 41 55 63 56 48 57 62 58 49 59 52 60 61 61 75 62 50 63
REMARK SMILES IDX 51 64 60 66 76 67 53 68 42 69 43 70 47 71 44 72 46 73 45 74
REMARK SMILES IDX 64 75 65 76 69 77 66 78 68 79 67 80 54 81 55 82 59 83 56 84
REMARK SMILES IDX 58 85 57 86
REMARK H PARENT 74 54 52 65
REMARK Flexibility Score: inf
ROOT
ATOM      1  O   UNL     1       4.043   1.402   2.151  1.00  0.00    -0.377 OA
ENDROOT
BRANCH   1   2
ATOM      2  C   UNL     1       4.627   1.663   0.885  1.00  0.00     0.188 C 
BRANCH   2   3
ATOM      3  C   UNL     1       5.516   2.908   0.697  1.00  0.00     0.188 C 
BRANCH   3   4
ATOM      4  O   UNL     1       5.827   3.608   1.895  1.00  0.00    -0.376 OA
BRANCH   4   5
ATOM      5  C   UNL     1       5.245   4.898   2.031  1.00  0.00     0.202 C 
BRANCH   5   6
ATOM      6  C   UNL     1       3.744   4.900   2.346  1.00  0.00     0.261 C 
BRANCH   6   7
ATOM      7  O   UNL     1       2.964   4.096   1.449  1.00  0.00    -0.460 OA
BRANCH   7   8
ATOM      8  C   UNL     1       2.703   4.636   0.244  1.00  0.00     0.338 C 
ATOM      9  O   UNL     1       3.123   5.709  -0.163  1.00  0.00    -0.246 OA
BRANCH   8  10
ATOM     10  C   UNL     1       2.018   3.658  -0.636  1.00  0.00     0.071 A 
ATOM     11  C   UNL     1       0.948   2.833  -0.255  1.00  0.00     0.037 A 
ATOM     12  C   UNL     1       0.239   2.142  -1.248  1.00  0.00     0.013 A 
ATOM     13  C   UNL     1       0.724   2.083  -2.557  1.00  0.00     0.001 A 
ATOM     14  C   UNL     1       2.500   3.592  -1.957  1.00  0.00     0.016 A 
ATOM     15  C   UNL     1       1.882   2.772  -2.900  1.00  0.00     0.001 A 
BRANCH  11  16
ATOM     16  C   UNL     1       0.488   2.723   1.142  1.00  0.00     0.194 C 
ATOM     17  O   UNL     1       0.179   3.788   1.679  1.00  0.00    -0.289 OA
BRANCH  16  18
ATOM     18  C   UNL     1       0.318   1.410   1.894  1.00  0.00     0.026 A 
ATOM     19  C   UNL     1       1.203  -0.316   0.147  1.00  0.00     0.045 C 
ATOM     20  C   UNL     1       0.580   0.093   1.452  1.00  0.00    -0.040 A 
ATOM     21  C   UNL     1       0.208  -0.996   2.279  1.00  0.00     0.008 A 
ATOM     22  C   UNL     1      -0.325  -0.823   3.559  1.00  0.00    -0.044 A 
ATOM     23  C   UNL     1      -0.183   1.565   3.208  1.00  0.00     0.016 A 
ATOM     24  C   UNL     1      -0.503   0.474   4.039  1.00  0.00    -0.044 A 
ATOM     25  C   UNL     1      -0.752  -2.034   4.350  1.00  0.00     0.036 C 
ATOM     26  C   UNL     1      -0.959   0.721   5.455  1.00  0.00     0.036 C 
ATOM     27  C   UNL     1      -0.957  -1.756   5.836  1.00  0.00     0.005 C 
ATOM     28  C   UNL     1      -1.719  -0.458   6.058  1.00  0.00     0.005 C 
ENDBRANCH  16  18
ENDBRANCH  11  16
ENDBRANCH   8  10
ENDBRANCH   7   8
ENDBRANCH   6   7
ENDBRANCH   5   6
ENDBRANCH   4   5
ENDBRANCH   3   4
ENDBRANCH   2   3
ENDBRANCH   1   2
BRANCH   1  29
ATOM     29  C   UNL     1       4.850   1.474   3.322  1.00  0.00     0.188 C 
BRANCH  29  30
ATOM     30  C   UNL     1       6.364   1.174   3.260  1.00  0.00     0.188 C 
BRANCH  30  31
ATOM     31  O   UNL     1       6.798   0.553   2.058  1.00  0.00    -0.376 OA
BRANCH  31  32
ATOM     32  C   UNL     1       7.156  -0.817   2.148  1.00  0.00     0.202 C 
BRANCH  32  33
ATOM     33  C   UNL     1       5.980  -1.777   2.360  1.00  0.00     0.261 C 
BRANCH  33  34
ATOM     34  O   UNL     1       5.240  -1.588   3.576  1.00  0.00    -0.460 OA
BRANCH  34  35
ATOM     35  C   UNL     1       5.902  -1.714   4.748  1.00  0.00     0.338 C 
ATOM     36  O   UNL     1       7.072  -2.005   4.915  1.00  0.00    -0.246 OA
BRANCH  35  37
ATOM     37  C   UNL     1       4.984  -1.257   5.810  1.00  0.00     0.060 A 
ATOM     38  C   UNL     1       3.730  -1.851   5.935  1.00  0.00     0.016 A 
ATOM     39  C   UNL     1       5.363  -0.209   6.660  1.00  0.00     0.016 A 
ATOM     40  C   UNL     1       2.865  -1.411   6.935  1.00  0.00     0.010 A 
ATOM     41  C   UNL     1       4.480   0.246   7.646  1.00  0.00     0.010 A 
ATOM     42  C   UNL     1       3.228  -0.364   7.801  1.00  0.00    -0.014 A 
BRANCH  42  43
ATOM     43  C   UNL     1       2.369  -0.070   8.975  1.00  0.00     0.031 A 
ATOM     44  C   UNL     1       1.458   1.119   9.034  1.00  0.00     0.074 A 
ATOM     45  C   UNL     1       2.397  -0.947   9.996  1.00  0.00     0.049 A 
ATOM     46  N   UNL     1       0.539   1.395   9.927  1.00  0.00    -0.248 NA
ATOM     47  C   UNL     1       1.575   2.119   7.963  1.00  0.00     0.031 C 
ATOM     48  C   UNL     1       3.247  -2.140  10.049  1.00  0.00     0.029 A 
ATOM     49  N   UNL     1       1.684  -0.993  11.166  1.00  0.00    -0.354 N 
ATOM     50  C   UNL     1      -0.058   2.577   9.509  1.00  0.00     0.074 A 
ATOM     51  C   UNL     1       0.631   2.991   8.304  1.00  0.00     0.031 C 
ATOM     52  C   UNL     1       2.973  -2.822  11.169  1.00  0.00     0.029 A 
ATOM     53  C   UNL     1       1.959  -2.101  11.931  1.00  0.00     0.049 A 
ATOM     54  H   UNL     1       1.037  -0.300  11.433  1.00  0.00     0.167 HD
ATOM     55  C   UNL     1      -1.096   3.240  10.074  1.00  0.00     0.031 A 
ATOM     56  C   UNL     1       1.449  -2.504  13.110  1.00  0.00     0.031 A 
ATOM     57  C   UNL     1      -1.741   2.852  11.305  1.00  0.00     0.049 A 
ATOM     58  C   UNL     1       0.370  -1.689  13.761  1.00  0.00     0.074 A 
ATOM     59  C   UNL     1      -2.808   3.465  11.943  1.00  0.00     0.029 A 
ATOM     60  N   UNL     1      -1.373   1.774  12.094  1.00  0.00    -0.354 N 
ATOM     61  N   UNL     1      -0.238  -0.620  13.311  1.00  0.00    -0.248 NA
ATOM     62  C   UNL     1      -0.103  -2.143  15.076  1.00  0.00     0.031 C 
ATOM     63  C   UNL     1      -3.035   2.804  13.151  1.00  0.00     0.029 A 
ATOM     64  C   UNL     1      -2.165   1.730  13.230  1.00  0.00     0.049 A 
ATOM     65  H   UNL     1      -0.655   1.135  11.879  1.00  0.00     0.167 HD
ATOM     66  C   UNL     1      -1.184  -0.290  14.272  1.00  0.00     0.074 A 
ATOM     67  C   UNL     1      -1.080  -1.281  15.322  1.00  0.00     0.031 C 
ATOM     68  C   UNL     1      -2.060   0.744  14.276  1.00  0.00     0.031 A 
BRANCH  55  69
ATOM     69  C   UNL     1      -1.633   4.462   9.379  1.00  0.00    -0.014 A 
ATOM     70  C   UNL     1      -1.499   5.728   9.973  1.00  0.00     0.009 A 
ATOM     71  C   UNL     1      -2.414   4.335   8.219  1.00  0.00     0.009 A 
ATOM     72  C   UNL     1      -2.159   6.836   9.437  1.00  0.00     0.001 A 
ATOM     73  C   UNL     1      -3.053   5.451   7.672  1.00  0.00     0.001 A 
ATOM     74  C   UNL     1      -2.936   6.696   8.288  1.00  0.00     0.000 A 
ENDBRANCH  55  69
BRANCH  56  75
ATOM     75  C   UNL     1       1.933  -3.769  13.722  1.00  0.00    -0.014 A 
ATOM     76  C   UNL     1       3.252  -3.880  14.190  1.00  0.00     0.009 A 
ATOM     77  C   UNL     1       1.088  -4.885  13.804  1.00  0.00     0.009 A 
ATOM     78  C   UNL     1       3.722  -5.089  14.707  1.00  0.00     0.001 A 
ATOM     79  C   UNL     1       1.550  -6.083  14.353  1.00  0.00     0.001 A 
ATOM     80  C   UNL     1       2.869  -6.187  14.795  1.00  0.00     0.000 A 
ENDBRANCH  56  75
BRANCH  68  81
ATOM     81  C   UNL     1      -3.002   0.865  15.443  1.00  0.00    -0.014 A 
ATOM     82  C   UNL     1      -4.381   0.678  15.247  1.00  0.00     0.009 A 
ATOM     83  C   UNL     1      -2.545   1.259  16.709  1.00  0.00     0.009 A 
ATOM     84  C   UNL     1      -5.283   0.903  16.288  1.00  0.00     0.001 A 
ATOM     85  C   UNL     1      -3.447   1.451  17.758  1.00  0.00     0.001 A 
ATOM     86  C   UNL     1      -4.815   1.284  17.544  1.00  0.00     0.000 A 
ENDBRANCH  68  81
ENDBRANCH  42  43
ENDBRANCH  35  37
ENDBRANCH  34  35
ENDBRANCH  33  34
ENDBRANCH  32  33
ENDBRANCH  31  32
ENDBRANCH  30  31
ENDBRANCH  29  30
ENDBRANCH   1  29
TORSDOF 22
