REMARK SMILES C[C@@]1(C(=O)OCCOCCOCCOCCOC(=O)c2ccc(-c3c4nc(c(-c5ccccc5)c5ccc([nH]5)c(-c5ccccc5)c5nc(c(-c6ccccc6)c6ccc3[nH]6)C=C5)C=C4)cc2)[C@@H]2C=C[C@@]3(CN(c4ccccc4)C(=O)[C@H]13)O2
REMARK SMILES IDX 12 1 11 2 10 3 9 4 8 5 7 6 6 7 5 8 3 9 4 10 2 11 1 12 68 13
REMARK SMILES IDX 82 14 69 15 83 16 71 17 80 18 70 19 72 20 73 21 81 22 74 23
REMARK SMILES IDX 75 24 79 25 76 26 78 27 77 28 13 29 14 30 15 31 16 32 17 33
REMARK SMILES IDX 18 34 19 35 20 36 21 37 67 38 22 39 66 40 23 41 24 42 25 43
REMARK SMILES IDX 60 44 26 45 65 46 59 47 61 48 27 49 64 50 58 51 57 52 28 54
REMARK SMILES IDX 50 55 35 56 49 57 36 58 39 59 48 60 62 61 37 62 38 63 47 65
REMARK SMILES IDX 63 66 40 67 29 68 30 69 34 70 31 71 33 72 32 73 51 74 52 75
REMARK SMILES IDX 56 76 53 77 55 78 54 79 41 80 42 81 46 82 43 83 45 84 44 85
REMARK H PARENT 61 53 39 64
REMARK Flexibility Score: inf
ROOT
ATOM      1  C   UNL     1       4.107   1.789  -3.988  1.00  0.00     0.188 C 
ENDROOT
BRANCH   1   2
ATOM      2  O   UNL     1       3.289   0.931  -3.204  1.00  0.00    -0.377 OA
BRANCH   2   3
ATOM      3  C   UNL     1       3.829   0.225  -2.103  1.00  0.00     0.188 C 
BRANCH   3   4
ATOM      4  C   UNL     1       3.613  -1.284  -2.256  1.00  0.00     0.188 C 
BRANCH   4   5
ATOM      5  O   UNL     1       3.838  -1.842  -3.546  1.00  0.00    -0.376 OA
BRANCH   5   6
ATOM      6  C   UNL     1       3.046  -1.374  -4.640  1.00  0.00     0.202 C 
BRANCH   6   7
ATOM      7  C   UNL     1       1.519  -1.208  -4.475  1.00  0.00     0.261 C 
BRANCH   7   8
ATOM      8  O   UNL     1       1.074  -0.172  -3.552  1.00  0.00    -0.463 OA
BRANCH   8   9
ATOM      9  C   UNL     1       0.402  -0.609  -2.466  1.00  0.00     0.315 C 
ATOM     10  O   UNL     1       0.138  -1.799  -2.284  1.00  0.00    -0.251 OA
BRANCH   9  11
ATOM     11  C   UNL     1      -0.103   0.438  -1.470  1.00  0.00     0.110 C 
ATOM     12  C   UNL     1       0.294  -0.101  -0.074  1.00  0.00     0.028 C 
ATOM     13  C   UNL     1      -1.667   0.424  -1.665  1.00  0.00     0.160 C 
ATOM     14  C   UNL     1       0.108   1.971  -1.459  1.00  0.00     0.137 C 
ATOM     15  C   UNL     1      -1.970   0.665  -3.121  1.00  0.00     0.004 C 
ATOM     16  O   UNL     1      -2.083   1.739  -1.147  1.00  0.00    -0.360 OA
ATOM     17  C   UNL     1      -1.224   2.495  -2.013  1.00  0.00     0.118 C 
ATOM     18  C   UNL     1       1.062   2.990  -2.013  1.00  0.00     0.234 C 
ATOM     19  C   UNL     1      -1.612   1.932  -3.353  1.00  0.00     0.009 C 
ATOM     20  C   UNL     1      -1.092   3.998  -1.922  1.00  0.00     0.166 C 
ATOM     21  N   UNL     1       0.309   4.153  -2.265  1.00  0.00    -0.309 N 
ATOM     22  O   UNL     1       2.276   2.950  -1.951  1.00  0.00    -0.274 OA
BRANCH  21  23
ATOM     23  C   UNL     1       0.791   5.264  -2.966  1.00  0.00     0.044 A 
ATOM     24  C   UNL     1       0.822   6.528  -2.375  1.00  0.00     0.026 A 
ATOM     25  C   UNL     1       1.183   5.103  -4.295  1.00  0.00     0.026 A 
ATOM     26  C   UNL     1       1.286   7.625  -3.108  1.00  0.00     0.002 A 
ATOM     27  C   UNL     1       1.565   6.214  -5.043  1.00  0.00     0.002 A 
ATOM     28  C   UNL     1       1.646   7.470  -4.446  1.00  0.00     0.000 A 
ENDBRANCH  21  23
ENDBRANCH   9  11
ENDBRANCH   8   9
ENDBRANCH   7   8
ENDBRANCH   6   7
ENDBRANCH   5   6
ENDBRANCH   4   5
ENDBRANCH   3   4
ENDBRANCH   2   3
ENDBRANCH   1   2
BRANCH   1  29
ATOM     29  C   UNL     1       5.614   1.554  -3.918  1.00  0.00     0.188 C 
BRANCH  29  30
ATOM     30  O   UNL     1       6.310   2.017  -2.756  1.00  0.00    -0.376 OA
BRANCH  30  31
ATOM     31  C   UNL     1       5.735   3.075  -1.990  1.00  0.00     0.202 C 
BRANCH  31  32
ATOM     32  C   UNL     1       6.035   4.483  -2.500  1.00  0.00     0.261 C 
BRANCH  32  33
ATOM     33  O   UNL     1       5.444   4.748  -3.780  1.00  0.00    -0.460 OA
BRANCH  33  34
ATOM     34  C   UNL     1       6.249   4.566  -4.848  1.00  0.00     0.338 C 
ATOM     35  O   UNL     1       7.421   4.222  -4.863  1.00  0.00    -0.246 OA
BRANCH  34  36
ATOM     36  C   UNL     1       5.444   4.737  -6.065  1.00  0.00     0.060 A 
ATOM     37  C   UNL     1       5.397   3.708  -7.014  1.00  0.00     0.016 A 
ATOM     38  C   UNL     1       4.778   5.941  -6.285  1.00  0.00     0.016 A 
ATOM     39  C   UNL     1       4.678   3.881  -8.196  1.00  0.00     0.010 A 
ATOM     40  C   UNL     1       4.074   6.119  -7.473  1.00  0.00     0.010 A 
ATOM     41  C   UNL     1       4.031   5.098  -8.439  1.00  0.00    -0.014 A 
BRANCH  41  42
ATOM     42  C   UNL     1       3.442   5.397  -9.762  1.00  0.00     0.031 A 
ATOM     43  C   UNL     1       4.168   6.362 -10.655  1.00  0.00     0.074 A 
ATOM     44  C   UNL     1       2.269   4.861 -10.141  1.00  0.00     0.049 A 
ATOM     45  N   UNL     1       3.784   6.900 -11.782  1.00  0.00    -0.248 NA
ATOM     46  C   UNL     1       5.500   6.797 -10.199  1.00  0.00     0.031 C 
ATOM     47  C   UNL     1       1.492   3.886  -9.377  1.00  0.00     0.029 A 
ATOM     48  N   UNL     1       1.518   5.083 -11.267  1.00  0.00    -0.354 N 
ATOM     49  C   UNL     1       4.813   7.756 -12.154  1.00  0.00     0.074 A 
ATOM     50  C   UNL     1       5.819   7.695 -11.118  1.00  0.00     0.031 C 
ATOM     51  C   UNL     1       0.367   3.598 -10.055  1.00  0.00     0.029 A 
ATOM     52  C   UNL     1       0.323   4.405 -11.273  1.00  0.00     0.049 A 
ATOM     53  H   UNL     1       1.807   5.672 -12.001  1.00  0.00     0.167 HD
ATOM     54  C   UNL     1       4.912   8.521 -13.265  1.00  0.00     0.031 A 
ATOM     55  C   UNL     1      -0.700   4.457 -12.148  1.00  0.00     0.031 A 
ATOM     56  C   UNL     1       3.908   8.576 -14.290  1.00  0.00     0.049 A 
ATOM     57  C   UNL     1      -0.599   5.374 -13.340  1.00  0.00     0.074 A 
ATOM     58  C   UNL     1       3.923   9.294 -15.472  1.00  0.00     0.029 A 
ATOM     59  N   UNL     1       2.705   7.889 -14.250  1.00  0.00    -0.354 N 
ATOM     60  N   UNL     1       0.391   6.156 -13.701  1.00  0.00    -0.248 NA
ATOM     61  C   UNL     1      -1.757   5.416 -14.244  1.00  0.00     0.031 C 
ATOM     62  C   UNL     1       2.699   9.093 -16.116  1.00  0.00     0.029 A 
ATOM     63  C   UNL     1       1.952   8.194 -15.370  1.00  0.00     0.049 A 
ATOM     64  H   UNL     1       2.428   7.275 -13.532  1.00  0.00     0.167 HD
ATOM     65  C   UNL     1      -0.014   6.760 -14.886  1.00  0.00     0.074 A 
ATOM     66  C   UNL     1      -1.331   6.241 -15.191  1.00  0.00     0.031 C 
ATOM     67  C   UNL     1       0.644   7.663 -15.655  1.00  0.00     0.031 A 
BRANCH  54  68
ATOM     68  C   UNL     1       6.134   9.386 -13.402  1.00  0.00    -0.014 A 
ATOM     69  C   UNL     1       7.405   8.831 -13.622  1.00  0.00     0.009 A 
ATOM     70  C   UNL     1       6.007  10.781 -13.329  1.00  0.00     0.009 A 
ATOM     71  C   UNL     1       8.528   9.655 -13.727  1.00  0.00     0.001 A 
ATOM     72  C   UNL     1       7.125  11.604 -13.467  1.00  0.00     0.001 A 
ATOM     73  C   UNL     1       8.386  11.040 -13.655  1.00  0.00     0.000 A 
ENDBRANCH  54  68
BRANCH  55  74
ATOM     74  C   UNL     1      -1.924   3.643 -11.921  1.00  0.00    -0.014 A 
ATOM     75  C   UNL     1      -2.253   2.590 -12.789  1.00  0.00     0.009 A 
ATOM     76  C   UNL     1      -2.785   3.928 -10.850  1.00  0.00     0.009 A 
ATOM     77  C   UNL     1      -3.431   1.860 -12.606  1.00  0.00     0.001 A 
ATOM     78  C   UNL     1      -3.945   3.176 -10.649  1.00  0.00     0.001 A 
ATOM     79  C   UNL     1      -4.272   2.150 -11.533  1.00  0.00     0.000 A 
ENDBRANCH  55  74
BRANCH  67  80
ATOM     80  C   UNL     1      -0.030   8.124 -16.917  1.00  0.00    -0.014 A 
ATOM     81  C   UNL     1      -1.136   8.986 -16.881  1.00  0.00     0.009 A 
ATOM     82  C   UNL     1       0.497   7.745 -18.162  1.00  0.00     0.009 A 
ATOM     83  C   UNL     1      -1.715   9.440 -18.068  1.00  0.00     0.001 A 
ATOM     84  C   UNL     1      -0.062   8.226 -19.346  1.00  0.00     0.001 A 
ATOM     85  C   UNL     1      -1.173   9.067 -19.298  1.00  0.00     0.000 A 
ENDBRANCH  67  80
ENDBRANCH  41  42
ENDBRANCH  34  36
ENDBRANCH  33  34
ENDBRANCH  32  33
ENDBRANCH  31  32
ENDBRANCH  30  31
ENDBRANCH  29  30
ENDBRANCH   1  29
TORSDOF 21
