REMARK SMILES CN(CC(=O)N[C@H]1C=C[C@H](C(=O)OCCOCCOCCOCCOC(=O)c2ccc(-c3c4nc(c(-c5ccccc5)c5ccc([nH]5)c(-c5ccccc5)c5nc(c(-c6ccccc6)c6ccc3[nH]6)C=C5)C=C4)cc2)C1)C(=O)c1cccs1
REMARK SMILES IDX 17 1 16 2 15 3 14 4 13 5 11 6 12 7 10 8 7 9 8 10 76 11 9 12
REMARK SMILES IDX 6 13 4 14 5 15 3 17 2 18 1 19 77 20 78 21 79 22 80 23 83 24
REMARK SMILES IDX 81 25 82 26 18 27 19 28 20 29 21 30 22 31 23 32 24 33 25 34
REMARK SMILES IDX 26 35 27 36 28 37 29 38 75 39 30 40 74 41 31 42 32 43 33 44
REMARK SMILES IDX 68 45 34 46 73 47 67 48 69 49 35 50 72 51 66 52 65 53 36 55
REMARK SMILES IDX 58 56 43 57 57 58 44 59 47 60 56 61 70 62 45 63 46 64 55 66
REMARK SMILES IDX 71 67 48 68 37 69 38 70 42 71 39 72 41 73 40 74 59 75 60 76
REMARK SMILES IDX 64 77 61 78 63 79 62 80 49 81 50 82 54 83 51 84 53 85 52 86
REMARK H PARENT 6 16 69 54 47 65
REMARK Flexibility Score: inf
ROOT
ATOM      1  C   UNL     1      -1.591  -5.642   0.327  1.00  0.00     0.188 C 
ENDROOT
BRANCH   1   2
ATOM      2  O   UNL     1      -1.496  -6.248  -0.946  1.00  0.00    -0.376 OA
BRANCH   2   3
ATOM      3  C   UNL     1      -1.272  -5.503  -2.134  1.00  0.00     0.202 C 
BRANCH   3   4
ATOM      4  C   UNL     1      -1.224  -3.964  -2.264  1.00  0.00     0.261 C 
BRANCH   4   5
ATOM      5  O   UNL     1      -1.415  -3.191  -1.076  1.00  0.00    -0.463 OA
BRANCH   5   6
ATOM      6  C   UNL     1      -2.671  -2.767  -0.827  1.00  0.00     0.312 C 
ATOM      7  O   UNL     1      -3.616  -2.921  -1.591  1.00  0.00    -0.252 OA
BRANCH   6   8
ATOM      8  C   UNL     1      -2.826  -2.125   0.558  1.00  0.00     0.124 C 
ATOM      9  C   UNL     1      -2.216   0.209   0.333  1.00  0.00     0.106 C 
ATOM     10  C   UNL     1      -1.357  -0.465   1.334  1.00  0.00    -0.006 C 
ATOM     11  C   UNL     1      -3.435  -0.728   0.383  1.00  0.00     0.048 C 
ATOM     12  C   UNL     1      -1.634  -1.767   1.399  1.00  0.00    -0.014 C 
BRANCH   9  13
ATOM     13  N   UNL     1      -2.515   1.554   0.723  1.00  0.00    -0.348 N 
ATOM     14  C   UNL     1      -1.757   2.677   0.587  1.00  0.00     0.240 C 
ATOM     15  O   UNL     1      -2.357   3.755   0.672  1.00  0.00    -0.273 OA
ATOM     16  H   UNL     1      -3.392   1.685   1.150  1.00  0.00     0.164 HD
BRANCH  14  17
ATOM     17  C   UNL     1      -0.262   2.657   0.197  1.00  0.00     0.219 C 
BRANCH  17  18
ATOM     18  N   UNL     1       0.668   1.665   0.753  1.00  0.00    -0.332 N 
ATOM     19  C   UNL     1       1.293   0.731  -0.178  1.00  0.00     0.147 C 
BRANCH  18  20
ATOM     20  C   UNL     1       1.270   1.747   2.028  1.00  0.00     0.264 C 
ATOM     21  O   UNL     1       2.242   1.028   2.278  1.00  0.00    -0.268 OA
BRANCH  20  22
ATOM     22  C   UNL     1       0.725   2.644   3.039  1.00  0.00     0.092 A 
ATOM     23  C   UNL     1      -0.573   2.849   3.471  1.00  0.00     0.025 A 
ATOM     24  S   UNL     1       1.833   3.528   4.015  1.00  0.00    -0.139 S 
ATOM     25  C   UNL     1      -0.662   3.796   4.533  1.00  0.00     0.012 A 
ATOM     26  C   UNL     1       0.578   4.226   4.940  1.00  0.00     0.065 A 
ENDBRANCH  20  22
ENDBRANCH  18  20
ENDBRANCH  17  18
ENDBRANCH  14  17
ENDBRANCH   9  13
ENDBRANCH   6   8
ENDBRANCH   5   6
ENDBRANCH   4   5
ENDBRANCH   3   4
ENDBRANCH   2   3
ENDBRANCH   1   2
BRANCH   1  27
ATOM     27  C   UNL     1      -0.329  -4.982   0.896  1.00  0.00     0.188 C 
BRANCH  27  28
ATOM     28  O   UNL     1       0.617  -4.605  -0.084  1.00  0.00    -0.377 OA
BRANCH  28  29
ATOM     29  C   UNL     1       1.660  -5.532  -0.355  1.00  0.00     0.188 C 
BRANCH  29  30
ATOM     30  C   UNL     1       1.379  -7.044  -0.215  1.00  0.00     0.188 C 
BRANCH  30  31
ATOM     31  O   UNL     1       0.686  -7.418   0.968  1.00  0.00    -0.376 OA
BRANCH  31  32
ATOM     32  C   UNL     1       1.418  -7.893   2.088  1.00  0.00     0.202 C 
BRANCH  32  33
ATOM     33  C   UNL     1       2.409  -6.931   2.766  1.00  0.00     0.261 C 
BRANCH  33  34
ATOM     34  O   UNL     1       3.446  -6.402   1.927  1.00  0.00    -0.460 OA
BRANCH  34  35
ATOM     35  C   UNL     1       4.271  -7.288   1.339  1.00  0.00     0.338 C 
ATOM     36  O   UNL     1       4.282  -8.501   1.492  1.00  0.00    -0.246 OA
BRANCH  35  37
ATOM     37  C   UNL     1       5.048  -6.582   0.304  1.00  0.00     0.060 A 
ATOM     38  C   UNL     1       4.970  -7.041  -1.016  1.00  0.00     0.016 A 
ATOM     39  C   UNL     1       5.865  -5.496   0.631  1.00  0.00     0.016 A 
ATOM     40  C   UNL     1       5.759  -6.458  -2.002  1.00  0.00     0.010 A 
ATOM     41  C   UNL     1       6.670  -4.923  -0.357  1.00  0.00     0.010 A 
ATOM     42  C   UNL     1       6.656  -5.436  -1.666  1.00  0.00    -0.014 A 
BRANCH  42  43
ATOM     43  C   UNL     1       7.707  -5.068  -2.643  1.00  0.00     0.031 A 
ATOM     44  C   UNL     1       9.078  -5.671  -2.488  1.00  0.00     0.074 A 
ATOM     45  C   UNL     1       7.429  -4.285  -3.700  1.00  0.00     0.049 A 
ATOM     46  N   UNL     1      10.128  -5.559  -3.261  1.00  0.00    -0.248 NA
ATOM     47  C   UNL     1       9.291  -6.520  -1.303  1.00  0.00     0.031 C 
ATOM     48  C   UNL     1       6.131  -3.677  -3.986  1.00  0.00     0.029 A 
ATOM     49  N   UNL     1       8.229  -3.881  -4.739  1.00  0.00    -0.354 N 
ATOM     50  C   UNL     1      11.123  -6.318  -2.657  1.00  0.00     0.074 A 
ATOM     51  C   UNL     1      10.566  -6.854  -1.434  1.00  0.00     0.031 C 
ATOM     52  C   UNL     1       6.220  -2.984  -5.134  1.00  0.00     0.029 A 
ATOM     53  C   UNL     1       7.585  -3.077  -5.647  1.00  0.00     0.049 A 
ATOM     54  H   UNL     1       9.174  -4.143  -4.826  1.00  0.00     0.167 HD
ATOM     55  C   UNL     1      12.385  -6.559  -3.084  1.00  0.00     0.031 A 
ATOM     56  C   UNL     1       8.050  -2.480  -6.761  1.00  0.00     0.031 A 
ATOM     57  C   UNL     1      12.947  -6.010  -4.290  1.00  0.00     0.049 A 
ATOM     58  C   UNL     1       9.480  -2.704  -7.176  1.00  0.00     0.074 A 
ATOM     59  C   UNL     1      14.214  -6.201  -4.815  1.00  0.00     0.029 A 
ATOM     60  N   UNL     1      12.281  -5.153  -5.152  1.00  0.00    -0.354 N 
ATOM     61  N   UNL     1      10.401  -3.450  -6.614  1.00  0.00    -0.248 NA
ATOM     62  C   UNL     1       9.927  -2.014  -8.395  1.00  0.00     0.031 C 
ATOM     63  C   UNL     1      14.335  -5.406  -5.960  1.00  0.00     0.029 A 
ATOM     64  C   UNL     1      13.119  -4.783  -6.191  1.00  0.00     0.049 A 
ATOM     65  H   UNL     1      11.350  -4.853  -5.042  1.00  0.00     0.167 HD
ATOM     66  C   UNL     1      11.524  -3.346  -7.428  1.00  0.00     0.074 A 
ATOM     67  C   UNL     1      11.158  -2.483  -8.533  1.00  0.00     0.031 C 
ATOM     68  C   UNL     1      12.746  -3.915  -7.279  1.00  0.00     0.031 A 
BRANCH  55  69
ATOM     69  C   UNL     1      13.256  -7.426  -2.215  1.00  0.00    -0.014 A 
ATOM     70  C   UNL     1      13.010  -8.800  -2.065  1.00  0.00     0.009 A 
ATOM     71  C   UNL     1      14.358  -6.860  -1.554  1.00  0.00     0.009 A 
ATOM     72  C   UNL     1      13.826  -9.581  -1.244  1.00  0.00     0.001 A 
ATOM     73  C   UNL     1      15.192  -7.649  -0.760  1.00  0.00     0.001 A 
ATOM     74  C   UNL     1      14.920  -9.006  -0.597  1.00  0.00     0.000 A 
ENDBRANCH  55  69
BRANCH  56  75
ATOM     75  C   UNL     1       7.157  -1.604  -7.566  1.00  0.00    -0.014 A 
ATOM     76  C   UNL     1       6.767  -1.969  -8.864  1.00  0.00     0.009 A 
ATOM     77  C   UNL     1       6.715  -0.376  -7.048  1.00  0.00     0.009 A 
ATOM     78  C   UNL     1       5.981  -1.110  -9.636  1.00  0.00     0.001 A 
ATOM     79  C   UNL     1       5.901   0.465  -7.809  1.00  0.00     0.001 A 
ATOM     80  C   UNL     1       5.544   0.103  -9.106  1.00  0.00     0.000 A 
ENDBRANCH  56  75
BRANCH  68  81
ATOM     81  C   UNL     1      13.760  -3.658  -8.363  1.00  0.00    -0.014 A 
ATOM     82  C   UNL     1      14.317  -2.385  -8.566  1.00  0.00     0.009 A 
ATOM     83  C   UNL     1      14.169  -4.715  -9.192  1.00  0.00     0.009 A 
ATOM     84  C   UNL     1      15.216  -2.165  -9.612  1.00  0.00     0.001 A 
ATOM     85  C   UNL     1      15.098  -4.501 -10.212  1.00  0.00     0.001 A 
ATOM     86  C   UNL     1      15.607  -3.223 -10.432  1.00  0.00     0.000 A 
ENDBRANCH  68  81
ENDBRANCH  42  43
ENDBRANCH  35  37
ENDBRANCH  34  35
ENDBRANCH  33  34
ENDBRANCH  32  33
ENDBRANCH  31  32
ENDBRANCH  30  31
ENDBRANCH  29  30
ENDBRANCH  28  29
ENDBRANCH  27  28
ENDBRANCH   1  27
TORSDOF 25
