REMARK SMILES CC1(C)CCCC[C@H]1NC(=O)Nc1ccccc1C(=O)OCCOCCOCCOCCOC(=O)c1ccc(-c2c3nc(c(-c4ccccc4)c4ccc([nH]4)c(-c4ccccc4)c4nc(c(-c5ccccc5)c5ccc2[nH]5)C=C4)C=C3)cc1
REMARK SMILES IDX 27 1 26 2 25 3 24 4 23 5 22 6 21 7 19 8 20 9 18 10 13 11
REMARK SMILES IDX 14 12 15 13 17 14 16 15 12 16 9 17 10 18 11 20 8 22 1 23
REMARK SMILES IDX 2 24 3 25 4 26 5 27 7 28 6 29 28 30 29 31 30 32 31 33 32 34
REMARK SMILES IDX 33 35 34 36 35 37 36 38 37 39 83 40 38 41 82 42 39 43 40 44
REMARK SMILES IDX 41 45 76 46 42 47 81 48 75 49 77 50 43 51 80 52 74 53 73 54
REMARK SMILES IDX 44 56 66 57 51 58 65 59 52 60 55 61 64 62 78 63 53 64 54 65
REMARK SMILES IDX 63 67 79 68 56 69 45 70 46 71 50 72 47 73 49 74 48 75 67 76
REMARK SMILES IDX 68 77 72 78 69 79 71 80 70 81 57 82 58 83 62 84 59 85 61 86
REMARK SMILES IDX 60 87
REMARK H PARENT 9 19 12 21 77 55 55 66
REMARK Flexibility Score: inf
ROOT
ATOM      1  O   UNL     1      -2.561  -4.835   3.886  1.00  0.00    -0.377 OA
ENDROOT
BRANCH   1   2
ATOM      2  C   UNL     1      -1.453  -5.578   3.388  1.00  0.00     0.188 C 
BRANCH   2   3
ATOM      3  C   UNL     1      -0.035  -5.237   3.886  1.00  0.00     0.188 C 
BRANCH   3   4
ATOM      4  O   UNL     1       0.044  -4.092   4.724  1.00  0.00    -0.376 OA
BRANCH   4   5
ATOM      5  C   UNL     1       0.335  -2.865   4.088  1.00  0.00     0.202 C 
BRANCH   5   6
ATOM      6  C   UNL     1      -0.806  -2.172   3.331  1.00  0.00     0.261 C 
BRANCH   6   7
ATOM      7  O   UNL     1      -1.458  -2.790   2.198  1.00  0.00    -0.460 OA
BRANCH   7   8
ATOM      8  C   UNL     1      -0.782  -3.484   1.267  1.00  0.00     0.340 C 
ATOM      9  O   UNL     1       0.340  -3.952   1.374  1.00  0.00    -0.246 OA
BRANCH   8  10
ATOM     10  C   UNL     1      -1.548  -3.686   0.020  1.00  0.00     0.083 A 
ATOM     11  C   UNL     1      -2.423  -2.744  -0.532  1.00  0.00     0.057 A 
ATOM     12  C   UNL     1      -3.163  -3.110  -1.671  1.00  0.00     0.027 A 
ATOM     13  C   UNL     1      -2.912  -4.309  -2.345  1.00  0.00     0.002 A 
ATOM     14  C   UNL     1      -1.289  -4.887  -0.674  1.00  0.00     0.018 A 
ATOM     15  C   UNL     1      -1.948  -5.185  -1.864  1.00  0.00     0.001 A 
BRANCH  11  16
ATOM     16  N   UNL     1      -2.634  -1.429  -0.080  1.00  0.00    -0.307 N 
ATOM     17  N   UNL     1      -0.545  -0.473   0.581  1.00  0.00    -0.335 N 
ATOM     18  C   UNL     1      -1.892  -0.516   0.576  1.00  0.00     0.319 C 
ATOM     19  H   UNL     1      -0.194   0.178   1.231  1.00  0.00     0.165 HD
ATOM     20  O   UNL     1      -2.484   0.401   1.155  1.00  0.00    -0.248 OA
ATOM     21  H   UNL     1      -3.536  -1.098  -0.293  1.00  0.00     0.171 HD
BRANCH  17  22
ATOM     22  C   UNL     1       0.523  -1.164  -0.148  1.00  0.00     0.089 C 
ATOM     23  C   UNL     1       1.743   0.924  -0.951  1.00  0.00     0.013 C 
ATOM     24  C   UNL     1       1.058  -0.393  -1.375  1.00  0.00    -0.015 C 
ATOM     25  C   UNL     1      -0.101  -0.075  -2.337  1.00  0.00     0.013 C 
ATOM     26  C   UNL     1       2.062  -1.339  -2.103  1.00  0.00     0.008 C 
ATOM     27  C   UNL     1       3.169  -1.923  -1.210  1.00  0.00     0.001 C 
ATOM     28  C   UNL     1       1.703  -1.514   0.778  1.00  0.00     0.025 C 
ATOM     29  C   UNL     1       2.632  -2.507   0.087  1.00  0.00     0.002 C 
ENDBRANCH  17  22
ENDBRANCH  11  16
ENDBRANCH   8  10
ENDBRANCH   7   8
ENDBRANCH   6   7
ENDBRANCH   5   6
ENDBRANCH   4   5
ENDBRANCH   3   4
ENDBRANCH   2   3
ENDBRANCH   1   2
BRANCH   1  30
ATOM     30  C   UNL     1      -2.595  -4.466   5.261  1.00  0.00     0.188 C 
BRANCH  30  31
ATOM     31  C   UNL     1      -1.940  -5.389   6.307  1.00  0.00     0.188 C 
BRANCH  31  32
ATOM     32  O   UNL     1      -1.532  -6.653   5.821  1.00  0.00    -0.376 OA
BRANCH  32  33
ATOM     33  C   UNL     1      -2.441  -7.738   5.872  1.00  0.00     0.202 C 
BRANCH  33  34
ATOM     34  C   UNL     1      -3.851  -7.572   5.281  1.00  0.00     0.261 C 
BRANCH  34  35
ATOM     35  O   UNL     1      -4.646  -6.488   5.787  1.00  0.00    -0.460 OA
BRANCH  35  36
ATOM     36  C   UNL     1      -4.854  -6.415   7.117  1.00  0.00     0.338 C 
ATOM     37  O   UNL     1      -4.513  -7.221   7.966  1.00  0.00    -0.246 OA
BRANCH  36  38
ATOM     38  C   UNL     1      -5.371  -5.060   7.409  1.00  0.00     0.060 A 
ATOM     39  C   UNL     1      -4.637  -4.227   8.266  1.00  0.00     0.016 A 
ATOM     40  C   UNL     1      -6.546  -4.601   6.811  1.00  0.00     0.016 A 
ATOM     41  C   UNL     1      -5.093  -2.945   8.553  1.00  0.00     0.010 A 
ATOM     42  C   UNL     1      -7.028  -3.330   7.135  1.00  0.00     0.010 A 
ATOM     43  C   UNL     1      -6.321  -2.517   8.038  1.00  0.00    -0.014 A 
BRANCH  43  44
ATOM     44  C   UNL     1      -6.965  -1.338   8.656  1.00  0.00     0.031 A 
ATOM     45  C   UNL     1      -7.918  -1.575   9.794  1.00  0.00     0.074 A 
ATOM     46  C   UNL     1      -6.666  -0.089   8.267  1.00  0.00     0.049 A 
ATOM     47  N   UNL     1      -8.576  -0.712  10.523  1.00  0.00    -0.248 NA
ATOM     48  C   UNL     1      -8.159  -2.982  10.157  1.00  0.00     0.031 C 
ATOM     49  C   UNL     1      -5.724   0.268   7.210  1.00  0.00     0.029 A 
ATOM     50  N   UNL     1      -7.133   1.115   8.730  1.00  0.00    -0.354 N 
ATOM     51  C   UNL     1      -9.315  -1.470  11.422  1.00  0.00     0.074 A 
ATOM     52  C   UNL     1      -9.048  -2.860  11.129  1.00  0.00     0.031 C 
ATOM     53  C   UNL     1      -5.691   1.607   7.095  1.00  0.00     0.029 A 
ATOM     54  C   UNL     1      -6.628   2.194   8.052  1.00  0.00     0.049 A 
ATOM     55  H   UNL     1      -7.770   1.196   9.477  1.00  0.00     0.167 HD
ATOM     56  C   UNL     1     -10.143  -1.047  12.406  1.00  0.00     0.031 A 
ATOM     57  C   UNL     1      -6.907   3.506   8.179  1.00  0.00     0.031 A 
ATOM     58  C   UNL     1     -10.428   0.337  12.676  1.00  0.00     0.049 A 
ATOM     59  C   UNL     1      -7.882   3.953   9.235  1.00  0.00     0.074 A 
ATOM     60  C   UNL     1     -11.232   0.875  13.664  1.00  0.00     0.029 A 
ATOM     61  N   UNL     1      -9.932   1.402  11.938  1.00  0.00    -0.354 N 
ATOM     62  N   UNL     1      -8.545   3.234  10.110  1.00  0.00    -0.248 NA
ATOM     63  C   UNL     1      -8.135   5.397   9.329  1.00  0.00     0.031 C 
ATOM     64  C   UNL     1     -11.283   2.261  13.476  1.00  0.00     0.029 A 
ATOM     65  C   UNL     1     -10.448   2.593  12.420  1.00  0.00     0.049 A 
ATOM     66  H   UNL     1      -9.305   1.322  11.183  1.00  0.00     0.167 HD
ATOM     67  C   UNL     1      -9.280   4.138  10.868  1.00  0.00     0.074 A 
ATOM     68  C   UNL     1      -8.958   5.459  10.366  1.00  0.00     0.031 C 
ATOM     69  C   UNL     1     -10.142   3.898  11.889  1.00  0.00     0.031 A 
BRANCH  56  70
ATOM     70  C   UNL     1     -10.849  -2.107  13.207  1.00  0.00    -0.014 A 
ATOM     71  C   UNL     1     -10.156  -2.958  14.084  1.00  0.00     0.009 A 
ATOM     72  C   UNL     1     -12.236  -2.265  13.066  1.00  0.00     0.009 A 
ATOM     73  C   UNL     1     -10.831  -3.976  14.763  1.00  0.00     0.001 A 
ATOM     74  C   UNL     1     -12.914  -3.260  13.773  1.00  0.00     0.001 A 
ATOM     75  C   UNL     1     -12.209  -4.124  14.609  1.00  0.00     0.000 A 
ENDBRANCH  56  70
BRANCH  57  76
ATOM     76  C   UNL     1      -6.270   4.483   7.258  1.00  0.00    -0.014 A 
ATOM     77  C   UNL     1      -5.309   5.394   7.719  1.00  0.00     0.009 A 
ATOM     78  C   UNL     1      -6.617   4.495   5.896  1.00  0.00     0.009 A 
ATOM     79  C   UNL     1      -4.719   6.304   6.838  1.00  0.00     0.001 A 
ATOM     80  C   UNL     1      -6.003   5.384   5.013  1.00  0.00     0.001 A 
ATOM     81  C   UNL     1      -5.059   6.293   5.486  1.00  0.00     0.000 A 
ENDBRANCH  57  76
BRANCH  69  82
ATOM     82  C   UNL     1     -10.787   5.096  12.534  1.00  0.00    -0.014 A 
ATOM     83  C   UNL     1     -11.733   5.877  11.851  1.00  0.00     0.009 A 
ATOM     84  C   UNL     1     -10.453   5.440  13.854  1.00  0.00     0.009 A 
ATOM     85  C   UNL     1     -12.291   7.005  12.457  1.00  0.00     0.001 A 
ATOM     86  C   UNL     1     -11.040   6.547  14.470  1.00  0.00     0.001 A 
ATOM     87  C   UNL     1     -11.946   7.337  13.766  1.00  0.00     0.000 A 
ENDBRANCH  69  82
ENDBRANCH  43  44
ENDBRANCH  36  38
ENDBRANCH  35  36
ENDBRANCH  34  35
ENDBRANCH  33  34
ENDBRANCH  32  33
ENDBRANCH  31  32
ENDBRANCH  30  31
ENDBRANCH   1  30
TORSDOF 22
