REMARK SMILES COc1ccc(-c2ccc(CCC(=O)OCCOCCOCCOCCOC(=O)c3ccc(-c4c5nc(c(-c6ccccc6)c6ccc([nH]6)c(-c6ccccc6)c6nc(c(-c7ccccc7)c7ccc4[nH]7)C=C6)C=C5)cc3)n2-c2ccc(C(C)=O)cc2)cc1
REMARK SMILES IDX 20 1 19 2 18 3 17 4 16 5 15 6 13 7 14 8 12 9 11 10 10 11
REMARK SMILES IDX 7 12 8 13 78 14 9 15 6 16 3 17 4 18 89 19 5 20 88 21 2 22
REMARK SMILES IDX 1 23 79 24 80 25 87 26 81 27 86 28 82 29 83 30 84 31 85 32
REMARK SMILES IDX 21 33 22 34 23 35 24 36 25 37 26 38 27 39 28 40 29 41 30 42
REMARK SMILES IDX 31 43 77 44 32 45 76 46 33 47 34 48 35 49 70 50 36 51 75 52
REMARK SMILES IDX 69 53 71 54 37 55 74 56 68 57 67 58 38 60 60 61 45 62 59 63
REMARK SMILES IDX 46 64 49 65 58 66 72 67 47 68 48 69 57 71 73 72 50 73 39 74
REMARK SMILES IDX 40 75 44 76 41 77 43 78 42 79 61 80 62 81 66 82 63 83 65 84
REMARK SMILES IDX 64 85 51 86 52 87 56 88 53 89 55 90 54 91
REMARK H PARENT 71 59 49 70
REMARK Flexibility Score: inf
ROOT
ATOM      1  C   UNL     1       2.669  -5.224 -10.296  1.00  0.00     0.188 C 
ENDROOT
BRANCH   1   2
ATOM      2  C   UNL     1       3.934  -5.315 -11.155  1.00  0.00     0.188 C 
BRANCH   2   3
ATOM      3  O   UNL     1       5.061  -5.771 -10.406  1.00  0.00    -0.376 OA
BRANCH   3   4
ATOM      4  C   UNL     1       6.115  -4.823 -10.287  1.00  0.00     0.202 C 
BRANCH   4   5
ATOM      5  C   UNL     1       6.023  -4.013  -8.993  1.00  0.00     0.261 C 
BRANCH   5   6
ATOM      6  O   UNL     1       4.801  -3.278  -8.802  1.00  0.00    -0.463 OA
BRANCH   6   7
ATOM      7  C   UNL     1       4.575  -2.188  -9.564  1.00  0.00     0.306 C 
ATOM      8  O   UNL     1       5.280  -1.855 -10.509  1.00  0.00    -0.252 OA
BRANCH   7   9
ATOM      9  C   UNL     1       3.429  -1.343  -9.040  1.00  0.00     0.129 C 
BRANCH   9  10
ATOM     10  C   UNL     1       2.101  -2.026  -8.693  1.00  0.00     0.066 C 
BRANCH  10  11
ATOM     11  C   UNL     1       2.054  -2.675  -7.327  1.00  0.00     0.024 A 
ATOM     12  C   UNL     1       1.758  -2.789  -5.085  1.00  0.00     0.053 A 
ATOM     13  C   UNL     1       2.528  -3.871  -5.467  1.00  0.00     0.029 A 
ATOM     14  N   UNL     1       1.332  -2.158  -6.251  1.00  0.00    -0.314 N 
ATOM     15  C   UNL     1       2.674  -3.823  -6.864  1.00  0.00     0.024 A 
BRANCH  12  16
ATOM     16  C   UNL     1       1.379  -2.422  -3.726  1.00  0.00    -0.001 A 
ATOM     17  C   UNL     1       0.702  -1.600  -1.145  1.00  0.00     0.118 A 
ATOM     18  C   UNL     1      -0.269  -2.160  -1.975  1.00  0.00     0.047 A 
ATOM     19  C   UNL     1       2.026  -1.517  -1.573  1.00  0.00     0.047 A 
ATOM     20  C   UNL     1       0.066  -2.566  -3.268  1.00  0.00     0.014 A 
ATOM     21  C   UNL     1       2.363  -1.927  -2.862  1.00  0.00     0.014 A 
BRANCH  17  22
ATOM     22  O   UNL     1       0.286  -1.187   0.091  1.00  0.00    -0.497 OA
ATOM     23  C   UNL     1       0.790   0.102   0.441  1.00  0.00     0.278 C 
ENDBRANCH  17  22
ENDBRANCH  12  16
BRANCH  14  24
ATOM     24  C   UNL     1       0.310  -1.182  -6.352  1.00  0.00     0.046 A 
ATOM     25  C   UNL     1      -0.774  -1.429  -7.204  1.00  0.00     0.027 A 
ATOM     26  C   UNL     1       0.387   0.003  -5.625  1.00  0.00     0.027 A 
ATOM     27  C   UNL     1      -1.781  -0.471  -7.349  1.00  0.00     0.014 A 
ATOM     28  C   UNL     1      -0.611   0.967  -5.793  1.00  0.00     0.014 A 
ATOM     29  C   UNL     1      -1.700   0.743  -6.657  1.00  0.00     0.017 A 
BRANCH  29  30
ATOM     30  C   UNL     1      -2.705   1.842  -6.802  1.00  0.00     0.159 C 
ATOM     31  C   UNL     1      -3.993   1.630  -7.556  1.00  0.00     0.093 C 
ATOM     32  O   UNL     1      -2.476   2.934  -6.280  1.00  0.00    -0.295 OA
ENDBRANCH  29  30
ENDBRANCH  14  24
ENDBRANCH  10  11
ENDBRANCH   9  10
ENDBRANCH   7   9
ENDBRANCH   6   7
ENDBRANCH   5   6
ENDBRANCH   4   5
ENDBRANCH   3   4
ENDBRANCH   2   3
ENDBRANCH   1   2
BRANCH   1  33
ATOM     33  O   UNL     1       2.154  -6.315  -9.546  1.00  0.00    -0.377 OA
BRANCH  33  34
ATOM     34  C   UNL     1       3.039  -7.358  -9.187  1.00  0.00     0.188 C 
BRANCH  34  35
ATOM     35  C   UNL     1       3.240  -8.381 -10.316  1.00  0.00     0.188 C 
BRANCH  35  36
ATOM     36  O   UNL     1       2.767  -7.937 -11.588  1.00  0.00    -0.376 OA
BRANCH  36  37
ATOM     37  C   UNL     1       1.505  -8.438 -12.017  1.00  0.00     0.202 C 
BRANCH  37  38
ATOM     38  C   UNL     1       0.268  -7.835 -11.327  1.00  0.00     0.261 C 
BRANCH  38  39
ATOM     39  O   UNL     1       0.161  -8.104  -9.925  1.00  0.00    -0.460 OA
BRANCH  39  40
ATOM     40  C   UNL     1       0.188  -9.405  -9.607  1.00  0.00     0.338 C 
ATOM     41  O   UNL     1       0.233 -10.363 -10.357  1.00  0.00    -0.246 OA
BRANCH  40  42
ATOM     42  C   UNL     1       0.127  -9.580  -8.159  1.00  0.00     0.060 A 
ATOM     43  C   UNL     1       0.946 -10.586  -7.633  1.00  0.00     0.016 A 
ATOM     44  C   UNL     1      -1.034  -9.139  -7.524  1.00  0.00     0.016 A 
ATOM     45  C   UNL     1       0.464 -11.341  -6.586  1.00  0.00     0.010 A 
ATOM     46  C   UNL     1      -1.534  -9.920  -6.503  1.00  0.00     0.010 A 
ATOM     47  C   UNL     1      -0.829 -11.075  -6.124  1.00  0.00    -0.014 A 
BRANCH  47  48
ATOM     48  C   UNL     1      -1.534 -12.118  -5.362  1.00  0.00     0.031 A 
ATOM     49  C   UNL     1      -1.526 -11.912  -3.871  1.00  0.00     0.074 A 
ATOM     50  C   UNL     1      -2.120 -13.093  -6.117  1.00  0.00     0.049 A 
ATOM     51  N   UNL     1      -1.992 -12.678  -2.936  1.00  0.00    -0.248 NA
ATOM     52  C   UNL     1      -0.916 -10.668  -3.335  1.00  0.00     0.031 C 
ATOM     53  C   UNL     1      -2.037 -13.160  -7.592  1.00  0.00     0.029 A 
ATOM     54  N   UNL     1      -2.886 -14.202  -5.827  1.00  0.00    -0.354 N 
ATOM     55  C   UNL     1      -1.875 -11.965  -1.738  1.00  0.00     0.074 A 
ATOM     56  C   UNL     1      -1.155 -10.759  -2.029  1.00  0.00     0.031 C 
ATOM     57  C   UNL     1      -2.658 -14.259  -8.055  1.00  0.00     0.029 A 
ATOM     58  C   UNL     1      -3.230 -14.994  -6.946  1.00  0.00     0.049 A 
ATOM     59  H   UNL     1      -3.172 -14.425  -4.912  1.00  0.00     0.167 HD
ATOM     60  C   UNL     1      -2.442 -12.351  -0.566  1.00  0.00     0.031 A 
ATOM     61  C   UNL     1      -3.916 -16.172  -6.997  1.00  0.00     0.031 A 
ATOM     62  C   UNL     1      -3.002 -13.659  -0.627  1.00  0.00     0.049 A 
ATOM     63  C   UNL     1      -4.447 -16.424  -5.644  1.00  0.00     0.074 A 
ATOM     64  C   UNL     1      -2.460 -14.918  -0.564  1.00  0.00     0.029 A 
ATOM     65  N   UNL     1      -4.306 -13.782  -1.032  1.00  0.00    -0.354 N 
ATOM     66  N   UNL     1      -5.408 -15.747  -5.091  1.00  0.00    -0.248 NA
ATOM     67  C   UNL     1      -3.834 -17.454  -4.803  1.00  0.00     0.031 C 
ATOM     68  C   UNL     1      -3.363 -15.754  -1.267  1.00  0.00     0.029 A 
ATOM     69  C   UNL     1      -4.410 -14.963  -1.741  1.00  0.00     0.049 A 
ATOM     70  H   UNL     1      -5.035 -13.145  -0.852  1.00  0.00     0.167 HD
ATOM     71  C   UNL     1      -5.246 -16.004  -3.748  1.00  0.00     0.074 A 
ATOM     72  C   UNL     1      -4.480 -17.227  -3.661  1.00  0.00     0.031 C 
ATOM     73  C   UNL     1      -5.344 -14.994  -2.846  1.00  0.00     0.031 A 
BRANCH  60  74
ATOM     74  C   UNL     1      -2.607 -11.519   0.663  1.00  0.00    -0.014 A 
ATOM     75  C   UNL     1      -2.656 -12.162   1.914  1.00  0.00     0.009 A 
ATOM     76  C   UNL     1      -2.933 -10.155   0.617  1.00  0.00     0.009 A 
ATOM     77  C   UNL     1      -3.039 -11.477   3.069  1.00  0.00     0.001 A 
ATOM     78  C   UNL     1      -3.292  -9.461   1.778  1.00  0.00     0.001 A 
ATOM     79  C   UNL     1      -3.359 -10.126   3.000  1.00  0.00     0.000 A 
ENDBRANCH  60  74
BRANCH  61  80
ATOM     80  C   UNL     1      -4.196 -17.201  -8.060  1.00  0.00    -0.014 A 
ATOM     81  C   UNL     1      -3.778 -17.123  -9.394  1.00  0.00     0.009 A 
ATOM     82  C   UNL     1      -4.871 -18.395  -7.703  1.00  0.00     0.009 A 
ATOM     83  C   UNL     1      -3.967 -18.188 -10.295  1.00  0.00     0.001 A 
ATOM     84  C   UNL     1      -5.034 -19.471  -8.584  1.00  0.00     0.001 A 
ATOM     85  C   UNL     1      -4.572 -19.370  -9.884  1.00  0.00     0.000 A 
ENDBRANCH  61  80
BRANCH  73  86
ATOM     86  C   UNL     1      -6.069 -13.769  -3.368  1.00  0.00    -0.014 A 
ATOM     87  C   UNL     1      -7.448 -13.801  -3.615  1.00  0.00     0.009 A 
ATOM     88  C   UNL     1      -5.370 -12.601  -3.726  1.00  0.00     0.009 A 
ATOM     89  C   UNL     1      -8.098 -12.706  -4.199  1.00  0.00     0.001 A 
ATOM     90  C   UNL     1      -6.017 -11.501  -4.295  1.00  0.00     0.001 A 
ATOM     91  C   UNL     1      -7.384 -11.556  -4.535  1.00  0.00     0.000 A 
ENDBRANCH  73  86
ENDBRANCH  47  48
ENDBRANCH  40  42
ENDBRANCH  39  40
ENDBRANCH  38  39
ENDBRANCH  37  38
ENDBRANCH  36  37
ENDBRANCH  35  36
ENDBRANCH  34  35
ENDBRANCH  33  34
ENDBRANCH   1  33
TORSDOF 26
