REMARK SMILES Cc1ccc(-c2c(C(=O)OCCOCCOCCOCCOC(=O)c3ccc(-c4c5nc(c(-c6ccccc6)c6ccc([nH]6)c(-c6ccccc6)c6nc(c(-c7ccccc7)c7ccc4[nH]7)C=C6)C=C5)cc3)nnn2Cc2c(F)cccc2Cl)cc1
REMARK SMILES IDX 16 1 15 2 14 3 13 4 12 5 11 6 10 7 8 8 9 9 7 10 6 11 75 12
REMARK SMILES IDX 73 13 74 14 5 15 1 16 2 17 3 18 86 19 4 20 85 21 76 22 77 23
REMARK SMILES IDX 78 24 83 25 79 26 80 27 82 28 84 29 81 30 17 31 18 32 19 33
REMARK SMILES IDX 20 34 21 35 22 36 23 37 24 38 25 39 26 40 72 41 27 42 71 43
REMARK SMILES IDX 28 44 29 45 30 46 65 47 31 48 70 49 64 50 66 51 32 52 69 53
REMARK SMILES IDX 63 54 62 55 33 57 55 58 40 59 54 60 41 61 44 62 53 63 67 64
REMARK SMILES IDX 42 65 43 66 52 68 68 69 45 70 34 71 35 72 39 73 36 74 38 75
REMARK SMILES IDX 37 76 56 77 57 78 61 79 58 80 60 81 59 82 46 83 47 84 51 85
REMARK SMILES IDX 48 86 50 87 49 88
REMARK H PARENT 66 56 44 67
REMARK Flexibility Score: inf
ROOT
ATOM      1  O   UNL     1      -4.163   0.865   2.772  1.00  0.00    -0.377 OA
ENDROOT
BRANCH   1   2
ATOM      2  C   UNL     1      -5.373   1.502   2.384  1.00  0.00     0.188 C 
BRANCH   2   3
ATOM      3  C   UNL     1      -6.611   0.596   2.294  1.00  0.00     0.188 C 
BRANCH   3   4
ATOM      4  O   UNL     1      -6.950  -0.212   3.415  1.00  0.00    -0.376 OA
BRANCH   4   5
ATOM      5  C   UNL     1      -6.239  -1.441   3.576  1.00  0.00     0.202 C 
BRANCH   5   6
ATOM      6  C   UNL     1      -5.956  -2.269   2.317  1.00  0.00     0.261 C 
BRANCH   6   7
ATOM      7  O   UNL     1      -4.966  -1.615   1.512  1.00  0.00    -0.458 OA
BRANCH   7   8
ATOM      8  C   UNL     1      -5.062  -1.851   0.186  1.00  0.00     0.361 C 
ATOM      9  O   UNL     1      -5.589  -2.843  -0.318  1.00  0.00    -0.244 OA
BRANCH   8  10
ATOM     10  C   UNL     1      -4.814  -0.653  -0.573  1.00  0.00     0.198 A 
ATOM     11  C   UNL     1      -3.653  -0.023  -1.020  1.00  0.00     0.104 A 
ATOM     12  N   UNL     1      -4.210   0.823  -1.971  1.00  0.00    -0.239 N 
ATOM     13  N   UNL     1      -5.916   0.088  -0.955  1.00  0.00    -0.122 NA
ATOM     14  N   UNL     1      -5.502   1.080  -1.708  1.00  0.00    -0.066 NA
BRANCH  11  15
ATOM     15  C   UNL     1      -2.209  -0.201  -0.840  1.00  0.00     0.002 A 
ATOM     16  C   UNL     1       2.117  -0.496  -0.556  1.00  0.00     0.044 C 
ATOM     17  C   UNL     1       0.620  -0.393  -0.641  1.00  0.00    -0.051 A 
ATOM     18  C   UNL     1      -0.175  -1.541  -0.757  1.00  0.00     0.004 A 
ATOM     19  C   UNL     1      -0.011   0.851  -0.596  1.00  0.00     0.004 A 
ATOM     20  C   UNL     1      -1.577  -1.448  -0.849  1.00  0.00     0.011 A 
ATOM     21  C   UNL     1      -1.404   0.942  -0.688  1.00  0.00     0.011 A 
ENDBRANCH  11  15
BRANCH  12  22
ATOM     22  C   UNL     1      -3.712   1.261  -3.268  1.00  0.00     0.187 C 
BRANCH  22  23
ATOM     23  C   UNL     1      -2.844   0.279  -4.009  1.00  0.00     0.028 A 
ATOM     24  C   UNL     1      -1.756   0.814  -4.705  1.00  0.00     0.129 A 
ATOM     25  C   UNL     1      -3.047  -1.107  -4.115  1.00  0.00     0.049 A 
ATOM     26  F   UNL     1      -1.599   2.146  -4.761  1.00  0.00    -0.207 F 
ATOM     27  C   UNL     1      -0.832   0.014  -5.369  1.00  0.00     0.040 A 
ATOM     28  C   UNL     1      -2.080  -1.927  -4.710  1.00  0.00     0.021 A 
ATOM     29  Cl  UNL     1      -4.500  -1.897  -3.625  1.00  0.00    -0.084 Cl
ATOM     30  C   UNL     1      -0.967  -1.367  -5.329  1.00  0.00     0.005 A 
ENDBRANCH  22  23
ENDBRANCH  12  22
ENDBRANCH   8  10
ENDBRANCH   7   8
ENDBRANCH   6   7
ENDBRANCH   5   6
ENDBRANCH   4   5
ENDBRANCH   3   4
ENDBRANCH   2   3
ENDBRANCH   1   2
BRANCH   1  31
ATOM     31  C   UNL     1      -3.456   1.594   3.778  1.00  0.00     0.188 C 
BRANCH  31  32
ATOM     32  C   UNL     1      -3.994   1.256   5.160  1.00  0.00     0.188 C 
BRANCH  32  33
ATOM     33  O   UNL     1      -5.282   1.768   5.492  1.00  0.00    -0.376 OA
BRANCH  33  34
ATOM     34  C   UNL     1      -5.402   3.153   5.804  1.00  0.00     0.202 C 
BRANCH  34  35
ATOM     35  C   UNL     1      -4.433   3.683   6.873  1.00  0.00     0.261 C 
BRANCH  35  36
ATOM     36  O   UNL     1      -4.492   2.833   8.034  1.00  0.00    -0.460 OA
BRANCH  36  37
ATOM     37  C   UNL     1      -3.290   2.382   8.486  1.00  0.00     0.338 C 
ATOM     38  O   UNL     1      -2.261   3.036   8.533  1.00  0.00    -0.246 OA
BRANCH  37  39
ATOM     39  C   UNL     1      -3.329   0.887   8.562  1.00  0.00     0.060 A 
ATOM     40  C   UNL     1      -2.114   0.186   8.500  1.00  0.00     0.016 A 
ATOM     41  C   UNL     1      -4.520   0.222   8.279  1.00  0.00     0.016 A 
ATOM     42  C   UNL     1      -2.073  -1.101   7.944  1.00  0.00     0.010 A 
ATOM     43  C   UNL     1      -4.460  -1.008   7.634  1.00  0.00     0.010 A 
ATOM     44  C   UNL     1      -3.231  -1.641   7.369  1.00  0.00    -0.014 A 
BRANCH  44  45
ATOM     45  C   UNL     1      -3.198  -2.564   6.199  1.00  0.00     0.031 A 
ATOM     46  C   UNL     1      -4.264  -3.611   5.936  1.00  0.00     0.074 A 
ATOM     47  C   UNL     1      -2.456  -2.155   5.136  1.00  0.00     0.049 A 
ATOM     48  N   UNL     1      -4.329  -4.385   4.891  1.00  0.00    -0.248 NA
ATOM     49  C   UNL     1      -5.343  -3.899   6.875  1.00  0.00     0.031 C 
ATOM     50  C   UNL     1      -2.899  -2.312   3.762  1.00  0.00     0.029 A 
ATOM     51  N   UNL     1      -1.319  -1.380   4.972  1.00  0.00    -0.354 N 
ATOM     52  C   UNL     1      -5.545  -5.049   4.884  1.00  0.00     0.074 A 
ATOM     53  C   UNL     1      -6.095  -4.765   6.188  1.00  0.00     0.031 C 
ATOM     54  C   UNL     1      -2.056  -1.729   2.915  1.00  0.00     0.029 A 
ATOM     55  C   UNL     1      -0.869  -1.445   3.648  1.00  0.00     0.049 A 
ATOM     56  H   UNL     1      -0.887  -0.857   5.686  1.00  0.00     0.167 HD
ATOM     57  C   UNL     1      -6.006  -5.694   3.760  1.00  0.00     0.031 A 
ATOM     58  C   UNL     1       0.338  -1.937   3.253  1.00  0.00     0.031 A 
ATOM     59  C   UNL     1      -5.033  -5.700   2.639  1.00  0.00     0.049 A 
ATOM     60  C   UNL     1       0.274  -3.271   2.519  1.00  0.00     0.074 A 
ATOM     61  C   UNL     1      -5.109  -5.417   1.282  1.00  0.00     0.029 A 
ATOM     62  N   UNL     1      -3.676  -5.917   2.885  1.00  0.00    -0.354 N 
ATOM     63  N   UNL     1      -0.843  -3.917   2.263  1.00  0.00    -0.248 NA
ATOM     64  C   UNL     1       1.439  -4.030   2.067  1.00  0.00     0.031 C 
ATOM     65  C   UNL     1      -3.795  -5.406   0.737  1.00  0.00     0.029 A 
ATOM     66  C   UNL     1      -2.916  -5.756   1.743  1.00  0.00     0.049 A 
ATOM     67  H   UNL     1      -3.306  -6.157   3.765  1.00  0.00     0.167 HD
ATOM     68  C   UNL     1      -0.566  -5.184   1.818  1.00  0.00     0.074 A 
ATOM     69  C   UNL     1       0.873  -5.170   1.630  1.00  0.00     0.031 C 
ATOM     70  C   UNL     1      -1.516  -6.166   1.728  1.00  0.00     0.031 A 
BRANCH  57  71
ATOM     71  C   UNL     1      -7.450  -6.216   3.571  1.00  0.00    -0.014 A 
ATOM     72  C   UNL     1      -7.861  -6.767   2.336  1.00  0.00     0.009 A 
ATOM     73  C   UNL     1      -8.476  -6.154   4.533  1.00  0.00     0.009 A 
ATOM     74  C   UNL     1      -9.188  -7.158   2.066  1.00  0.00     0.001 A 
ATOM     75  C   UNL     1      -9.800  -6.570   4.287  1.00  0.00     0.001 A 
ATOM     76  C   UNL     1     -10.162  -7.057   3.045  1.00  0.00     0.000 A 
ENDBRANCH  57  71
BRANCH  58  77
ATOM     77  C   UNL     1       1.453  -1.138   3.834  1.00  0.00    -0.014 A 
ATOM     78  C   UNL     1       1.520   0.156   3.268  1.00  0.00     0.009 A 
ATOM     79  C   UNL     1       1.726  -1.273   5.206  1.00  0.00     0.009 A 
ATOM     80  C   UNL     1       1.490   1.286   4.088  1.00  0.00     0.001 A 
ATOM     81  C   UNL     1       1.717  -0.131   6.025  1.00  0.00     0.001 A 
ATOM     82  C   UNL     1       1.525   1.136   5.471  1.00  0.00     0.000 A 
ENDBRANCH  58  77
BRANCH  70  83
ATOM     83  C   UNL     1      -1.261  -7.664   1.627  1.00  0.00    -0.014 A 
ATOM     84  C   UNL     1      -0.029  -8.281   1.866  1.00  0.00     0.009 A 
ATOM     85  C   UNL     1      -2.363  -8.540   1.440  1.00  0.00     0.009 A 
ATOM     86  C   UNL     1       0.104  -9.679   1.884  1.00  0.00     0.001 A 
ATOM     87  C   UNL     1      -2.246  -9.931   1.505  1.00  0.00     0.001 A 
ATOM     88  C   UNL     1      -1.004 -10.503   1.718  1.00  0.00     0.000 A 
ENDBRANCH  70  83
ENDBRANCH  44  45
ENDBRANCH  37  39
ENDBRANCH  36  37
ENDBRANCH  35  36
ENDBRANCH  34  35
ENDBRANCH  33  34
ENDBRANCH  32  33
ENDBRANCH  31  32
ENDBRANCH   1  31
TORSDOF 23
