REMARK SMILES Cc1onc(-c2ccccc2Cl)c1C(=O)N1CCCC[C@@H]1C(=O)OCCOCCOCCOCCOC(=O)c1ccc(-c2c3nc(c(-c4ccccc4)c4ccc([nH]4)c(-c4ccccc4)c4nc(c(-c5ccccc5)c5ccc2[nH]5)C=C4)C=C3)cc1
REMARK SMILES IDX 29 1 28 2 27 3 26 4 25 5 24 6 22 7 23 8 21 9 16 10 17 11
REMARK SMILES IDX 18 12 20 13 19 14 14 15 15 16 13 17 1 18 2 19 3 20 4 21 5 22
REMARK SMILES IDX 6 23 7 24 11 25 8 26 10 27 12 28 9 29 30 30 31 31 32 32
REMARK SMILES IDX 33 33 34 34 35 35 36 36 37 37 38 38 39 39 40 40 86 41 41 42
REMARK SMILES IDX 85 43 42 44 43 45 44 46 79 47 45 48 84 49 78 50 80 51 46 52
REMARK SMILES IDX 83 53 77 54 76 55 47 57 69 58 54 59 68 60 55 61 58 62 67 63
REMARK SMILES IDX 81 64 56 65 57 66 66 68 82 69 59 70 48 71 49 72 53 73 50 74
REMARK SMILES IDX 52 75 51 76 70 77 71 78 75 79 72 80 74 81 73 82 60 83 61 84
REMARK SMILES IDX 65 85 62 86 64 87 63 88
REMARK H PARENT 80 56 58 67
REMARK Flexibility Score: inf
ROOT
ATOM      1  C   UNL     1       3.690  -1.857   3.974  1.00  0.00     0.188 C 
ENDROOT
BRANCH   1   2
ATOM      2  C   UNL     1       3.257  -0.383   3.925  1.00  0.00     0.188 C 
BRANCH   2   3
ATOM      3  O   UNL     1       2.118  -0.102   4.708  1.00  0.00    -0.376 OA
BRANCH   3   4
ATOM      4  C   UNL     1       0.826  -0.009   4.156  1.00  0.00     0.202 C 
BRANCH   4   5
ATOM      5  C   UNL     1       0.158  -1.118   3.323  1.00  0.00     0.261 C 
BRANCH   5   6
ATOM      6  O   UNL     1       0.937  -2.120   2.662  1.00  0.00    -0.462 OA
BRANCH   6   7
ATOM      7  C   UNL     1       1.653  -1.685   1.609  1.00  0.00     0.328 C 
ATOM      8  O   UNL     1       1.797  -0.496   1.350  1.00  0.00    -0.250 OA
BRANCH   7   9
ATOM      9  C   UNL     1       2.226  -2.798   0.721  1.00  0.00     0.195 C 
ATOM     10  N   UNL     1       1.647  -2.940  -0.639  1.00  0.00    -0.325 N 
ATOM     11  C   UNL     1       2.374  -3.842  -1.527  1.00  0.00     0.121 C 
ATOM     12  C   UNL     1       2.673  -5.200  -0.891  1.00  0.00     0.022 C 
ATOM     13  C   UNL     1       2.438  -4.171   1.377  1.00  0.00     0.037 C 
ATOM     14  C   UNL     1       3.329  -5.034   0.475  1.00  0.00     0.005 C 
BRANCH  10  15
ATOM     15  C   UNL     1       0.284  -2.762  -0.885  1.00  0.00     0.260 C 
ATOM     16  O   UNL     1      -0.413  -3.661  -1.346  1.00  0.00    -0.269 OA
BRANCH  15  17
ATOM     17  C   UNL     1      -0.244  -1.418  -0.707  1.00  0.00     0.110 A 
ATOM     18  C   UNL     1       1.766   0.225  -1.322  1.00  0.00     0.092 C 
ATOM     19  C   UNL     1       0.407  -0.210  -0.919  1.00  0.00     0.147 A 
ATOM     20  O   UNL     1      -0.437   0.813  -0.633  1.00  0.00    -0.360 OA
ATOM     21  N   UNL     1      -1.676   0.317  -0.318  1.00  0.00    -0.079 NA
ATOM     22  C   UNL     1      -1.587  -1.020  -0.414  1.00  0.00     0.128 A 
BRANCH  22  23
ATOM     23  C   UNL     1      -2.810  -1.810  -0.321  1.00  0.00     0.023 A 
ATOM     24  C   UNL     1      -3.812  -1.525  -1.268  1.00  0.00     0.012 A 
ATOM     25  C   UNL     1      -3.068  -2.784   0.651  1.00  0.00     0.050 A 
ATOM     26  C   UNL     1      -5.037  -2.190  -1.245  1.00  0.00     0.001 A 
ATOM     27  C   UNL     1      -4.309  -3.434   0.685  1.00  0.00     0.021 A 
ATOM     28  Cl  UNL     1      -1.932  -3.249   1.856  1.00  0.00    -0.084 Cl
ATOM     29  C   UNL     1      -5.289  -3.140  -0.262  1.00  0.00     0.002 A 
ENDBRANCH  22  23
ENDBRANCH  15  17
ENDBRANCH  10  15
ENDBRANCH   7   9
ENDBRANCH   6   7
ENDBRANCH   5   6
ENDBRANCH   4   5
ENDBRANCH   3   4
ENDBRANCH   2   3
ENDBRANCH   1   2
BRANCH   1  30
ATOM     30  O   UNL     1       2.762  -2.805   4.480  1.00  0.00    -0.377 OA
BRANCH  30  31
ATOM     31  C   UNL     1       2.224  -2.664   5.796  1.00  0.00     0.188 C 
BRANCH  31  32
ATOM     32  C   UNL     1       2.810  -1.654   6.809  1.00  0.00     0.188 C 
BRANCH  32  33
ATOM     33  O   UNL     1       4.130  -1.230   6.526  1.00  0.00    -0.376 OA
BRANCH  33  34
ATOM     34  C   UNL     1       5.201  -1.864   7.201  1.00  0.00     0.202 C 
BRANCH  34  35
ATOM     35  C   UNL     1       5.347  -3.384   7.035  1.00  0.00     0.261 C 
BRANCH  35  36
ATOM     36  O   UNL     1       4.223  -4.183   7.440  1.00  0.00    -0.460 OA
BRANCH  36  37
ATOM     37  C   UNL     1       3.782  -4.056   8.706  1.00  0.00     0.338 C 
ATOM     38  O   UNL     1       4.271  -3.375   9.598  1.00  0.00    -0.246 OA
BRANCH  37  39
ATOM     39  C   UNL     1       2.474  -4.730   8.803  1.00  0.00     0.060 A 
ATOM     40  C   UNL     1       1.347  -3.987   9.182  1.00  0.00     0.016 A 
ATOM     41  C   UNL     1       2.368  -6.096   8.538  1.00  0.00     0.016 A 
ATOM     42  C   UNL     1       0.121  -4.622   9.362  1.00  0.00     0.010 A 
ATOM     43  C   UNL     1       1.146  -6.738   8.745  1.00  0.00     0.010 A 
ATOM     44  C   UNL     1       0.035  -6.011   9.208  1.00  0.00    -0.014 A 
BRANCH  44  45
ATOM     45  C   UNL     1      -1.120  -6.729   9.796  1.00  0.00     0.031 A 
ATOM     46  C   UNL     1      -0.955  -7.308  11.175  1.00  0.00     0.074 A 
ATOM     47  C   UNL     1      -2.293  -6.833   9.150  1.00  0.00     0.049 A 
ATOM     48  N   UNL     1      -1.795  -8.011  11.890  1.00  0.00    -0.248 NA
ATOM     49  C   UNL     1       0.338  -7.061  11.837  1.00  0.00     0.031 C 
ATOM     50  C   UNL     1      -2.598  -6.259   7.842  1.00  0.00     0.029 A 
ATOM     51  N   UNL     1      -3.451  -7.468   9.522  1.00  0.00    -0.354 N 
ATOM     52  C   UNL     1      -1.128  -8.299  13.075  1.00  0.00     0.074 A 
ATOM     53  C   UNL     1       0.195  -7.726  12.972  1.00  0.00     0.031 C 
ATOM     54  C   UNL     1      -3.864  -6.576   7.515  1.00  0.00     0.029 A 
ATOM     55  C   UNL     1      -4.441  -7.404   8.573  1.00  0.00     0.049 A 
ATOM     56  H   UNL     1      -3.562  -7.926  10.387  1.00  0.00     0.167 HD
ATOM     57  C   UNL     1      -1.577  -8.977  14.157  1.00  0.00     0.031 A 
ATOM     58  C   UNL     1      -5.663  -7.970   8.556  1.00  0.00     0.031 A 
ATOM     59  C   UNL     1      -2.886  -9.562  14.251  1.00  0.00     0.049 A 
ATOM     60  C   UNL     1      -6.109  -8.799   9.734  1.00  0.00     0.074 A 
ATOM     61  C   UNL     1      -3.441 -10.268  15.303  1.00  0.00     0.029 A 
ATOM     62  N   UNL     1      -3.842  -9.515  13.248  1.00  0.00    -0.354 N 
ATOM     63  N   UNL     1      -5.477  -9.057  10.854  1.00  0.00    -0.248 NA
ATOM     64  C   UNL     1      -7.446  -9.405   9.647  1.00  0.00     0.031 C 
ATOM     65  C   UNL     1      -4.711 -10.704  14.911  1.00  0.00     0.029 A 
ATOM     66  C   UNL     1      -4.976 -10.202  13.646  1.00  0.00     0.049 A 
ATOM     67  H   UNL     1      -3.732  -9.060  12.382  1.00  0.00     0.167 HD
ATOM     68  C   UNL     1      -6.352  -9.820  11.619  1.00  0.00     0.074 A 
ATOM     69  C   UNL     1      -7.563  -9.973  10.839  1.00  0.00     0.031 C 
ATOM     70  C   UNL     1      -6.174 -10.341  12.859  1.00  0.00     0.031 A 
BRANCH  57  71
ATOM     71  C   UNL     1      -0.619  -9.161  15.302  1.00  0.00    -0.014 A 
ATOM     72  C   UNL     1      -0.213  -8.081  16.103  1.00  0.00     0.009 A 
ATOM     73  C   UNL     1      -0.122 -10.442  15.590  1.00  0.00     0.009 A 
ATOM     74  C   UNL     1       0.699  -8.274  17.142  1.00  0.00     0.001 A 
ATOM     75  C   UNL     1       0.763 -10.638  16.651  1.00  0.00     0.001 A 
ATOM     76  C   UNL     1       1.181  -9.553  17.419  1.00  0.00     0.000 A 
ENDBRANCH  57  71
BRANCH  58  77
ATOM     77  C   UNL     1      -6.553  -7.791   7.378  1.00  0.00    -0.014 A 
ATOM     78  C   UNL     1      -7.745  -7.057   7.482  1.00  0.00     0.009 A 
ATOM     79  C   UNL     1      -6.228  -8.380   6.145  1.00  0.00     0.009 A 
ATOM     80  C   UNL     1      -8.604  -6.940   6.386  1.00  0.00     0.001 A 
ATOM     81  C   UNL     1      -7.072  -8.235   5.043  1.00  0.00     0.001 A 
ATOM     82  C   UNL     1      -8.265  -7.525   5.167  1.00  0.00     0.000 A 
ENDBRANCH  58  77
BRANCH  70  83
ATOM     83  C   UNL     1      -7.335 -11.075  13.476  1.00  0.00    -0.014 A 
ATOM     84  C   UNL     1      -7.758 -12.325  12.999  1.00  0.00     0.009 A 
ATOM     85  C   UNL     1      -7.988 -10.517  14.588  1.00  0.00     0.009 A 
ATOM     86  C   UNL     1      -8.837 -12.980  13.596  1.00  0.00     0.001 A 
ATOM     87  C   UNL     1      -9.042 -11.190  15.205  1.00  0.00     0.001 A 
ATOM     88  C   UNL     1      -9.474 -12.415  14.701  1.00  0.00     0.000 A 
ENDBRANCH  70  83
ENDBRANCH  44  45
ENDBRANCH  37  39
ENDBRANCH  36  37
ENDBRANCH  35  36
ENDBRANCH  34  35
ENDBRANCH  33  34
ENDBRANCH  32  33
ENDBRANCH  31  32
ENDBRANCH  30  31
ENDBRANCH   1  30
TORSDOF 23
