REMARK SMILES Cc1ccc([C@@]23C[C@@H]4C[C@@H](C[C@@](C(=O)N5CCC(C(=O)OCCOCCOCCOCCOC(=O)c6ccc(-c7c8nc(c(-c9ccccc9)c9ccc([nH]9)c(-c9ccccc9)c9nc(c(-c%10ccccc%10)c%10ccc7[nH]%10)C=C9)C=C8)cc6)CC5)(C4)C2)C3)cc1
REMARK SMILES IDX 27 1 26 2 25 3 24 4 23 5 22 6 21 7 19 8 20 9 18 10 13 11
REMARK SMILES IDX 14 12 15 13 16 14 85 15 17 16 84 17 12 18 6 19 7 20 87 21
REMARK SMILES IDX 88 22 8 23 10 24 9 25 86 26 11 27 5 28 1 29 2 30 3 31 90 32
REMARK SMILES IDX 4 33 89 34 28 35 29 36 30 37 31 38 32 39 33 40 34 41 35 42
REMARK SMILES IDX 36 43 37 44 83 45 38 46 82 47 39 48 40 49 41 50 76 51 42 52
REMARK SMILES IDX 81 53 75 54 77 55 43 56 80 57 74 58 73 59 44 61 66 62 51 63
REMARK SMILES IDX 65 64 52 65 55 66 64 67 78 68 53 69 54 70 63 72 79 73 56 74
REMARK SMILES IDX 45 75 46 76 50 77 47 78 49 79 48 80 67 81 68 82 72 83 69 84
REMARK SMILES IDX 71 85 70 86 57 87 58 88 62 89 59 90 61 91 60 92
REMARK H PARENT 77 60 55 71
REMARK Flexibility Score: inf
ROOT
ATOM      1  O   UNL     1      -7.356   0.726  -5.872  1.00  0.00    -0.377 OA
ENDROOT
BRANCH   1   2
ATOM      2  C   UNL     1      -7.126  -0.672  -5.912  1.00  0.00     0.188 C 
BRANCH   2   3
ATOM      3  C   UNL     1      -8.128  -1.644  -6.735  1.00  0.00     0.188 C 
BRANCH   3   4
ATOM      4  O   UNL     1      -9.447  -2.284  -6.249  1.00  0.00    -0.376 OA
BRANCH   4   5
ATOM      5  C   UNL     1      -9.928  -3.783  -5.882  1.00  0.00     0.202 C 
BRANCH   5   6
ATOM      6  C   UNL     1      -9.419  -5.379  -5.118  1.00  0.00     0.261 C 
BRANCH   6   7
ATOM      7  O   UNL     1      -7.962  -6.043  -4.315  1.00  0.00    -0.463 OA
BRANCH   7   8
ATOM      8  C   UNL     1      -6.514  -6.464  -4.451  1.00  0.00     0.309 C 
ATOM      9  O   UNL     1      -5.917  -6.782  -5.492  1.00  0.00    -0.252 OA
BRANCH   8  10
ATOM     10  C   UNL     1      -5.373  -6.143  -3.261  1.00  0.00     0.103 C 
ATOM     11  C   UNL     1      -5.602  -2.965  -0.335  1.00  0.00     0.228 C 
ATOM     12  O   UNL     1      -6.373  -3.349   0.559  1.00  0.00    -0.274 OA
ATOM     13  N   UNL     1      -5.065  -3.928  -1.219  1.00  0.00    -0.342 N 
ATOM     14  C   UNL     1      -5.074  -5.332  -0.798  1.00  0.00     0.120 C 
ATOM     15  C   UNL     1      -4.326  -3.723  -2.459  1.00  0.00     0.120 C 
ATOM     16  C   UNL     1      -5.731  -6.322  -1.775  1.00  0.00     0.037 C 
ATOM     17  C   UNL     1      -4.545  -4.803  -3.573  1.00  0.00     0.037 C 
BRANCH  11  18
ATOM     18  C   UNL     1      -5.217  -1.429  -0.338  1.00  0.00     0.051 C 
ATOM     19  C   UNL     1      -3.162   0.134  -0.082  1.00  0.00    -0.003 C 
ATOM     20  C   UNL     1      -3.682   0.914  -1.325  1.00  0.00     0.015 C 
ATOM     21  C   UNL     1      -3.693  -1.321  -0.211  1.00  0.00     0.028 C 
ATOM     22  C   UNL     1      -3.792   0.766   1.187  1.00  0.00     0.015 C 
ATOM     23  C   UNL     1      -5.223   0.887  -1.394  1.00  0.00    -0.009 C 
ATOM     24  C   UNL     1      -5.327   0.723   1.101  1.00  0.00    -0.009 C 
ATOM     25  C   UNL     1      -5.785   1.531  -0.118  1.00  0.00     0.007 C 
ATOM     26  C   UNL     1      -5.726  -0.574  -1.517  1.00  0.00     0.020 C 
ATOM     27  C   UNL     1      -5.802  -0.739   0.954  1.00  0.00     0.020 C 
BRANCH  19  28
ATOM     28  C   UNL     1      -1.624   0.161  -0.001  1.00  0.00    -0.042 A 
ATOM     29  C   UNL     1       2.718   0.188   0.019  1.00  0.00     0.044 C 
ATOM     30  C   UNL     1       1.220   0.203   0.045  1.00  0.00    -0.051 A 
ATOM     31  C   UNL     1       0.529  -1.005   0.087  1.00  0.00     0.004 A 
ATOM     32  C   UNL     1       0.489   1.394   0.011  1.00  0.00     0.004 A 
ATOM     33  C   UNL     1      -0.865  -1.022   0.072  1.00  0.00     0.004 A 
ATOM     34  C   UNL     1      -0.913   1.373  -0.007  1.00  0.00     0.004 A 
ENDBRANCH  19  28
ENDBRANCH  11  18
ENDBRANCH   8  10
ENDBRANCH   7   8
ENDBRANCH   6   7
ENDBRANCH   5   6
ENDBRANCH   4   5
ENDBRANCH   3   4
ENDBRANCH   2   3
ENDBRANCH   1   2
BRANCH   1  35
ATOM     35  C   UNL     1      -8.277   1.165  -6.843  1.00  0.00     0.188 C 
BRANCH  35  36
ATOM     36  C   UNL     1      -7.761   1.156  -8.296  1.00  0.00     0.188 C 
BRANCH  36  37
ATOM     37  O   UNL     1      -6.800   0.129  -8.559  1.00  0.00    -0.376 OA
BRANCH  37  38
ATOM     38  C   UNL     1      -5.851   0.429  -9.581  1.00  0.00     0.202 C 
BRANCH  38  39
ATOM     39  C   UNL     1      -6.463   0.497 -10.987  1.00  0.00     0.261 C 
BRANCH  39  40
ATOM     40  O   UNL     1      -6.815  -0.830 -11.419  1.00  0.00    -0.460 OA
BRANCH  40  41
ATOM     41  C   UNL     1      -8.065  -1.238 -11.079  1.00  0.00     0.338 C 
ATOM     42  O   UNL     1      -9.084  -0.583 -11.191  1.00  0.00    -0.246 OA
BRANCH  41  43
ATOM     43  C   UNL     1      -7.950  -2.503 -10.293  1.00  0.00     0.060 A 
ATOM     44  C   UNL     1      -9.090  -3.046  -9.715  1.00  0.00     0.016 A 
ATOM     45  C   UNL     1      -6.696  -2.974  -9.886  1.00  0.00     0.016 A 
ATOM     46  C   UNL     1      -8.946  -3.888  -8.605  1.00  0.00     0.010 A 
ATOM     47  C   UNL     1      -6.567  -3.667  -8.681  1.00  0.00     0.010 A 
ATOM     48  C   UNL     1      -7.704  -3.996  -7.929  1.00  0.00    -0.014 A 
BRANCH  48  49
ATOM     49  C   UNL     1      -7.466  -4.514  -6.423  1.00  0.00     0.031 A 
ATOM     50  C   UNL     1      -7.597  -6.186  -6.947  1.00  0.00     0.074 A 
ATOM     51  C   UNL     1      -7.490  -3.759  -5.002  1.00  0.00     0.049 A 
ATOM     52  N   UNL     1      -8.299  -7.146  -6.390  1.00  0.00    -0.248 NA
ATOM     53  C   UNL     1      -7.147  -6.700  -8.277  1.00  0.00     0.031 C 
ATOM     54  C   UNL     1      -7.189  -4.083  -3.554  1.00  0.00     0.029 A 
ATOM     55  N   UNL     1      -8.256  -2.598  -4.426  1.00  0.00    -0.354 N 
ATOM     56  C   UNL     1      -7.917  -8.348  -6.901  1.00  0.00     0.074 A 
ATOM     57  C   UNL     1      -7.509  -7.992  -8.230  1.00  0.00     0.031 C 
ATOM     58  C   UNL     1      -7.818  -3.513  -2.527  1.00  0.00     0.029 A 
ATOM     59  C   UNL     1      -8.775  -2.729  -3.117  1.00  0.00     0.049 A 
ATOM     60  H   UNL     1      -8.392  -1.772  -4.945  1.00  0.00     0.167 HD
ATOM     61  C   UNL     1      -7.696  -9.413  -6.061  1.00  0.00     0.031 A 
ATOM     62  C   UNL     1     -10.068  -2.717  -2.686  1.00  0.00     0.031 A 
ATOM     63  C   UNL     1      -8.074  -9.162  -4.625  1.00  0.00     0.049 A 
ATOM     64  C   UNL     1     -10.598  -4.137  -2.238  1.00  0.00     0.074 A 
ATOM     65  C   UNL     1      -7.386  -9.251  -3.418  1.00  0.00     0.029 A 
ATOM     66  N   UNL     1      -9.283  -8.537  -4.278  1.00  0.00    -0.354 N 
ATOM     67  N   UNL     1      -9.940  -5.288  -2.223  1.00  0.00    -0.248 NA
ATOM     68  C   UNL     1     -12.013  -4.338  -1.922  1.00  0.00     0.031 C 
ATOM     69  C   UNL     1      -8.171  -8.668  -2.374  1.00  0.00     0.029 A 
ATOM     70  C   UNL     1      -9.350  -8.190  -2.917  1.00  0.00     0.049 A 
ATOM     71  H   UNL     1     -10.009  -8.362  -4.920  1.00  0.00     0.167 HD
ATOM     72  C   UNL     1     -10.842  -6.354  -2.104  1.00  0.00     0.074 A 
ATOM     73  C   UNL     1     -12.112  -5.676  -1.855  1.00  0.00     0.031 C 
ATOM     74  C   UNL     1     -10.614  -7.704  -2.331  1.00  0.00     0.031 A 
BRANCH  61  75
ATOM     75  C   UNL     1      -6.780 -10.576  -6.498  1.00  0.00    -0.014 A 
ATOM     76  C   UNL     1      -6.287 -11.500  -5.559  1.00  0.00     0.009 A 
ATOM     77  C   UNL     1      -6.295 -10.771  -7.808  1.00  0.00     0.009 A 
ATOM     78  C   UNL     1      -5.311 -12.463  -5.883  1.00  0.00     0.001 A 
ATOM     79  C   UNL     1      -5.322 -11.725  -8.146  1.00  0.00     0.001 A 
ATOM     80  C   UNL     1      -4.813 -12.563  -7.175  1.00  0.00     0.000 A 
ENDBRANCH  61  75
BRANCH  62  81
ATOM     81  C   UNL     1     -10.857  -1.578  -3.258  1.00  0.00    -0.014 A 
ATOM     82  C   UNL     1     -10.294  -0.285  -3.132  1.00  0.00     0.009 A 
ATOM     83  C   UNL     1     -11.940  -1.725  -4.133  1.00  0.00     0.009 A 
ATOM     84  C   UNL     1     -10.680   0.767  -3.967  1.00  0.00     0.001 A 
ATOM     85  C   UNL     1     -12.309  -0.676  -4.989  1.00  0.00     0.001 A 
ATOM     86  C   UNL     1     -11.662   0.557  -4.926  1.00  0.00     0.000 A 
ENDBRANCH  62  81
BRANCH  74  87
ATOM     87  C   UNL     1     -11.627  -8.821  -2.020  1.00  0.00    -0.014 A 
ATOM     88  C   UNL     1     -12.643  -8.729  -1.059  1.00  0.00     0.009 A 
ATOM     89  C   UNL     1     -11.463 -10.105  -2.604  1.00  0.00     0.009 A 
ATOM     90  C   UNL     1     -13.500  -9.809  -0.782  1.00  0.00     0.001 A 
ATOM     91  C   UNL     1     -12.285 -11.195  -2.305  1.00  0.00     0.001 A 
ATOM     92  C   UNL     1     -13.324 -11.040  -1.407  1.00  0.00     0.000 A 
ENDBRANCH  74  87
ENDBRANCH  48  49
ENDBRANCH  41  43
ENDBRANCH  40  41
ENDBRANCH  39  40
ENDBRANCH  38  39
ENDBRANCH  37  38
ENDBRANCH  36  37
ENDBRANCH  35  36
ENDBRANCH   1  35
TORSDOF 22
