REMARK SMILES Cc1ccc(N2C(=O)/C(=C3\C(=O)N(CC(=O)OCCOCCOCCOCCOC(=O)c4ccc(-c5c6nc(c(-c7ccccc7)c7ccc([nH]7)c(-c7ccccc7)c7nc(c(-c8ccccc8)c8ccc5[nH]8)C=C7)C=C6)cc4)c4ccccc43)SC2=S)c(C)c1
REMARK SMILES IDX 23 1 22 2 21 3 20 4 19 5 18 6 17 7 15 8 16 9 14 10 13 11
REMARK SMILES IDX 6 12 7 13 87 14 8 15 9 16 86 17 88 18 10 19 11 20 85 21
REMARK SMILES IDX 12 22 80 23 84 24 81 25 83 26 82 27 5 28 1 29 2 30 3 31
REMARK SMILES IDX 91 32 4 33 89 34 90 35 24 36 25 37 26 38 27 39 28 40 29 41
REMARK SMILES IDX 30 42 31 43 32 44 33 45 79 46 34 47 78 48 35 49 36 50 37 51
REMARK SMILES IDX 72 52 38 53 77 54 71 55 73 56 39 57 76 58 70 59 69 60 40 62
REMARK SMILES IDX 62 63 47 64 61 65 48 66 51 67 60 68 74 69 49 70 50 71 59 73
REMARK SMILES IDX 75 74 52 75 41 76 42 77 46 78 43 79 45 80 44 81 63 82 64 83
REMARK SMILES IDX 68 84 65 85 67 86 66 87 53 88 54 89 58 90 55 91 57 92 56 93
REMARK H PARENT 73 61 51 72
REMARK Flexibility Score: inf
ROOT
ATOM      1  O   UNL     1     -10.284  -2.646  -1.323  1.00  0.00    -0.377 OA
ENDROOT
BRANCH   1   2
ATOM      2  C   UNL     1     -10.663  -1.417  -0.749  1.00  0.00     0.188 C 
BRANCH   2   3
ATOM      3  C   UNL     1     -11.853  -0.607  -1.266  1.00  0.00     0.188 C 
BRANCH   3   4
ATOM      4  O   UNL     1     -12.544  -1.049  -2.411  1.00  0.00    -0.376 OA
BRANCH   4   5
ATOM      5  C   UNL     1     -11.884  -1.147  -3.660  1.00  0.00     0.202 C 
BRANCH   5   6
ATOM      6  C   UNL     1     -10.677  -0.280  -4.054  1.00  0.00     0.261 C 
BRANCH   6   7
ATOM      7  O   UNL     1      -9.616  -0.146  -3.084  1.00  0.00    -0.462 OA
BRANCH   7   8
ATOM      8  C   UNL     1      -9.197   1.129  -2.854  1.00  0.00     0.326 C 
ATOM      9  O   UNL     1      -9.693   2.113  -3.403  1.00  0.00    -0.250 OA
BRANCH   8  10
ATOM     10  C   UNL     1      -8.090   1.318  -1.801  1.00  0.00     0.248 C 
BRANCH  10  11
ATOM     11  N   UNL     1      -7.430   0.233  -1.095  1.00  0.00    -0.296 N 
ATOM     12  N   UNL     1      -2.448  -1.821  -0.185  1.00  0.00    -0.261 N 
ATOM     13  C   UNL     1      -3.492  -1.538  -1.079  1.00  0.00     0.271 C 
ATOM     14  C   UNL     1      -2.703  -2.788   0.775  1.00  0.00     0.152 C 
ATOM     15  O   UNL     1      -3.403  -0.877  -2.100  1.00  0.00    -0.268 OA
ATOM     16  C   UNL     1      -4.764  -2.119  -0.532  1.00  0.00     0.094 C 
ATOM     17  S   UNL     1      -4.338  -3.383   0.564  1.00  0.00    -0.053 SA
ATOM     18  S   UNL     1      -1.787  -3.314   2.073  1.00  0.00    -0.051 S 
ATOM     19  C   UNL     1      -5.934  -1.454  -0.570  1.00  0.00     0.069 C 
ATOM     20  C   UNL     1      -6.372  -0.485  -1.645  1.00  0.00     0.260 C 
ATOM     21  C   UNL     1      -6.885  -1.287   0.555  1.00  0.00     0.012 A 
ATOM     22  O   UNL     1      -5.954  -0.396  -2.783  1.00  0.00    -0.269 OA
ATOM     23  C   UNL     1      -7.681  -0.178   0.230  1.00  0.00     0.053 A 
ATOM     24  C   UNL     1      -7.012  -1.884   1.804  1.00  0.00     0.011 A 
ATOM     25  C   UNL     1      -8.569   0.371   1.147  1.00  0.00     0.027 A 
ATOM     26  C   UNL     1      -7.912  -1.348   2.729  1.00  0.00     0.001 A 
ATOM     27  C   UNL     1      -8.680  -0.224   2.406  1.00  0.00     0.002 A 
BRANCH  12  28
ATOM     28  C   UNL     1      -1.231  -1.073  -0.230  1.00  0.00     0.054 A 
ATOM     29  C   UNL     1       2.520   1.083  -0.052  1.00  0.00     0.044 C 
ATOM     30  C   UNL     1       1.229   0.324  -0.135  1.00  0.00    -0.051 A 
ATOM     31  C   UNL     1       1.212  -1.067  -0.210  1.00  0.00     0.005 A 
ATOM     32  C   UNL     1       0.013   1.015  -0.127  1.00  0.00     0.009 A 
ATOM     33  C   UNL     1      -0.002  -1.755  -0.266  1.00  0.00     0.027 A 
ATOM     34  C   UNL     1      -1.223   0.338  -0.152  1.00  0.00    -0.027 A 
ATOM     35  C   UNL     1      -2.461   1.189  -0.053  1.00  0.00     0.046 C 
ENDBRANCH  12  28
ENDBRANCH  10  11
ENDBRANCH   8  10
ENDBRANCH   7   8
ENDBRANCH   6   7
ENDBRANCH   5   6
ENDBRANCH   4   5
ENDBRANCH   3   4
ENDBRANCH   2   3
ENDBRANCH   1   2
BRANCH   1  36
ATOM     36  C   UNL     1     -11.237  -3.671  -1.500  1.00  0.00     0.188 C 
BRANCH  36  37
ATOM     37  C   UNL     1     -12.475  -3.779  -0.602  1.00  0.00     0.188 C 
BRANCH  37  38
ATOM     38  O   UNL     1     -12.471  -2.952   0.551  1.00  0.00    -0.376 OA
BRANCH  38  39
ATOM     39  C   UNL     1     -12.177  -3.590   1.787  1.00  0.00     0.202 C 
BRANCH  39  40
ATOM     40  C   UNL     1     -10.694  -3.909   2.008  1.00  0.00     0.261 C 
BRANCH  40  41
ATOM     41  O   UNL     1     -10.129  -4.868   1.106  1.00  0.00    -0.460 OA
BRANCH  41  42
ATOM     42  C   UNL     1     -10.676  -6.101   1.073  1.00  0.00     0.338 C 
ATOM     43  O   UNL     1     -11.598  -6.527   1.744  1.00  0.00    -0.246 OA
BRANCH  42  44
ATOM     44  C   UNL     1     -10.074  -6.796  -0.078  1.00  0.00     0.060 A 
ATOM     45  C   UNL     1      -8.684  -6.858  -0.213  1.00  0.00     0.016 A 
ATOM     46  C   UNL     1     -10.916  -7.317  -1.068  1.00  0.00     0.016 A 
ATOM     47  C   UNL     1      -8.132  -7.467  -1.338  1.00  0.00     0.010 A 
ATOM     48  C   UNL     1     -10.362  -7.914  -2.199  1.00  0.00     0.010 A 
ATOM     49  C   UNL     1      -8.968  -8.016  -2.326  1.00  0.00    -0.014 A 
BRANCH  49  50
ATOM     50  C   UNL     1      -8.391  -8.898  -3.362  1.00  0.00     0.031 A 
ATOM     51  C   UNL     1      -8.147  -8.441  -4.764  1.00  0.00     0.074 A 
ATOM     52  C   UNL     1      -8.115 -10.163  -2.994  1.00  0.00     0.049 A 
ATOM     53  N   UNL     1      -7.597  -9.104  -5.750  1.00  0.00    -0.248 NA
ATOM     54  C   UNL     1      -8.575  -7.080  -5.113  1.00  0.00     0.031 C 
ATOM     55  C   UNL     1      -8.339 -10.706  -1.652  1.00  0.00     0.029 A 
ATOM     56  N   UNL     1      -7.588 -11.212  -3.698  1.00  0.00    -0.354 N 
ATOM     57  C   UNL     1      -7.597  -8.240  -6.835  1.00  0.00     0.074 A 
ATOM     58  C   UNL     1      -8.237  -7.016  -6.397  1.00  0.00     0.031 C 
ATOM     59  C   UNL     1      -7.932 -11.982  -1.624  1.00  0.00     0.029 A 
ATOM     60  C   UNL     1      -7.450 -12.354  -2.949  1.00  0.00     0.049 A 
ATOM     61  H   UNL     1      -7.334 -11.153  -4.647  1.00  0.00     0.167 HD
ATOM     62  C   UNL     1      -7.096  -8.455  -8.075  1.00  0.00     0.031 A 
ATOM     63  C   UNL     1      -6.984 -13.570  -3.285  1.00  0.00     0.031 A 
ATOM     64  C   UNL     1      -6.485  -9.693  -8.497  1.00  0.00     0.049 A 
ATOM     65  C   UNL     1      -6.471 -13.793  -4.676  1.00  0.00     0.074 A 
ATOM     66  C   UNL     1      -5.902  -9.988  -9.718  1.00  0.00     0.029 A 
ATOM     67  N   UNL     1      -6.391 -10.841  -7.724  1.00  0.00    -0.354 N 
ATOM     68  N   UNL     1      -6.400 -12.940  -5.670  1.00  0.00    -0.248 NA
ATOM     69  C   UNL     1      -5.958 -15.132  -4.990  1.00  0.00     0.031 C 
ATOM     70  C   UNL     1      -5.528 -11.334  -9.710  1.00  0.00     0.029 A 
ATOM     71  C   UNL     1      -5.800 -11.858  -8.456  1.00  0.00     0.049 A 
ATOM     72  H   UNL     1      -6.700 -10.921  -6.792  1.00  0.00     0.167 HD
ATOM     73  C   UNL     1      -5.817 -13.632  -6.722  1.00  0.00     0.074 A 
ATOM     74  C   UNL     1      -5.538 -14.970  -6.239  1.00  0.00     0.031 C 
ATOM     75  C   UNL     1      -5.540 -13.192  -7.973  1.00  0.00     0.031 A 
BRANCH  62  76
ATOM     76  C   UNL     1      -7.178  -7.340  -9.084  1.00  0.00    -0.014 A 
ATOM     77  C   UNL     1      -7.963  -7.496 -10.239  1.00  0.00     0.009 A 
ATOM     78  C   UNL     1      -6.385  -6.189  -8.957  1.00  0.00     0.009 A 
ATOM     79  C   UNL     1      -7.939  -6.534 -11.251  1.00  0.00     0.001 A 
ATOM     80  C   UNL     1      -6.385  -5.214  -9.959  1.00  0.00     0.001 A 
ATOM     81  C   UNL     1      -7.154  -5.392 -11.108  1.00  0.00     0.000 A 
ENDBRANCH  62  76
BRANCH  63  82
ATOM     82  C   UNL     1      -6.948 -14.634  -2.250  1.00  0.00    -0.014 A 
ATOM     83  C   UNL     1      -8.141 -15.175  -1.742  1.00  0.00     0.009 A 
ATOM     84  C   UNL     1      -5.727 -15.039  -1.692  1.00  0.00     0.009 A 
ATOM     85  C   UNL     1      -8.114 -16.074  -0.674  1.00  0.00     0.001 A 
ATOM     86  C   UNL     1      -5.702 -15.963  -0.645  1.00  0.00     0.001 A 
ATOM     87  C   UNL     1      -6.894 -16.469  -0.128  1.00  0.00     0.000 A 
ENDBRANCH  63  82
BRANCH  75  88
ATOM     88  C   UNL     1      -4.897 -14.160  -8.928  1.00  0.00    -0.014 A 
ATOM     89  C   UNL     1      -3.581 -13.938  -9.367  1.00  0.00     0.009 A 
ATOM     90  C   UNL     1      -5.622 -15.230  -9.474  1.00  0.00     0.009 A 
ATOM     91  C   UNL     1      -3.012 -14.752 -10.347  1.00  0.00     0.001 A 
ATOM     92  C   UNL     1      -5.039 -16.064 -10.431  1.00  0.00     0.001 A 
ATOM     93  C   UNL     1      -3.740 -15.817 -10.875  1.00  0.00     0.000 A 
ENDBRANCH  75  88
ENDBRANCH  49  50
ENDBRANCH  42  44
ENDBRANCH  41  42
ENDBRANCH  40  41
ENDBRANCH  39  40
ENDBRANCH  38  39
ENDBRANCH  37  38
ENDBRANCH  36  37
ENDBRANCH   1  36
TORSDOF 22
