REMARK SMILES C[C@@H](C(=O)OCCOCCOCCOCCOC(=O)c1ccc(-c2c3nc(c(-c4ccccc4)c4ccc([nH]4)c(-c4ccccc4)c4nc(c(-c5ccccc5)c5ccc2[nH]5)C=C4)C=C3)cc1)c1ccc(C[C@H]2CCC[C@H]2O)cc1
REMARK SMILES IDX 10 1 9 2 8 3 7 4 6 5 5 6 3 7 4 8 2 9 1 10 68 11 69 12 80 13
REMARK SMILES IDX 70 14 79 15 71 16 72 17 73 18 74 19 77 20 75 21 76 22 78 23
REMARK SMILES IDX 11 25 12 26 13 27 14 28 15 29 16 30 17 31 18 32 19 33 20 34
REMARK SMILES IDX 21 35 67 36 22 37 66 38 23 39 24 40 25 41 60 42 26 43 65 44
REMARK SMILES IDX 59 45 61 46 27 47 64 48 58 49 57 50 28 52 50 53 35 54 49 55
REMARK SMILES IDX 36 56 39 57 48 58 62 59 37 60 38 61 47 63 63 64 40 65 29 66
REMARK SMILES IDX 30 67 34 68 31 69 33 70 32 71 51 72 52 73 56 74 53 75 55 76
REMARK SMILES IDX 54 77 41 78 42 79 46 80 43 81 45 82 44 83
REMARK H PARENT 78 24 61 51 39 62
REMARK Flexibility Score: inf
ROOT
ATOM      1  C   UNL     1       1.100  -1.819  -2.133  1.00  0.00     0.188 C 
ENDROOT
BRANCH   1   2
ATOM      2  C   UNL     1       0.295  -1.351  -3.356  1.00  0.00     0.188 C 
BRANCH   2   3
ATOM      3  O   UNL     1       0.944  -1.372  -4.612  1.00  0.00    -0.376 OA
BRANCH   3   4
ATOM      4  C   UNL     1       2.067  -0.545  -4.872  1.00  0.00     0.202 C 
BRANCH   4   5
ATOM      5  C   UNL     1       2.549   0.638  -4.001  1.00  0.00     0.261 C 
BRANCH   5   6
ATOM      6  O   UNL     1       2.054   0.724  -2.660  1.00  0.00    -0.463 OA
BRANCH   6   7
ATOM      7  C   UNL     1       1.212   1.745  -2.381  1.00  0.00     0.313 C 
ATOM      8  O   UNL     1       0.904   2.614  -3.191  1.00  0.00    -0.252 OA
BRANCH   7   9
ATOM      9  C   UNL     1       0.610   1.672  -0.966  1.00  0.00     0.126 C 
ATOM     10  C   UNL     1       1.429   0.930   0.104  1.00  0.00     0.025 C 
BRANCH   9  11
ATOM     11  C   UNL     1      -0.885   1.356  -1.030  1.00  0.00    -0.034 A 
ATOM     12  C   UNL     1      -1.722   2.338  -1.581  1.00  0.00     0.005 A 
ATOM     13  C   UNL     1      -1.479   0.154  -0.616  1.00  0.00     0.005 A 
ATOM     14  C   UNL     1      -3.100   2.167  -1.640  1.00  0.00     0.004 A 
ATOM     15  C   UNL     1      -2.867  -0.016  -0.669  1.00  0.00     0.004 A 
ATOM     16  C   UNL     1      -3.692   1.024  -1.102  1.00  0.00    -0.048 A 
BRANCH  16  17
ATOM     17  C   UNL     1      -5.181   0.991  -0.877  1.00  0.00     0.041 C 
BRANCH  17  18
ATOM     18  C   UNL     1      -5.656   1.538   0.487  1.00  0.00     0.022 C 
ATOM     19  C   UNL     1      -5.130   0.790   1.728  1.00  0.00     0.007 C 
ATOM     20  C   UNL     1      -5.439   3.029   0.812  1.00  0.00     0.117 C 
ATOM     21  C   UNL     1      -5.016   1.831   2.842  1.00  0.00     0.003 C 
ATOM     22  C   UNL     1      -5.702   3.085   2.312  1.00  0.00     0.032 C 
BRANCH  20  23
ATOM     23  O   UNL     1      -4.132   3.527   0.590  1.00  0.00    -0.393 OA
ATOM     24  H   UNL     1      -3.501   3.032   1.136  1.00  0.00     0.210 HD
ENDBRANCH  20  23
ENDBRANCH  17  18
ENDBRANCH  16  17
ENDBRANCH   9  11
ENDBRANCH   7   9
ENDBRANCH   6   7
ENDBRANCH   5   6
ENDBRANCH   4   5
ENDBRANCH   3   4
ENDBRANCH   2   3
ENDBRANCH   1   2
BRANCH   1  25
ATOM     25  O   UNL     1       2.499  -1.874  -2.325  1.00  0.00    -0.377 OA
BRANCH  25  26
ATOM     26  C   UNL     1       3.049  -3.069  -2.851  1.00  0.00     0.188 C 
BRANCH  26  27
ATOM     27  C   UNL     1       2.172  -4.047  -3.659  1.00  0.00     0.188 C 
BRANCH  27  28
ATOM     28  O   UNL     1       0.866  -4.252  -3.138  1.00  0.00    -0.376 OA
BRANCH  28  29
ATOM     29  C   UNL     1       0.611  -5.413  -2.363  1.00  0.00     0.202 C 
BRANCH  29  30
ATOM     30  C   UNL     1       1.274  -5.494  -0.979  1.00  0.00     0.261 C 
BRANCH  30  31
ATOM     31  O   UNL     1       2.706  -5.408  -0.957  1.00  0.00    -0.460 OA
BRANCH  31  32
ATOM     32  C   UNL     1       3.399  -6.354  -1.625  1.00  0.00     0.338 C 
ATOM     33  O   UNL     1       2.948  -7.320  -2.217  1.00  0.00    -0.246 OA
BRANCH  32  34
ATOM     34  C   UNL     1       4.808  -5.917  -1.687  1.00  0.00     0.060 A 
ATOM     35  C   UNL     1       5.393  -5.694  -2.941  1.00  0.00     0.016 A 
ATOM     36  C   UNL     1       5.540  -5.705  -0.516  1.00  0.00     0.016 A 
ATOM     37  C   UNL     1       6.726  -5.292  -3.028  1.00  0.00     0.010 A 
ATOM     38  C   UNL     1       6.882  -5.328  -0.605  1.00  0.00     0.010 A 
ATOM     39  C   UNL     1       7.489  -5.155  -1.862  1.00  0.00    -0.014 A 
BRANCH  39  40
ATOM     40  C   UNL     1       8.964  -5.048  -1.962  1.00  0.00     0.031 A 
ATOM     41  C   UNL     1       9.777  -6.304  -1.805  1.00  0.00     0.074 A 
ATOM     42  C   UNL     1       9.572  -3.875  -2.211  1.00  0.00     0.049 A 
ATOM     43  N   UNL     1      11.075  -6.461  -1.810  1.00  0.00    -0.248 NA
ATOM     44  C   UNL     1       9.018  -7.552  -1.616  1.00  0.00     0.031 C 
ATOM     45  C   UNL     1       8.897  -2.599  -2.439  1.00  0.00     0.029 A 
ATOM     46  N   UNL     1      10.908  -3.573  -2.308  1.00  0.00    -0.354 N 
ATOM     47  C   UNL     1      11.288  -7.820  -1.613  1.00  0.00     0.074 A 
ATOM     48  C   UNL     1       9.990  -8.438  -1.463  1.00  0.00     0.031 C 
ATOM     49  C   UNL     1       9.826  -1.647  -2.644  1.00  0.00     0.029 A 
ATOM     50  C   UNL     1      11.157  -2.240  -2.522  1.00  0.00     0.049 A 
ATOM     51  H   UNL     1      11.620  -4.249  -2.232  1.00  0.00     0.167 HD
ATOM     52  C   UNL     1      12.460  -8.496  -1.565  1.00  0.00     0.031 A 
ATOM     53  C   UNL     1      12.326  -1.573  -2.588  1.00  0.00     0.031 A 
ATOM     54  C   UNL     1      13.752  -7.878  -1.694  1.00  0.00     0.049 A 
ATOM     55  C   UNL     1      13.620  -2.334  -2.435  1.00  0.00     0.074 A 
ATOM     56  C   UNL     1      14.999  -8.476  -1.670  1.00  0.00     0.029 A 
ATOM     57  N   UNL     1      13.962  -6.518  -1.861  1.00  0.00    -0.354 N 
ATOM     58  N   UNL     1      13.810  -3.622  -2.273  1.00  0.00    -0.248 NA
ATOM     59  C   UNL     1      14.860  -1.546  -2.481  1.00  0.00     0.031 C 
ATOM     60  C   UNL     1      15.966  -7.470  -1.752  1.00  0.00     0.029 A 
ATOM     61  C   UNL     1      15.320  -6.254  -1.906  1.00  0.00     0.049 A 
ATOM     62  H   UNL     1      13.251  -5.841  -1.936  1.00  0.00     0.167 HD
ATOM     63  C   UNL     1      15.189  -3.800  -2.234  1.00  0.00     0.074 A 
ATOM     64  C   UNL     1      15.785  -2.492  -2.403  1.00  0.00     0.031 C 
ATOM     65  C   UNL     1      15.899  -4.945  -2.076  1.00  0.00     0.031 A 
BRANCH  52  66
ATOM     66  C   UNL     1      12.394  -9.977  -1.314  1.00  0.00    -0.014 A 
ATOM     67  C   UNL     1      11.892 -10.864  -2.280  1.00  0.00     0.009 A 
ATOM     68  C   UNL     1      12.866 -10.495  -0.098  1.00  0.00     0.009 A 
ATOM     69  C   UNL     1      11.830 -12.235  -2.016  1.00  0.00     0.001 A 
ATOM     70  C   UNL     1      12.834 -11.868   0.149  1.00  0.00     0.001 A 
ATOM     71  C   UNL     1      12.306 -12.736  -0.805  1.00  0.00     0.000 A 
ENDBRANCH  52  66
BRANCH  53  72
ATOM     72  C   UNL     1      12.339  -0.098  -2.783  1.00  0.00    -0.014 A 
ATOM     73  C   UNL     1      12.853   0.466  -3.961  1.00  0.00     0.009 A 
ATOM     74  C   UNL     1      11.867   0.757  -1.775  1.00  0.00     0.009 A 
ATOM     75  C   UNL     1      12.920   1.854  -4.112  1.00  0.00     0.001 A 
ATOM     76  C   UNL     1      11.904   2.143  -1.942  1.00  0.00     0.001 A 
ATOM     77  C   UNL     1      12.441   2.691  -3.105  1.00  0.00     0.000 A 
ENDBRANCH  53  72
BRANCH  65  78
ATOM     78  C   UNL     1      17.399  -4.845  -2.126  1.00  0.00    -0.014 A 
ATOM     79  C   UNL     1      18.132  -4.239  -1.094  1.00  0.00     0.009 A 
ATOM     80  C   UNL     1      18.094  -5.413  -3.207  1.00  0.00     0.009 A 
ATOM     81  C   UNL     1      19.525  -4.170  -1.162  1.00  0.00     0.001 A 
ATOM     82  C   UNL     1      19.488  -5.375  -3.255  1.00  0.00     0.001 A 
ATOM     83  C   UNL     1      20.202  -4.744  -2.239  1.00  0.00     0.000 A 
ENDBRANCH  65  78
ENDBRANCH  39  40
ENDBRANCH  32  34
ENDBRANCH  31  32
ENDBRANCH  30  31
ENDBRANCH  29  30
ENDBRANCH  28  29
ENDBRANCH  27  28
ENDBRANCH  26  27
ENDBRANCH  25  26
ENDBRANCH   1  25
TORSDOF 24
