REMARK SMILES O=C(OCCOCCOCCOCCOC(=O)[C@@H]1CN(Cc2ccccc2)c2ccccc2O1)c1ccc(-c2c3nc(c(-c4ccccc4)c4ccc([nH]4)c(-c4ccccc4)c4nc(c(-c5ccccc5)c5ccc2[nH]5)C=C4)C=C3)cc1
REMARK SMILES IDX 9 1 8 2 7 3 6 4 5 5 4 6 3 7 2 8 1 9 35 10 36 11 82 12 37 13
REMARK SMILES IDX 81 14 38 15 39 16 40 17 75 18 41 19 80 20 74 21 76 22 42 23
REMARK SMILES IDX 79 24 73 25 72 26 43 28 65 29 50 30 64 31 51 32 54 33 63 34
REMARK SMILES IDX 77 35 52 36 53 37 62 39 78 40 55 41 44 42 45 43 49 44 46 45
REMARK SMILES IDX 48 46 47 47 66 48 67 49 71 50 68 51 70 52 69 53 56 54 57 55
REMARK SMILES IDX 61 56 58 57 60 58 59 59 10 60 11 61 12 62 13 63 14 64 15 65
REMARK SMILES IDX 16 66 17 67 18 68 19 69 34 70 20 71 33 72 28 73 32 74 29 75
REMARK SMILES IDX 31 76 30 77 21 78 22 79 23 80 27 81 24 82 26 83 25 84
REMARK H PARENT 76 27 54 38
REMARK Flexibility Score: inf
ROOT
ATOM      1  O   UNL     1       2.846   3.701  -1.396  1.00  0.00    -0.377 OA
ENDROOT
BRANCH   1   2
ATOM      2  C   UNL     1       1.948   2.770  -0.789  1.00  0.00     0.188 C 
BRANCH   2   3
ATOM      3  C   UNL     1       2.317   1.301  -0.998  1.00  0.00     0.188 C 
BRANCH   3   4
ATOM      4  O   UNL     1       3.583   1.015  -0.411  1.00  0.00    -0.376 OA
BRANCH   4   5
ATOM      5  C   UNL     1       4.485   0.181  -1.132  1.00  0.00     0.202 C 
BRANCH   5   6
ATOM      6  C   UNL     1       4.061  -1.275  -1.260  1.00  0.00     0.261 C 
BRANCH   6   7
ATOM      7  O   UNL     1       2.688  -1.522  -0.918  1.00  0.00    -0.460 OA
BRANCH   7   8
ATOM      8  C   UNL     1       2.113  -1.659   0.299  1.00  0.00     0.338 C 
ATOM      9  O   UNL     1       0.905  -1.883   0.357  1.00  0.00    -0.246 OA
BRANCH   8  10
ATOM     10  C   UNL     1       2.863  -1.606   1.584  1.00  0.00     0.060 A 
ATOM     11  C   UNL     1       3.923  -0.748   1.860  1.00  0.00     0.016 A 
ATOM     12  C   UNL     1       2.391  -2.412   2.630  1.00  0.00     0.016 A 
ATOM     13  C   UNL     1       4.593  -0.770   3.064  1.00  0.00     0.010 A 
ATOM     14  C   UNL     1       3.014  -2.396   3.882  1.00  0.00     0.010 A 
ATOM     15  C   UNL     1       4.149  -1.603   4.079  1.00  0.00    -0.014 A 
BRANCH  15  16
ATOM     16  C   UNL     1       5.035  -1.747   5.241  1.00  0.00     0.031 A 
ATOM     17  C   UNL     1       5.821  -3.016   5.345  1.00  0.00     0.074 A 
ATOM     18  C   UNL     1       5.273  -0.688   6.036  1.00  0.00     0.049 A 
ATOM     19  N   UNL     1       6.631  -3.412   6.287  1.00  0.00    -0.248 NA
ATOM     20  C   UNL     1       5.692  -3.965   4.222  1.00  0.00     0.031 C 
ATOM     21  C   UNL     1       4.684   0.647   5.872  1.00  0.00     0.029 A 
ATOM     22  N   UNL     1       6.112  -0.551   7.106  1.00  0.00    -0.354 N 
ATOM     23  C   UNL     1       7.071  -4.668   5.889  1.00  0.00     0.074 A 
ATOM     24  C   UNL     1       6.439  -4.976   4.630  1.00  0.00     0.031 C 
ATOM     25  C   UNL     1       5.204   1.472   6.794  1.00  0.00     0.029 A 
ATOM     26  C   UNL     1       6.084   0.704   7.664  1.00  0.00     0.049 A 
ATOM     27  H   UNL     1       6.680  -1.280   7.443  1.00  0.00     0.167 HD
ATOM     28  C   UNL     1       7.928  -5.488   6.535  1.00  0.00     0.031 A 
ATOM     29  C   UNL     1       6.670   1.151   8.788  1.00  0.00     0.031 A 
ATOM     30  C   UNL     1       8.527  -5.144   7.792  1.00  0.00     0.049 A 
ATOM     31  C   UNL     1       7.500   0.168   9.567  1.00  0.00     0.074 A 
ATOM     32  C   UNL     1       9.322  -5.912   8.618  1.00  0.00     0.029 A 
ATOM     33  N   UNL     1       8.389  -3.901   8.399  1.00  0.00    -0.354 N 
ATOM     34  N   UNL     1       7.822  -1.068   9.257  1.00  0.00    -0.248 NA
ATOM     35  C   UNL     1       8.032   0.627  10.854  1.00  0.00     0.031 C 
ATOM     36  C   UNL     1       9.626  -5.146   9.750  1.00  0.00     0.029 A 
ATOM     37  C   UNL     1       9.074  -3.882   9.597  1.00  0.00     0.049 A 
ATOM     38  H   UNL     1       7.877  -3.145   8.029  1.00  0.00     0.167 HD
ATOM     39  C   UNL     1       8.609  -1.530  10.301  1.00  0.00     0.074 A 
ATOM     40  C   UNL     1       8.736  -0.428  11.238  1.00  0.00     0.031 C 
ATOM     41  C   UNL     1       9.171  -2.750  10.485  1.00  0.00     0.031 A 
BRANCH  28  42
ATOM     42  C   UNL     1       8.166  -6.838   5.924  1.00  0.00    -0.014 A 
ATOM     43  C   UNL     1       8.910  -6.994   4.743  1.00  0.00     0.009 A 
ATOM     44  C   UNL     1       7.578  -7.971   6.509  1.00  0.00     0.009 A 
ATOM     45  C   UNL     1       9.025  -8.249   4.140  1.00  0.00     0.001 A 
ATOM     46  C   UNL     1       7.718  -9.228   5.919  1.00  0.00     0.001 A 
ATOM     47  C   UNL     1       8.431  -9.365   4.729  1.00  0.00     0.000 A 
ENDBRANCH  28  42
BRANCH  29  48
ATOM     48  C   UNL     1       6.416   2.531   9.288  1.00  0.00    -0.014 A 
ATOM     49  C   UNL     1       7.459   3.456   9.441  1.00  0.00     0.009 A 
ATOM     50  C   UNL     1       5.116   2.920   9.658  1.00  0.00     0.009 A 
ATOM     51  C   UNL     1       7.212   4.721   9.984  1.00  0.00     0.001 A 
ATOM     52  C   UNL     1       4.865   4.196  10.166  1.00  0.00     0.001 A 
ATOM     53  C   UNL     1       5.917   5.091  10.343  1.00  0.00     0.000 A 
ENDBRANCH  29  48
BRANCH  41  54
ATOM     54  C   UNL     1      10.006  -2.922  11.718  1.00  0.00    -0.014 A 
ATOM     55  C   UNL     1       9.419  -3.011  12.988  1.00  0.00     0.009 A 
ATOM     56  C   UNL     1      11.398  -3.040  11.591  1.00  0.00     0.009 A 
ATOM     57  C   UNL     1      10.220  -3.178  14.118  1.00  0.00     0.001 A 
ATOM     58  C   UNL     1      12.192  -3.242  12.718  1.00  0.00     0.001 A 
ATOM     59  C   UNL     1      11.603  -3.300  13.981  1.00  0.00     0.000 A 
ENDBRANCH  41  54
ENDBRANCH  15  16
ENDBRANCH   8  10
ENDBRANCH   7   8
ENDBRANCH   6   7
ENDBRANCH   5   6
ENDBRANCH   4   5
ENDBRANCH   3   4
ENDBRANCH   2   3
ENDBRANCH   1   2
BRANCH   1  60
ATOM     60  C   UNL     1       4.227   3.493  -1.132  1.00  0.00     0.188 C 
BRANCH  60  61
ATOM     61  C   UNL     1       4.749   3.604   0.323  1.00  0.00     0.188 C 
BRANCH  61  62
ATOM     62  O   UNL     1       3.780   3.321   1.323  1.00  0.00    -0.376 OA
BRANCH  62  63
ATOM     63  C   UNL     1       3.439   4.409   2.183  1.00  0.00     0.202 C 
BRANCH  63  64
ATOM     64  C   UNL     1       2.693   5.601   1.553  1.00  0.00     0.261 C 
BRANCH  64  65
ATOM     65  O   UNL     1       3.091   5.902   0.207  1.00  0.00    -0.460 OA
BRANCH  65  66
ATOM     66  C   UNL     1       4.129   6.754   0.031  1.00  0.00     0.349 C 
ATOM     67  O   UNL     1       4.655   7.358   0.972  1.00  0.00    -0.248 OA
BRANCH  66  68
ATOM     68  C   UNL     1       4.568   6.781  -1.450  1.00  0.00     0.301 C 
ATOM     69  C   UNL     1       6.043   6.400  -1.689  1.00  0.00     0.174 C 
ATOM     70  O   UNL     1       4.293   8.017  -2.083  1.00  0.00    -0.475 OA
ATOM     71  N   UNL     1       6.970   7.349  -1.059  1.00  0.00    -0.360 N 
ATOM     72  C   UNL     1       5.201   8.967  -1.688  1.00  0.00     0.144 A 
ATOM     73  C   UNL     1       6.498   8.673  -1.185  1.00  0.00     0.080 A 
ATOM     74  C   UNL     1       4.688  10.261  -1.771  1.00  0.00     0.049 A 
ATOM     75  C   UNL     1       7.260   9.782  -0.829  1.00  0.00     0.030 A 
ATOM     76  C   UNL     1       5.442  11.320  -1.306  1.00  0.00     0.004 A 
ATOM     77  C   UNL     1       6.731  11.081  -0.845  1.00  0.00     0.002 A 
BRANCH  71  78
ATOM     78  C   UNL     1       7.627   6.858   0.180  1.00  0.00     0.152 C 
BRANCH  78  79
ATOM     79  C   UNL     1       9.050   7.299   0.414  1.00  0.00    -0.029 A 
ATOM     80  C   UNL     1      10.137   6.636  -0.172  1.00  0.00     0.005 A 
ATOM     81  C   UNL     1       9.305   8.381   1.272  1.00  0.00     0.005 A 
ATOM     82  C   UNL     1      11.440   7.093   0.042  1.00  0.00     0.000 A 
ATOM     83  C   UNL     1      10.598   8.868   1.442  1.00  0.00     0.000 A 
ATOM     84  C   UNL     1      11.666   8.228   0.822  1.00  0.00     0.000 A 
ENDBRANCH  78  79
ENDBRANCH  71  78
ENDBRANCH  66  68
ENDBRANCH  65  66
ENDBRANCH  64  65
ENDBRANCH  63  64
ENDBRANCH  62  63
ENDBRANCH  61  62
ENDBRANCH  60  61
ENDBRANCH   1  60
TORSDOF 22
