REMARK SMILES CC[NH2+][C@H](C)c1cccn1Cc1ccc(C(=O)OCCOCCOCCOCCOC(=O)c2ccc(-c3c4nc(c(-c5ccccc5)c5ccc([nH]5)c(-c5ccccc5)c5nc(c(-c6ccccc6)c6ccc3[nH]6)C=C5)C=C4)cc2)cc1
REMARK SMILES IDX 22 1 21 2 20 3 19 4 18 5 16 6 17 7 15 8 12 9 13 10 82 11
REMARK SMILES IDX 14 12 81 13 11 14 10 15 6 16 7 17 8 18 9 19 4 20 5 21 3 22
REMARK SMILES IDX 2 25 1 26 23 27 24 28 25 29 26 30 27 31 28 32 29 33 30 34
REMARK SMILES IDX 31 35 32 36 33 37 34 38 80 39 35 40 79 41 36 42 37 43 38 44
REMARK SMILES IDX 73 45 39 46 78 47 72 48 74 49 40 50 77 51 71 52 70 53 41 55
REMARK SMILES IDX 63 56 48 57 62 58 49 59 52 60 61 61 75 62 50 63 51 64 60 66
REMARK SMILES IDX 76 67 53 68 42 69 43 70 47 71 44 72 46 73 45 74 64 75 65 76
REMARK SMILES IDX 69 77 66 78 68 79 67 80 54 81 55 82 59 83 56 84 58 85 57 86
REMARK H PARENT 3 23 3 24 74 54 52 65
REMARK Flexibility Score: inf
ROOT
ATOM      1  C   UNL     1      -0.367   0.778  -8.790  1.00  0.00     0.188 C 
ENDROOT
BRANCH   1   2
ATOM      2  O   UNL     1      -1.050   1.140  -9.985  1.00  0.00    -0.376 OA
BRANCH   2   3
ATOM      3  C   UNL     1      -2.188   1.970  -9.814  1.00  0.00     0.202 C 
BRANCH   3   4
ATOM      4  C   UNL     1      -1.816   3.440  -9.600  1.00  0.00     0.261 C 
BRANCH   4   5
ATOM      5  O   UNL     1      -1.022   3.677  -8.427  1.00  0.00    -0.460 OA
BRANCH   5   6
ATOM      6  C   UNL     1      -1.594   3.396  -7.238  1.00  0.00     0.338 C 
ATOM      7  O   UNL     1      -2.748   3.028  -7.050  1.00  0.00    -0.246 OA
BRANCH   6   8
ATOM      8  C   UNL     1      -0.547   3.409  -6.195  1.00  0.00     0.060 A 
ATOM      9  C   UNL     1       1.377   3.417  -4.151  1.00  0.00    -0.028 A 
ATOM     10  C   UNL     1       0.338   2.477  -4.146  1.00  0.00     0.006 A 
ATOM     11  C   UNL     1       1.487   4.293  -5.244  1.00  0.00     0.006 A 
ATOM     12  C   UNL     1      -0.626   2.478  -5.156  1.00  0.00     0.016 A 
ATOM     13  C   UNL     1       0.530   4.295  -6.258  1.00  0.00     0.016 A 
BRANCH   9  14
ATOM     14  C   UNL     1       2.296   3.579  -2.955  1.00  0.00     0.157 C 
BRANCH  14  15
ATOM     15  N   UNL     1       1.822   4.671  -2.103  1.00  0.00    -0.342 N 
ATOM     16  C   UNL     1       1.007   4.665  -0.978  1.00  0.00     0.076 A 
ATOM     17  C   UNL     1       0.587   5.988  -0.816  1.00  0.00     0.029 A 
ATOM     18  C   UNL     1       1.279   6.813  -1.717  1.00  0.00     0.020 A 
ATOM     19  C   UNL     1       2.087   5.988  -2.452  1.00  0.00     0.086 A 
BRANCH  16  20
ATOM     20  C   UNL     1       0.567   3.521  -0.076  1.00  0.00     0.227 C 
ATOM     21  C   UNL     1       1.085   2.124  -0.374  1.00  0.00     0.082 C 
BRANCH  20  22
ATOM     22  N   UNL     1       0.990   3.843   1.300  1.00  0.00    -0.339 N 
ATOM     23  H   UNL     1       1.900   3.416   1.471  1.00  0.00     0.346 HD
ATOM     24  H   UNL     1       1.030   4.859   1.383  1.00  0.00     0.346 HD
BRANCH  22  25
ATOM     25  C   UNL     1       0.047   3.352   2.305  1.00  0.00     0.257 C 
ATOM     26  C   UNL     1       0.552   3.713   3.693  1.00  0.00     0.071 C 
ENDBRANCH  22  25
ENDBRANCH  20  22
ENDBRANCH  16  20
ENDBRANCH  14  15
ENDBRANCH   9  14
ENDBRANCH   6   8
ENDBRANCH   5   6
ENDBRANCH   4   5
ENDBRANCH   3   4
ENDBRANCH   2   3
ENDBRANCH   1   2
BRANCH   1  27
ATOM     27  C   UNL     1       1.091   1.273  -8.723  1.00  0.00     0.188 C 
BRANCH  27  28
ATOM     28  O   UNL     1       1.650   2.002  -9.805  1.00  0.00    -0.377 OA
BRANCH  28  29
ATOM     29  C   UNL     1       1.414   1.590 -11.145  1.00  0.00     0.188 C 
BRANCH  29  30
ATOM     30  C   UNL     1       1.125   0.117 -11.519  1.00  0.00     0.188 C 
BRANCH  30  31
ATOM     31  O   UNL     1       1.138  -0.811 -10.442  1.00  0.00    -0.376 OA
BRANCH  31  32
ATOM     32  C   UNL     1       2.126  -1.825 -10.452  1.00  0.00     0.202 C 
BRANCH  32  33
ATOM     33  C   UNL     1       3.482  -1.335  -9.939  1.00  0.00     0.261 C 
BRANCH  33  34
ATOM     34  O   UNL     1       4.000  -0.227 -10.671  1.00  0.00    -0.460 OA
BRANCH  34  35
ATOM     35  C   UNL     1       4.204  -0.500 -11.967  1.00  0.00     0.338 C 
ATOM     36  O   UNL     1       3.940  -1.527 -12.580  1.00  0.00    -0.246 OA
BRANCH  35  37
ATOM     37  C   UNL     1       4.917   0.590 -12.602  1.00  0.00     0.060 A 
ATOM     38  C   UNL     1       4.617   0.825 -13.948  1.00  0.00     0.016 A 
ATOM     39  C   UNL     1       6.133   0.933 -12.009  1.00  0.00     0.016 A 
ATOM     40  C   UNL     1       5.640   1.222 -14.774  1.00  0.00     0.010 A 
ATOM     41  C   UNL     1       7.167   1.268 -12.845  1.00  0.00     0.010 A 
ATOM     42  C   UNL     1       6.921   1.339 -14.225  1.00  0.00    -0.014 A 
BRANCH  42  43
ATOM     43  C   UNL     1       8.053   1.524 -15.130  1.00  0.00     0.031 A 
ATOM     44  C   UNL     1       8.415   2.981 -15.300  1.00  0.00     0.074 A 
ATOM     45  C   UNL     1       8.577   0.375 -15.647  1.00  0.00     0.049 A 
ATOM     46  N   UNL     1       9.156   3.537 -16.203  1.00  0.00    -0.248 NA
ATOM     47  C   UNL     1       7.854   3.980 -14.348  1.00  0.00     0.031 C 
ATOM     48  C   UNL     1       8.071  -0.986 -15.353  1.00  0.00     0.029 A 
ATOM     49  N   UNL     1       9.617   0.105 -16.507  1.00  0.00    -0.354 N 
ATOM     50  C   UNL     1       9.296   4.884 -15.839  1.00  0.00     0.074 A 
ATOM     51  C   UNL     1       8.406   5.124 -14.744  1.00  0.00     0.031 C 
ATOM     52  C   UNL     1       8.747  -1.912 -16.061  1.00  0.00     0.029 A 
ATOM     53  C   UNL     1       9.762  -1.256 -16.860  1.00  0.00     0.049 A 
ATOM     54  H   UNL     1      10.216   0.807 -16.851  1.00  0.00     0.167 HD
ATOM     55  C   UNL     1      10.237   5.705 -16.371  1.00  0.00     0.031 A 
ATOM     56  C   UNL     1      10.622  -1.825 -17.753  1.00  0.00     0.031 A 
ATOM     57  C   UNL     1      10.934   5.083 -17.446  1.00  0.00     0.049 A 
ATOM     58  C   UNL     1      11.549  -0.766 -18.188  1.00  0.00     0.074 A 
ATOM     59  C   UNL     1      10.565   4.736 -18.721  1.00  0.00     0.029 A 
ATOM     60  N   UNL     1      12.096   4.419 -17.134  1.00  0.00    -0.354 N 
ATOM     61  N   UNL     1      12.467  -0.235 -17.439  1.00  0.00    -0.248 NA
ATOM     62  C   UNL     1      11.418  -0.201 -19.534  1.00  0.00     0.031 C 
ATOM     63  C   UNL     1      11.290   3.550 -18.989  1.00  0.00     0.029 A 
ATOM     64  C   UNL     1      12.127   3.278 -17.904  1.00  0.00     0.049 A 
ATOM     65  H   UNL     1      12.777   4.705 -16.483  1.00  0.00     0.167 HD
ATOM     66  C   UNL     1      12.721   0.960 -18.070  1.00  0.00     0.074 A 
ATOM     67  C   UNL     1      12.300   0.793 -19.443  1.00  0.00     0.031 C 
ATOM     68  C   UNL     1      12.763   2.106 -17.342  1.00  0.00     0.031 A 
BRANCH  55  69
ATOM     69  C   UNL     1      10.729   7.007 -15.831  1.00  0.00    -0.014 A 
ATOM     70  C   UNL     1      11.383   7.885 -16.718  1.00  0.00     0.009 A 
ATOM     71  C   UNL     1      10.822   7.277 -14.458  1.00  0.00     0.009 A 
ATOM     72  C   UNL     1      12.150   8.952 -16.250  1.00  0.00     0.001 A 
ATOM     73  C   UNL     1      11.564   8.367 -13.990  1.00  0.00     0.001 A 
ATOM     74  C   UNL     1      12.248   9.187 -14.884  1.00  0.00     0.000 A 
ENDBRANCH  55  69
BRANCH  56  75
ATOM     75  C   UNL     1      10.785  -3.172 -18.396  1.00  0.00    -0.014 A 
ATOM     76  C   UNL     1       9.914  -4.255 -18.241  1.00  0.00     0.009 A 
ATOM     77  C   UNL     1      11.830  -3.352 -19.340  1.00  0.00     0.009 A 
ATOM     78  C   UNL     1      10.037  -5.413 -19.032  1.00  0.00     0.001 A 
ATOM     79  C   UNL     1      11.930  -4.479 -20.160  1.00  0.00     0.001 A 
ATOM     80  C   UNL     1      11.021  -5.511 -20.012  1.00  0.00     0.000 A 
ENDBRANCH  56  75
BRANCH  68  81
ATOM     81  C   UNL     1      13.020   1.897 -15.856  1.00  0.00    -0.014 A 
ATOM     82  C   UNL     1      14.204   1.295 -15.407  1.00  0.00     0.009 A 
ATOM     83  C   UNL     1      12.036   2.170 -14.889  1.00  0.00     0.009 A 
ATOM     84  C   UNL     1      14.383   0.961 -14.057  1.00  0.00     0.001 A 
ATOM     85  C   UNL     1      12.210   1.847 -13.538  1.00  0.00     0.001 A 
ATOM     86  C   UNL     1      13.386   1.234 -13.123  1.00  0.00     0.000 A 
ENDBRANCH  68  81
ENDBRANCH  42  43
ENDBRANCH  35  37
ENDBRANCH  34  35
ENDBRANCH  33  34
ENDBRANCH  32  33
ENDBRANCH  31  32
ENDBRANCH  30  31
ENDBRANCH  29  30
ENDBRANCH  28  29
ENDBRANCH  27  28
ENDBRANCH   1  27
TORSDOF 25
