REMARK SMILES CC(C)[C@H](NC(=O)[C@H]1CC(=O)N(c2ccc(F)cc2)C1)C(=O)N1CCC[C@@H]1C(=O)OCCOCCOCCOCCOC(=O)c1ccc(-c2c3nc(c(-c4ccccc4)c4ccc([nH]4)c(-c4ccccc4)c4nc(c(-c5ccccc5)c5ccc2[nH]5)C=C4)C=C3)cc1
REMARK SMILES IDX 34 1 33 2 32 3 31 4 30 5 28 6 29 7 27 8 23 9 24 10 25 11
REMARK SMILES IDX 26 12 21 13 22 14 4 15 2 16 1 17 3 18 5 19 6 20 7 22 8 23
REMARK SMILES IDX 9 24 20 25 10 26 12 27 11 28 13 29 14 30 19 31 15 32 18 33
REMARK SMILES IDX 16 34 17 35 35 36 36 37 37 38 38 39 39 40 40 41 41 42 42 43
REMARK SMILES IDX 43 44 44 45 45 46 46 47 92 48 47 49 91 50 48 51 49 52 50 53
REMARK SMILES IDX 85 54 51 55 90 56 84 57 86 58 52 59 89 60 83 61 82 62 53 64
REMARK SMILES IDX 75 65 60 66 74 67 61 68 64 69 73 70 87 71 62 72 63 73 72 75
REMARK SMILES IDX 88 76 65 77 54 78 55 79 59 80 56 81 58 82 57 83 76 84 77 85
REMARK SMILES IDX 81 86 78 87 80 88 79 89 66 90 67 91 71 92 68 93 70 94 69 95
REMARK H PARENT 5 21 86 63 64 74
REMARK Flexibility Score: inf
ROOT
ATOM      1  C   UNL     1      -0.383  -1.605  -1.629  1.00  0.00     0.188 C 
ENDROOT
BRANCH   1   2
ATOM      2  O   UNL     1       0.321  -1.622  -2.860  1.00  0.00    -0.376 OA
BRANCH   2   3
ATOM      3  C   UNL     1       0.278  -0.544  -3.780  1.00  0.00     0.202 C 
BRANCH   3   4
ATOM      4  C   UNL     1      -1.027   0.151  -4.206  1.00  0.00     0.261 C 
BRANCH   4   5
ATOM      5  O   UNL     1      -2.050   0.317  -3.213  1.00  0.00    -0.462 OA
BRANCH   5   6
ATOM      6  C   UNL     1      -2.959  -0.686  -3.170  1.00  0.00     0.328 C 
ATOM      7  O   UNL     1      -2.892  -1.691  -3.869  1.00  0.00    -0.250 OA
BRANCH   6   8
ATOM      8  C   UNL     1      -4.152  -0.405  -2.234  1.00  0.00     0.195 C 
ATOM      9  N   UNL     1      -5.181   0.429  -2.846  1.00  0.00    -0.327 N 
ATOM     10  C   UNL     1      -6.092   0.822  -1.784  1.00  0.00     0.120 C 
ATOM     11  C   UNL     1      -5.183   1.102  -0.597  1.00  0.00     0.024 C 
ATOM     12  C   UNL     1      -3.896   0.335  -0.911  1.00  0.00     0.039 C 
BRANCH   9  13
ATOM     13  C   UNL     1      -5.596   0.170  -4.140  1.00  0.00     0.246 C 
ATOM     14  O   UNL     1      -5.576  -0.974  -4.595  1.00  0.00    -0.272 OA
BRANCH  13  15
ATOM     15  C   UNL     1      -5.768   1.399  -5.096  1.00  0.00     0.174 C 
BRANCH  15  16
ATOM     16  C   UNL     1      -4.501   1.811  -5.915  1.00  0.00     0.015 C 
ATOM     17  C   UNL     1      -4.248   0.880  -7.111  1.00  0.00     0.010 C 
ATOM     18  C   UNL     1      -4.569   3.239  -6.481  1.00  0.00     0.010 C 
ENDBRANCH  15  16
BRANCH  15  19
ATOM     19  N   UNL     1      -6.511   2.510  -4.486  1.00  0.00    -0.344 N 
ATOM     20  C   UNL     1      -6.300   3.542  -3.653  1.00  0.00     0.226 C 
ATOM     21  H   UNL     1      -7.452   2.493  -4.776  1.00  0.00     0.164 HD
ATOM     22  O   UNL     1      -7.305   4.241  -3.446  1.00  0.00    -0.275 OA
BRANCH  20  23
ATOM     23  C   UNL     1      -5.034   3.912  -2.901  1.00  0.00     0.107 C 
ATOM     24  C   UNL     1      -3.735   3.150  -2.967  1.00  0.00     0.116 C 
ATOM     25  C   UNL     1      -4.652   5.351  -3.206  1.00  0.00     0.139 C 
ATOM     26  C   UNL     1      -2.783   4.005  -3.731  1.00  0.00     0.227 C 
ATOM     27  N   UNL     1      -3.319   5.286  -3.747  1.00  0.00    -0.312 N 
ATOM     28  O   UNL     1      -1.693   3.620  -4.126  1.00  0.00    -0.274 OA
BRANCH  27  29
ATOM     29  C   UNL     1      -2.527   6.413  -3.997  1.00  0.00     0.044 A 
ATOM     30  C   UNL     1      -1.559   6.379  -5.004  1.00  0.00     0.029 A 
ATOM     31  C   UNL     1      -2.602   7.510  -3.131  1.00  0.00     0.029 A 
ATOM     32  C   UNL     1      -0.625   7.400  -5.096  1.00  0.00     0.041 A 
ATOM     33  C   UNL     1      -1.627   8.493  -3.182  1.00  0.00     0.041 A 
ATOM     34  C   UNL     1      -0.633   8.408  -4.141  1.00  0.00     0.123 A 
ATOM     35  F   UNL     1       0.357   9.299  -4.090  1.00  0.00    -0.207 F 
ENDBRANCH  27  29
ENDBRANCH  20  23
ENDBRANCH  15  19
ENDBRANCH  13  15
ENDBRANCH   9  13
ENDBRANCH   6   8
ENDBRANCH   5   6
ENDBRANCH   4   5
ENDBRANCH   3   4
ENDBRANCH   2   3
ENDBRANCH   1   2
BRANCH   1  36
ATOM     36  C   UNL     1      -0.532  -0.323  -0.796  1.00  0.00     0.188 C 
BRANCH  36  37
ATOM     37  O   UNL     1      -0.120   0.869  -1.427  1.00  0.00    -0.377 OA
BRANCH  37  38
ATOM     38  C   UNL     1       1.205   1.310  -1.160  1.00  0.00     0.188 C 
BRANCH  38  39
ATOM     39  C   UNL     1       2.290   0.242  -0.909  1.00  0.00     0.188 C 
BRANCH  39  40
ATOM     40  O   UNL     1       1.925  -0.756   0.034  1.00  0.00    -0.376 OA
BRANCH  40  41
ATOM     41  C   UNL     1       2.277  -0.596   1.399  1.00  0.00     0.202 C 
BRANCH  41  42
ATOM     42  C   UNL     1       1.721   0.616   2.170  1.00  0.00     0.261 C 
BRANCH  42  43
ATOM     43  O   UNL     1       2.032   1.917   1.646  1.00  0.00    -0.460 OA
BRANCH  43  44
ATOM     44  C   UNL     1       3.329   2.236   1.477  1.00  0.00     0.338 C 
ATOM     45  O   UNL     1       4.297   1.568   1.810  1.00  0.00    -0.246 OA
BRANCH  44  46
ATOM     46  C   UNL     1       3.410   3.446   0.631  1.00  0.00     0.060 A 
ATOM     47  C   UNL     1       4.122   3.376  -0.574  1.00  0.00     0.016 A 
ATOM     48  C   UNL     1       2.823   4.650   1.028  1.00  0.00     0.016 A 
ATOM     49  C   UNL     1       4.301   4.518  -1.353  1.00  0.00     0.010 A 
ATOM     50  C   UNL     1       3.026   5.803   0.257  1.00  0.00     0.010 A 
ATOM     51  C   UNL     1       3.807   5.752  -0.913  1.00  0.00    -0.014 A 
BRANCH  51  52
ATOM     52  C   UNL     1       4.334   6.998  -1.534  1.00  0.00     0.031 A 
ATOM     53  C   UNL     1       5.449   7.724  -0.821  1.00  0.00     0.074 A 
ATOM     54  C   UNL     1       3.939   7.422  -2.750  1.00  0.00     0.049 A 
ATOM     55  N   UNL     1       6.061   8.833  -1.149  1.00  0.00    -0.248 NA
ATOM     56  C   UNL     1       5.955   7.105   0.417  1.00  0.00     0.031 C 
ATOM     57  C   UNL     1       2.968   6.753  -3.613  1.00  0.00     0.029 A 
ATOM     58  N   UNL     1       4.332   8.521  -3.481  1.00  0.00    -0.354 N 
ATOM     59  C   UNL     1       7.026   9.035  -0.170  1.00  0.00     0.074 A 
ATOM     60  C   UNL     1       6.891   7.964   0.791  1.00  0.00     0.031 C 
ATOM     61  C   UNL     1       2.849   7.454  -4.756  1.00  0.00     0.029 A 
ATOM     62  C   UNL     1       3.665   8.658  -4.676  1.00  0.00     0.049 A 
ATOM     63  H   UNL     1       5.025   9.150  -3.176  1.00  0.00     0.167 HD
ATOM     64  C   UNL     1       7.958  10.013  -0.087  1.00  0.00     0.031 A 
ATOM     65  C   UNL     1       3.680   9.658  -5.581  1.00  0.00     0.031 A 
ATOM     66  C   UNL     1       8.093  11.086  -1.034  1.00  0.00     0.049 A 
ATOM     67  C   UNL     1       4.593  10.828  -5.362  1.00  0.00     0.074 A 
ATOM     68  C   UNL     1       9.002  12.130  -1.028  1.00  0.00     0.029 A 
ATOM     69  N   UNL     1       7.299  11.253  -2.156  1.00  0.00    -0.354 N 
ATOM     70  N   UNL     1       5.463  11.033  -4.405  1.00  0.00    -0.248 NA
ATOM     71  C   UNL     1       4.537  11.897  -6.371  1.00  0.00     0.031 C 
ATOM     72  C   UNL     1       8.718  12.964  -2.113  1.00  0.00     0.029 A 
ATOM     73  C   UNL     1       7.679  12.399  -2.834  1.00  0.00     0.049 A 
ATOM     74  H   UNL     1       6.572  10.648  -2.431  1.00  0.00     0.167 HD
ATOM     75  C   UNL     1       6.086  12.232  -4.718  1.00  0.00     0.074 A 
ATOM     76  C   UNL     1       5.494  12.709  -5.950  1.00  0.00     0.031 C 
ATOM     77  C   UNL     1       7.076  12.871  -4.051  1.00  0.00     0.031 A 
BRANCH  64  78
ATOM     78  C   UNL     1       8.900   9.984   1.084  1.00  0.00    -0.014 A 
ATOM     79  C   UNL     1       9.924   9.027   1.170  1.00  0.00     0.009 A 
ATOM     80  C   UNL     1       8.807  10.972   2.076  1.00  0.00     0.009 A 
ATOM     81  C   UNL     1      10.825   9.052   2.236  1.00  0.00     0.001 A 
ATOM     82  C   UNL     1       9.727  11.012   3.125  1.00  0.00     0.001 A 
ATOM     83  C   UNL     1      10.732  10.050   3.207  1.00  0.00     0.000 A 
ENDBRANCH  64  78
BRANCH  65  84
ATOM     84  C   UNL     1       2.756   9.677  -6.748  1.00  0.00    -0.014 A 
ATOM     85  C   UNL     1       3.186   9.350  -8.040  1.00  0.00     0.009 A 
ATOM     86  C   UNL     1       1.448  10.154  -6.583  1.00  0.00     0.009 A 
ATOM     87  C   UNL     1       2.312   9.476  -9.127  1.00  0.00     0.001 A 
ATOM     88  C   UNL     1       0.558  10.223  -7.655  1.00  0.00     0.001 A 
ATOM     89  C   UNL     1       0.993   9.890  -8.931  1.00  0.00     0.000 A 
ENDBRANCH  65  84
BRANCH  77  90
ATOM     90  C   UNL     1       7.619  14.123  -4.675  1.00  0.00    -0.014 A 
ATOM     91  C   UNL     1       6.872  15.309  -4.714  1.00  0.00     0.009 A 
ATOM     92  C   UNL     1       8.910  14.111  -5.226  1.00  0.00     0.009 A 
ATOM     93  C   UNL     1       7.392  16.449  -5.330  1.00  0.00     0.001 A 
ATOM     94  C   UNL     1       9.441  15.261  -5.810  1.00  0.00     0.001 A 
ATOM     95  C   UNL     1       8.677  16.424  -5.872  1.00  0.00     0.000 A 
ENDBRANCH  77  90
ENDBRANCH  51  52
ENDBRANCH  44  46
ENDBRANCH  43  44
ENDBRANCH  42  43
ENDBRANCH  41  42
ENDBRANCH  40  41
ENDBRANCH  39  40
ENDBRANCH  38  39
ENDBRANCH  37  38
ENDBRANCH  36  37
ENDBRANCH   1  36
TORSDOF 26
