REMARK SMILES Cc1ccc(C(=O)N2CCC3(CCC(=O)N(CC(=O)OCCOCCOCCOCCOC(=O)c4ccc(-c5c6nc(c(-c7ccccc7)c7ccc([nH]7)c(-c7ccccc7)c7nc(c(-c8ccccc8)c8ccc5[nH]8)C=C7)C=C6)cc4)C3)CC2)cc1O
REMARK SMILES IDX 25 1 24 2 23 3 22 4 21 5 20 6 18 7 19 8 17 9 16 10 6 11 7 12
REMARK SMILES IDX 8 13 9 14 85 15 10 16 84 17 11 18 12 19 83 20 13 21 14 22
REMARK SMILES IDX 15 23 5 24 1 25 2 26 3 27 87 28 4 29 86 30 88 31 26 33 27 34
REMARK SMILES IDX 28 35 29 36 30 37 31 38 32 39 33 40 34 41 35 42 36 43 82 44
REMARK SMILES IDX 37 45 81 46 38 47 39 48 40 49 75 50 41 51 80 52 74 53 76 54
REMARK SMILES IDX 42 55 79 56 73 57 72 58 43 60 65 61 50 62 64 63 51 64 54 65
REMARK SMILES IDX 63 66 77 67 52 68 53 69 62 71 78 72 55 73 44 74 45 75 49 76
REMARK SMILES IDX 46 77 48 78 47 79 66 80 67 81 71 82 68 83 70 84 69 85 56 86
REMARK SMILES IDX 57 87 61 88 58 89 60 90 59 91
REMARK H PARENT 88 32 76 59 54 70
REMARK Flexibility Score: inf
ROOT
ATOM      1  C   UNL     1      10.884  -2.600   3.706  1.00  0.00     0.188 C 
ENDROOT
BRANCH   1   2
ATOM      2  C   UNL     1      11.117  -2.806   5.202  1.00  0.00     0.188 C 
BRANCH   2   3
ATOM      3  O   UNL     1      11.491  -4.092   5.677  1.00  0.00    -0.376 OA
BRANCH   3   4
ATOM      4  C   UNL     1      10.823  -5.255   5.187  1.00  0.00     0.202 C 
BRANCH   4   5
ATOM      5  C   UNL     1       9.278  -5.289   5.113  1.00  0.00     0.261 C 
BRANCH   5   6
ATOM      6  O   UNL     1       8.663  -4.411   4.131  1.00  0.00    -0.462 OA
BRANCH   6   7
ATOM      7  C   UNL     1       7.817  -3.457   4.586  1.00  0.00     0.325 C 
ATOM      8  O   UNL     1       7.478  -3.356   5.765  1.00  0.00    -0.250 OA
BRANCH   7   9
ATOM      9  C   UNL     1       7.362  -2.394   3.550  1.00  0.00     0.242 C 
BRANCH   9  10
ATOM     10  N   UNL     1       7.606  -2.463   2.093  1.00  0.00    -0.331 N 
ATOM     11  C   UNL     1       2.867   1.581   0.119  1.00  0.00     0.253 C 
ATOM     12  O   UNL     1       2.755   2.752   0.476  1.00  0.00    -0.269 OA
ATOM     13  N   UNL     1       4.096   0.942   0.076  1.00  0.00    -0.339 N 
ATOM     14  C   UNL     1       5.048   1.239   1.125  1.00  0.00     0.120 C 
ATOM     15  C   UNL     1       4.583   0.151  -1.050  1.00  0.00     0.120 C 
ATOM     16  C   UNL     1       5.535  -0.089   1.704  1.00  0.00     0.030 C 
ATOM     17  C   UNL     1       5.225  -1.156  -0.583  1.00  0.00     0.030 C 
ATOM     18  C   UNL     1       6.190  -0.990   0.621  1.00  0.00    -0.008 C 
ATOM     19  C   UNL     1       7.522  -0.346   0.133  1.00  0.00     0.019 C 
ATOM     20  C   UNL     1       6.468  -2.422   1.194  1.00  0.00     0.127 C 
ATOM     21  C   UNL     1       8.597  -0.437   1.214  1.00  0.00     0.101 C 
ATOM     22  C   UNL     1       8.734  -1.916   1.480  1.00  0.00     0.223 C 
ATOM     23  O   UNL     1       9.546  -2.577   0.842  1.00  0.00    -0.275 OA
BRANCH  11  24
ATOM     24  C   UNL     1       1.642   0.752  -0.066  1.00  0.00     0.043 A 
ATOM     25  C   UNL     1      -1.991  -1.586  -0.044  1.00  0.00     0.048 C 
ATOM     26  C   UNL     1      -0.745  -0.753  -0.077  1.00  0.00    -0.009 A 
ATOM     27  C   UNL     1       0.494  -1.388   0.045  1.00  0.00     0.008 A 
ATOM     28  C   UNL     1      -0.769   0.644  -0.179  1.00  0.00     0.119 A 
ATOM     29  C   UNL     1       1.669  -0.639   0.076  1.00  0.00     0.014 A 
ATOM     30  C   UNL     1       0.408   1.393  -0.190  1.00  0.00     0.060 A 
BRANCH  28  31
ATOM     31  O   UNL     1      -1.932   1.356  -0.241  1.00  0.00    -0.508 OA
ATOM     32  H   UNL     1      -2.756   0.909  -0.238  1.00  0.00     0.293 HD
ENDBRANCH  28  31
ENDBRANCH  11  24
ENDBRANCH   9  10
ENDBRANCH   7   9
ENDBRANCH   6   7
ENDBRANCH   5   6
ENDBRANCH   4   5
ENDBRANCH   3   4
ENDBRANCH   2   3
ENDBRANCH   1   2
BRANCH   1  33
ATOM     33  O   UNL     1      10.857  -3.803   2.974  1.00  0.00    -0.377 OA
BRANCH  33  34
ATOM     34  C   UNL     1      11.916  -4.088   2.079  1.00  0.00     0.188 C 
BRANCH  34  35
ATOM     35  C   UNL     1      13.317  -3.700   2.550  1.00  0.00     0.188 C 
BRANCH  35  36
ATOM     36  O   UNL     1      13.449  -2.312   2.820  1.00  0.00    -0.376 OA
BRANCH  36  37
ATOM     37  C   UNL     1      13.845  -1.434   1.775  1.00  0.00     0.202 C 
BRANCH  37  38
ATOM     38  C   UNL     1      13.020  -1.336   0.477  1.00  0.00     0.261 C 
BRANCH  38  39
ATOM     39  O   UNL     1      12.842  -2.525  -0.310  1.00  0.00    -0.460 OA
BRANCH  39  40
ATOM     40  C   UNL     1      13.908  -3.267  -0.651  1.00  0.00     0.338 C 
ATOM     41  O   UNL     1      15.085  -3.015  -0.444  1.00  0.00    -0.246 OA
BRANCH  40  42
ATOM     42  C   UNL     1      13.405  -4.555  -1.174  1.00  0.00     0.060 A 
ATOM     43  C   UNL     1      13.770  -5.745  -0.530  1.00  0.00     0.016 A 
ATOM     44  C   UNL     1      12.589  -4.589  -2.307  1.00  0.00     0.016 A 
ATOM     45  C   UNL     1      13.358  -6.976  -1.044  1.00  0.00     0.010 A 
ATOM     46  C   UNL     1      12.197  -5.822  -2.834  1.00  0.00     0.010 A 
ATOM     47  C   UNL     1      12.612  -7.022  -2.228  1.00  0.00    -0.014 A 
BRANCH  47  48
ATOM     48  C   UNL     1      12.441  -8.302  -2.957  1.00  0.00     0.031 A 
ATOM     49  C   UNL     1      13.360  -8.583  -4.115  1.00  0.00     0.074 A 
ATOM     50  C   UNL     1      11.492  -9.191  -2.618  1.00  0.00     0.049 A 
ATOM     51  N   UNL     1      13.329  -9.560  -4.985  1.00  0.00    -0.248 NA
ATOM     52  C   UNL     1      14.460  -7.626  -4.323  1.00  0.00     0.031 C 
ATOM     53  C   UNL     1      10.584  -9.071  -1.480  1.00  0.00     0.029 A 
ATOM     54  N   UNL     1      11.126 -10.370  -3.220  1.00  0.00    -0.354 N 
ATOM     55  C   UNL     1      14.387  -9.321  -5.854  1.00  0.00     0.074 A 
ATOM     56  C   UNL     1      15.029  -8.101  -5.420  1.00  0.00     0.031 C 
ATOM     57  C   UNL     1       9.748 -10.126  -1.478  1.00  0.00     0.029 A 
ATOM     58  C   UNL     1      10.033 -10.966  -2.640  1.00  0.00     0.049 A 
ATOM     59  H   UNL     1      11.602 -10.752  -3.993  1.00  0.00     0.167 HD
ATOM     60  C   UNL     1      14.787 -10.053  -6.920  1.00  0.00     0.031 A 
ATOM     61  C   UNL     1       9.321 -12.044  -3.027  1.00  0.00     0.031 A 
ATOM     62  C   UNL     1      14.137 -11.258  -7.357  1.00  0.00     0.049 A 
ATOM     63  C   UNL     1       9.726 -12.789  -4.275  1.00  0.00     0.074 A 
ATOM     64  C   UNL     1      14.471 -12.078  -8.421  1.00  0.00     0.029 A 
ATOM     65  N   UNL     1      13.016 -11.811  -6.759  1.00  0.00    -0.354 N 
ATOM     66  N   UNL     1      10.732 -12.563  -5.085  1.00  0.00    -0.248 NA
ATOM     67  C   UNL     1       8.896 -13.942  -4.660  1.00  0.00     0.031 C 
ATOM     68  C   UNL     1      13.511 -13.089  -8.507  1.00  0.00     0.029 A 
ATOM     69  C   UNL     1      12.627 -12.945  -7.449  1.00  0.00     0.049 A 
ATOM     70  H   UNL     1      12.564 -11.450  -5.962  1.00  0.00     0.167 HD
ATOM     71  C   UNL     1      10.683 -13.568  -6.045  1.00  0.00     0.074 A 
ATOM     72  C   UNL     1       9.549 -14.405  -5.718  1.00  0.00     0.031 C 
ATOM     73  C   UNL     1      11.508 -13.781  -7.099  1.00  0.00     0.031 A 
BRANCH  60  74
ATOM     74  C   UNL     1      15.953  -9.541  -7.719  1.00  0.00    -0.014 A 
ATOM     75  C   UNL     1      17.259  -9.554  -7.204  1.00  0.00     0.009 A 
ATOM     76  C   UNL     1      15.744  -9.076  -9.027  1.00  0.00     0.009 A 
ATOM     77  C   UNL     1      18.326  -9.081  -7.972  1.00  0.00     0.001 A 
ATOM     78  C   UNL     1      16.816  -8.634  -9.804  1.00  0.00     0.001 A 
ATOM     79  C   UNL     1      18.105  -8.628  -9.273  1.00  0.00     0.000 A 
ENDBRANCH  60  74
BRANCH  61  80
ATOM     80  C   UNL     1       8.124 -12.470  -2.252  1.00  0.00    -0.014 A 
ATOM     81  C   UNL     1       8.110 -13.693  -1.564  1.00  0.00     0.009 A 
ATOM     82  C   UNL     1       6.972 -11.667  -2.223  1.00  0.00     0.009 A 
ATOM     83  C   UNL     1       6.961 -14.116  -0.891  1.00  0.00     0.001 A 
ATOM     84  C   UNL     1       5.836 -12.076  -1.521  1.00  0.00     0.001 A 
ATOM     85  C   UNL     1       5.827 -13.306  -0.866  1.00  0.00     0.000 A 
ENDBRANCH  61  80
BRANCH  73  86
ATOM     86  C   UNL     1      11.272 -15.005  -7.941  1.00  0.00    -0.014 A 
ATOM     87  C   UNL     1      10.184 -15.098  -8.822  1.00  0.00     0.009 A 
ATOM     88  C   UNL     1      12.210 -16.050  -7.908  1.00  0.00     0.009 A 
ATOM     89  C   UNL     1      10.030 -16.224  -9.635  1.00  0.00     0.001 A 
ATOM     90  C   UNL     1      12.071 -17.158  -8.744  1.00  0.00     0.001 A 
ATOM     91  C   UNL     1      10.977 -17.247  -9.602  1.00  0.00     0.000 A 
ENDBRANCH  73  86
ENDBRANCH  47  48
ENDBRANCH  40  42
ENDBRANCH  39  40
ENDBRANCH  38  39
ENDBRANCH  37  38
ENDBRANCH  36  37
ENDBRANCH  35  36
ENDBRANCH  34  35
ENDBRANCH  33  34
ENDBRANCH   1  33
TORSDOF 23
