REMARK SMILES C[C@H](CNS(=O)(=O)c1ccc(C(=O)OCCOCCOCCOCCOC(=O)c2ccc(-c3c4nc(c(-c5ccccc5)c5ccc([nH]5)c(-c5ccccc5)c5nc(c(-c6ccccc6)c6ccc3[nH]6)C=C5)C=C4)cc2)cc1F)[NH+](C)C
REMARK SMILES IDX 18 1 17 2 16 3 15 4 14 5 12 6 13 7 11 8 8 9 9 10 78 11 10 12
REMARK SMILES IDX 77 13 79 14 5 15 6 16 7 17 4 18 3 20 2 21 1 22 80 23 81 24
REMARK SMILES IDX 82 25 19 27 20 28 21 29 22 30 23 31 24 32 25 33 26 34 27 35
REMARK SMILES IDX 28 36 29 37 30 38 76 39 31 40 75 41 32 42 33 43 34 44 69 45
REMARK SMILES IDX 35 46 74 47 68 48 70 49 36 50 73 51 67 52 66 53 37 55 59 56
REMARK SMILES IDX 44 57 58 58 45 59 48 60 57 61 71 62 46 63 47 64 56 66 72 67
REMARK SMILES IDX 49 68 38 69 39 70 43 71 40 72 42 73 41 74 60 75 61 76 65 77
REMARK SMILES IDX 62 78 64 79 63 80 50 81 51 82 55 83 52 84 54 85 53 86
REMARK H PARENT 4 19 80 26 70 54 48 65
REMARK Flexibility Score: inf
ROOT
ATOM      1  C   UNL     1       6.290   4.058  -3.806  1.00  0.00     0.188 C 
ENDROOT
BRANCH   1   2
ATOM      2  O   UNL     1       7.309   3.809  -4.770  1.00  0.00    -0.376 OA
BRANCH   2   3
ATOM      3  C   UNL     1       8.494   3.192  -4.288  1.00  0.00     0.202 C 
BRANCH   3   4
ATOM      4  C   UNL     1       8.355   1.694  -3.985  1.00  0.00     0.261 C 
BRANCH   4   5
ATOM      5  O   UNL     1       7.404   1.375  -2.955  1.00  0.00    -0.460 OA
BRANCH   5   6
ATOM      6  C   UNL     1       7.675   1.831  -1.713  1.00  0.00     0.338 C 
ATOM      7  O   UNL     1       8.667   2.438  -1.353  1.00  0.00    -0.246 OA
BRANCH   6   8
ATOM      8  C   UNL     1       6.461   1.657  -0.885  1.00  0.00     0.063 A 
ATOM      9  C   UNL     1       4.129   1.429   0.634  1.00  0.00     0.118 A 
ATOM     10  C   UNL     1       4.857   2.629   0.640  1.00  0.00     0.026 A 
ATOM     11  C   UNL     1       4.565   0.359  -0.137  1.00  0.00     0.144 A 
ATOM     12  C   UNL     1       6.031   2.737  -0.106  1.00  0.00     0.017 A 
ATOM     13  C   UNL     1       5.721   0.471  -0.911  1.00  0.00     0.056 A 
ATOM     14  F   UNL     1       3.909  -0.807  -0.174  1.00  0.00    -0.205 F 
BRANCH   9  15
ATOM     15  S   UNL     1       2.676   1.377   1.631  1.00  0.00     0.243 S 
ATOM     16  O   UNL     1       1.860   2.512   1.257  1.00  0.00    -0.207 OA
ATOM     17  O   UNL     1       3.130   1.195   2.992  1.00  0.00    -0.207 OA
BRANCH  15  18
ATOM     18  N   UNL     1       1.817  -0.005   1.258  1.00  0.00    -0.205 NA
ATOM     19  H   UNL     1       2.493  -0.766   1.194  1.00  0.00     0.141 HD
BRANCH  18  20
ATOM     20  C   UNL     1       1.011  -0.045   0.029  1.00  0.00     0.163 C 
BRANCH  20  21
ATOM     21  C   UNL     1       0.395  -1.457  -0.246  1.00  0.00     0.195 C 
ATOM     22  C   UNL     1       1.069  -2.600   0.532  1.00  0.00     0.076 C 
BRANCH  21  23
ATOM     23  N   UNL     1      -1.087  -1.444  -0.155  1.00  0.00    -0.337 N 
ATOM     24  C   UNL     1      -1.696  -2.653  -0.713  1.00  0.00     0.332 C 
ATOM     25  C   UNL     1      -1.613  -1.184   1.183  1.00  0.00     0.332 C 
ATOM     26  H   UNL     1      -1.358  -0.646  -0.731  1.00  0.00     0.347 HD
ENDBRANCH  21  23
ENDBRANCH  20  21
ENDBRANCH  18  20
ENDBRANCH  15  18
ENDBRANCH   9  15
ENDBRANCH   6   8
ENDBRANCH   5   6
ENDBRANCH   4   5
ENDBRANCH   3   4
ENDBRANCH   2   3
ENDBRANCH   1   2
BRANCH   1  27
ATOM     27  C   UNL     1       5.055   3.154  -3.959  1.00  0.00     0.188 C 
BRANCH  27  28
ATOM     28  O   UNL     1       5.124   2.134  -4.940  1.00  0.00    -0.377 OA
BRANCH  28  29
ATOM     29  C   UNL     1       5.351   2.484  -6.303  1.00  0.00     0.188 C 
BRANCH  29  30
ATOM     30  C   UNL     1       5.291   3.942  -6.811  1.00  0.00     0.188 C 
BRANCH  30  31
ATOM     31  O   UNL     1       4.460   4.807  -6.048  1.00  0.00    -0.376 OA
BRANCH  31  32
ATOM     32  C   UNL     1       3.266   5.250  -6.677  1.00  0.00     0.202 C 
BRANCH  32  33
ATOM     33  C   UNL     1       2.159   4.192  -6.678  1.00  0.00     0.261 C 
BRANCH  33  34
ATOM     34  O   UNL     1       2.462   3.009  -7.436  1.00  0.00    -0.460 OA
BRANCH  34  35
ATOM     35  C   UNL     1       2.682   3.171  -8.760  1.00  0.00     0.338 C 
ATOM     36  O   UNL     1       2.617   4.200  -9.404  1.00  0.00    -0.246 OA
BRANCH  35  37
ATOM     37  C   UNL     1       3.194   1.892  -9.285  1.00  0.00     0.060 A 
ATOM     38  C   UNL     1       4.433   1.873  -9.938  1.00  0.00     0.016 A 
ATOM     39  C   UNL     1       2.450   0.720  -9.132  1.00  0.00     0.016 A 
ATOM     40  C   UNL     1       4.915   0.680 -10.475  1.00  0.00     0.010 A 
ATOM     41  C   UNL     1       2.925  -0.469  -9.684  1.00  0.00     0.010 A 
ATOM     42  C   UNL     1       4.143  -0.486 -10.386  1.00  0.00    -0.014 A 
BRANCH  42  43
ATOM     43  C   UNL     1       4.499  -1.675 -11.194  1.00  0.00     0.031 A 
ATOM     44  C   UNL     1       3.837  -1.847 -12.533  1.00  0.00     0.074 A 
ATOM     45  C   UNL     1       5.384  -2.584 -10.753  1.00  0.00     0.049 A 
ATOM     46  N   UNL     1       3.947  -2.825 -13.394  1.00  0.00    -0.248 NA
ATOM     47  C   UNL     1       2.925  -0.769 -12.956  1.00  0.00     0.031 C 
ATOM     48  C   UNL     1       6.122  -2.513  -9.493  1.00  0.00     0.029 A 
ATOM     49  N   UNL     1       5.804  -3.759 -11.326  1.00  0.00    -0.354 N 
ATOM     50  C   UNL     1       3.119  -2.483 -14.456  1.00  0.00     0.074 A 
ATOM     51  C   UNL     1       2.491  -1.224 -14.120  1.00  0.00     0.031 C 
ATOM     52  C   UNL     1       6.900  -3.605  -9.384  1.00  0.00     0.029 A 
ATOM     53  C   UNL     1       6.690  -4.463 -10.548  1.00  0.00     0.049 A 
ATOM     54  H   UNL     1       5.500  -4.067 -12.210  1.00  0.00     0.167 HD
ATOM     55  C   UNL     1       2.903  -3.154 -15.611  1.00  0.00     0.031 A 
ATOM     56  C   UNL     1       7.249  -5.673 -10.748  1.00  0.00     0.031 A 
ATOM     57  C   UNL     1       3.506  -4.417 -15.938  1.00  0.00     0.049 A 
ATOM     58  C   UNL     1       6.924  -6.441 -12.004  1.00  0.00     0.074 A 
ATOM     59  C   UNL     1       3.354  -5.173 -17.087  1.00  0.00     0.029 A 
ATOM     60  N   UNL     1       4.369  -5.114 -15.108  1.00  0.00    -0.354 N 
ATOM     61  N   UNL     1       6.163  -6.095 -13.014  1.00  0.00    -0.248 NA
ATOM     62  C   UNL     1       7.544  -7.768 -12.146  1.00  0.00     0.031 C 
ATOM     63  C   UNL     1       4.085  -6.354 -16.929  1.00  0.00     0.029 A 
ATOM     64  C   UNL     1       4.738  -6.305 -15.708  1.00  0.00     0.049 A 
ATOM     65  H   UNL     1       4.674  -4.808 -14.223  1.00  0.00     0.167 HD
ATOM     66  C   UNL     1       6.238  -7.144 -13.923  1.00  0.00     0.074 A 
ATOM     67  C   UNL     1       7.127  -8.133 -13.351  1.00  0.00     0.031 C 
ATOM     68  C   UNL     1       5.627  -7.276 -15.126  1.00  0.00     0.031 A 
BRANCH  55  69
ATOM     69  C   UNL     1       1.944  -2.543 -16.591  1.00  0.00    -0.014 A 
ATOM     70  C   UNL     1       2.288  -1.400 -17.330  1.00  0.00     0.009 A 
ATOM     71  C   UNL     1       0.687  -3.133 -16.796  1.00  0.00     0.009 A 
ATOM     72  C   UNL     1       1.380  -0.843 -18.233  1.00  0.00     0.001 A 
ATOM     73  C   UNL     1      -0.208  -2.589 -17.718  1.00  0.00     0.001 A 
ATOM     74  C   UNL     1       0.136  -1.440 -18.429  1.00  0.00     0.000 A 
ENDBRANCH  55  69
BRANCH  56  75
ATOM     75  C   UNL     1       8.160  -6.255  -9.728  1.00  0.00    -0.014 A 
ATOM     76  C   UNL     1       9.528  -6.413  -9.997  1.00  0.00     0.009 A 
ATOM     77  C   UNL     1       7.658  -6.693  -8.492  1.00  0.00     0.009 A 
ATOM     78  C   UNL     1      10.368  -7.023  -9.062  1.00  0.00     0.001 A 
ATOM     79  C   UNL     1       8.505  -7.276  -7.548  1.00  0.00     0.001 A 
ATOM     80  C   UNL     1       9.857  -7.450  -7.838  1.00  0.00     0.000 A 
ENDBRANCH  56  75
BRANCH  68  81
ATOM     81  C   UNL     1       5.931  -8.513 -15.925  1.00  0.00    -0.014 A 
ATOM     82  C   UNL     1       5.414  -9.765 -15.558  1.00  0.00     0.009 A 
ATOM     83  C   UNL     1       6.705  -8.411 -17.091  1.00  0.00     0.009 A 
ATOM     84  C   UNL     1       5.695 -10.896 -16.328  1.00  0.00     0.001 A 
ATOM     85  C   UNL     1       6.959  -9.537 -17.875  1.00  0.00     0.001 A 
ATOM     86  C   UNL     1       6.462 -10.780 -17.488  1.00  0.00     0.000 A 
ENDBRANCH  68  81
ENDBRANCH  42  43
ENDBRANCH  35  37
ENDBRANCH  34  35
ENDBRANCH  33  34
ENDBRANCH  32  33
ENDBRANCH  31  32
ENDBRANCH  30  31
ENDBRANCH  29  30
ENDBRANCH  28  29
ENDBRANCH  27  28
ENDBRANCH   1  27
TORSDOF 25
