REMARK SMILES O=Cc1ccc2c(c1)C=C(C(=O)OCCOCCOCCOCCOC(=O)c1ccc(-c3c4nc(c(-c5ccccc5)c5ccc([nH]5)c(-c5ccccc5)c5nc(c(-c6ccccc6)c6ccc3[nH]6)C=C5)C=C4)cc1)[C@H](C(F)(F)F)O2
REMARK SMILES IDX 20 1 19 2 18 3 17 4 16 5 15 6 14 7 13 8 11 9 12 10 10 11
REMARK SMILES IDX 3 12 4 13 8 14 5 15 7 16 6 17 9 18 81 19 76 20 2 21 1 22
REMARK SMILES IDX 77 23 78 24 79 25 80 26 21 27 22 28 23 29 24 30 25 31 26 32
REMARK SMILES IDX 27 33 28 34 29 35 75 36 30 37 74 38 31 39 32 40 33 41 68 42
REMARK SMILES IDX 34 43 73 44 67 45 69 46 35 47 72 48 66 49 65 50 36 52 58 53
REMARK SMILES IDX 43 54 57 55 44 56 47 57 56 58 70 59 45 60 46 61 55 63 71 64
REMARK SMILES IDX 48 65 37 66 38 67 42 68 39 69 41 70 40 71 59 72 60 73 64 74
REMARK SMILES IDX 61 75 63 76 62 77 49 78 50 79 54 80 51 81 53 82 52 83
REMARK H PARENT 69 51 47 62
REMARK Flexibility Score: inf
ROOT
ATOM      1  C   UNL     1       7.967  -2.726   6.872  1.00  0.00     0.188 C 
ENDROOT
BRANCH   1   2
ATOM      2  O   UNL     1       7.175  -2.742   5.685  1.00  0.00    -0.377 OA
BRANCH   2   3
ATOM      3  C   UNL     1       6.816  -3.986   5.106  1.00  0.00     0.188 C 
BRANCH   3   4
ATOM      4  C   UNL     1       7.948  -4.989   4.804  1.00  0.00     0.188 C 
BRANCH   4   5
ATOM      5  O   UNL     1       9.199  -4.623   5.362  1.00  0.00    -0.376 OA
BRANCH   5   6
ATOM      6  C   UNL     1      10.222  -4.172   4.494  1.00  0.00     0.202 C 
BRANCH   6   7
ATOM      7  C   UNL     1       9.956  -2.912   3.658  1.00  0.00     0.261 C 
BRANCH   7   8
ATOM      8  O   UNL     1       8.684  -2.859   2.997  1.00  0.00    -0.460 OA
BRANCH   8   9
ATOM      9  C   UNL     1       8.507  -3.656   1.920  1.00  0.00     0.338 C 
ATOM     10  O   UNL     1       9.341  -4.393   1.428  1.00  0.00    -0.246 OA
BRANCH   9  11
ATOM     11  C   UNL     1       7.085  -3.619   1.517  1.00  0.00     0.087 C 
ATOM     12  C   UNL     1       3.050  -1.272   0.327  1.00  0.00     0.015 A 
ATOM     13  C   UNL     1       2.554  -2.435  -0.271  1.00  0.00     0.015 A 
ATOM     14  C   UNL     1       4.305  -1.265   0.948  1.00  0.00     0.023 A 
ATOM     15  C   UNL     1       3.315  -3.602  -0.248  1.00  0.00     0.048 A 
ATOM     16  C   UNL     1       5.078  -2.430   0.949  1.00  0.00     0.018 A 
ATOM     17  C   UNL     1       4.566  -3.597   0.365  1.00  0.00     0.128 A 
ATOM     18  C   UNL     1       6.460  -2.432   1.425  1.00  0.00     0.027 C 
ATOM     19  O   UNL     1       5.287  -4.758   0.287  1.00  0.00    -0.475 OA
ATOM     20  C   UNL     1       6.319  -4.909   1.300  1.00  0.00     0.316 C 
BRANCH  12  21
ATOM     21  C   UNL     1       2.264  -0.022   0.260  1.00  0.00     0.260 C 
ATOM     22  O   UNL     1       1.144   0.014  -0.233  1.00  0.00    -0.298 OA
ENDBRANCH  12  21
BRANCH  20  23
ATOM     23  C   UNL     1       7.098  -6.200   0.995  1.00  0.00     0.430 C 
ATOM     24  F   UNL     1       7.879  -6.573   2.034  1.00  0.00    -0.167 F 
ATOM     25  F   UNL     1       6.229  -7.231   0.806  1.00  0.00    -0.167 F 
ATOM     26  F   UNL     1       7.859  -6.112  -0.112  1.00  0.00    -0.167 F 
ENDBRANCH  20  23
ENDBRANCH   9  11
ENDBRANCH   8   9
ENDBRANCH   7   8
ENDBRANCH   6   7
ENDBRANCH   5   6
ENDBRANCH   4   5
ENDBRANCH   3   4
ENDBRANCH   2   3
ENDBRANCH   1   2
BRANCH   1  27
ATOM     27  C   UNL     1       8.118  -3.970   7.787  1.00  0.00     0.188 C 
BRANCH  27  28
ATOM     28  O   UNL     1       7.221  -5.032   7.508  1.00  0.00    -0.376 OA
BRANCH  28  29
ATOM     29  C   UNL     1       6.184  -5.289   8.435  1.00  0.00     0.202 C 
BRANCH  29  30
ATOM     30  C   UNL     1       5.108  -4.203   8.567  1.00  0.00     0.261 C 
BRANCH  30  31
ATOM     31  O   UNL     1       5.590  -2.877   8.832  1.00  0.00    -0.460 OA
BRANCH  31  32
ATOM     32  C   UNL     1       6.195  -2.675  10.021  1.00  0.00     0.338 C 
ATOM     33  O   UNL     1       6.370  -3.493  10.910  1.00  0.00    -0.246 OA
BRANCH  32  34
ATOM     34  C   UNL     1       6.795  -1.327   9.998  1.00  0.00     0.060 A 
ATOM     35  C   UNL     1       8.178  -1.194  10.185  1.00  0.00     0.016 A 
ATOM     36  C   UNL     1       5.994  -0.202   9.788  1.00  0.00     0.016 A 
ATOM     37  C   UNL     1       8.756   0.074  10.219  1.00  0.00     0.010 A 
ATOM     38  C   UNL     1       6.571   1.068   9.846  1.00  0.00     0.010 A 
ATOM     39  C   UNL     1       7.944   1.210  10.111  1.00  0.00    -0.014 A 
BRANCH  39  40
ATOM     40  C   UNL     1       8.481   2.523  10.537  1.00  0.00     0.031 A 
ATOM     41  C   UNL     1       8.188   2.978  11.943  1.00  0.00     0.074 A 
ATOM     42  C   UNL     1       9.238   3.279   9.725  1.00  0.00     0.049 A 
ATOM     43  N   UNL     1       8.529   4.086  12.548  1.00  0.00    -0.248 NA
ATOM     44  C   UNL     1       7.400   2.053  12.776  1.00  0.00     0.031 C 
ATOM     45  C   UNL     1       9.635   2.928   8.363  1.00  0.00     0.029 A 
ATOM     46  N   UNL     1       9.808   4.508   9.939  1.00  0.00    -0.354 N 
ATOM     47  C   UNL     1       7.987   3.995  13.825  1.00  0.00     0.074 A 
ATOM     48  C   UNL     1       7.266   2.745  13.895  1.00  0.00     0.031 C 
ATOM     49  C   UNL     1      10.385   3.925   7.860  1.00  0.00     0.029 A 
ATOM     50  C   UNL     1      10.490   4.995   8.852  1.00  0.00     0.049 A 
ATOM     51  H   UNL     1       9.735   4.995  10.791  1.00  0.00     0.167 HD
ATOM     52  C   UNL     1       8.086   4.871  14.852  1.00  0.00     0.031 A 
ATOM     53  C   UNL     1      11.113   6.176   8.676  1.00  0.00     0.031 A 
ATOM     54  C   UNL     1       8.786   6.124  14.776  1.00  0.00     0.049 A 
ATOM     55  C   UNL     1      11.142   7.172   9.807  1.00  0.00     0.074 A 
ATOM     56  C   UNL     1       8.951   7.081  15.761  1.00  0.00     0.029 A 
ATOM     57  N   UNL     1       9.429   6.599  13.643  1.00  0.00    -0.354 N 
ATOM     58  N   UNL     1      10.646   7.069  11.017  1.00  0.00    -0.248 NA
ATOM     59  C   UNL     1      11.835   8.443   9.550  1.00  0.00     0.031 C 
ATOM     60  C   UNL     1       9.639   8.164  15.204  1.00  0.00     0.029 A 
ATOM     61  C   UNL     1       9.970   7.848  13.896  1.00  0.00     0.049 A 
ATOM     62  H   UNL     1       9.491   6.119  12.785  1.00  0.00     0.167 HD
ATOM     63  C   UNL     1      11.001   8.242  11.676  1.00  0.00     0.074 A 
ATOM     64  C   UNL     1      11.764   9.034  10.734  1.00  0.00     0.031 C 
ATOM     65  C   UNL     1      10.728   8.625  12.948  1.00  0.00     0.031 A 
BRANCH  52  66
ATOM     66  C   UNL     1       7.373   4.515  16.128  1.00  0.00    -0.014 A 
ATOM     67  C   UNL     1       7.798   3.447  16.936  1.00  0.00     0.009 A 
ATOM     68  C   UNL     1       6.258   5.266  16.531  1.00  0.00     0.009 A 
ATOM     69  C   UNL     1       7.094   3.112  18.094  1.00  0.00     0.001 A 
ATOM     70  C   UNL     1       5.577   4.951  17.708  1.00  0.00     0.001 A 
ATOM     71  C   UNL     1       5.988   3.867  18.482  1.00  0.00     0.000 A 
ENDBRANCH  52  66
BRANCH  53  72
ATOM     72  C   UNL     1      11.755   6.495   7.372  1.00  0.00    -0.014 A 
ATOM     73  C   UNL     1      13.149   6.610   7.267  1.00  0.00     0.009 A 
ATOM     74  C   UNL     1      10.970   6.709   6.228  1.00  0.00     0.009 A 
ATOM     75  C   UNL     1      13.742   6.961   6.051  1.00  0.00     0.001 A 
ATOM     76  C   UNL     1      11.567   7.028   5.006  1.00  0.00     0.001 A 
ATOM     77  C   UNL     1      12.951   7.164   4.921  1.00  0.00     0.000 A 
ENDBRANCH  53  72
BRANCH  65  78
ATOM     78  C   UNL     1      11.308   9.933  13.417  1.00  0.00    -0.014 A 
ATOM     79  C   UNL     1      10.855  11.165  12.920  1.00  0.00     0.009 A 
ATOM     80  C   UNL     1      12.310   9.927  14.401  1.00  0.00     0.009 A 
ATOM     81  C   UNL     1      11.428  12.360  13.364  1.00  0.00     0.001 A 
ATOM     82  C   UNL     1      12.854  11.123  14.870  1.00  0.00     0.001 A 
ATOM     83  C   UNL     1      12.423  12.338  14.341  1.00  0.00     0.000 A 
ENDBRANCH  65  78
ENDBRANCH  39  40
ENDBRANCH  32  34
ENDBRANCH  31  32
ENDBRANCH  30  31
ENDBRANCH  29  30
ENDBRANCH  28  29
ENDBRANCH  27  28
ENDBRANCH   1  27
TORSDOF 22
