REMARK SMILES Cc1ccc(C)c(-c2cc(C(=O)OCCOCCOCCOCCOC(=O)c3ccc(-c4c5nc(c(-c6ccccc6)c6ccc([nH]6)c(-c6ccccc6)c6nc(c(-c7ccccc7)c7ccc4[nH]7)C=C6)C=C5)cc3)c3cc(C)ccc3n2)c1
REMARK SMILES IDX 20 1 19 2 18 3 17 4 16 5 15 6 14 7 13 8 11 9 12 10 10 11
REMARK SMILES IDX 8 12 9 13 83 14 82 15 76 16 81 17 77 18 80 19 78 20 79 21
REMARK SMILES IDX 7 22 1 23 2 24 3 25 84 26 4 27 5 28 6 29 21 30 22 31 23 32
REMARK SMILES IDX 24 33 25 34 26 35 27 36 28 37 29 38 75 39 30 40 74 41 31 42
REMARK SMILES IDX 32 43 33 44 68 45 34 46 73 47 67 48 69 49 35 50 72 51 66 52
REMARK SMILES IDX 65 53 36 55 58 56 43 57 57 58 44 59 47 60 56 61 70 62 45 63
REMARK SMILES IDX 46 64 55 66 71 67 48 68 37 69 38 70 42 71 39 72 41 73 40 74
REMARK SMILES IDX 59 75 60 76 64 77 61 78 63 79 62 80 49 81 50 82 54 83 51 84
REMARK SMILES IDX 53 85 52 86
REMARK H PARENT 69 54 47 65
REMARK Flexibility Score: inf
ROOT
ATOM      1  C   UNL     1      -0.356  10.058   0.968  1.00  0.00     0.188 C 
ENDROOT
BRANCH   1   2
ATOM      2  O   UNL     1      -0.650   8.743   1.423  1.00  0.00    -0.377 OA
BRANCH   2   3
ATOM      3  C   UNL     1      -0.616   7.738   0.403  1.00  0.00     0.188 C 
BRANCH   3   4
ATOM      4  C   UNL     1      -0.962   8.185  -1.034  1.00  0.00     0.188 C 
BRANCH   4   5
ATOM      5  O   UNL     1      -2.334   8.560  -1.058  1.00  0.00    -0.376 OA
BRANCH   5   6
ATOM      6  C   UNL     1      -3.031   8.201  -2.240  1.00  0.00     0.202 C 
BRANCH   6   7
ATOM      7  C   UNL     1      -3.119   6.693  -2.509  1.00  0.00     0.261 C 
BRANCH   7   8
ATOM      8  O   UNL     1      -3.197   5.878  -1.319  1.00  0.00    -0.460 OA
BRANCH   8   9
ATOM      9  C   UNL     1      -2.054   5.333  -0.829  1.00  0.00     0.338 C 
ATOM     10  O   UNL     1      -0.935   5.410  -1.310  1.00  0.00    -0.246 OA
BRANCH   9  11
ATOM     11  C   UNL     1      -2.217   4.534   0.386  1.00  0.00     0.071 A 
ATOM     12  C   UNL     1      -1.437   2.607   1.569  1.00  0.00     0.072 A 
ATOM     13  C   UNL     1      -1.312   3.483   0.519  1.00  0.00     0.045 A 
ATOM     14  N   UNL     1      -2.402   2.802   2.511  1.00  0.00    -0.248 NA
ATOM     15  C   UNL     1      -3.249   3.872   2.414  1.00  0.00     0.072 A 
ATOM     16  C   UNL     1      -3.164   4.799   1.369  1.00  0.00     0.015 A 
ATOM     17  C   UNL     1      -4.266   4.099   3.346  1.00  0.00     0.029 A 
ATOM     18  C   UNL     1      -3.988   5.947   1.347  1.00  0.00     0.014 A 
ATOM     19  C   UNL     1      -5.149   5.200   3.270  1.00  0.00     0.005 A 
ATOM     20  C   UNL     1      -4.999   6.149   2.269  1.00  0.00    -0.050 A 
ATOM     21  C   UNL     1      -5.872   7.354   2.089  1.00  0.00     0.044 C 
BRANCH  12  22
ATOM     22  C   UNL     1      -0.574   1.394   1.605  1.00  0.00     0.003 A 
ATOM     23  C   UNL     1       3.037   0.477   0.593  1.00  0.00     0.044 C 
ATOM     24  C   UNL     1       1.653   0.377   1.171  1.00  0.00    -0.050 A 
ATOM     25  C   UNL     1       1.136  -0.875   1.486  1.00  0.00     0.004 A 
ATOM     26  C   UNL     1       0.812   1.498   1.285  1.00  0.00     0.014 A 
ATOM     27  C   UNL     1      -0.219  -1.016   1.772  1.00  0.00     0.004 A 
ATOM     28  C   UNL     1      -1.090   0.093   1.777  1.00  0.00    -0.042 A 
ATOM     29  C   UNL     1      -2.564  -0.217   1.747  1.00  0.00     0.045 C 
ENDBRANCH  12  22
ENDBRANCH   9  11
ENDBRANCH   8   9
ENDBRANCH   7   8
ENDBRANCH   6   7
ENDBRANCH   5   6
ENDBRANCH   4   5
ENDBRANCH   3   4
ENDBRANCH   2   3
ENDBRANCH   1   2
BRANCH   1  30
ATOM     30  C   UNL     1       1.110  10.234   0.565  1.00  0.00     0.188 C 
BRANCH  30  31
ATOM     31  O   UNL     1       1.549   9.135  -0.230  1.00  0.00    -0.376 OA
BRANCH  31  32
ATOM     32  C   UNL     1       2.786   8.558   0.153  1.00  0.00     0.202 C 
BRANCH  32  33
ATOM     33  C   UNL     1       3.925   9.343  -0.491  1.00  0.00     0.261 C 
BRANCH  33  34
ATOM     34  O   UNL     1       3.988   9.180  -1.929  1.00  0.00    -0.460 OA
BRANCH  34  35
ATOM     35  C   UNL     1       2.861   9.462  -2.636  1.00  0.00     0.338 C 
ATOM     36  O   UNL     1       2.408  10.586  -2.816  1.00  0.00    -0.246 OA
BRANCH  35  37
ATOM     37  C   UNL     1       2.236   8.190  -3.117  1.00  0.00     0.060 A 
ATOM     38  C   UNL     1       0.995   8.192  -3.759  1.00  0.00     0.016 A 
ATOM     39  C   UNL     1       2.830   6.962  -2.801  1.00  0.00     0.016 A 
ATOM     40  C   UNL     1       0.336   6.970  -4.002  1.00  0.00     0.010 A 
ATOM     41  C   UNL     1       2.145   5.762  -2.974  1.00  0.00     0.010 A 
ATOM     42  C   UNL     1       0.881   5.737  -3.564  1.00  0.00    -0.014 A 
BRANCH  42  43
ATOM     43  C   UNL     1       0.503   4.385  -4.082  1.00  0.00     0.031 A 
ATOM     44  C   UNL     1       0.435   4.548  -5.537  1.00  0.00     0.074 A 
ATOM     45  C   UNL     1      -0.334   3.383  -3.693  1.00  0.00     0.049 A 
ATOM     46  N   UNL     1      -0.652   4.845  -6.174  1.00  0.00    -0.248 NA
ATOM     47  C   UNL     1       1.671   4.691  -6.309  1.00  0.00     0.031 C 
ATOM     48  C   UNL     1      -1.599   3.496  -3.022  1.00  0.00     0.029 A 
ATOM     49  N   UNL     1      -0.083   1.996  -3.630  1.00  0.00    -0.354 N 
ATOM     50  C   UNL     1      -0.281   4.769  -7.492  1.00  0.00     0.074 A 
ATOM     51  C   UNL     1       1.159   4.939  -7.517  1.00  0.00     0.031 C 
ATOM     52  C   UNL     1      -1.908   2.357  -2.390  1.00  0.00     0.029 A 
ATOM     53  C   UNL     1      -0.941   1.319  -2.727  1.00  0.00     0.049 A 
ATOM     54  H   UNL     1       0.615   1.545  -4.157  1.00  0.00     0.167 HD
ATOM     55  C   UNL     1      -1.062   3.974  -8.267  1.00  0.00     0.031 A 
ATOM     56  C   UNL     1      -1.438   0.051  -2.761  1.00  0.00     0.031 A 
ATOM     57  C   UNL     1      -2.441   3.922  -7.827  1.00  0.00     0.049 A 
ATOM     58  C   UNL     1      -2.472  -0.016  -3.831  1.00  0.00     0.074 A 
ATOM     59  C   UNL     1      -3.508   4.798  -7.798  1.00  0.00     0.029 A 
ATOM     60  N   UNL     1      -2.746   2.914  -6.947  1.00  0.00    -0.354 N 
ATOM     61  N   UNL     1      -3.654   0.533  -3.790  1.00  0.00    -0.248 NA
ATOM     62  C   UNL     1      -2.009  -0.413  -5.160  1.00  0.00     0.031 C 
ATOM     63  C   UNL     1      -4.480   4.257  -6.905  1.00  0.00     0.029 A 
ATOM     64  C   UNL     1      -4.005   3.051  -6.408  1.00  0.00     0.049 A 
ATOM     65  H   UNL     1      -2.134   2.175  -6.726  1.00  0.00     0.167 HD
ATOM     66  C   UNL     1      -3.836   0.985  -5.086  1.00  0.00     0.074 A 
ATOM     67  C   UNL     1      -2.890   0.248  -5.908  1.00  0.00     0.031 C 
ATOM     68  C   UNL     1      -4.455   2.168  -5.352  1.00  0.00     0.031 A 
BRANCH  55  69
ATOM     69  C   UNL     1      -0.405   2.822  -8.975  1.00  0.00    -0.014 A 
ATOM     70  C   UNL     1      -1.030   2.235 -10.073  1.00  0.00     0.009 A 
ATOM     71  C   UNL     1       0.730   2.160  -8.447  1.00  0.00     0.009 A 
ATOM     72  C   UNL     1      -0.505   1.070 -10.646  1.00  0.00     0.001 A 
ATOM     73  C   UNL     1       1.285   1.034  -9.041  1.00  0.00     0.001 A 
ATOM     74  C   UNL     1       0.659   0.483 -10.145  1.00  0.00     0.000 A 
ENDBRANCH  55  69
BRANCH  56  75
ATOM     75  C   UNL     1      -0.795  -1.166  -2.238  1.00  0.00    -0.014 A 
ATOM     76  C   UNL     1      -1.603  -2.244  -1.825  1.00  0.00     0.009 A 
ATOM     77  C   UNL     1       0.588  -1.278  -2.071  1.00  0.00     0.009 A 
ATOM     78  C   UNL     1      -1.041  -3.403  -1.278  1.00  0.00     0.001 A 
ATOM     79  C   UNL     1       1.152  -2.445  -1.541  1.00  0.00     0.001 A 
ATOM     80  C   UNL     1       0.340  -3.505  -1.143  1.00  0.00     0.000 A 
ENDBRANCH  56  75
BRANCH  68  81
ATOM     81  C   UNL     1      -5.588   2.585  -4.466  1.00  0.00    -0.014 A 
ATOM     82  C   UNL     1      -5.440   3.110  -3.176  1.00  0.00     0.009 A 
ATOM     83  C   UNL     1      -6.883   2.485  -4.994  1.00  0.00     0.009 A 
ATOM     84  C   UNL     1      -6.553   3.509  -2.427  1.00  0.00     0.001 A 
ATOM     85  C   UNL     1      -7.995   2.896  -4.256  1.00  0.00     0.001 A 
ATOM     86  C   UNL     1      -7.830   3.406  -2.971  1.00  0.00     0.000 A 
ENDBRANCH  68  81
ENDBRANCH  42  43
ENDBRANCH  35  37
ENDBRANCH  34  35
ENDBRANCH  33  34
ENDBRANCH  32  33
ENDBRANCH  31  32
ENDBRANCH  30  31
ENDBRANCH   1  30
TORSDOF 21
