REMARK SMILES Cc1cc(C(=O)N2CCO[C@H](CC(=O)OCCOCCOCCOCCOC(=O)c3ccc(-c4c5nc(c(-c6ccccc6)c6ccc([nH]6)c(-c6ccccc6)c6nc(c(-c7ccccc7)c7ccc4[nH]7)C=C6)C=C5)cc3)C2)n(C)n1
REMARK SMILES IDX 20 1 19 2 18 3 17 4 16 5 15 6 13 7 14 8 12 9 11 10 7 11 8 12
REMARK SMILES IDX 78 13 9 14 10 15 5 16 6 17 4 18 1 19 2 20 3 21 81 22 79 23
REMARK SMILES IDX 80 24 21 25 22 26 23 27 24 28 25 29 26 30 27 31 28 32 29 33
REMARK SMILES IDX 30 34 31 35 77 36 32 37 76 38 33 39 34 40 35 41 70 42 36 43
REMARK SMILES IDX 75 44 69 45 71 46 37 47 74 48 68 49 67 50 38 52 60 53 45 54
REMARK SMILES IDX 59 55 46 56 49 57 58 58 72 59 47 60 48 61 57 63 73 64 50 65
REMARK SMILES IDX 39 66 40 67 44 68 41 69 43 70 42 71 61 72 62 73 66 74 63 75
REMARK SMILES IDX 65 76 64 77 51 78 52 79 56 80 53 81 55 82 54 83
REMARK H PARENT 71 51 49 62
REMARK Flexibility Score: inf
ROOT
ATOM      1  C   UNL     1       0.853  -6.787   4.268  1.00  0.00     0.188 C 
ENDROOT
BRANCH   1   2
ATOM      2  C   UNL     1       0.004  -6.139   5.371  1.00  0.00     0.188 C 
BRANCH   2   3
ATOM      3  O   UNL     1      -1.011  -6.895   6.001  1.00  0.00    -0.376 OA
BRANCH   3   4
ATOM      4  C   UNL     1      -2.222  -7.220   5.330  1.00  0.00     0.202 C 
BRANCH   4   5
ATOM      5  C   UNL     1      -2.767  -6.457   4.111  1.00  0.00     0.261 C 
BRANCH   5   6
ATOM      6  O   UNL     1      -1.789  -6.099   3.128  1.00  0.00    -0.463 OA
BRANCH   6   7
ATOM      7  C   UNL     1      -1.725  -4.788   2.809  1.00  0.00     0.308 C 
ATOM      8  O   UNL     1      -2.499  -3.933   3.231  1.00  0.00    -0.252 OA
BRANCH   7   9
ATOM      9  C   UNL     1      -0.499  -4.396   2.030  1.00  0.00     0.156 C 
BRANCH   9  10
ATOM     10  C   UNL     1       0.149  -5.395   1.060  1.00  0.00     0.148 C 
ATOM     11  N   UNL     1       1.032  -3.637  -0.382  1.00  0.00    -0.332 N 
ATOM     12  C   UNL     1       0.101  -4.002  -1.450  1.00  0.00     0.148 C 
ATOM     13  C   UNL     1       1.429  -4.766   0.455  1.00  0.00     0.152 C 
ATOM     14  C   UNL     1      -1.099  -4.801  -0.914  1.00  0.00     0.182 C 
ATOM     15  O   UNL     1      -0.725  -5.833   0.004  1.00  0.00    -0.374 OA
BRANCH  11  16
ATOM     16  C   UNL     1       1.536  -2.373  -0.098  1.00  0.00     0.272 C 
ATOM     17  O   UNL     1       2.662  -2.263   0.386  1.00  0.00    -0.267 OA
BRANCH  16  18
ATOM     18  C   UNL     1       0.646  -1.235  -0.234  1.00  0.00     0.126 A 
ATOM     19  C   UNL     1      -2.459   0.744  -0.066  1.00  0.00     0.069 C 
ATOM     20  C   UNL     1      -1.099   0.170  -0.180  1.00  0.00     0.060 A 
ATOM     21  C   UNL     1      -0.740  -1.187  -0.218  1.00  0.00     0.059 A 
ATOM     22  N   UNL     1      -0.022   0.953  -0.221  1.00  0.00    -0.178 NA
ATOM     23  N   UNL     1       1.022   0.092  -0.219  1.00  0.00    -0.263 N 
ATOM     24  C   UNL     1       2.344   0.672  -0.159  1.00  0.00     0.174 C 
ENDBRANCH  16  18
ENDBRANCH  11  16
ENDBRANCH   9  10
ENDBRANCH   7   9
ENDBRANCH   6   7
ENDBRANCH   5   6
ENDBRANCH   4   5
ENDBRANCH   3   4
ENDBRANCH   2   3
ENDBRANCH   1   2
BRANCH   1  25
ATOM     25  O   UNL     1       0.207  -7.728   3.437  1.00  0.00    -0.377 OA
BRANCH  25  26
ATOM     26  C   UNL     1       0.041  -9.073   3.859  1.00  0.00     0.188 C 
BRANCH  26  27
ATOM     27  C   UNL     1       0.486  -9.524   5.262  1.00  0.00     0.188 C 
BRANCH  27  28
ATOM     28  O   UNL     1       1.660  -8.898   5.745  1.00  0.00    -0.376 OA
BRANCH  28  29
ATOM     29  C   UNL     1       2.915  -9.523   5.524  1.00  0.00     0.202 C 
BRANCH  29  30
ATOM     30  C   UNL     1       3.351  -9.782   4.074  1.00  0.00     0.261 C 
BRANCH  30  31
ATOM     31  O   UNL     1       2.519 -10.655   3.292  1.00  0.00    -0.460 OA
BRANCH  31  32
ATOM     32  C   UNL     1       2.234 -11.880   3.776  1.00  0.00     0.338 C 
ATOM     33  O   UNL     1       2.655 -12.393   4.800  1.00  0.00    -0.246 OA
BRANCH  32  34
ATOM     34  C   UNL     1       1.163 -12.451   2.937  1.00  0.00     0.060 A 
ATOM     35  C   UNL     1      -0.070 -12.776   3.521  1.00  0.00     0.016 A 
ATOM     36  C   UNL     1       1.386 -12.681   1.579  1.00  0.00     0.016 A 
ATOM     37  C   UNL     1      -1.069 -13.378   2.756  1.00  0.00     0.010 A 
ATOM     38  C   UNL     1       0.395 -13.303   0.819  1.00  0.00     0.010 A 
ATOM     39  C   UNL     1      -0.820 -13.692   1.414  1.00  0.00    -0.014 A 
BRANCH  39  40
ATOM     40  C   UNL     1      -1.706 -14.632   0.688  1.00  0.00     0.031 A 
ATOM     41  C   UNL     1      -1.281 -16.072   0.601  1.00  0.00     0.074 A 
ATOM     42  C   UNL     1      -2.848 -14.227   0.106  1.00  0.00     0.049 A 
ATOM     43  N   UNL     1      -1.805 -17.056  -0.082  1.00  0.00    -0.248 NA
ATOM     44  C   UNL     1      -0.094 -16.448   1.388  1.00  0.00     0.031 C 
ATOM     45  C   UNL     1      -3.407 -12.879   0.176  1.00  0.00     0.029 A 
ATOM     46  N   UNL     1      -3.736 -14.923  -0.676  1.00  0.00    -0.354 N 
ATOM     47  C   UNL     1      -1.001 -18.160   0.177  1.00  0.00     0.074 A 
ATOM     48  C   UNL     1       0.060 -17.720   1.054  1.00  0.00     0.031 C 
ATOM     49  C   UNL     1      -4.540 -12.842  -0.549  1.00  0.00     0.029 A 
ATOM     50  C   UNL     1      -4.756 -14.148  -1.170  1.00  0.00     0.049 A 
ATOM     51  H   UNL     1      -3.650 -15.885  -0.865  1.00  0.00     0.167 HD
ATOM     52  C   UNL     1      -1.134 -19.429  -0.275  1.00  0.00     0.031 A 
ATOM     53  C   UNL     1      -5.731 -14.453  -2.050  1.00  0.00     0.031 A 
ATOM     54  C   UNL     1      -2.178 -19.858  -1.165  1.00  0.00     0.049 A 
ATOM     55  C   UNL     1      -5.796 -15.844  -2.629  1.00  0.00     0.074 A 
ATOM     56  C   UNL     1      -2.402 -21.121  -1.685  1.00  0.00     0.029 A 
ATOM     57  N   UNL     1      -3.167 -19.032  -1.674  1.00  0.00    -0.354 N 
ATOM     58  N   UNL     1      -5.036 -16.883  -2.377  1.00  0.00    -0.248 NA
ATOM     59  C   UNL     1      -6.858 -16.105  -3.613  1.00  0.00     0.031 C 
ATOM     60  C   UNL     1      -3.489 -21.043  -2.560  1.00  0.00     0.029 A 
ATOM     61  C   UNL     1      -3.989 -19.751  -2.523  1.00  0.00     0.049 A 
ATOM     62  H   UNL     1      -3.269 -18.075  -1.463  1.00  0.00     0.167 HD
ATOM     63  C   UNL     1      -5.555 -17.928  -3.134  1.00  0.00     0.074 A 
ATOM     64  C   UNL     1      -6.694 -17.398  -3.854  1.00  0.00     0.031 C 
ATOM     65  C   UNL     1      -5.131 -19.213  -3.218  1.00  0.00     0.031 A 
BRANCH  52  66
ATOM     66  C   UNL     1      -0.093 -20.427   0.152  1.00  0.00    -0.014 A 
ATOM     67  C   UNL     1       0.001 -20.865   1.482  1.00  0.00     0.009 A 
ATOM     68  C   UNL     1       0.800 -20.947  -0.798  1.00  0.00     0.009 A 
ATOM     69  C   UNL     1       0.996 -21.770   1.860  1.00  0.00     0.001 A 
ATOM     70  C   UNL     1       1.770 -21.878  -0.425  1.00  0.00     0.001 A 
ATOM     71  C   UNL     1       1.875 -22.280   0.906  1.00  0.00     0.000 A 
ENDBRANCH  52  66
BRANCH  53  72
ATOM     72  C   UNL     1      -6.718 -13.419  -2.463  1.00  0.00    -0.014 A 
ATOM     73  C   UNL     1      -8.071 -13.541  -2.107  1.00  0.00     0.009 A 
ATOM     74  C   UNL     1      -6.321 -12.318  -3.238  1.00  0.00     0.009 A 
ATOM     75  C   UNL     1      -9.007 -12.599  -2.542  1.00  0.00     0.001 A 
ATOM     76  C   UNL     1      -7.253 -11.360  -3.644  1.00  0.00     0.001 A 
ATOM     77  C   UNL     1      -8.597 -11.507  -3.305  1.00  0.00     0.000 A 
ENDBRANCH  53  72
BRANCH  65  78
ATOM     78  C   UNL     1      -5.937 -20.166  -4.059  1.00  0.00    -0.014 A 
ATOM     79  C   UNL     1      -5.923 -20.108  -5.460  1.00  0.00     0.009 A 
ATOM     80  C   UNL     1      -6.659 -21.193  -3.428  1.00  0.00     0.009 A 
ATOM     81  C   UNL     1      -6.635 -21.047  -6.211  1.00  0.00     0.001 A 
ATOM     82  C   UNL     1      -7.342 -22.148  -4.181  1.00  0.00     0.001 A 
ATOM     83  C   UNL     1      -7.335 -22.071  -5.572  1.00  0.00     0.000 A 
ENDBRANCH  65  78
ENDBRANCH  39  40
ENDBRANCH  32  34
ENDBRANCH  31  32
ENDBRANCH  30  31
ENDBRANCH  29  30
ENDBRANCH  28  29
ENDBRANCH  27  28
ENDBRANCH  26  27
ENDBRANCH  25  26
ENDBRANCH   1  25
TORSDOF 23
