REMARK SMILES Cc1ccc(-c2cc(Cl)ccc2Cl)c(C(=O)OCCOCCOCCOCCOC(=O)c2ccc(-c3c4nc(c(-c5ccccc5)c5ccc([nH]5)c(-c5ccccc5)c5nc(c(-c6ccccc6)c6ccc3[nH]6)C=C5)C=C4)cc2)c1
REMARK SMILES IDX 24 1 23 2 22 3 21 4 20 5 19 6 18 7 17 8 15 9 16 10 14 11
REMARK SMILES IDX 1 12 2 13 3 14 80 15 4 16 5 17 6 18 7 19 12 20 8 21 11 22
REMARK SMILES IDX 13 23 9 24 10 25 25 26 26 27 27 28 28 29 29 30 30 31 31 32
REMARK SMILES IDX 32 33 33 34 79 35 34 36 78 37 35 38 36 39 37 40 72 41 38 42
REMARK SMILES IDX 77 43 71 44 73 45 39 46 76 47 70 48 69 49 40 51 62 52 47 53
REMARK SMILES IDX 61 54 48 55 51 56 60 57 74 58 49 59 50 60 59 62 75 63 52 64
REMARK SMILES IDX 41 65 42 66 46 67 43 68 45 69 44 70 63 71 64 72 68 73 65 74
REMARK SMILES IDX 67 75 66 76 53 77 54 78 58 79 55 80 57 81 56 82
REMARK H PARENT 73 50 51 61
REMARK Flexibility Score: inf
ROOT
ATOM      1  C   UNL     1      -0.340   3.635  -3.046  1.00  0.00     0.188 C 
ENDROOT
BRANCH   1   2
ATOM      2  O   UNL     1       0.230   2.325  -3.037  1.00  0.00    -0.377 OA
BRANCH   2   3
ATOM      3  C   UNL     1      -0.730   1.263  -3.052  1.00  0.00     0.188 C 
BRANCH   3   4
ATOM      4  C   UNL     1      -1.632   1.264  -1.828  1.00  0.00     0.188 C 
BRANCH   4   5
ATOM      5  O   UNL     1      -3.003   1.569  -2.099  1.00  0.00    -0.376 OA
BRANCH   5   6
ATOM      6  C   UNL     1      -3.575   2.481  -1.155  1.00  0.00     0.202 C 
BRANCH   6   7
ATOM      7  C   UNL     1      -3.730   1.982   0.283  1.00  0.00     0.261 C 
BRANCH   7   8
ATOM      8  O   UNL     1      -2.476   1.491   0.754  1.00  0.00    -0.460 OA
BRANCH   8   9
ATOM      9  C   UNL     1      -2.549   0.386   1.520  1.00  0.00     0.338 C 
ATOM     10  O   UNL     1      -3.414   0.084   2.299  1.00  0.00    -0.246 OA
BRANCH   9  11
ATOM     11  C   UNL     1      -1.562  -0.553   0.958  1.00  0.00     0.068 A 
ATOM     12  C   UNL     1       2.115  -0.438   0.050  1.00  0.00     0.044 C 
ATOM     13  C   UNL     1       0.703  -0.926   0.205  1.00  0.00    -0.050 A 
ATOM     14  C   UNL     1       0.273  -2.136  -0.360  1.00  0.00     0.004 A 
ATOM     15  C   UNL     1      -0.217  -0.158   0.914  1.00  0.00     0.019 A 
ATOM     16  C   UNL     1      -1.085  -2.515  -0.341  1.00  0.00     0.010 A 
ATOM     17  C   UNL     1      -2.043  -1.702   0.274  1.00  0.00    -0.002 A 
BRANCH  17  18
ATOM     18  C   UNL     1      -3.510  -1.864   0.048  1.00  0.00     0.003 A 
ATOM     19  C   UNL     1      -4.074  -1.306  -1.124  1.00  0.00     0.030 A 
ATOM     20  C   UNL     1      -4.396  -2.215   1.084  1.00  0.00     0.049 A 
ATOM     21  C   UNL     1      -5.419  -0.923  -1.167  1.00  0.00     0.041 A 
ATOM     22  C   UNL     1      -5.738  -1.804   1.046  1.00  0.00     0.023 A 
ATOM     23  Cl  UNL     1      -3.842  -3.049   2.495  1.00  0.00    -0.084 Cl
ATOM     24  Cl  UNL     1      -6.036  -0.082  -2.539  1.00  0.00    -0.084 Cl
ATOM     25  C   UNL     1      -6.239  -1.120  -0.062  1.00  0.00     0.022 A 
ENDBRANCH  17  18
ENDBRANCH   9  11
ENDBRANCH   8   9
ENDBRANCH   7   8
ENDBRANCH   6   7
ENDBRANCH   5   6
ENDBRANCH   4   5
ENDBRANCH   3   4
ENDBRANCH   2   3
ENDBRANCH   1   2
BRANCH   1  26
ATOM     26  C   UNL     1      -1.093   3.916  -4.336  1.00  0.00     0.188 C 
BRANCH  26  27
ATOM     27  O   UNL     1      -2.450   3.505  -4.189  1.00  0.00    -0.376 OA
BRANCH  27  28
ATOM     28  C   UNL     1      -3.071   2.953  -5.349  1.00  0.00     0.202 C 
BRANCH  28  29
ATOM     29  C   UNL     1      -3.042   3.873  -6.577  1.00  0.00     0.261 C 
BRANCH  29  30
ATOM     30  O   UNL     1      -3.778   5.083  -6.303  1.00  0.00    -0.460 OA
BRANCH  30  31
ATOM     31  C   UNL     1      -3.024   6.146  -5.907  1.00  0.00     0.338 C 
ATOM     32  O   UNL     1      -2.038   6.566  -6.490  1.00  0.00    -0.246 OA
BRANCH  31  33
ATOM     33  C   UNL     1      -3.384   6.526  -4.506  1.00  0.00     0.060 A 
ATOM     34  C   UNL     1      -2.546   7.384  -3.770  1.00  0.00     0.016 A 
ATOM     35  C   UNL     1      -4.319   5.752  -3.835  1.00  0.00     0.016 A 
ATOM     36  C   UNL     1      -2.519   7.318  -2.363  1.00  0.00     0.010 A 
ATOM     37  C   UNL     1      -4.209   5.627  -2.465  1.00  0.00     0.010 A 
ATOM     38  C   UNL     1      -3.287   6.364  -1.701  1.00  0.00    -0.014 A 
BRANCH  38  39
ATOM     39  C   UNL     1      -3.155   5.940  -0.282  1.00  0.00     0.031 A 
ATOM     40  C   UNL     1      -4.423   5.719   0.517  1.00  0.00     0.074 A 
ATOM     41  C   UNL     1      -1.988   5.378   0.149  1.00  0.00     0.049 A 
ATOM     42  N   UNL     1      -4.480   5.191   1.692  1.00  0.00    -0.248 NA
ATOM     43  C   UNL     1      -5.773   6.021   0.021  1.00  0.00     0.031 C 
ATOM     44  C   UNL     1      -1.848   4.370   1.210  1.00  0.00     0.029 A 
ATOM     45  N   UNL     1      -0.673   5.474  -0.276  1.00  0.00    -0.354 N 
ATOM     46  C   UNL     1      -5.757   4.699   1.887  1.00  0.00     0.074 A 
ATOM     47  C   UNL     1      -6.549   5.329   0.865  1.00  0.00     0.031 C 
ATOM     48  C   UNL     1      -0.563   4.041   1.413  1.00  0.00     0.029 A 
ATOM     49  C   UNL     1       0.193   5.067   0.753  1.00  0.00     0.049 A 
ATOM     50  H   UNL     1      -0.387   5.782  -1.167  1.00  0.00     0.167 HD
ATOM     51  C   UNL     1      -5.955   3.693   2.792  1.00  0.00     0.031 A 
ATOM     52  C   UNL     1       0.967   5.941   1.476  1.00  0.00     0.031 A 
ATOM     53  C   UNL     1      -4.765   3.454   3.623  1.00  0.00     0.049 A 
ATOM     54  C   UNL     1       0.474   6.038   2.927  1.00  0.00     0.074 A 
ATOM     55  C   UNL     1      -4.057   2.333   4.008  1.00  0.00     0.029 A 
ATOM     56  N   UNL     1      -4.025   4.536   4.100  1.00  0.00    -0.354 N 
ATOM     57  N   UNL     1      -0.777   5.827   3.270  1.00  0.00    -0.248 NA
ATOM     58  C   UNL     1       1.334   6.179   4.105  1.00  0.00     0.031 C 
ATOM     59  C   UNL     1      -2.782   2.752   4.482  1.00  0.00     0.029 A 
ATOM     60  C   UNL     1      -2.790   4.136   4.558  1.00  0.00     0.049 A 
ATOM     61  H   UNL     1      -4.346   5.467   4.109  1.00  0.00     0.167 HD
ATOM     62  C   UNL     1      -0.858   5.618   4.619  1.00  0.00     0.074 A 
ATOM     63  C   UNL     1       0.469   5.943   5.113  1.00  0.00     0.031 C 
ATOM     64  C   UNL     1      -1.935   5.077   5.262  1.00  0.00     0.031 A 
BRANCH  51  65
ATOM     65  C   UNL     1      -7.162   2.757   2.812  1.00  0.00    -0.014 A 
ATOM     66  C   UNL     1      -7.301   1.820   3.858  1.00  0.00     0.009 A 
ATOM     67  C   UNL     1      -8.132   2.664   1.795  1.00  0.00     0.009 A 
ATOM     68  C   UNL     1      -8.325   0.857   3.888  1.00  0.00     0.001 A 
ATOM     69  C   UNL     1      -9.188   1.732   1.840  1.00  0.00     0.001 A 
ATOM     70  C   UNL     1      -9.279   0.822   2.883  1.00  0.00     0.000 A 
ENDBRANCH  51  65
BRANCH  52  71
ATOM     71  C   UNL     1       1.573   6.974   0.582  1.00  0.00    -0.014 A 
ATOM     72  C   UNL     1       2.521   6.457  -0.334  1.00  0.00     0.009 A 
ATOM     73  C   UNL     1       0.803   8.079   0.186  1.00  0.00     0.009 A 
ATOM     74  C   UNL     1       2.474   6.821  -1.684  1.00  0.00     0.001 A 
ATOM     75  C   UNL     1       0.796   8.469  -1.163  1.00  0.00     0.001 A 
ATOM     76  C   UNL     1       1.568   7.787  -2.107  1.00  0.00     0.000 A 
ENDBRANCH  52  71
BRANCH  64  77
ATOM     77  C   UNL     1      -2.316   5.369   6.692  1.00  0.00    -0.014 A 
ATOM     78  C   UNL     1      -1.830   6.478   7.388  1.00  0.00     0.009 A 
ATOM     79  C   UNL     1      -3.401   4.668   7.277  1.00  0.00     0.009 A 
ATOM     80  C   UNL     1      -2.391   6.859   8.612  1.00  0.00     0.001 A 
ATOM     81  C   UNL     1      -3.992   5.073   8.471  1.00  0.00     0.001 A 
ATOM     82  C   UNL     1      -3.479   6.170   9.143  1.00  0.00     0.000 A 
ENDBRANCH  64  77
ENDBRANCH  38  39
ENDBRANCH  31  33
ENDBRANCH  30  31
ENDBRANCH  29  30
ENDBRANCH  28  29
ENDBRANCH  27  28
ENDBRANCH  26  27
ENDBRANCH   1  26
TORSDOF 21
