REMARK SMILES Cc1c(CC(=O)OCCOCCOCCOCCOC(=O)c2ccc(-c3c4nc(c(-c5ccccc5)c5ccc([nH]5)c(-c5ccccc5)c5nc(c(-c6ccccc6)c6ccc3[nH]6)C=C5)C=C4)cc2)c2ccccc2n1C(=O)c1ccc(Cl)cc1
REMARK SMILES IDX 12 1 11 2 10 3 9 4 8 5 7 6 5 7 6 8 4 9 3 10 1 11 2 12 76 13
REMARK SMILES IDX 70 14 75 15 71 16 74 17 72 18 73 19 77 20 78 21 79 22 80 23
REMARK SMILES IDX 85 24 81 25 84 26 82 27 83 28 13 29 14 30 15 31 16 32 17 33
REMARK SMILES IDX 18 34 19 35 20 36 21 37 22 38 23 39 69 40 24 41 68 42 25 43
REMARK SMILES IDX 26 44 27 45 62 46 28 47 67 48 61 49 63 50 29 51 66 52 60 53
REMARK SMILES IDX 59 54 30 56 52 57 37 58 51 59 38 60 41 61 50 62 64 63 39 64
REMARK SMILES IDX 40 65 49 67 65 68 42 69 31 70 32 71 36 72 33 73 35 74 34 75
REMARK SMILES IDX 53 76 54 77 58 78 55 79 57 80 56 81 43 82 44 83 48 84 45 85
REMARK SMILES IDX 47 86 46 87
REMARK H PARENT 63 55 41 66
REMARK Flexibility Score: inf
ROOT
ATOM      1  C   UNL     1      -1.423  -2.741  -3.727  1.00  0.00     0.188 C 
ENDROOT
BRANCH   1   2
ATOM      2  C   UNL     1      -1.377  -4.267  -3.687  1.00  0.00     0.188 C 
BRANCH   2   3
ATOM      3  O   UNL     1      -2.421  -4.872  -2.956  1.00  0.00    -0.376 OA
BRANCH   3   4
ATOM      4  C   UNL     1      -2.335  -5.080  -1.557  1.00  0.00     0.202 C 
BRANCH   4   5
ATOM      5  C   UNL     1      -1.820  -4.036  -0.544  1.00  0.00     0.261 C 
BRANCH   5   6
ATOM      6  O   UNL     1      -0.769  -3.144  -0.946  1.00  0.00    -0.463 OA
BRANCH   6   7
ATOM      7  C   UNL     1       0.512  -3.555  -0.832  1.00  0.00     0.310 C 
ATOM      8  O   UNL     1       0.819  -4.671  -0.420  1.00  0.00    -0.252 OA
BRANCH   7   9
ATOM      9  C   UNL     1       1.566  -2.544  -1.284  1.00  0.00     0.160 C 
BRANCH   9  10
ATOM     10  C   UNL     1       1.146  -1.197  -1.849  1.00  0.00    -0.008 A 
ATOM     11  C   UNL     1       0.739   0.107   0.347  1.00  0.00     0.065 C 
ATOM     12  C   UNL     1       0.780  -0.059  -1.139  1.00  0.00     0.028 A 
ATOM     13  N   UNL     1       0.487   0.983  -2.038  1.00  0.00    -0.280 N 
ATOM     14  C   UNL     1       1.136  -0.824  -3.234  1.00  0.00     0.004 A 
ATOM     15  C   UNL     1       0.572   0.454  -3.337  1.00  0.00     0.056 A 
ATOM     16  C   UNL     1       1.482  -1.510  -4.426  1.00  0.00     0.010 A 
ATOM     17  C   UNL     1       0.241   0.983  -4.605  1.00  0.00     0.027 A 
ATOM     18  C   UNL     1       1.152  -0.974  -5.676  1.00  0.00     0.001 A 
ATOM     19  C   UNL     1       0.513   0.249  -5.760  1.00  0.00     0.002 A 
BRANCH  13  20
ATOM     20  C   UNL     1       0.214   2.344  -1.700  1.00  0.00     0.262 C 
ATOM     21  O   UNL     1       0.330   2.707  -0.530  1.00  0.00    -0.268 OA
BRANCH  20  22
ATOM     22  C   UNL     1      -0.152   3.398  -2.664  1.00  0.00     0.040 A 
ATOM     23  C   UNL     1      -1.485   3.538  -3.069  1.00  0.00     0.015 A 
ATOM     24  C   UNL     1       0.848   4.222  -3.193  1.00  0.00     0.015 A 
ATOM     25  C   UNL     1      -1.804   4.463  -4.068  1.00  0.00     0.021 A 
ATOM     26  C   UNL     1       0.520   5.149  -4.187  1.00  0.00     0.021 A 
ATOM     27  C   UNL     1      -0.800   5.253  -4.631  1.00  0.00     0.041 A 
ATOM     28  Cl  UNL     1      -1.187   6.348  -5.901  1.00  0.00    -0.084 Cl
ENDBRANCH  20  22
ENDBRANCH  13  20
ENDBRANCH   9  10
ENDBRANCH   7   9
ENDBRANCH   6   7
ENDBRANCH   5   6
ENDBRANCH   4   5
ENDBRANCH   3   4
ENDBRANCH   2   3
ENDBRANCH   1   2
BRANCH   1  29
ATOM     29  O   UNL     1      -2.604  -2.000  -3.891  1.00  0.00    -0.377 OA
BRANCH  29  30
ATOM     30  C   UNL     1      -3.819  -2.639  -3.638  1.00  0.00     0.188 C 
BRANCH  30  31
ATOM     31  C   UNL     1      -4.400  -3.375  -4.847  1.00  0.00     0.188 C 
BRANCH  31  32
ATOM     32  O   UNL     1      -3.954  -3.123  -6.176  1.00  0.00    -0.376 OA
BRANCH  32  33
ATOM     33  C   UNL     1      -3.333  -1.898  -6.538  1.00  0.00     0.202 C 
BRANCH  33  34
ATOM     34  C   UNL     1      -4.074  -0.555  -6.371  1.00  0.00     0.261 C 
BRANCH  34  35
ATOM     35  O   UNL     1      -4.819  -0.436  -5.159  1.00  0.00    -0.460 OA
BRANCH  35  36
ATOM     36  C   UNL     1      -6.143  -0.138  -5.257  1.00  0.00     0.338 C 
ATOM     37  O   UNL     1      -6.756   0.260  -6.214  1.00  0.00    -0.246 OA
BRANCH  36  38
ATOM     38  C   UNL     1      -6.742  -0.731  -4.040  1.00  0.00     0.060 A 
ATOM     39  C   UNL     1      -6.306  -0.353  -2.765  1.00  0.00     0.016 A 
ATOM     40  C   UNL     1      -7.460  -1.916  -4.241  1.00  0.00     0.016 A 
ATOM     41  C   UNL     1      -6.476  -1.247  -1.710  1.00  0.00     0.010 A 
ATOM     42  C   UNL     1      -7.593  -2.821  -3.193  1.00  0.00     0.010 A 
ATOM     43  C   UNL     1      -7.065  -2.506  -1.938  1.00  0.00    -0.014 A 
BRANCH  43  44
ATOM     44  C   UNL     1      -7.388  -3.340  -0.775  1.00  0.00     0.031 A 
ATOM     45  C   UNL     1      -8.431  -2.716   0.081  1.00  0.00     0.074 A 
ATOM     46  C   UNL     1      -7.004  -4.614  -0.553  1.00  0.00     0.049 A 
ATOM     47  N   UNL     1      -8.406  -2.502   1.355  1.00  0.00    -0.248 NA
ATOM     48  C   UNL     1      -9.610  -2.163  -0.612  1.00  0.00     0.031 C 
ATOM     49  C   UNL     1      -6.233  -5.478  -1.446  1.00  0.00     0.029 A 
ATOM     50  N   UNL     1      -7.338  -5.452   0.483  1.00  0.00    -0.354 N 
ATOM     51  C   UNL     1      -9.632  -1.917   1.648  1.00  0.00     0.074 A 
ATOM     52  C   UNL     1     -10.261  -1.591   0.395  1.00  0.00     0.031 C 
ATOM     53  C   UNL     1      -6.330  -6.757  -1.020  1.00  0.00     0.029 A 
ATOM     54  C   UNL     1      -7.115  -6.797   0.205  1.00  0.00     0.049 A 
ATOM     55  H   UNL     1      -7.701  -5.132   1.340  1.00  0.00     0.167 HD
ATOM     56  C   UNL     1     -10.173  -1.933   2.892  1.00  0.00     0.031 A 
ATOM     57  C   UNL     1      -7.614  -7.874   0.865  1.00  0.00     0.031 A 
ATOM     58  C   UNL     1      -9.197  -2.163   3.916  1.00  0.00     0.049 A 
ATOM     59  C   UNL     1      -8.074  -7.437   2.201  1.00  0.00     0.074 A 
ATOM     60  C   UNL     1      -8.058  -1.500   4.326  1.00  0.00     0.029 A 
ATOM     61  N   UNL     1      -9.142  -3.412   4.480  1.00  0.00    -0.354 N 
ATOM     62  N   UNL     1      -7.280  -7.096   3.173  1.00  0.00    -0.248 NA
ATOM     63  C   UNL     1      -9.468  -7.058   2.375  1.00  0.00     0.031 C 
ATOM     64  C   UNL     1      -7.169  -2.518   4.767  1.00  0.00     0.029 A 
ATOM     65  C   UNL     1      -7.820  -3.746   4.629  1.00  0.00     0.049 A 
ATOM     66  H   UNL     1      -9.913  -3.970   4.733  1.00  0.00     0.167 HD
ATOM     67  C   UNL     1      -7.962  -6.097   3.847  1.00  0.00     0.074 A 
ATOM     68  C   UNL     1      -9.347  -6.221   3.408  1.00  0.00     0.031 C 
ATOM     69  C   UNL     1      -7.289  -5.084   4.467  1.00  0.00     0.031 A 
BRANCH  56  70
ATOM     70  C   UNL     1     -11.654  -2.074   3.104  1.00  0.00    -0.014 A 
ATOM     71  C   UNL     1     -12.514  -2.611   2.122  1.00  0.00     0.009 A 
ATOM     72  C   UNL     1     -12.191  -1.890   4.385  1.00  0.00     0.009 A 
ATOM     73  C   UNL     1     -13.851  -2.909   2.384  1.00  0.00     0.001 A 
ATOM     74  C   UNL     1     -13.519  -2.236   4.666  1.00  0.00     0.001 A 
ATOM     75  C   UNL     1     -14.348  -2.738   3.666  1.00  0.00     0.000 A 
ENDBRANCH  56  70
BRANCH  57  76
ATOM     76  C   UNL     1      -7.950  -9.217   0.328  1.00  0.00    -0.014 A 
ATOM     77  C   UNL     1      -8.225  -9.394  -1.040  1.00  0.00     0.009 A 
ATOM     78  C   UNL     1      -8.249 -10.288   1.189  1.00  0.00     0.009 A 
ATOM     79  C   UNL     1      -8.799 -10.572  -1.528  1.00  0.00     0.001 A 
ATOM     80  C   UNL     1      -8.839 -11.465   0.702  1.00  0.00     0.001 A 
ATOM     81  C   UNL     1      -9.124 -11.601  -0.654  1.00  0.00     0.000 A 
ENDBRANCH  57  76
BRANCH  69  82
ATOM     82  C   UNL     1      -5.805  -5.249   4.707  1.00  0.00    -0.014 A 
ATOM     83  C   UNL     1      -5.303  -4.977   5.990  1.00  0.00     0.009 A 
ATOM     84  C   UNL     1      -4.883  -5.498   3.675  1.00  0.00     0.009 A 
ATOM     85  C   UNL     1      -3.928  -4.944   6.233  1.00  0.00     0.001 A 
ATOM     86  C   UNL     1      -3.507  -5.496   3.924  1.00  0.00     0.001 A 
ATOM     87  C   UNL     1      -3.030  -5.207   5.201  1.00  0.00     0.000 A 
ENDBRANCH  69  82
ENDBRANCH  43  44
ENDBRANCH  36  38
ENDBRANCH  35  36
ENDBRANCH  34  35
ENDBRANCH  33  34
ENDBRANCH  32  33
ENDBRANCH  31  32
ENDBRANCH  30  31
ENDBRANCH  29  30
ENDBRANCH   1  29
TORSDOF 23
