REMARK SMILES O=C(C[C@@H]1C(=O)NC(=S)N1c1ccccc1)OCCOCCOCCOCCOC(=O)c1ccc(-c2c3nc(c(-c4ccccc4)c4ccc([nH]4)c(-c4ccccc4)c4nc(c(-c5ccccc5)c5ccc2[nH]5)C=C4)C=C3)cc1
REMARK SMILES IDX 23 1 22 2 21 3 20 4 19 5 18 6 17 7 2 8 1 9 3 10 4 11 5 12
REMARK SMILES IDX 10 13 6 14 7 15 8 16 9 18 11 19 12 20 16 21 13 22 15 23
REMARK SMILES IDX 14 24 24 25 25 26 26 27 27 28 28 29 29 30 30 31 31 32 32 33
REMARK SMILES IDX 33 34 79 35 34 36 78 37 35 38 36 39 37 40 72 41 38 42 77 43
REMARK SMILES IDX 71 44 73 45 39 46 76 47 70 48 69 49 40 51 62 52 47 53 61 54
REMARK SMILES IDX 48 55 51 56 60 57 74 58 49 59 50 60 59 62 75 63 52 64 41 65
REMARK SMILES IDX 42 66 46 67 43 68 45 69 44 70 63 71 64 72 68 73 65 74 67 75
REMARK SMILES IDX 66 76 53 77 54 78 58 79 55 80 57 81 56 82
REMARK H PARENT 7 17 73 50 51 61
REMARK Flexibility Score: inf
ROOT
ATOM      1  O   UNL     1       2.702  -3.006   2.168  1.00  0.00    -0.377 OA
ENDROOT
BRANCH   1   2
ATOM      2  C   UNL     1       2.054  -2.048   1.353  1.00  0.00     0.188 C 
BRANCH   2   3
ATOM      3  C   UNL     1       2.575  -1.881  -0.078  1.00  0.00     0.188 C 
BRANCH   3   4
ATOM      4  O   UNL     1       3.920  -1.572  -0.395  1.00  0.00    -0.376 OA
BRANCH   4   5
ATOM      5  C   UNL     1       4.739  -0.540   0.102  1.00  0.00     0.202 C 
BRANCH   5   6
ATOM      6  C   UNL     1       4.221   0.692   0.832  1.00  0.00     0.261 C 
BRANCH   6   7
ATOM      7  O   UNL     1       2.813   0.904   0.835  1.00  0.00    -0.463 OA
BRANCH   7   8
ATOM      8  C   UNL     1       2.073   1.418  -0.161  1.00  0.00     0.308 C 
ATOM      9  O   UNL     1       0.957   1.868   0.095  1.00  0.00    -0.252 OA
BRANCH   8  10
ATOM     10  C   UNL     1       2.482   1.209  -1.594  1.00  0.00     0.158 C 
BRANCH  10  11
ATOM     11  C   UNL     1       3.704   1.890  -2.144  1.00  0.00     0.190 C 
ATOM     12  C   UNL     1       3.836   3.315  -1.630  1.00  0.00     0.249 C 
ATOM     13  N   UNL     1       3.674   2.117  -3.590  1.00  0.00    -0.306 N 
ATOM     14  O   UNL     1       3.941   3.650  -0.461  1.00  0.00    -0.272 OA
ATOM     15  N   UNL     1       3.829   4.162  -2.685  1.00  0.00    -0.301 N 
ATOM     16  C   UNL     1       3.736   3.491  -3.867  1.00  0.00     0.180 C 
ATOM     17  H   UNL     1       3.884   5.142  -2.608  1.00  0.00     0.172 HD
ATOM     18  S   UNL     1       3.642   4.306  -5.309  1.00  0.00    -0.040 S 
BRANCH  13  19
ATOM     19  C   UNL     1       3.730   1.062  -4.544  1.00  0.00     0.044 A 
ATOM     20  C   UNL     1       4.702   1.075  -5.551  1.00  0.00     0.026 A 
ATOM     21  C   UNL     1       2.795   0.018  -4.546  1.00  0.00     0.026 A 
ATOM     22  C   UNL     1       4.712   0.103  -6.557  1.00  0.00     0.002 A 
ATOM     23  C   UNL     1       2.798  -0.951  -5.556  1.00  0.00     0.002 A 
ATOM     24  C   UNL     1       3.750  -0.902  -6.568  1.00  0.00     0.000 A 
ENDBRANCH  13  19
ENDBRANCH  10  11
ENDBRANCH   8  10
ENDBRANCH   7   8
ENDBRANCH   6   7
ENDBRANCH   5   6
ENDBRANCH   4   5
ENDBRANCH   3   4
ENDBRANCH   2   3
ENDBRANCH   1   2
BRANCH   1  25
ATOM     25  C   UNL     1       4.068  -2.735   2.402  1.00  0.00     0.188 C 
BRANCH  25  26
ATOM     26  C   UNL     1       5.017  -3.642   1.599  1.00  0.00     0.188 C 
BRANCH  26  27
ATOM     27  O   UNL     1       4.530  -4.378   0.495  1.00  0.00    -0.376 OA
BRANCH  27  28
ATOM     28  C   UNL     1       3.415  -5.248   0.615  1.00  0.00     0.202 C 
BRANCH  28  29
ATOM     29  C   UNL     1       3.004  -6.013   1.892  1.00  0.00     0.261 C 
BRANCH  29  30
ATOM     30  O   UNL     1       3.385  -5.470   3.157  1.00  0.00    -0.460 OA
BRANCH  30  31
ATOM     31  C   UNL     1       4.517  -5.969   3.695  1.00  0.00     0.338 C 
ATOM     32  O   UNL     1       5.233  -6.847   3.237  1.00  0.00    -0.246 OA
BRANCH  31  33
ATOM     33  C   UNL     1       4.899  -5.115   4.837  1.00  0.00     0.060 A 
ATOM     34  C   UNL     1       6.162  -4.505   4.811  1.00  0.00     0.016 A 
ATOM     35  C   UNL     1       4.027  -4.899   5.906  1.00  0.00     0.016 A 
ATOM     36  C   UNL     1       6.578  -3.713   5.875  1.00  0.00     0.010 A 
ATOM     37  C   UNL     1       4.461  -4.141   6.995  1.00  0.00     0.010 A 
ATOM     38  C   UNL     1       5.756  -3.588   7.000  1.00  0.00    -0.014 A 
BRANCH  38  39
ATOM     39  C   UNL     1       6.370  -3.143   8.270  1.00  0.00     0.031 A 
ATOM     40  C   UNL     1       6.885  -4.207   9.202  1.00  0.00     0.074 A 
ATOM     41  C   UNL     1       6.530  -1.842   8.563  1.00  0.00     0.049 A 
ATOM     42  N   UNL     1       7.466  -4.084  10.367  1.00  0.00    -0.248 NA
ATOM     43  C   UNL     1       6.723  -5.601   8.753  1.00  0.00     0.031 C 
ATOM     44  C   UNL     1       6.138  -0.723   7.708  1.00  0.00     0.029 A 
ATOM     45  N   UNL     1       7.077  -1.249   9.671  1.00  0.00    -0.354 N 
ATOM     46  C   UNL     1       7.725  -5.381  10.792  1.00  0.00     0.074 A 
ATOM     47  C   UNL     1       7.212  -6.276   9.780  1.00  0.00     0.031 C 
ATOM     48  C   UNL     1       6.457   0.427   8.329  1.00  0.00     0.029 A 
ATOM     49  C   UNL     1       7.042   0.122   9.634  1.00  0.00     0.049 A 
ATOM     50  H   UNL     1       7.459  -1.758  10.422  1.00  0.00     0.167 HD
ATOM     51  C   UNL     1       8.340  -5.793  11.925  1.00  0.00     0.031 A 
ATOM     52  C   UNL     1       7.424   1.023  10.560  1.00  0.00     0.031 A 
ATOM     53  C   UNL     1       8.829  -4.902  12.940  1.00  0.00     0.049 A 
ATOM     54  C   UNL     1       8.014   0.536  11.859  1.00  0.00     0.074 A 
ATOM     55  C   UNL     1       9.472  -5.214  14.125  1.00  0.00     0.029 A 
ATOM     56  N   UNL     1       8.717  -3.521  12.895  1.00  0.00    -0.354 N 
ATOM     57  N   UNL     1       8.275  -0.690  12.245  1.00  0.00    -0.248 NA
ATOM     58  C   UNL     1       8.371   1.565  12.847  1.00  0.00     0.031 C 
ATOM     59  C   UNL     1       9.686  -4.024  14.828  1.00  0.00     0.029 A 
ATOM     60  C   UNL     1       9.248  -2.967  14.046  1.00  0.00     0.049 A 
ATOM     61  H   UNL     1       8.318  -3.010  12.153  1.00  0.00     0.167 HD
ATOM     62  C   UNL     1       8.861  -0.578  13.502  1.00  0.00     0.074 A 
ATOM     63  C   UNL     1       8.929   0.837  13.804  1.00  0.00     0.031 C 
ATOM     64  C   UNL     1       9.308  -1.555  14.330  1.00  0.00     0.031 A 
BRANCH  51  65
ATOM     65  C   UNL     1       8.462  -7.277  12.140  1.00  0.00    -0.014 A 
ATOM     66  C   UNL     1       9.303  -8.071  11.344  1.00  0.00     0.009 A 
ATOM     67  C   UNL     1       7.722  -7.889  13.164  1.00  0.00     0.009 A 
ATOM     68  C   UNL     1       9.366  -9.453  11.541  1.00  0.00     0.001 A 
ATOM     69  C   UNL     1       7.814  -9.264  13.382  1.00  0.00     0.001 A 
ATOM     70  C   UNL     1       8.626 -10.046  12.563  1.00  0.00     0.000 A 
ENDBRANCH  51  65
BRANCH  52  71
ATOM     71  C   UNL     1       7.252   2.478  10.307  1.00  0.00    -0.014 A 
ATOM     72  C   UNL     1       8.368   3.318  10.168  1.00  0.00     0.009 A 
ATOM     73  C   UNL     1       5.969   3.043  10.237  1.00  0.00     0.009 A 
ATOM     74  C   UNL     1       8.203   4.695   9.994  1.00  0.00     0.001 A 
ATOM     75  C   UNL     1       5.806   4.415  10.030  1.00  0.00     0.001 A 
ATOM     76  C   UNL     1       6.923   5.241   9.920  1.00  0.00     0.000 A 
ENDBRANCH  52  71
BRANCH  64  77
ATOM     77  C   UNL     1       9.959  -1.126  15.617  1.00  0.00    -0.014 A 
ATOM     78  C   UNL     1       9.220  -0.546  16.660  1.00  0.00     0.009 A 
ATOM     79  C   UNL     1      11.335  -1.341  15.799  1.00  0.00     0.009 A 
ATOM     80  C   UNL     1       9.855  -0.150  17.840  1.00  0.00     0.001 A 
ATOM     81  C   UNL     1      11.960  -0.979  16.993  1.00  0.00     0.001 A 
ATOM     82  C   UNL     1      11.222  -0.372  18.007  1.00  0.00     0.000 A 
ENDBRANCH  64  77
ENDBRANCH  38  39
ENDBRANCH  31  33
ENDBRANCH  30  31
ENDBRANCH  29  30
ENDBRANCH  28  29
ENDBRANCH  27  28
ENDBRANCH  26  27
ENDBRANCH  25  26
ENDBRANCH   1  25
TORSDOF 22
