REMARK SMILES [NH3+]C1(C(=O)N2[C@@H](C(=O)OCCOCCOCCOCCOC(=O)c3ccc(-c4c5nc(c(-c6ccccc6)c6ccc([nH]6)c(-c6ccccc6)c6nc(c(-c7ccccc7)c7ccc4[nH]7)C=C6)C=C5)cc3)CC[C@@H]3CCCC[C@@H]32)CC1
REMARK SMILES IDX 14 1 13 2 12 3 11 4 10 5 9 6 7 7 8 8 6 9 5 10 79 11 72 12
REMARK SMILES IDX 74 13 78 14 73 15 75 16 77 17 76 18 3 19 4 20 2 21 80 22
REMARK SMILES IDX 81 23 1 24 15 28 16 29 17 30 18 31 19 32 20 33 21 34 22 35
REMARK SMILES IDX 23 36 24 37 25 38 71 39 26 40 70 41 27 42 28 43 29 44 64 45
REMARK SMILES IDX 30 46 69 47 63 48 65 49 31 50 68 51 62 52 61 53 32 55 54 56
REMARK SMILES IDX 39 57 53 58 40 59 43 60 52 61 66 62 41 63 42 64 51 66 67 67
REMARK SMILES IDX 44 68 33 69 34 70 38 71 35 72 37 73 36 74 55 75 56 76 60 77
REMARK SMILES IDX 57 78 59 79 58 80 45 81 46 82 50 83 47 84 49 85 48 86
REMARK H PARENT 1 25 1 26 1 27 65 54 43 65
REMARK Flexibility Score: inf
ROOT
ATOM      1  C   UNL     1       0.531   2.650  -5.872  1.00  0.00     0.188 C 
ENDROOT
BRANCH   1   2
ATOM      2  C   UNL     1       1.228   3.814  -5.153  1.00  0.00     0.188 C 
BRANCH   2   3
ATOM      3  O   UNL     1       2.578   3.747  -4.738  1.00  0.00    -0.376 OA
BRANCH   3   4
ATOM      4  C   UNL     1       3.214   2.666  -4.082  1.00  0.00     0.202 C 
BRANCH   4   5
ATOM      5  C   UNL     1       2.606   1.704  -3.049  1.00  0.00     0.261 C 
BRANCH   5   6
ATOM      6  O   UNL     1       1.333   1.111  -3.299  1.00  0.00    -0.462 OA
BRANCH   6   7
ATOM      7  C   UNL     1       0.302   1.881  -2.886  1.00  0.00     0.328 C 
ATOM      8  O   UNL     1       0.428   3.021  -2.451  1.00  0.00    -0.250 OA
BRANCH   7   9
ATOM      9  C   UNL     1      -1.049   1.188  -2.934  1.00  0.00     0.195 C 
ATOM     10  N   UNL     1      -1.623   0.785  -1.636  1.00  0.00    -0.320 N 
ATOM     11  C   UNL     1      -3.063   0.460  -1.672  1.00  0.00     0.089 C 
ATOM     12  C   UNL     1      -1.278   0.109  -3.999  1.00  0.00     0.037 C 
ATOM     13  C   UNL     1      -3.414  -0.506  -2.828  1.00  0.00     0.012 C 
ATOM     14  C   UNL     1      -3.883   1.761  -1.646  1.00  0.00     0.025 C 
ATOM     15  C   UNL     1      -2.792  -0.077  -4.167  1.00  0.00     0.008 C 
ATOM     16  C   UNL     1      -4.930  -0.693  -2.928  1.00  0.00     0.006 C 
ATOM     17  C   UNL     1      -5.341   1.671  -2.085  1.00  0.00     0.002 C 
ATOM     18  C   UNL     1      -5.671   0.619  -3.136  1.00  0.00     0.000 C 
BRANCH  10  19
ATOM     19  C   UNL     1      -0.843   0.101  -0.702  1.00  0.00     0.284 C 
ATOM     20  O   UNL     1      -1.102  -1.042  -0.333  1.00  0.00    -0.268 OA
BRANCH  19  21
ATOM     21  C   UNL     1       0.313   0.833  -0.014  1.00  0.00     0.174 C 
ATOM     22  C   UNL     1      -0.051   1.530   1.294  1.00  0.00     0.086 C 
ATOM     23  C   UNL     1       0.438   2.331   0.144  1.00  0.00     0.086 C 
BRANCH  21  24
ATOM     24  N   UNL     1       1.565   0.030   0.017  1.00  0.00    -0.345 N 
ATOM     25  H   UNL     1       1.339  -0.958  -0.100  1.00  0.00     0.345 HD
ATOM     26  H   UNL     1       2.035   0.167   0.912  1.00  0.00     0.345 HD
ATOM     27  H   UNL     1       2.180   0.330  -0.739  1.00  0.00     0.345 HD
ENDBRANCH  21  24
ENDBRANCH  19  21
ENDBRANCH  10  19
ENDBRANCH   7   9
ENDBRANCH   6   7
ENDBRANCH   5   6
ENDBRANCH   4   5
ENDBRANCH   3   4
ENDBRANCH   2   3
ENDBRANCH   1   2
BRANCH   1  28
ATOM     28  O   UNL     1       1.257   1.439  -5.898  1.00  0.00    -0.377 OA
BRANCH  28  29
ATOM     29  C   UNL     1       2.257   1.271  -6.896  1.00  0.00     0.188 C 
BRANCH  29  30
ATOM     30  C   UNL     1       2.869   2.508  -7.587  1.00  0.00     0.188 C 
BRANCH  30  31
ATOM     31  O   UNL     1       1.928   3.508  -7.940  1.00  0.00    -0.376 OA
BRANCH  31  32
ATOM     32  C   UNL     1       1.393   3.538  -9.252  1.00  0.00     0.202 C 
BRANCH  32  33
ATOM     33  C   UNL     1       0.615   2.308  -9.744  1.00  0.00     0.261 C 
BRANCH  33  34
ATOM     34  O   UNL     1       1.326   1.060  -9.750  1.00  0.00    -0.460 OA
BRANCH  34  35
ATOM     35  C   UNL     1       2.481   0.991 -10.440  1.00  0.00     0.338 C 
ATOM     36  O   UNL     1       2.978   1.860 -11.142  1.00  0.00    -0.246 OA
BRANCH  35  37
ATOM     37  C   UNL     1       3.168  -0.253 -10.042  1.00  0.00     0.060 A 
ATOM     38  C   UNL     1       4.442  -0.172  -9.464  1.00  0.00     0.016 A 
ATOM     39  C   UNL     1       2.557  -1.493 -10.241  1.00  0.00     0.016 A 
ATOM     40  C   UNL     1       5.130  -1.335  -9.124  1.00  0.00     0.010 A 
ATOM     41  C   UNL     1       3.259  -2.659  -9.928  1.00  0.00     0.010 A 
ATOM     42  C   UNL     1       4.563  -2.583  -9.407  1.00  0.00    -0.014 A 
BRANCH  42  43
ATOM     43  C   UNL     1       5.418  -3.792  -9.379  1.00  0.00     0.031 A 
ATOM     44  C   UNL     1       6.014  -4.265 -10.678  1.00  0.00     0.074 A 
ATOM     45  C   UNL     1       5.687  -4.439  -8.233  1.00  0.00     0.049 A 
ATOM     46  N   UNL     1       6.745  -5.321 -10.922  1.00  0.00    -0.248 NA
ATOM     47  C   UNL     1       5.745  -3.431 -11.863  1.00  0.00     0.031 C 
ATOM     48  C   UNL     1       5.223  -4.043  -6.905  1.00  0.00     0.029 A 
ATOM     49  N   UNL     1       6.419  -5.579  -8.010  1.00  0.00    -0.354 N 
ATOM     50  C   UNL     1       7.011  -5.285 -12.285  1.00  0.00     0.074 A 
ATOM     51  C   UNL     1       6.344  -4.121 -12.822  1.00  0.00     0.031 C 
ATOM     52  C   UNL     1       5.674  -4.935  -6.004  1.00  0.00     0.029 A 
ATOM     53  C   UNL     1       6.421  -5.982  -6.698  1.00  0.00     0.049 A 
ATOM     54  H   UNL     1       6.897  -6.060  -8.723  1.00  0.00     0.167 HD
ATOM     55  C   UNL     1       7.749  -6.145 -13.025  1.00  0.00     0.031 A 
ATOM     56  C   UNL     1       6.945  -7.087  -6.131  1.00  0.00     0.031 A 
ATOM     57  C   UNL     1       8.401  -7.310 -12.492  1.00  0.00     0.049 A 
ATOM     58  C   UNL     1       7.681  -8.080  -6.995  1.00  0.00     0.074 A 
ATOM     59  C   UNL     1       9.180  -8.241 -13.157  1.00  0.00     0.029 A 
ATOM     60  N   UNL     1       8.341  -7.709 -11.166  1.00  0.00    -0.354 N 
ATOM     61  N   UNL     1       7.944  -8.028  -8.279  1.00  0.00    -0.248 NA
ATOM     62  C   UNL     1       8.199  -9.283  -6.325  1.00  0.00     0.031 C 
ATOM     63  C   UNL     1       9.535  -9.239 -12.246  1.00  0.00     0.029 A 
ATOM     64  C   UNL     1       9.043  -8.890 -10.998  1.00  0.00     0.049 A 
ATOM     65  H   UNL     1       7.870  -7.224 -10.450  1.00  0.00     0.167 HD
ATOM     66  C   UNL     1       8.688  -9.168  -8.561  1.00  0.00     0.074 A 
ATOM     67  C   UNL     1       8.846  -9.884  -7.313  1.00  0.00     0.031 C 
ATOM     68  C   UNL     1       9.197  -9.586  -9.747  1.00  0.00     0.031 A 
BRANCH  55  69
ATOM     69  C   UNL     1       7.853  -5.881 -14.501  1.00  0.00    -0.014 A 
ATOM     70  C   UNL     1       8.594  -4.799 -15.004  1.00  0.00     0.009 A 
ATOM     71  C   UNL     1       7.230  -6.755 -15.406  1.00  0.00     0.009 A 
ATOM     72  C   UNL     1       8.684  -4.584 -16.381  1.00  0.00     0.001 A 
ATOM     73  C   UNL     1       7.348  -6.556 -16.782  1.00  0.00     0.001 A 
ATOM     74  C   UNL     1       8.068  -5.466 -17.268  1.00  0.00     0.000 A 
ENDBRANCH  55  69
BRANCH  56  75
ATOM     75  C   UNL     1       6.768  -7.342  -4.675  1.00  0.00    -0.014 A 
ATOM     76  C   UNL     1       7.871  -7.351  -3.807  1.00  0.00     0.009 A 
ATOM     77  C   UNL     1       5.495  -7.622  -4.152  1.00  0.00     0.009 A 
ATOM     78  C   UNL     1       7.708  -7.669  -2.456  1.00  0.00     0.001 A 
ATOM     79  C   UNL     1       5.330  -7.905  -2.795  1.00  0.00     0.001 A 
ATOM     80  C   UNL     1       6.438  -7.941  -1.951  1.00  0.00     0.000 A 
ENDBRANCH  56  75
BRANCH  68  81
ATOM     81  C   UNL     1      10.019 -10.846  -9.745  1.00  0.00    -0.014 A 
ATOM     82  C   UNL     1       9.436 -12.106  -9.543  1.00  0.00     0.009 A 
ATOM     83  C   UNL     1      11.399 -10.770  -9.999  1.00  0.00     0.009 A 
ATOM     84  C   UNL     1      10.223 -13.259  -9.558  1.00  0.00     0.001 A 
ATOM     85  C   UNL     1      12.177 -11.926 -10.049  1.00  0.00     0.001 A 
ATOM     86  C   UNL     1      11.591 -13.169  -9.817  1.00  0.00     0.000 A 
ENDBRANCH  68  81
ENDBRANCH  42  43
ENDBRANCH  35  37
ENDBRANCH  34  35
ENDBRANCH  33  34
ENDBRANCH  32  33
ENDBRANCH  31  32
ENDBRANCH  30  31
ENDBRANCH  29  30
ENDBRANCH  28  29
ENDBRANCH   1  28
TORSDOF 23
