REMARK SMILES Cn1cc(C(=O)N[C@@H]2CCCCC[C@@H]2C(=O)OCCOCCOCCOCCOC(=O)c2ccc(-c3c4nc(c(-c5ccccc5)c5ccc([nH]5)c(-c5ccccc5)c5nc(c(-c6ccccc6)c6ccc3[nH]6)C=C5)C=C4)cc2)cn1
REMARK SMILES IDX 22 1 21 2 20 3 19 4 18 5 17 6 15 7 16 8 14 9 8 10 7 11 5 12
REMARK SMILES IDX 6 13 4 15 1 16 2 17 3 18 81 19 80 20 9 21 10 22 11 23 13 25
REMARK SMILES IDX 12 26 23 28 24 29 25 30 26 31 27 32 28 33 29 34 30 35 31 36
REMARK SMILES IDX 32 37 33 38 79 39 34 40 78 41 35 42 36 43 37 44 72 45 38 46
REMARK SMILES IDX 77 47 71 48 73 49 39 50 76 51 70 52 69 53 40 55 62 56 47 57
REMARK SMILES IDX 61 58 48 59 51 60 60 61 74 62 49 63 50 64 59 66 75 67 52 68
REMARK SMILES IDX 41 69 42 70 46 71 43 72 45 73 44 74 63 75 64 76 68 77 65 78
REMARK SMILES IDX 67 79 66 80 53 81 54 82 58 83 55 84 57 85 56 86
REMARK H PARENT 7 14 73 54 51 65
REMARK Flexibility Score: 90.00
ROOT
ATOM      1  C   UNL     1       1.804  -7.267  -2.249  1.00  0.00     0.188 C 
ENDROOT
BRANCH   1   2
ATOM      2  C   UNL     1       2.032  -6.420  -3.516  1.00  0.00     0.188 C 
BRANCH   2   3
ATOM      3  O   UNL     1       3.365  -6.428  -3.979  1.00  0.00    -0.376 OA
BRANCH   3   4
ATOM      4  C   UNL     1       4.332  -5.441  -3.702  1.00  0.00     0.202 C 
BRANCH   4   5
ATOM      5  C   UNL     1       4.654  -4.898  -2.297  1.00  0.00     0.261 C 
BRANCH   5   6
ATOM      6  O   UNL     1       3.740  -5.168  -1.235  1.00  0.00    -0.463 OA
BRANCH   6   7
ATOM      7  C   UNL     1       2.678  -4.333  -1.192  1.00  0.00     0.311 C 
ATOM      8  O   UNL     1       2.454  -3.475  -2.041  1.00  0.00    -0.252 OA
BRANCH   7   9
ATOM      9  C   UNL     1       1.714  -4.615  -0.041  1.00  0.00     0.121 C 
BRANCH   9  10
ATOM     10  C   UNL     1       1.333  -3.276   0.597  1.00  0.00     0.096 C 
BRANCH  10  11
ATOM     11  N   UNL     1       2.437  -2.333   0.693  1.00  0.00    -0.348 N 
ATOM     12  C   UNL     1       2.456  -0.990   0.387  1.00  0.00     0.254 C 
ATOM     13  O   UNL     1       3.557  -0.439   0.378  1.00  0.00    -0.269 OA
ATOM     14  H   UNL     1       3.287  -2.706   1.021  1.00  0.00     0.164 HD
BRANCH  12  15
ATOM     15  C   UNL     1       1.232  -0.235   0.136  1.00  0.00     0.077 A 
ATOM     16  C   UNL     1      -2.267   0.623  -0.154  1.00  0.00     0.173 C 
ATOM     17  N   UNL     1      -0.827   0.541  -0.114  1.00  0.00    -0.275 N 
ATOM     18  C   UNL     1      -0.102  -0.595   0.088  1.00  0.00     0.122 A 
ATOM     19  N   UNL     1      -0.070   1.639  -0.228  1.00  0.00    -0.181 NA
ATOM     20  C   UNL     1       1.175   1.168  -0.084  1.00  0.00     0.149 A 
ENDBRANCH  12  15
ENDBRANCH  10  11
BRANCH  10  21
ATOM     21  C   UNL     1       0.621  -3.363   1.950  1.00  0.00     0.026 C 
BRANCH  21  22
ATOM     22  C   UNL     1      -0.589  -4.289   1.926  1.00  0.00     0.002 C 
BRANCH  22  23
ATOM     23  C   UNL     1      -0.242  -5.725   2.306  1.00  0.00     0.000 CG0
ATOM     24  G   UNL     1       0.693  -6.472   1.353  1.00  0.00     0.000 G0
ENDBRANCH  22  23
ENDBRANCH  21  22
ENDBRANCH  10  21
ENDBRANCH   9  10
BRANCH   9  25
ATOM     25  C   UNL     1       2.000  -5.739   0.974  1.00  0.00     0.017 C 
BRANCH  25  26
ATOM     26  C   UNL     1       0.693  -6.472   1.353  1.00  0.00     0.001 CG0
ATOM     27  G   UNL     1      -0.242  -5.725   2.306  1.00  0.00     0.000 G0
ENDBRANCH  25  26
ENDBRANCH   9  25
ENDBRANCH   7   9
ENDBRANCH   6   7
ENDBRANCH   5   6
ENDBRANCH   4   5
ENDBRANCH   3   4
ENDBRANCH   2   3
ENDBRANCH   1   2
BRANCH   1  28
ATOM     28  O   UNL     1       2.440  -8.518  -2.045  1.00  0.00    -0.377 OA
BRANCH  28  29
ATOM     29  C   UNL     1       3.765  -8.652  -2.541  1.00  0.00     0.188 C 
BRANCH  29  30
ATOM     30  C   UNL     1       3.768  -9.150  -3.996  1.00  0.00     0.188 C 
BRANCH  30  31
ATOM     31  O   UNL     1       2.483  -9.182  -4.591  1.00  0.00    -0.376 OA
BRANCH  31  32
ATOM     32  C   UNL     1       1.545 -10.190  -4.241  1.00  0.00     0.202 C 
BRANCH  32  33
ATOM     33  C   UNL     1       1.563 -11.059  -2.959  1.00  0.00     0.261 C 
BRANCH  33  34
ATOM     34  O   UNL     1       2.805 -11.334  -2.301  1.00  0.00    -0.460 OA
BRANCH  34  35
ATOM     35  C   UNL     1       3.689 -12.148  -2.905  1.00  0.00     0.338 C 
ATOM     36  O   UNL     1       3.562 -12.714  -3.977  1.00  0.00    -0.246 OA
BRANCH  35  37
ATOM     37  C   UNL     1       4.943 -12.075  -2.119  1.00  0.00     0.060 A 
ATOM     38  C   UNL     1       6.105 -11.585  -2.731  1.00  0.00     0.016 A 
ATOM     39  C   UNL     1       4.964 -12.460  -0.775  1.00  0.00     0.016 A 
ATOM     40  C   UNL     1       7.298 -11.514  -2.013  1.00  0.00     0.010 A 
ATOM     41  C   UNL     1       6.168 -12.418  -0.065  1.00  0.00     0.010 A 
ATOM     42  C   UNL     1       7.347 -11.980  -0.694  1.00  0.00    -0.014 A 
BRANCH  42  43
ATOM     43  C   UNL     1       8.664 -12.231  -0.061  1.00  0.00     0.031 A 
ATOM     44  C   UNL     1       9.219 -13.629  -0.122  1.00  0.00     0.074 A 
ATOM     45  C   UNL     1       9.375 -11.246   0.516  1.00  0.00     0.049 A 
ATOM     46  N   UNL     1      10.326 -14.108   0.385  1.00  0.00    -0.248 NA
ATOM     47  C   UNL     1       8.415 -14.619  -0.859  1.00  0.00     0.031 C 
ATOM     48  C   UNL     1       8.980  -9.841   0.585  1.00  0.00     0.029 A 
ATOM     49  N   UNL     1      10.588 -11.288   1.158  1.00  0.00    -0.354 N 
ATOM     50  C   UNL     1      10.349 -15.451   0.029  1.00  0.00     0.074 A 
ATOM     51  C   UNL     1       9.130 -15.721  -0.701  1.00  0.00     0.031 C 
ATOM     52  C   UNL     1       9.932  -9.154   1.244  1.00  0.00     0.029 A 
ATOM     53  C   UNL     1      10.981 -10.078   1.673  1.00  0.00     0.049 A 
ATOM     54  H   UNL     1      11.125 -12.109   1.241  1.00  0.00     0.167 HD
ATOM     55  C   UNL     1      11.304 -16.378   0.275  1.00  0.00     0.031 A 
ATOM     56  C   UNL     1      12.053  -9.761   2.425  1.00  0.00     0.031 A 
ATOM     57  C   UNL     1      12.504 -16.119   1.023  1.00  0.00     0.049 A 
ATOM     58  C   UNL     1      13.046 -10.839   2.787  1.00  0.00     0.074 A 
ATOM     59  C   UNL     1      13.526 -16.995   1.343  1.00  0.00     0.029 A 
ATOM     60  N   UNL     1      12.838 -14.892   1.574  1.00  0.00    -0.354 N 
ATOM     61  N   UNL     1      13.065 -12.102   2.435  1.00  0.00    -0.248 NA
ATOM     62  C   UNL     1      14.172 -10.440   3.645  1.00  0.00     0.031 C 
ATOM     63  C   UNL     1      14.451 -16.311   2.138  1.00  0.00     0.029 A 
ATOM     64  C   UNL     1      14.040 -14.993   2.253  1.00  0.00     0.049 A 
ATOM     65  H   UNL     1      12.300 -14.072   1.495  1.00  0.00     0.167 HD
ATOM     66  C   UNL     1      14.220 -12.636   2.995  1.00  0.00     0.074 A 
ATOM     67  C   UNL     1      14.884 -11.557   3.695  1.00  0.00     0.031 C 
ATOM     68  C   UNL     1      14.692 -13.906   2.936  1.00  0.00     0.031 A 
BRANCH  55  69
ATOM     69  C   UNL     1      11.068 -17.768  -0.246  1.00  0.00    -0.014 A 
ATOM     70  C   UNL     1      11.116 -18.048  -1.621  1.00  0.00     0.009 A 
ATOM     71  C   UNL     1      10.821 -18.818   0.652  1.00  0.00     0.009 A 
ATOM     72  C   UNL     1      10.890 -19.345  -2.088  1.00  0.00     0.001 A 
ATOM     73  C   UNL     1      10.627 -20.119   0.185  1.00  0.00     0.001 A 
ATOM     74  C   UNL     1      10.652 -20.379  -1.184  1.00  0.00     0.000 A 
ENDBRANCH  55  69
BRANCH  56  75
ATOM     75  C   UNL     1      12.243  -8.372   2.927  1.00  0.00    -0.014 A 
ATOM     76  C   UNL     1      13.334  -7.596   2.505  1.00  0.00     0.009 A 
ATOM     77  C   UNL     1      11.363  -7.836   3.881  1.00  0.00     0.009 A 
ATOM     78  C   UNL     1      13.561  -6.332   3.055  1.00  0.00     0.001 A 
ATOM     79  C   UNL     1      11.572  -6.558   4.404  1.00  0.00     0.001 A 
ATOM     80  C   UNL     1      12.679  -5.812   4.002  1.00  0.00     0.000 A 
ENDBRANCH  56  75
BRANCH  68  81
ATOM     81  C   UNL     1      16.014 -14.187   3.598  1.00  0.00    -0.014 A 
ATOM     82  C   UNL     1      16.153 -14.190   4.994  1.00  0.00     0.009 A 
ATOM     83  C   UNL     1      17.131 -14.496   2.804  1.00  0.00     0.009 A 
ATOM     84  C   UNL     1      17.392 -14.458   5.580  1.00  0.00     0.001 A 
ATOM     85  C   UNL     1      18.360 -14.798   3.394  1.00  0.00     0.001 A 
ATOM     86  C   UNL     1      18.492 -14.767   4.780  1.00  0.00     0.000 A 
ENDBRANCH  68  81
ENDBRANCH  42  43
ENDBRANCH  35  37
ENDBRANCH  34  35
ENDBRANCH  33  34
ENDBRANCH  32  33
ENDBRANCH  31  32
ENDBRANCH  30  31
ENDBRANCH  29  30
ENDBRANCH  28  29
ENDBRANCH   1  28
TORSDOF 22
