REMARK SMILES NC(=O)CC[N@@H+]1[C@@H](C(=O)OCCOCCOCCOCCOC(=O)c2ccc(-c3c4nc(c(-c5ccccc5)c5ccc([nH]5)c(-c5ccccc5)c5nc(c(-c6ccccc6)c6ccc3[nH]6)C=C5)C=C4)cc2)CC[C@@H]2CCCC[C@H]21
REMARK SMILES IDX 15 1 14 2 13 3 12 4 11 5 10 6 8 7 9 8 7 9 6 10 80 11 73 13
REMARK SMILES IDX 75 14 79 15 74 16 76 17 78 18 77 19 5 20 4 21 2 22 1 23 3 26
REMARK SMILES IDX 16 27 17 28 18 29 19 30 20 31 21 32 22 33 23 34 24 35 25 36
REMARK SMILES IDX 26 37 72 38 27 39 71 40 28 41 29 42 30 43 65 44 31 45 70 46
REMARK SMILES IDX 64 47 66 48 32 49 69 50 63 51 62 52 33 54 55 55 40 56 54 57
REMARK SMILES IDX 41 58 44 59 53 60 67 61 42 62 43 63 52 65 68 66 45 67 34 68
REMARK SMILES IDX 35 69 39 70 36 71 38 72 37 73 56 74 57 75 61 76 58 77 60 78
REMARK SMILES IDX 59 79 46 80 47 81 51 82 48 83 50 84 49 85
REMARK H PARENT 6 12 1 24 1 25 66 53 44 64
REMARK Flexibility Score: inf
ROOT
ATOM      1  C   UNL     1       1.914  -2.070  -1.163  1.00  0.00     0.188 C 
ENDROOT
BRANCH   1   2
ATOM      2  C   UNL     1       1.031  -1.444  -2.254  1.00  0.00     0.188 C 
BRANCH   2   3
ATOM      3  O   UNL     1       1.536  -1.611  -3.568  1.00  0.00    -0.376 OA
BRANCH   3   4
ATOM      4  C   UNL     1       2.014  -0.458  -4.244  1.00  0.00     0.202 C 
BRANCH   4   5
ATOM      5  C   UNL     1       3.335   0.176  -3.760  1.00  0.00     0.261 C 
BRANCH   5   6
ATOM      6  O   UNL     1       3.512   0.248  -2.334  1.00  0.00    -0.459 OA
BRANCH   6   7
ATOM      7  C   UNL     1       2.829   1.253  -1.736  1.00  0.00     0.364 C 
ATOM      8  O   UNL     1       2.134   2.015  -2.398  1.00  0.00    -0.245 OA
BRANCH   7   9
ATOM      9  C   UNL     1       2.885   1.229  -0.179  1.00  0.00     0.295 C 
ATOM     10  N   UNL     1       2.794   2.600   0.360  1.00  0.00    -0.320 N 
ATOM     11  C   UNL     1       3.249   2.806   1.755  1.00  0.00     0.187 C 
ATOM     12  H   UNL     1       3.503   2.997  -0.256  1.00  0.00     0.349 HD
ATOM     13  C   UNL     1       4.074   0.408   0.372  1.00  0.00     0.078 C 
ATOM     14  C   UNL     1       4.363   1.872   2.284  1.00  0.00     0.048 C 
ATOM     15  C   UNL     1       3.783   4.246   1.946  1.00  0.00     0.065 C 
ATOM     16  C   UNL     1       4.088   0.435   1.897  1.00  0.00     0.016 C 
ATOM     17  C   UNL     1       4.510   2.073   3.799  1.00  0.00     0.010 C 
ATOM     18  C   UNL     1       4.059   4.544   3.421  1.00  0.00     0.006 C 
ATOM     19  C   UNL     1       4.962   3.505   4.084  1.00  0.00     0.001 C 
BRANCH  10  20
ATOM     20  C   UNL     1       1.557   3.401   0.094  1.00  0.00     0.273 C 
BRANCH  20  21
ATOM     21  C   UNL     1       0.221   3.039  -0.601  1.00  0.00     0.161 C 
BRANCH  21  22
ATOM     22  C   UNL     1      -0.814   2.176   0.089  1.00  0.00     0.223 C 
ATOM     23  N   UNL     1      -0.551   0.861   0.280  1.00  0.00    -0.369 N 
ATOM     24  H   UNL     1      -1.214   0.286   0.726  1.00  0.00     0.159 HD
ATOM     25  H   UNL     1       0.302   0.480  -0.029  1.00  0.00     0.159 HD
ATOM     26  O   UNL     1      -1.930   2.600   0.384  1.00  0.00    -0.275 OA
ENDBRANCH  21  22
ENDBRANCH  20  21
ENDBRANCH  10  20
ENDBRANCH   7   9
ENDBRANCH   6   7
ENDBRANCH   5   6
ENDBRANCH   4   5
ENDBRANCH   3   4
ENDBRANCH   2   3
ENDBRANCH   1   2
BRANCH   1  27
ATOM     27  O   UNL     1       3.268  -2.353  -1.477  1.00  0.00    -0.377 OA
BRANCH  27  28
ATOM     28  C   UNL     1       3.567  -3.145  -2.625  1.00  0.00     0.188 C 
BRANCH  28  29
ATOM     29  C   UNL     1       2.537  -4.169  -3.146  1.00  0.00     0.188 C 
BRANCH  29  30
ATOM     30  O   UNL     1       1.535  -4.517  -2.208  1.00  0.00    -0.376 OA
BRANCH  30  31
ATOM     31  C   UNL     1       1.730  -5.705  -1.459  1.00  0.00     0.202 C 
BRANCH  31  32
ATOM     32  C   UNL     1       2.995  -5.810  -0.591  1.00  0.00     0.261 C 
BRANCH  32  33
ATOM     33  O   UNL     1       4.262  -5.681  -1.262  1.00  0.00    -0.460 OA
BRANCH  33  34
ATOM     34  C   UNL     1       4.544  -6.517  -2.282  1.00  0.00     0.338 C 
ATOM     35  O   UNL     1       3.864  -7.449  -2.682  1.00  0.00    -0.246 OA
BRANCH  34  36
ATOM     36  C   UNL     1       5.727  -5.980  -2.991  1.00  0.00     0.060 A 
ATOM     37  C   UNL     1       5.613  -5.622  -4.343  1.00  0.00     0.016 A 
ATOM     38  C   UNL     1       6.940  -5.811  -2.319  1.00  0.00     0.016 A 
ATOM     39  C   UNL     1       6.721  -5.134  -5.037  1.00  0.00     0.010 A 
ATOM     40  C   UNL     1       8.057  -5.352  -3.023  1.00  0.00     0.010 A 
ATOM     41  C   UNL     1       7.961  -5.051  -4.393  1.00  0.00    -0.014 A 
BRANCH  41  42
ATOM     42  C   UNL     1       9.194  -4.881  -5.200  1.00  0.00     0.031 A 
ATOM     43  C   UNL     1       9.968  -6.117  -5.572  1.00  0.00     0.074 A 
ATOM     44  C   UNL     1       9.610  -3.673  -5.618  1.00  0.00     0.049 A 
ATOM     45  N   UNL     1      11.101  -6.227  -6.215  1.00  0.00    -0.248 NA
ATOM     46  C   UNL     1       9.382  -7.404  -5.159  1.00  0.00     0.031 C 
ATOM     47  C   UNL     1       8.923  -2.407  -5.376  1.00  0.00     0.029 A 
ATOM     48  N   UNL     1      10.729  -3.321  -6.332  1.00  0.00    -0.354 N 
ATOM     49  C   UNL     1      11.369  -7.590  -6.271  1.00  0.00     0.074 A 
ATOM     50  C   UNL     1      10.297  -8.265  -5.575  1.00  0.00     0.031 C 
ATOM     51  C   UNL     1       9.644  -1.411  -5.921  1.00  0.00     0.029 A 
ATOM     52  C   UNL     1      10.860  -1.966  -6.515  1.00  0.00     0.049 A 
ATOM     53  H   UNL     1      11.375  -3.977  -6.680  1.00  0.00     0.167 HD
ATOM     54  C   UNL     1      12.414  -8.224  -6.851  1.00  0.00     0.031 A 
ATOM     55  C   UNL     1      11.861  -1.255  -7.072  1.00  0.00     0.031 A 
ATOM     56  C   UNL     1      13.489  -7.552  -7.530  1.00  0.00     0.049 A 
ATOM     57  C   UNL     1      13.057  -1.978  -7.638  1.00  0.00     0.074 A 
ATOM     58  C   UNL     1      14.588  -8.108  -8.160  1.00  0.00     0.029 A 
ATOM     59  N   UNL     1      13.603  -6.177  -7.660  1.00  0.00    -0.354 N 
ATOM     60  N   UNL     1      13.294  -3.267  -7.698  1.00  0.00    -0.248 NA
ATOM     61  C   UNL     1      14.120  -1.145  -8.221  1.00  0.00     0.031 C 
ATOM     62  C   UNL     1      15.402  -7.066  -8.613  1.00  0.00     0.029 A 
ATOM     63  C   UNL     1      14.771  -5.864  -8.333  1.00  0.00     0.049 A 
ATOM     64  H   UNL     1      12.950  -5.521  -7.323  1.00  0.00     0.167 HD
ATOM     65  C   UNL     1      14.515  -3.400  -8.350  1.00  0.00     0.074 A 
ATOM     66  C   UNL     1      14.961  -2.062  -8.680  1.00  0.00     0.031 C 
ATOM     67  C   UNL     1      15.204  -4.528  -8.653  1.00  0.00     0.031 A 
BRANCH  54  68
ATOM     68  C   UNL     1      12.468  -9.722  -6.738  1.00  0.00    -0.014 A 
ATOM     69  C   UNL     1      11.571 -10.543  -7.439  1.00  0.00     0.009 A 
ATOM     70  C   UNL     1      13.460 -10.321  -5.947  1.00  0.00     0.009 A 
ATOM     71  C   UNL     1      11.651 -11.933  -7.327  1.00  0.00     0.001 A 
ATOM     72  C   UNL     1      13.558 -11.710  -5.862  1.00  0.00     0.001 A 
ATOM     73  C   UNL     1      12.649 -12.515  -6.545  1.00  0.00     0.000 A 
ENDBRANCH  54  68
BRANCH  55  74
ATOM     74  C   UNL     1      11.796   0.231  -7.095  1.00  0.00    -0.014 A 
ATOM     75  C   UNL     1      11.664   0.929  -8.305  1.00  0.00     0.009 A 
ATOM     76  C   UNL     1      11.889   0.962  -5.899  1.00  0.00     0.009 A 
ATOM     77  C   UNL     1      11.649   2.327  -8.319  1.00  0.00     0.001 A 
ATOM     78  C   UNL     1      11.842   2.358  -5.913  1.00  0.00     0.001 A 
ATOM     79  C   UNL     1      11.732   3.039  -7.123  1.00  0.00     0.000 A 
ENDBRANCH  55  74
BRANCH  67  80
ATOM     80  C   UNL     1      16.492  -4.375  -9.415  1.00  0.00    -0.014 A 
ATOM     81  C   UNL     1      17.640  -3.830  -8.819  1.00  0.00     0.009 A 
ATOM     82  C   UNL     1      16.571  -4.837 -10.740  1.00  0.00     0.009 A 
ATOM     83  C   UNL     1      18.828  -3.717  -9.545  1.00  0.00     0.001 A 
ATOM     84  C   UNL     1      17.768  -4.755 -11.451  1.00  0.00     0.001 A 
ATOM     85  C   UNL     1      18.893  -4.185 -10.857  1.00  0.00     0.000 A 
ENDBRANCH  67  80
ENDBRANCH  41  42
ENDBRANCH  34  36
ENDBRANCH  33  34
ENDBRANCH  32  33
ENDBRANCH  31  32
ENDBRANCH  30  31
ENDBRANCH  29  30
ENDBRANCH  28  29
ENDBRANCH  27  28
ENDBRANCH   1  27
TORSDOF 23
