REMARK SMILES COc1ccccc1[C@@H]1CN(C(=O)c2cc(C(C)C)nc(N)n2)C[C@H]1C(=O)OCCOCCOCCOCCOC(=O)c1ccc(-c2c3nc(c(-c4ccccc4)c4ccc([nH]4)c(-c4ccccc4)c4nc(c(-c5ccccc5)c5ccc2[nH]5)C=C4)C=C3)cc1
REMARK SMILES IDX 33 1 32 2 31 3 30 4 29 5 28 6 26 7 27 8 25 9 9 10 10 11
REMARK SMILES IDX 11 12 24 13 8 14 3 15 4 16 5 17 7 18 6 19 2 20 1 21 12 22
REMARK SMILES IDX 13 23 14 24 15 25 23 26 16 27 21 28 20 29 17 30 18 31 19 32
REMARK SMILES IDX 22 33 34 36 35 37 36 38 37 39 38 40 39 41 40 42 41 43 42 44
REMARK SMILES IDX 43 45 44 46 90 47 45 48 89 49 46 50 47 51 48 52 83 53 49 54
REMARK SMILES IDX 88 55 82 56 84 57 50 58 87 59 81 60 80 61 51 63 73 64 58 65
REMARK SMILES IDX 72 66 59 67 62 68 71 69 85 70 60 71 61 72 70 74 86 75 63 76
REMARK SMILES IDX 52 77 53 78 57 79 54 80 56 81 55 82 74 83 75 84 79 85 76 86
REMARK SMILES IDX 78 87 77 88 64 89 65 90 69 91 66 92 68 93 67 94
REMARK H PARENT 22 34 22 35 84 62 62 73
REMARK Flexibility Score: inf
ROOT
ATOM      1  C   UNL     1       2.506   3.873   0.144  1.00  0.00     0.188 C 
ENDROOT
BRANCH   1   2
ATOM      2  C   UNL     1       1.787   3.983   1.490  1.00  0.00     0.188 C 
BRANCH   2   3
ATOM      3  O   UNL     1       2.422   4.617   2.581  1.00  0.00    -0.376 OA
BRANCH   3   4
ATOM      4  C   UNL     1       3.730   4.244   2.983  1.00  0.00     0.202 C 
BRANCH   4   5
ATOM      5  C   UNL     1       4.281   2.803   2.911  1.00  0.00     0.261 C 
BRANCH   5   6
ATOM      6  O   UNL     1       4.068   2.049   1.694  1.00  0.00    -0.463 OA
BRANCH   6   7
ATOM      7  C   UNL     1       3.155   1.063   1.786  1.00  0.00     0.311 C 
ATOM      8  O   UNL     1       2.573   0.780   2.833  1.00  0.00    -0.252 OA
BRANCH   7   9
ATOM      9  C   UNL     1       2.879   0.239   0.542  1.00  0.00     0.128 C 
ATOM     10  C   UNL     1       3.177   0.570  -0.952  1.00  0.00     0.058 C 
ATOM     11  C   UNL     1       3.479  -0.806  -1.548  1.00  0.00     0.129 C 
ATOM     12  N   UNL     1       4.128  -1.512  -0.469  1.00  0.00    -0.336 N 
ATOM     13  C   UNL     1       3.612  -1.077   0.805  1.00  0.00     0.136 C 
BRANCH  10  14
ATOM     14  C   UNL     1       2.143   1.234  -1.870  1.00  0.00    -0.000 A 
ATOM     15  C   UNL     1       0.776   0.907  -1.952  1.00  0.00     0.122 A 
ATOM     16  C   UNL     1      -0.101   1.665  -2.746  1.00  0.00     0.047 A 
ATOM     17  C   UNL     1       0.386   2.680  -3.569  1.00  0.00     0.004 A 
ATOM     18  C   UNL     1       2.617   2.210  -2.778  1.00  0.00     0.008 A 
ATOM     19  C   UNL     1       1.754   2.904  -3.632  1.00  0.00     0.001 A 
BRANCH  15  20
ATOM     20  O   UNL     1       0.337  -0.343  -1.595  1.00  0.00    -0.496 OA
ATOM     21  C   UNL     1      -0.262  -0.457  -0.314  1.00  0.00     0.278 C 
ENDBRANCH  15  20
ENDBRANCH  10  14
BRANCH  12  22
ATOM     22  C   UNL     1       5.000  -2.582  -0.548  1.00  0.00     0.272 C 
ATOM     23  O   UNL     1       5.426  -3.173   0.440  1.00  0.00    -0.267 OA
BRANCH  22  24
ATOM     24  C   UNL     1       5.450  -2.988  -1.899  1.00  0.00     0.134 A 
ATOM     25  C   UNL     1       6.185  -2.098  -2.650  1.00  0.00     0.058 A 
ATOM     26  N   UNL     1       5.026  -4.190  -2.325  1.00  0.00    -0.208 NA
ATOM     27  C   UNL     1       6.421  -2.481  -3.947  1.00  0.00     0.049 A 
ATOM     28  C   UNL     1       5.352  -4.493  -3.574  1.00  0.00     0.220 A 
ATOM     29  N   UNL     1       6.015  -3.684  -4.411  1.00  0.00    -0.218 NA
BRANCH  27  30
ATOM     30  C   UNL     1       7.090  -1.550  -4.937  1.00  0.00     0.032 C 
ATOM     31  C   UNL     1       6.196  -0.346  -5.252  1.00  0.00     0.014 C 
ATOM     32  C   UNL     1       8.466  -1.092  -4.450  1.00  0.00     0.014 C 
ENDBRANCH  27  30
BRANCH  28  33
ATOM     33  N   UNL     1       4.980  -5.722  -4.030  1.00  0.00    -0.368 N 
ATOM     34  H   UNL     1       5.199  -5.993  -4.950  1.00  0.00     0.159 HD
ATOM     35  H   UNL     1       4.491  -6.340  -3.439  1.00  0.00     0.159 HD
ENDBRANCH  28  33
ENDBRANCH  22  24
ENDBRANCH  12  22
ENDBRANCH   7   9
ENDBRANCH   6   7
ENDBRANCH   5   6
ENDBRANCH   4   5
ENDBRANCH   3   4
ENDBRANCH   2   3
ENDBRANCH   1   2
BRANCH   1  36
ATOM     36  O   UNL     1       3.907   4.051   0.139  1.00  0.00    -0.377 OA
BRANCH  36  37
ATOM     37  C   UNL     1       4.433   5.355  -0.038  1.00  0.00     0.188 C 
BRANCH  37  38
ATOM     38  C   UNL     1       3.533   6.574   0.221  1.00  0.00     0.188 C 
BRANCH  38  39
ATOM     39  O   UNL     1       2.236   6.472  -0.344  1.00  0.00    -0.376 OA
BRANCH  39  40
ATOM     40  C   UNL     1       2.001   7.044  -1.623  1.00  0.00     0.202 C 
BRANCH  40  41
ATOM     41  C   UNL     1       2.758   6.451  -2.820  1.00  0.00     0.261 C 
BRANCH  41  42
ATOM     42  O   UNL     1       4.191   6.520  -2.791  1.00  0.00    -0.460 OA
BRANCH  42  43
ATOM     43  C   UNL     1       4.769   7.725  -2.631  1.00  0.00     0.338 C 
ATOM     44  O   UNL     1       4.217   8.812  -2.583  1.00  0.00    -0.246 OA
BRANCH  43  45
ATOM     45  C   UNL     1       6.191   7.490  -2.311  1.00  0.00     0.060 A 
ATOM     46  C   UNL     1       6.695   7.963  -1.094  1.00  0.00     0.016 A 
ATOM     47  C   UNL     1       7.015   6.793  -3.200  1.00  0.00     0.016 A 
ATOM     48  C   UNL     1       8.040   7.781  -0.780  1.00  0.00     0.010 A 
ATOM     49  C   UNL     1       8.367   6.630  -2.894  1.00  0.00     0.010 A 
ATOM     50  C   UNL     1       8.892   7.160  -1.702  1.00  0.00    -0.014 A 
BRANCH  50  51
ATOM     51  C   UNL     1      10.358   7.271  -1.522  1.00  0.00     0.031 A 
ATOM     52  C   UNL     1      11.081   8.358  -2.269  1.00  0.00     0.074 A 
ATOM     53  C   UNL     1      11.028   6.457  -0.688  1.00  0.00     0.049 A 
ATOM     54  N   UNL     1      12.357   8.643  -2.295  1.00  0.00    -0.248 NA
ATOM     55  C   UNL     1      10.249   9.245  -3.100  1.00  0.00     0.031 C 
ATOM     56  C   UNL     1      10.431   5.401   0.128  1.00  0.00     0.029 A 
ATOM     57  N   UNL     1      12.367   6.396  -0.395  1.00  0.00    -0.354 N 
ATOM     58  C   UNL     1      12.479   9.736  -3.144  1.00  0.00     0.074 A 
ATOM     59  C   UNL     1      11.157  10.039  -3.644  1.00  0.00     0.031 C 
ATOM     60  C   UNL     1      11.405   4.789   0.825  1.00  0.00     0.029 A 
ATOM     61  C   UNL     1      12.693   5.387   0.478  1.00  0.00     0.049 A 
ATOM     62  H   UNL     1      13.030   7.017  -0.773  1.00  0.00     0.167 HD
ATOM     63  C   UNL     1      13.591  10.434  -3.471  1.00  0.00     0.031 A 
ATOM     64  C   UNL     1      13.898   4.981   0.923  1.00  0.00     0.031 A 
ATOM     65  C   UNL     1      14.909  10.116  -2.992  1.00  0.00     0.049 A 
ATOM     66  C   UNL     1      15.135   5.715   0.471  1.00  0.00     0.074 A 
ATOM     67  C   UNL     1      16.104  10.756  -3.266  1.00  0.00     0.029 A 
ATOM     68  N   UNL     1      15.203   9.059  -2.144  1.00  0.00    -0.354 N 
ATOM     69  N   UNL     1      15.237   6.759  -0.316  1.00  0.00    -0.248 NA
ATOM     70  C   UNL     1      16.422   5.219   0.979  1.00  0.00     0.031 C 
ATOM     71  C   UNL     1      17.131  10.048  -2.634  1.00  0.00     0.029 A 
ATOM     72  C   UNL     1      16.566   9.011  -1.907  1.00  0.00     0.049 A 
ATOM     73  H   UNL     1      14.541   8.435  -1.768  1.00  0.00     0.167 HD
ATOM     74  C   UNL     1      16.593   7.063  -0.373  1.00  0.00     0.074 A 
ATOM     75  C   UNL     1      17.271   6.103   0.474  1.00  0.00     0.031 C 
ATOM     76  C   UNL     1      17.222   8.048  -1.061  1.00  0.00     0.031 A 
BRANCH  63  77
ATOM     77  C   UNL     1      13.428  11.586  -4.424  1.00  0.00    -0.014 A 
ATOM     78  C   UNL     1      12.761  12.762  -4.043  1.00  0.00     0.009 A 
ATOM     79  C   UNL     1      13.967  11.502  -5.717  1.00  0.00     0.009 A 
ATOM     80  C   UNL     1      12.606  13.813  -4.949  1.00  0.00     0.001 A 
ATOM     81  C   UNL     1      13.839  12.567  -6.610  1.00  0.00     0.001 A 
ATOM     82  C   UNL     1      13.150  13.717  -6.229  1.00  0.00     0.000 A 
ENDBRANCH  63  77
BRANCH  64  83
ATOM     83  C   UNL     1      14.004   3.802   1.826  1.00  0.00    -0.014 A 
ATOM     84  C   UNL     1      14.438   3.944   3.153  1.00  0.00     0.009 A 
ATOM     85  C   UNL     1      13.693   2.518   1.351  1.00  0.00     0.009 A 
ATOM     86  C   UNL     1      14.587   2.822   3.973  1.00  0.00     0.001 A 
ATOM     87  C   UNL     1      13.810   1.403   2.183  1.00  0.00     0.001 A 
ATOM     88  C   UNL     1      14.268   1.554   3.490  1.00  0.00     0.000 A 
ENDBRANCH  64  83
BRANCH  76  89
ATOM     89  C   UNL     1      18.713   8.166  -0.894  1.00  0.00    -0.014 A 
ATOM     90  C   UNL     1      19.591   7.215  -1.435  1.00  0.00     0.009 A 
ATOM     91  C   UNL     1      19.247   9.278  -0.223  1.00  0.00     0.009 A 
ATOM     92  C   UNL     1      20.971   7.356  -1.275  1.00  0.00     0.001 A 
ATOM     93  C   UNL     1      20.628   9.434  -0.094  1.00  0.00     0.001 A 
ATOM     94  C   UNL     1      21.488   8.467  -0.610  1.00  0.00     0.000 A 
ENDBRANCH  76  89
ENDBRANCH  50  51
ENDBRANCH  43  45
ENDBRANCH  42  43
ENDBRANCH  41  42
ENDBRANCH  40  41
ENDBRANCH  39  40
ENDBRANCH  38  39
ENDBRANCH  37  38
ENDBRANCH  36  37
ENDBRANCH   1  36
TORSDOF 26
