REMARK SMILES CC1(C)[C@H](O)CC[C@]2(C)[C@@H]1CC[C@@]1(C)Oc3oc(C(=O)OCCOCCOCCOCCOC(=O)c4ccc(-c5c6nc(c(-c7ccccc7)c7ccc([nH]7)c(-c7ccccc7)c7nc(c(-c8ccccc8)c8ccc5[nH]8)C=C7)C=C6)cc4)cc(=O)c3C[C@H]21
REMARK SMILES IDX 28 1 27 2 26 3 25 4 24 5 23 6 22 7 21 8 19 9 20 10 18 11
REMARK SMILES IDX 1 12 2 13 3 14 4 15 10 16 6 17 8 18 11 19 7 20 9 21 89 22
REMARK SMILES IDX 12 23 13 24 88 25 14 26 15 27 87 28 16 29 85 30 17 31 84 32
REMARK SMILES IDX 86 33 5 34 29 36 30 37 31 38 32 39 33 40 34 41 35 42 36 43
REMARK SMILES IDX 37 44 83 45 38 46 82 47 39 48 40 49 41 50 76 51 42 52 81 53
REMARK SMILES IDX 75 54 77 55 43 56 80 57 74 58 73 59 44 61 66 62 51 63 65 64
REMARK SMILES IDX 52 65 55 66 64 67 78 68 53 69 54 70 63 72 79 73 56 74 45 75
REMARK SMILES IDX 46 76 50 77 47 78 49 79 48 80 67 81 68 82 72 83 69 84 71 85
REMARK SMILES IDX 70 86 57 87 58 88 62 89 59 90 61 91 60 92
REMARK H PARENT 5 35 77 60 55 71
REMARK Flexibility Score: inf
ROOT
ATOM      1  C   UNL     1       6.301   9.867  -4.153  1.00  0.00     0.188 C 
ENDROOT
BRANCH   1   2
ATOM      2  O   UNL     1       5.271   8.873  -4.166  1.00  0.00    -0.377 OA
BRANCH   2   3
ATOM      3  C   UNL     1       5.316   7.917  -5.215  1.00  0.00     0.188 C 
BRANCH   3   4
ATOM      4  C   UNL     1       4.687   8.444  -6.522  1.00  0.00     0.188 C 
BRANCH   4   5
ATOM      5  O   UNL     1       4.561   9.858  -6.549  1.00  0.00    -0.376 OA
BRANCH   5   6
ATOM      6  C   UNL     1       3.346  10.511  -6.219  1.00  0.00     0.202 C 
BRANCH   6   7
ATOM      7  C   UNL     1       2.500  10.111  -5.011  1.00  0.00     0.261 C 
BRANCH   7   8
ATOM      8  O   UNL     1       2.412   8.715  -4.760  1.00  0.00    -0.457 OA
BRANCH   8   9
ATOM      9  C   UNL     1       1.754   7.842  -5.567  1.00  0.00     0.374 C 
ATOM     10  O   UNL     1       1.086   8.113  -6.544  1.00  0.00    -0.242 OA
BRANCH   9  11
ATOM     11  C   UNL     1       2.179   6.482  -5.098  1.00  0.00     0.219 A 
ATOM     12  C   UNL     1       1.651  -2.120  -1.302  1.00  0.00     0.014 C 
ATOM     13  C   UNL     1       1.031  -1.068  -2.276  1.00  0.00    -0.006 C 
ATOM     14  C   UNL     1      -0.389  -1.603  -2.593  1.00  0.00     0.014 C 
ATOM     15  C   UNL     1       0.761   0.238  -1.211  1.00  0.00     0.120 C 
ATOM     16  C   UNL     1       2.227  -0.692  -3.593  1.00  0.00     0.004 C 
ATOM     17  C   UNL     1       2.026   0.981  -0.854  1.00  0.00     0.033 C 
ATOM     18  C   UNL     1       2.189   0.796  -3.429  1.00  0.00    -0.022 C 
ATOM     19  C   UNL     1       2.478  -0.905  -5.143  1.00  0.00     0.009 C 
ATOM     20  C   UNL     1       2.919   0.792  -2.016  1.00  0.00     0.010 C 
ATOM     21  C   UNL     1       0.678   0.924  -4.092  1.00  0.00     0.012 C 
ATOM     22  C   UNL     1       2.772   1.958  -4.172  1.00  0.00     0.044 C 
ATOM     23  C   UNL     1       2.933   0.390  -6.095  1.00  0.00     0.049 C 
ATOM     24  C   UNL     1       3.514   1.739  -5.444  1.00  0.00     0.113 C 
ATOM     25  C   UNL     1       3.360   3.040  -3.306  1.00  0.00     0.055 C 
ATOM     26  C   UNL     1       5.032   1.593  -5.266  1.00  0.00     0.057 C 
ATOM     27  O   UNL     1       3.258   3.036  -6.210  1.00  0.00    -0.458 OA
ATOM     28  C   UNL     1       3.339   4.258  -4.096  1.00  0.00     0.081 A 
ATOM     29  C   UNL     1       3.145   4.269  -5.425  1.00  0.00     0.292 A 
ATOM     30  C   UNL     1       3.144   5.405  -3.213  1.00  0.00     0.192 A 
ATOM     31  O   UNL     1       2.632   5.472  -5.993  1.00  0.00    -0.418 OA
ATOM     32  C   UNL     1       2.336   6.454  -3.764  1.00  0.00     0.107 A 
ATOM     33  O   UNL     1       3.561   5.450  -2.064  1.00  0.00    -0.289 OA
BRANCH  15  34
ATOM     34  O   UNL     1      -0.132   1.261  -1.645  1.00  0.00    -0.393 OA
ATOM     35  H   UNL     1       0.263   1.741  -2.389  1.00  0.00     0.210 HD
ENDBRANCH  15  34
ENDBRANCH   9  11
ENDBRANCH   8   9
ENDBRANCH   7   8
ENDBRANCH   6   7
ENDBRANCH   5   6
ENDBRANCH   4   5
ENDBRANCH   3   4
ENDBRANCH   2   3
ENDBRANCH   1   2
BRANCH   1  36
ATOM     36  C   UNL     1       7.062  10.272  -5.445  1.00  0.00     0.188 C 
BRANCH  36  37
ATOM     37  O   UNL     1       7.359   9.188  -6.311  1.00  0.00    -0.376 OA
BRANCH  37  38
ATOM     38  C   UNL     1       8.688   8.724  -6.427  1.00  0.00     0.202 C 
BRANCH  38  39
ATOM     39  C   UNL     1       9.315   8.088  -5.182  1.00  0.00     0.261 C 
BRANCH  39  40
ATOM     40  O   UNL     1       9.225   8.852  -3.974  1.00  0.00    -0.460 OA
BRANCH  40  41
ATOM     41  C   UNL     1       9.926  10.013  -3.925  1.00  0.00     0.338 C 
ATOM     42  O   UNL     1      10.621  10.494  -4.776  1.00  0.00    -0.246 OA
BRANCH  41  43
ATOM     43  C   UNL     1       9.534  10.673  -2.659  1.00  0.00     0.060 A 
ATOM     44  C   UNL     1       8.792  11.861  -2.700  1.00  0.00     0.016 A 
ATOM     45  C   UNL     1       9.893  10.097  -1.440  1.00  0.00     0.016 A 
ATOM     46  C   UNL     1       8.420  12.487  -1.512  1.00  0.00     0.010 A 
ATOM     47  C   UNL     1       9.554  10.743  -0.252  1.00  0.00     0.010 A 
ATOM     48  C   UNL     1       8.844  11.955  -0.287  1.00  0.00    -0.014 A 
BRANCH  48  49
ATOM     49  C   UNL     1       8.759  12.787   0.932  1.00  0.00     0.031 A 
ATOM     50  C   UNL     1       9.931  13.668   1.258  1.00  0.00     0.074 A 
ATOM     51  C   UNL     1       7.670  12.780   1.718  1.00  0.00     0.049 A 
ATOM     52  N   UNL     1      10.105  14.467   2.277  1.00  0.00    -0.248 NA
ATOM     53  C   UNL     1      11.055  13.652   0.304  1.00  0.00     0.031 C 
ATOM     54  C   UNL     1       6.452  12.011   1.476  1.00  0.00     0.029 A 
ATOM     55  N   UNL     1       7.421  13.453   2.888  1.00  0.00    -0.354 N 
ATOM     56  C   UNL     1      11.350  15.049   2.083  1.00  0.00     0.074 A 
ATOM     57  C   UNL     1      11.904  14.496   0.869  1.00  0.00     0.031 C 
ATOM     58  C   UNL     1       5.581  12.255   2.471  1.00  0.00     0.029 A 
ATOM     59  C   UNL     1       6.192  13.174   3.432  1.00  0.00     0.049 A 
ATOM     60  H   UNL     1       8.062  14.077   3.299  1.00  0.00     0.167 HD
ATOM     61  C   UNL     1      11.974  15.972   2.848  1.00  0.00     0.031 A 
ATOM     62  C   UNL     1       5.630  13.603   4.580  1.00  0.00     0.031 A 
ATOM     63  C   UNL     1      11.433  16.511   4.062  1.00  0.00     0.049 A 
ATOM     64  C   UNL     1       6.383  14.559   5.465  1.00  0.00     0.074 A 
ATOM     65  C   UNL     1      11.995  17.453   4.903  1.00  0.00     0.029 A 
ATOM     66  N   UNL     1      10.212  16.154   4.608  1.00  0.00    -0.354 N 
ATOM     67  N   UNL     1       7.559  15.107   5.271  1.00  0.00    -0.248 NA
ATOM     68  C   UNL     1       5.736  14.960   6.724  1.00  0.00     0.031 C 
ATOM     69  C   UNL     1      11.136  17.629   5.989  1.00  0.00     0.029 A 
ATOM     70  C   UNL     1      10.013  16.841   5.790  1.00  0.00     0.049 A 
ATOM     71  H   UNL     1       9.581  15.509   4.214  1.00  0.00     0.167 HD
ATOM     72  C   UNL     1       7.780  15.934   6.366  1.00  0.00     0.074 A 
ATOM     73  C   UNL     1       6.618  15.818   7.222  1.00  0.00     0.031 C 
ATOM     74  C   UNL     1       8.849  16.722   6.630  1.00  0.00     0.031 A 
BRANCH  61  75
ATOM     75  C   UNL     1      13.320  16.458   2.403  1.00  0.00    -0.014 A 
ATOM     76  C   UNL     1      13.440  17.364   1.339  1.00  0.00     0.009 A 
ATOM     77  C   UNL     1      14.467  16.080   3.116  1.00  0.00     0.009 A 
ATOM     78  C   UNL     1      14.689  17.885   0.998  1.00  0.00     0.001 A 
ATOM     79  C   UNL     1      15.711  16.620   2.786  1.00  0.00     0.001 A 
ATOM     80  C   UNL     1      15.820  17.521   1.728  1.00  0.00     0.000 A 
ENDBRANCH  61  75
BRANCH  62  81
ATOM     81  C   UNL     1       4.269  13.133   4.943  1.00  0.00    -0.014 A 
ATOM     82  C   UNL     1       3.168  13.995   4.833  1.00  0.00     0.009 A 
ATOM     83  C   UNL     1       4.057  11.807   5.354  1.00  0.00     0.009 A 
ATOM     84  C   UNL     1       1.880  13.537   5.124  1.00  0.00     0.001 A 
ATOM     85  C   UNL     1       2.766  11.347   5.624  1.00  0.00     0.001 A 
ATOM     86  C   UNL     1       1.679  12.212   5.510  1.00  0.00     0.000 A 
ENDBRANCH  62  81
BRANCH  74  87
ATOM     87  C   UNL     1       8.836  17.556   7.878  1.00  0.00    -0.014 A 
ATOM     88  C   UNL     1       9.113  16.984   9.128  1.00  0.00     0.009 A 
ATOM     89  C   UNL     1       8.709  18.951   7.777  1.00  0.00     0.009 A 
ATOM     90  C   UNL     1       9.265  17.797  10.254  1.00  0.00     0.001 A 
ATOM     91  C   UNL     1       8.885  19.762   8.898  1.00  0.00     0.001 A 
ATOM     92  C   UNL     1       9.164  19.184  10.136  1.00  0.00     0.000 A 
ENDBRANCH  74  87
ENDBRANCH  48  49
ENDBRANCH  41  43
ENDBRANCH  40  41
ENDBRANCH  39  40
ENDBRANCH  38  39
ENDBRANCH  37  38
ENDBRANCH  36  37
ENDBRANCH   1  36
TORSDOF 21
