REMARK SMILES [NH3+]Cc1c(-c2ccccc2)c(C(=O)OCCOCCOCCOCCOC(=O)c2ccc(-c3c4nc(c(-c5ccccc5)c5ccc([nH]5)c(-c5ccccc5)c5nc(c(-c6ccccc6)c6ccc3[nH]6)C=C5)C=C4)cc2)c2ccccn12
REMARK SMILES IDX 20 1 19 2 18 3 17 4 16 5 15 6 14 7 12 8 13 9 11 10 3 11 4 12
REMARK SMILES IDX 82 13 77 14 81 15 78 16 80 17 79 18 2 19 1 20 5 24 6 25
REMARK SMILES IDX 10 26 7 27 9 28 8 29 21 30 22 31 23 32 24 33 25 34 26 35
REMARK SMILES IDX 27 36 28 37 29 38 30 39 76 40 31 41 75 42 32 43 33 44 34 45
REMARK SMILES IDX 69 46 35 47 74 48 68 49 70 50 36 51 73 52 67 53 66 54 37 56
REMARK SMILES IDX 59 57 44 58 58 59 45 60 48 61 57 62 71 63 46 64 47 65 56 67
REMARK SMILES IDX 72 68 49 69 38 70 39 71 43 72 40 73 42 74 41 75 60 76 61 77
REMARK SMILES IDX 65 78 62 79 64 80 63 81 50 82 51 83 55 84 52 85 54 86 53 87
REMARK H PARENT 1 21 1 22 1 23 70 55 48 66
REMARK Flexibility Score: inf
ROOT
ATOM      1  O   UNL     1       0.707  -6.994   1.749  1.00  0.00    -0.377 OA
ENDROOT
BRANCH   1   2
ATOM      2  C   UNL     1      -0.070  -6.273   0.804  1.00  0.00     0.188 C 
BRANCH   2   3
ATOM      3  C   UNL     1      -0.849  -7.014  -0.297  1.00  0.00     0.188 C 
BRANCH   3   4
ATOM      4  O   UNL     1      -0.310  -8.291  -0.634  1.00  0.00    -0.376 OA
BRANCH   4   5
ATOM      5  C   UNL     1       0.190  -8.401  -1.961  1.00  0.00     0.202 C 
BRANCH   5   6
ATOM      6  C   UNL     1       1.665  -8.004  -2.040  1.00  0.00     0.261 C 
BRANCH   6   7
ATOM      7  O   UNL     1       1.925  -6.649  -1.645  1.00  0.00    -0.460 OA
BRANCH   7   8
ATOM      8  C   UNL     1       1.398  -5.667  -2.425  1.00  0.00     0.341 C 
ATOM      9  O   UNL     1       0.778  -5.877  -3.462  1.00  0.00    -0.246 OA
BRANCH   8  10
ATOM     10  C   UNL     1       1.595  -4.338  -1.859  1.00  0.00     0.093 A 
ATOM     11  C   UNL     1       1.271  -2.139  -1.296  1.00  0.00     0.086 A 
ATOM     12  C   UNL     1       0.659  -3.255  -1.857  1.00  0.00     0.024 A 
ATOM     13  N   UNL     1       2.548  -2.523  -0.910  1.00  0.00    -0.314 N 
ATOM     14  C   UNL     1       2.695  -3.891  -1.143  1.00  0.00     0.061 A 
ATOM     15  C   UNL     1       3.572  -1.753  -0.344  1.00  0.00     0.092 A 
ATOM     16  C   UNL     1       3.887  -4.515  -0.658  1.00  0.00     0.027 A 
ATOM     17  C   UNL     1       4.705  -2.340   0.072  1.00  0.00     0.018 A 
ATOM     18  C   UNL     1       4.840  -3.776  -0.063  1.00  0.00     0.004 A 
BRANCH  11  19
ATOM     19  C   UNL     1       0.740  -0.751  -1.133  1.00  0.00     0.315 C 
BRANCH  19  20
ATOM     20  N   UNL     1       0.603  -0.377   0.267  1.00  0.00    -0.353 N 
ATOM     21  H   UNL     1       0.239   0.574   0.331  1.00  0.00     0.344 HD
ATOM     22  H   UNL     1       1.515  -0.423   0.722  1.00  0.00     0.344 HD
ATOM     23  H   UNL     1      -0.041  -1.019   0.730  1.00  0.00     0.344 HD
ENDBRANCH  19  20
ENDBRANCH  11  19
BRANCH  12  24
ATOM     24  C   UNL     1      -0.740  -3.284  -2.250  1.00  0.00    -0.015 A 
ATOM     25  C   UNL     1      -1.720  -3.567  -1.287  1.00  0.00     0.009 A 
ATOM     26  C   UNL     1      -1.118  -3.073  -3.576  1.00  0.00     0.009 A 
ATOM     27  C   UNL     1      -3.063  -3.662  -1.653  1.00  0.00     0.001 A 
ATOM     28  C   UNL     1      -2.466  -3.153  -3.938  1.00  0.00     0.001 A 
ATOM     29  C   UNL     1      -3.435  -3.454  -2.979  1.00  0.00     0.000 A 
ENDBRANCH  12  24
ENDBRANCH   8  10
ENDBRANCH   7   8
ENDBRANCH   6   7
ENDBRANCH   5   6
ENDBRANCH   4   5
ENDBRANCH   3   4
ENDBRANCH   2   3
ENDBRANCH   1   2
BRANCH   1  30
ATOM     30  C   UNL     1       0.329  -8.313   2.102  1.00  0.00     0.188 C 
BRANCH  30  31
ATOM     31  C   UNL     1      -1.158  -8.608   2.357  1.00  0.00     0.188 C 
BRANCH  31  32
ATOM     32  O   UNL     1      -1.965  -7.446   2.527  1.00  0.00    -0.376 OA
BRANCH  32  33
ATOM     33  C   UNL     1      -2.377  -7.168   3.860  1.00  0.00     0.202 C 
BRANCH  33  34
ATOM     34  C   UNL     1      -1.286  -6.511   4.712  1.00  0.00     0.261 C 
BRANCH  34  35
ATOM     35  O   UNL     1      -0.162  -7.359   4.998  1.00  0.00    -0.460 OA
BRANCH  35  36
ATOM     36  C   UNL     1      -0.408  -8.497   5.681  1.00  0.00     0.338 C 
ATOM     37  O   UNL     1      -1.469  -8.879   6.139  1.00  0.00    -0.246 OA
BRANCH  36  38
ATOM     38  C   UNL     1       0.819  -9.312   5.634  1.00  0.00     0.060 A 
ATOM     39  C   UNL     1       0.746 -10.608   5.110  1.00  0.00     0.016 A 
ATOM     40  C   UNL     1       2.033  -8.787   6.084  1.00  0.00     0.016 A 
ATOM     41  C   UNL     1       1.893 -11.398   5.064  1.00  0.00     0.010 A 
ATOM     42  C   UNL     1       3.175  -9.586   6.057  1.00  0.00     0.010 A 
ATOM     43  C   UNL     1       3.101 -10.903   5.574  1.00  0.00    -0.014 A 
BRANCH  43  44
ATOM     44  C   UNL     1       4.236 -11.825   5.797  1.00  0.00     0.031 A 
ATOM     45  C   UNL     1       4.333 -12.518   7.126  1.00  0.00     0.074 A 
ATOM     46  C   UNL     1       5.161 -12.039   4.847  1.00  0.00     0.049 A 
ATOM     47  N   UNL     1       5.233 -13.363   7.556  1.00  0.00    -0.248 NA
ATOM     48  C   UNL     1       3.271 -12.215   8.101  1.00  0.00     0.031 C 
ATOM     49  C   UNL     1       5.164 -11.443   3.513  1.00  0.00     0.029 A 
ATOM     50  N   UNL     1       6.288 -12.820   4.874  1.00  0.00    -0.354 N 
ATOM     51  C   UNL     1       4.843 -13.698   8.846  1.00  0.00     0.074 A 
ATOM     52  C   UNL     1       3.644 -12.944   9.140  1.00  0.00     0.031 C 
ATOM     53  C   UNL     1       6.251 -11.876   2.848  1.00  0.00     0.029 A 
ATOM     54  C   UNL     1       7.025 -12.760   3.718  1.00  0.00     0.049 A 
ATOM     55  H   UNL     1       6.544 -13.371   5.649  1.00  0.00     0.167 HD
ATOM     56  C   UNL     1       5.426 -14.560   9.710  1.00  0.00     0.031 A 
ATOM     57  C   UNL     1       8.199 -13.343   3.408  1.00  0.00     0.031 A 
ATOM     58  C   UNL     1       6.636 -15.283   9.437  1.00  0.00     0.049 A 
ATOM     59  C   UNL     1       8.872 -14.236   4.416  1.00  0.00     0.074 A 
ATOM     60  C   UNL     1       7.301 -16.189  10.243  1.00  0.00     0.029 A 
ATOM     61  N   UNL     1       7.372 -15.165   8.269  1.00  0.00    -0.354 N 
ATOM     62  N   UNL     1       8.469 -14.583   5.615  1.00  0.00    -0.248 NA
ATOM     63  C   UNL     1      10.163 -14.822   4.023  1.00  0.00     0.031 C 
ATOM     64  C   UNL     1       8.468 -16.585   9.581  1.00  0.00     0.029 A 
ATOM     65  C   UNL     1       8.502 -15.961   8.344  1.00  0.00     0.049 A 
ATOM     66  H   UNL     1       7.128 -14.601   7.501  1.00  0.00     0.167 HD
ATOM     67  C   UNL     1       9.442 -15.444   6.109  1.00  0.00     0.074 A 
ATOM     68  C   UNL     1      10.449 -15.575   5.076  1.00  0.00     0.031 C 
ATOM     69  C   UNL     1       9.495 -16.073   7.308  1.00  0.00     0.031 A 
BRANCH  56  70
ATOM     70  C   UNL     1       4.766 -14.733  11.046  1.00  0.00    -0.014 A 
ATOM     71  C   UNL     1       3.568 -15.455  11.173  1.00  0.00     0.009 A 
ATOM     72  C   UNL     1       5.346 -14.166  12.189  1.00  0.00     0.009 A 
ATOM     73  C   UNL     1       2.948 -15.577  12.417  1.00  0.00     0.001 A 
ATOM     74  C   UNL     1       4.735 -14.310  13.436  1.00  0.00     0.001 A 
ATOM     75  C   UNL     1       3.533 -15.007  13.547  1.00  0.00     0.000 A 
ENDBRANCH  56  70
BRANCH  57  76
ATOM     76  C   UNL     1       8.826 -13.097   2.085  1.00  0.00    -0.014 A 
ATOM     77  C   UNL     1       8.860 -14.106   1.112  1.00  0.00     0.009 A 
ATOM     78  C   UNL     1       9.415 -11.855   1.798  1.00  0.00     0.009 A 
ATOM     79  C   UNL     1       9.491 -13.884  -0.115  1.00  0.00     0.001 A 
ATOM     80  C   UNL     1      10.025 -11.629   0.563  1.00  0.00     0.001 A 
ATOM     81  C   UNL     1      10.069 -12.646  -0.389  1.00  0.00     0.000 A 
ENDBRANCH  57  76
BRANCH  69  82
ATOM     82  C   UNL     1      10.667 -16.977   7.559  1.00  0.00    -0.014 A 
ATOM     83  C   UNL     1      11.939 -16.457   7.840  1.00  0.00     0.009 A 
ATOM     84  C   UNL     1      10.483 -18.369   7.561  1.00  0.00     0.009 A 
ATOM     85  C   UNL     1      13.012 -17.315   8.093  1.00  0.00     0.001 A 
ATOM     86  C   UNL     1      11.552 -19.223   7.838  1.00  0.00     0.001 A 
ATOM     87  C   UNL     1      12.816 -18.696   8.096  1.00  0.00     0.000 A 
ENDBRANCH  69  82
ENDBRANCH  43  44
ENDBRANCH  36  38
ENDBRANCH  35  36
ENDBRANCH  34  35
ENDBRANCH  33  34
ENDBRANCH  32  33
ENDBRANCH  31  32
ENDBRANCH  30  31
ENDBRANCH   1  30
TORSDOF 23
