REMARK SMILES CO[C@@H]1C[NH2+][C@@H](O[C@@H]2C[C@@H](C(=O)OCCOCCOCCOCCOC(=O)c3ccc(-c4c5nc(c(-c6ccccc6)c6ccc([nH]6)c(-c6ccccc6)c6nc(c(-c7ccccc7)c7ccc4[nH]7)C=C6)C=C5)cc3)N(C(=O)OC(C)(C)C)C2)c2cc(Cl)ccc21
REMARK SMILES IDX 18 1 17 2 16 3 15 4 14 5 13 6 11 7 12 8 10 9 8 10 9 11 84 12
REMARK SMILES IDX 76 13 7 14 6 15 3 16 4 17 91 18 5 19 85 20 90 21 86 24 89 25
REMARK SMILES IDX 87 26 88 27 2 28 1 29 77 30 78 31 79 32 80 33 81 34 82 35
REMARK SMILES IDX 83 36 19 37 20 38 21 39 22 40 23 41 24 42 25 43 26 44 27 45
REMARK SMILES IDX 28 46 29 47 75 48 30 49 74 50 31 51 32 52 33 53 68 54 34 55
REMARK SMILES IDX 73 56 67 57 69 58 35 59 72 60 66 61 65 62 36 64 58 65 43 66
REMARK SMILES IDX 57 67 44 68 47 69 56 70 70 71 45 72 46 73 55 75 71 76 48 77
REMARK SMILES IDX 37 78 38 79 42 80 39 81 41 82 40 83 59 84 60 85 64 86 61 87
REMARK SMILES IDX 63 88 62 89 49 90 50 91 54 92 51 93 53 94 52 95
REMARK H PARENT 5 22 5 23 69 63 47 74
REMARK Flexibility Score: inf
ROOT
ATOM      1  C   UNL     1       0.174  -5.048   4.604  1.00  0.00     0.188 C 
ENDROOT
BRANCH   1   2
ATOM      2  C   UNL     1       1.158  -4.175   5.384  1.00  0.00     0.188 C 
BRANCH   2   3
ATOM      3  O   UNL     1       0.577  -3.150   6.190  1.00  0.00    -0.376 OA
BRANCH   3   4
ATOM      4  C   UNL     1      -0.462  -2.365   5.621  1.00  0.00     0.202 C 
BRANCH   4   5
ATOM      5  C   UNL     1       0.097  -1.151   4.906  1.00  0.00     0.261 C 
BRANCH   5   6
ATOM      6  O   UNL     1       0.791  -1.541   3.717  1.00  0.00    -0.462 OA
BRANCH   6   7
ATOM      7  C   UNL     1       2.155  -1.642   3.790  1.00  0.00     0.329 C 
ATOM      8  O   UNL     1       2.844  -1.504   4.789  1.00  0.00    -0.250 OA
BRANCH   7   9
ATOM      9  C   UNL     1       2.661  -1.945   2.387  1.00  0.00     0.201 C 
ATOM     10  C   UNL     1       3.880  -3.339   0.889  1.00  0.00     0.147 C 
ATOM     11  C   UNL     1       3.049  -3.398   2.168  1.00  0.00     0.071 C 
ATOM     12  C   UNL     1       4.564  -1.958   0.941  1.00  0.00     0.156 C 
ATOM     13  N   UNL     1       3.803  -1.190   1.913  1.00  0.00    -0.292 N 
BRANCH  10  14
ATOM     14  O   UNL     1       3.250  -3.713  -0.329  1.00  0.00    -0.320 OA
BRANCH  14  15
ATOM     15  C   UNL     1       2.022  -3.258  -0.882  1.00  0.00     0.354 C 
ATOM     16  C   UNL     1       0.254  -1.016  -0.002  1.00  0.00     0.203 C 
ATOM     17  C   UNL     1       1.585  -0.838  -0.797  1.00  0.00     0.300 C 
ATOM     18  C   UNL     1      -0.103  -2.467   0.293  1.00  0.00    -0.002 A 
ATOM     19  N   UNL     1       2.096  -1.977  -1.543  1.00  0.00    -0.315 N 
ATOM     20  C   UNL     1       0.743  -3.517  -0.117  1.00  0.00     0.046 A 
ATOM     21  C   UNL     1      -1.276  -2.770   1.011  1.00  0.00     0.009 A 
ATOM     22  H   UNL     1       3.077  -1.794  -1.757  1.00  0.00     0.349 HD
ATOM     23  H   UNL     1       1.495  -2.058  -2.363  1.00  0.00     0.349 HD
ATOM     24  C   UNL     1       0.352  -4.847   0.123  1.00  0.00     0.033 A 
ATOM     25  C   UNL     1      -1.646  -4.094   1.252  1.00  0.00     0.021 A 
ATOM     26  C   UNL     1      -0.840  -5.125   0.784  1.00  0.00     0.041 A 
ATOM     27  Cl  UNL     1      -1.312  -6.760   0.996  1.00  0.00    -0.084 Cl
BRANCH  16  28
ATOM     28  O   UNL     1      -0.859  -0.377  -0.636  1.00  0.00    -0.371 OA
ATOM     29  C   UNL     1      -0.741   1.043  -0.647  1.00  0.00     0.196 C 
ENDBRANCH  16  28
ENDBRANCH  14  15
ENDBRANCH  10  14
BRANCH  13  30
ATOM     30  C   UNL     1       3.978   0.156   2.127  1.00  0.00     0.411 C 
ATOM     31  O   UNL     1       4.918   0.803   1.688  1.00  0.00    -0.224 OA
BRANCH  30  32
ATOM     32  O   UNL     1       2.984   0.653   2.905  1.00  0.00    -0.444 OA
BRANCH  32  33
ATOM     33  C   UNL     1       3.118   1.877   3.668  1.00  0.00     0.106 C 
ATOM     34  C   UNL     1       4.335   1.809   4.596  1.00  0.00     0.056 C 
ATOM     35  C   UNL     1       3.136   3.096   2.752  1.00  0.00     0.056 C 
ATOM     36  C   UNL     1       1.855   1.945   4.543  1.00  0.00     0.056 C 
ENDBRANCH  32  33
ENDBRANCH  30  32
ENDBRANCH  13  30
ENDBRANCH   7   9
ENDBRANCH   6   7
ENDBRANCH   5   6
ENDBRANCH   4   5
ENDBRANCH   3   4
ENDBRANCH   2   3
ENDBRANCH   1   2
BRANCH   1  37
ATOM     37  O   UNL     1      -0.878  -5.652   5.348  1.00  0.00    -0.377 OA
BRANCH  37  38
ATOM     38  C   UNL     1      -0.675  -5.840   6.742  1.00  0.00     0.188 C 
BRANCH  38  39
ATOM     39  C   UNL     1       0.200  -7.021   7.183  1.00  0.00     0.188 C 
BRANCH  39  40
ATOM     40  O   UNL     1       1.546  -7.040   6.740  1.00  0.00    -0.376 OA
BRANCH  40  41
ATOM     41  C   UNL     1       1.911  -7.696   5.528  1.00  0.00     0.202 C 
BRANCH  41  42
ATOM     42  C   UNL     1       1.034  -8.794   4.908  1.00  0.00     0.261 C 
BRANCH  42  43
ATOM     43  O   UNL     1      -0.260  -8.334   4.478  1.00  0.00    -0.460 OA
BRANCH  43  44
ATOM     44  C   UNL     1      -1.318  -8.995   5.011  1.00  0.00     0.338 C 
ATOM     45  O   UNL     1      -1.284  -9.921   5.806  1.00  0.00    -0.246 OA
BRANCH  44  46
ATOM     46  C   UNL     1      -2.588  -8.384   4.591  1.00  0.00     0.060 A 
ATOM     47  C   UNL     1      -3.041  -8.545   3.284  1.00  0.00     0.016 A 
ATOM     48  C   UNL     1      -3.407  -7.788   5.557  1.00  0.00     0.016 A 
ATOM     49  C   UNL     1      -4.322  -8.107   2.940  1.00  0.00     0.010 A 
ATOM     50  C   UNL     1      -4.683  -7.340   5.214  1.00  0.00     0.010 A 
ATOM     51  C   UNL     1      -5.160  -7.527   3.910  1.00  0.00    -0.014 A 
BRANCH  51  52
ATOM     52  C   UNL     1      -6.602  -7.350   3.623  1.00  0.00     0.031 A 
ATOM     53  C   UNL     1      -7.184  -6.033   3.224  1.00  0.00     0.074 A 
ATOM     54  C   UNL     1      -7.394  -8.431   3.752  1.00  0.00     0.049 A 
ATOM     55  N   UNL     1      -8.406  -5.767   2.837  1.00  0.00    -0.248 NA
ATOM     56  C   UNL     1      -6.293  -4.865   3.266  1.00  0.00     0.031 C 
ATOM     57  C   UNL     1      -6.934  -9.758   4.169  1.00  0.00     0.029 A 
ATOM     58  N   UNL     1      -8.739  -8.593   3.539  1.00  0.00    -0.354 N 
ATOM     59  C   UNL     1      -8.429  -4.408   2.560  1.00  0.00     0.074 A 
ATOM     60  C   UNL     1      -7.109  -3.895   2.869  1.00  0.00     0.031 C 
ATOM     61  C   UNL     1      -7.974 -10.604   4.159  1.00  0.00     0.029 A 
ATOM     62  C   UNL     1      -9.173  -9.878   3.751  1.00  0.00     0.049 A 
ATOM     63  H   UNL     1      -9.334  -7.859   3.262  1.00  0.00     0.167 HD
ATOM     64  C   UNL     1      -9.457  -3.670   2.077  1.00  0.00     0.031 A 
ATOM     65  C   UNL     1     -10.397 -10.422   3.619  1.00  0.00     0.031 A 
ATOM     66  C   UNL     1     -10.776  -4.189   1.808  1.00  0.00     0.049 A 
ATOM     67  C   UNL     1     -11.528  -9.570   3.123  1.00  0.00     0.074 A 
ATOM     68  C   UNL     1     -11.865  -3.525   1.268  1.00  0.00     0.029 A 
ATOM     69  N   UNL     1     -11.193  -5.484   2.076  1.00  0.00    -0.354 N 
ATOM     70  N   UNL     1     -11.511  -8.309   2.767  1.00  0.00    -0.248 NA
ATOM     71  C   UNL     1     -12.839 -10.219   2.989  1.00  0.00     0.031 C 
ATOM     72  C   UNL     1     -12.958  -4.396   1.277  1.00  0.00     0.029 A 
ATOM     73  C   UNL     1     -12.533  -5.626   1.751  1.00  0.00     0.049 A 
ATOM     74  H   UNL     1     -10.621  -6.198   2.442  1.00  0.00     0.167 HD
ATOM     75  C   UNL     1     -12.802  -8.016   2.350  1.00  0.00     0.074 A 
ATOM     76  C   UNL     1     -13.571  -9.237   2.477  1.00  0.00     0.031 C 
ATOM     77  C   UNL     1     -13.300  -6.838   1.900  1.00  0.00     0.031 A 
BRANCH  64  78
ATOM     78  C   UNL     1      -9.213  -2.213   1.790  1.00  0.00    -0.014 A 
ATOM     79  C   UNL     1      -9.881  -1.228   2.534  1.00  0.00     0.009 A 
ATOM     80  C   UNL     1      -8.424  -1.819   0.697  1.00  0.00     0.009 A 
ATOM     81  C   UNL     1      -9.780   0.120   2.179  1.00  0.00     0.001 A 
ATOM     82  C   UNL     1      -8.304  -0.468   0.361  1.00  0.00     0.001 A 
ATOM     83  C   UNL     1      -8.990   0.498   1.095  1.00  0.00     0.000 A 
ENDBRANCH  64  78
BRANCH  65  84
ATOM     84  C   UNL     1     -10.581 -11.866   3.915  1.00  0.00    -0.014 A 
ATOM     85  C   UNL     1     -10.481 -12.342   5.233  1.00  0.00     0.009 A 
ATOM     86  C   UNL     1     -10.782 -12.783   2.874  1.00  0.00     0.009 A 
ATOM     87  C   UNL     1     -10.553 -13.711   5.498  1.00  0.00     0.001 A 
ATOM     88  C   UNL     1     -10.884 -14.149   3.146  1.00  0.00     0.001 A 
ATOM     89  C   UNL     1     -10.759 -14.612   4.455  1.00  0.00     0.000 A 
ENDBRANCH  65  84
BRANCH  77  90
ATOM     90  C   UNL     1     -14.753  -6.797   1.513  1.00  0.00    -0.014 A 
ATOM     91  C   UNL     1     -15.116  -6.613   0.169  1.00  0.00     0.009 A 
ATOM     92  C   UNL     1     -15.763  -6.854   2.486  1.00  0.00     0.009 A 
ATOM     93  C   UNL     1     -16.457  -6.473  -0.192  1.00  0.00     0.001 A 
ATOM     94  C   UNL     1     -17.106  -6.746   2.118  1.00  0.00     0.001 A 
ATOM     95  C   UNL     1     -17.451  -6.545   0.782  1.00  0.00     0.000 A 
ENDBRANCH  77  90
ENDBRANCH  51  52
ENDBRANCH  44  46
ENDBRANCH  43  44
ENDBRANCH  42  43
ENDBRANCH  41  42
ENDBRANCH  40  41
ENDBRANCH  39  40
ENDBRANCH  38  39
ENDBRANCH  37  38
ENDBRANCH   1  37
TORSDOF 26
