REMARK SMILES Cc1cc(S(=O)(=O)Nc2ccc(Cl)cc2F)ccc1OCC(=O)OCCOCCOCCOCCOC(=O)c1ccc(-c2c3nc(c(-c4ccccc4)c4ccc([nH]4)c(-c4ccccc4)c4nc(c(-c5ccccc5)c5ccc2[nH]5)C=C4)C=C3)cc1
REMARK SMILES IDX 28 1 27 2 26 3 25 4 24 5 22 6 23 7 21 8 20 9 19 10 1 11 2 12
REMARK SMILES IDX 3 13 4 14 18 15 17 16 5 17 6 18 7 19 8 20 9 22 10 23 15 24
REMARK SMILES IDX 11 25 14 26 16 27 12 28 13 29 29 30 30 31 31 32 32 33 33 34
REMARK SMILES IDX 34 35 35 36 36 37 37 38 38 39 39 40 40 41 86 42 41 43 85 44
REMARK SMILES IDX 42 45 43 46 44 47 79 48 45 49 84 50 78 51 80 52 46 53 83 54
REMARK SMILES IDX 77 55 76 56 47 58 69 59 54 60 68 61 55 62 58 63 67 64 81 65
REMARK SMILES IDX 56 66 57 67 66 69 82 70 59 71 48 72 49 73 53 74 50 75 52 76
REMARK SMILES IDX 51 77 70 78 71 79 75 80 72 81 74 82 73 83 60 84 61 85 65 86
REMARK SMILES IDX 62 87 64 88 63 89
REMARK H PARENT 8 21 80 57 58 68
REMARK Flexibility Score: inf
ROOT
ATOM      1  C   UNL     1       1.951  -0.538   0.534  1.00  0.00     0.188 C 
ENDROOT
BRANCH   1   2
ATOM      2  O   UNL     1       3.280  -0.739   0.966  1.00  0.00    -0.376 OA
BRANCH   2   3
ATOM      3  C   UNL     1       3.922   0.441   1.371  1.00  0.00     0.202 C 
BRANCH   3   4
ATOM      4  C   UNL     1       4.395   1.443   0.339  1.00  0.00     0.261 C 
BRANCH   4   5
ATOM      5  O   UNL     1       3.286   2.009  -0.356  1.00  0.00    -0.461 OA
BRANCH   5   6
ATOM      6  C   UNL     1       3.496   2.268  -1.664  1.00  0.00     0.344 C 
ATOM      7  O   UNL     1       4.565   2.149  -2.249  1.00  0.00    -0.248 OA
BRANCH   6   8
ATOM      8  C   UNL     1       2.221   2.758  -2.337  1.00  0.00     0.351 C 
BRANCH   8   9
ATOM      9  O   UNL     1       0.967   2.403  -1.805  1.00  0.00    -0.482 OA
BRANCH   9  10
ATOM     10  C   UNL     1       0.312   1.224  -1.982  1.00  0.00     0.123 A 
ATOM     11  C   UNL     1       2.053  -0.386  -3.062  1.00  0.00     0.048 C 
ATOM     12  C   UNL     1       0.707  -0.019  -2.501  1.00  0.00    -0.008 A 
ATOM     13  C   UNL     1      -0.196  -1.121  -2.399  1.00  0.00     0.029 A 
ATOM     14  C   UNL     1      -1.428  -1.018  -1.744  1.00  0.00     0.088 A 
ATOM     15  C   UNL     1      -0.940   1.309  -1.347  1.00  0.00     0.048 A 
ATOM     16  C   UNL     1      -1.752   0.191  -1.152  1.00  0.00     0.026 A 
BRANCH  14  17
ATOM     17  S   UNL     1      -2.506  -2.447  -1.737  1.00  0.00     0.262 S 
ATOM     18  O   UNL     1      -3.015  -2.625  -3.090  1.00  0.00    -0.201 OA
ATOM     19  O   UNL     1      -1.775  -3.506  -1.093  1.00  0.00    -0.201 OA
BRANCH  17  20
ATOM     20  N   UNL     1      -3.798  -2.159  -0.704  1.00  0.00    -0.277 N 
ATOM     21  H   UNL     1      -3.978  -2.845  -0.021  1.00  0.00     0.180 HD
BRANCH  20  22
ATOM     22  C   UNL     1      -4.661  -1.024  -0.711  1.00  0.00     0.085 A 
ATOM     23  C   UNL     1      -5.297  -0.730   0.502  1.00  0.00     0.031 A 
ATOM     24  C   UNL     1      -4.742  -0.088  -1.754  1.00  0.00     0.148 A 
ATOM     25  C   UNL     1      -5.853   0.536   0.717  1.00  0.00     0.023 A 
ATOM     26  C   UNL     1      -5.261   1.184  -1.533  1.00  0.00     0.062 A 
ATOM     27  F   UNL     1      -4.163  -0.316  -2.937  1.00  0.00    -0.205 F 
ATOM     28  C   UNL     1      -5.785   1.502  -0.286  1.00  0.00     0.044 A 
ATOM     29  Cl  UNL     1      -6.290   3.111   0.042  1.00  0.00    -0.084 Cl
ENDBRANCH  20  22
ENDBRANCH  17  20
ENDBRANCH  14  17
ENDBRANCH   9  10
ENDBRANCH   8   9
ENDBRANCH   6   8
ENDBRANCH   5   6
ENDBRANCH   4   5
ENDBRANCH   3   4
ENDBRANCH   2   3
ENDBRANCH   1   2
BRANCH   1  30
ATOM     30  C   UNL     1       1.012   0.569   1.075  1.00  0.00     0.188 C 
BRANCH  30  31
ATOM     31  O   UNL     1       0.779   0.732   2.469  1.00  0.00    -0.377 OA
BRANCH  31  32
ATOM     32  C   UNL     1      -0.620   0.663   2.780  1.00  0.00     0.188 C 
BRANCH  32  33
ATOM     33  C   UNL     1      -0.906  -0.743   3.252  1.00  0.00     0.188 C 
BRANCH  33  34
ATOM     34  O   UNL     1      -0.172  -1.669   2.464  1.00  0.00    -0.376 OA
BRANCH  34  35
ATOM     35  C   UNL     1      -0.868  -2.729   1.843  1.00  0.00     0.202 C 
BRANCH  35  36
ATOM     36  C   UNL     1      -1.676  -3.597   2.807  1.00  0.00     0.261 C 
BRANCH  36  37
ATOM     37  O   UNL     1      -0.803  -4.130   3.824  1.00  0.00    -0.460 OA
BRANCH  37  38
ATOM     38  C   UNL     1      -0.812  -3.457   5.009  1.00  0.00     0.338 C 
ATOM     39  O   UNL     1      -1.821  -3.100   5.600  1.00  0.00    -0.246 OA
BRANCH  38  40
ATOM     40  C   UNL     1       0.556  -2.920   5.315  1.00  0.00     0.060 A 
ATOM     41  C   UNL     1       0.705  -1.969   6.342  1.00  0.00     0.016 A 
ATOM     42  C   UNL     1       1.535  -3.013   4.330  1.00  0.00     0.016 A 
ATOM     43  C   UNL     1       1.733  -1.007   6.279  1.00  0.00     0.010 A 
ATOM     44  C   UNL     1       2.459  -1.986   4.210  1.00  0.00     0.010 A 
ATOM     45  C   UNL     1       2.576  -0.963   5.167  1.00  0.00    -0.014 A 
BRANCH  45  46
ATOM     46  C   UNL     1       3.513   0.142   4.835  1.00  0.00     0.031 A 
ATOM     47  C   UNL     1       4.925  -0.188   4.448  1.00  0.00     0.074 A 
ATOM     48  C   UNL     1       2.998   1.359   4.514  1.00  0.00     0.049 A 
ATOM     49  N   UNL     1       5.826   0.667   4.090  1.00  0.00    -0.248 NA
ATOM     50  C   UNL     1       5.428  -1.558   4.356  1.00  0.00     0.031 C 
ATOM     51  C   UNL     1       3.565   2.384   3.625  1.00  0.00     0.029 A 
ATOM     52  N   UNL     1       1.733   1.881   4.792  1.00  0.00    -0.354 N 
ATOM     53  C   UNL     1       6.807  -0.005   3.374  1.00  0.00     0.074 A 
ATOM     54  C   UNL     1       6.558  -1.397   3.660  1.00  0.00     0.031 C 
ATOM     55  C   UNL     1       2.711   3.408   3.458  1.00  0.00     0.029 A 
ATOM     56  C   UNL     1       1.737   3.269   4.511  1.00  0.00     0.049 A 
ATOM     57  H   UNL     1       0.963   1.367   5.127  1.00  0.00     0.167 HD
ATOM     58  C   UNL     1       7.597   0.688   2.489  1.00  0.00     0.031 A 
ATOM     59  C   UNL     1       1.677   4.161   5.549  1.00  0.00     0.031 A 
ATOM     60  C   UNL     1       7.328   2.149   2.533  1.00  0.00     0.049 A 
ATOM     61  C   UNL     1       3.060   4.775   5.797  1.00  0.00     0.074 A 
ATOM     62  C   UNL     1       7.086   3.148   1.602  1.00  0.00     0.029 A 
ATOM     63  N   UNL     1       7.115   2.759   3.775  1.00  0.00    -0.354 N 
ATOM     64  N   UNL     1       4.173   4.201   5.395  1.00  0.00    -0.248 NA
ATOM     65  C   UNL     1       3.327   6.117   6.314  1.00  0.00     0.031 C 
ATOM     66  C   UNL     1       6.558   4.285   2.290  1.00  0.00     0.029 A 
ATOM     67  C   UNL     1       6.566   4.018   3.651  1.00  0.00     0.049 A 
ATOM     68  H   UNL     1       7.333   2.337   4.638  1.00  0.00     0.167 HD
ATOM     69  C   UNL     1       5.208   5.083   5.413  1.00  0.00     0.074 A 
ATOM     70  C   UNL     1       4.653   6.245   6.087  1.00  0.00     0.031 C 
ATOM     71  C   UNL     1       6.427   4.865   4.832  1.00  0.00     0.031 A 
BRANCH  58  72
ATOM     72  C   UNL     1       8.507   0.041   1.427  1.00  0.00    -0.014 A 
ATOM     73  C   UNL     1       9.135   0.835   0.443  1.00  0.00     0.009 A 
ATOM     74  C   UNL     1       8.792  -1.334   1.320  1.00  0.00     0.009 A 
ATOM     75  C   UNL     1       9.944   0.302  -0.580  1.00  0.00     0.001 A 
ATOM     76  C   UNL     1       9.610  -1.880   0.309  1.00  0.00     0.001 A 
ATOM     77  C   UNL     1      10.185  -1.061  -0.647  1.00  0.00     0.000 A 
ENDBRANCH  58  72
BRANCH  59  78
ATOM     78  C   UNL     1       0.525   3.795   6.441  1.00  0.00    -0.014 A 
ATOM     79  C   UNL     1      -0.753   3.982   5.849  1.00  0.00     0.009 A 
ATOM     80  C   UNL     1       0.658   2.745   7.366  1.00  0.00     0.009 A 
ATOM     81  C   UNL     1      -1.759   3.011   5.970  1.00  0.00     0.001 A 
ATOM     82  C   UNL     1      -0.362   1.782   7.492  1.00  0.00     0.001 A 
ATOM     83  C   UNL     1      -1.539   1.881   6.748  1.00  0.00     0.000 A 
ENDBRANCH  59  78
BRANCH  71  84
ATOM     84  C   UNL     1       7.707   5.419   5.395  1.00  0.00    -0.014 A 
ATOM     85  C   UNL     1       7.815   5.831   6.726  1.00  0.00     0.009 A 
ATOM     86  C   UNL     1       8.911   5.255   4.669  1.00  0.00     0.009 A 
ATOM     87  C   UNL     1       9.062   6.092   7.297  1.00  0.00     0.001 A 
ATOM     88  C   UNL     1      10.158   5.462   5.251  1.00  0.00     0.001 A 
ATOM     89  C   UNL     1      10.231   5.893   6.566  1.00  0.00     0.000 A 
ENDBRANCH  71  84
ENDBRANCH  45  46
ENDBRANCH  38  40
ENDBRANCH  37  38
ENDBRANCH  36  37
ENDBRANCH  35  36
ENDBRANCH  34  35
ENDBRANCH  33  34
ENDBRANCH  32  33
ENDBRANCH  31  32
ENDBRANCH  30  31
ENDBRANCH   1  30
TORSDOF 25
