REMARK SMILES CCOCCC(=O)Nc1cc(C(=O)OCCOCCOCCOCCOC(=O)c2ccc(-c3c4nc(c(-c5ccccc5)c5ccc([nH]5)c(-c5ccccc5)c5nc(c(-c6ccccc6)c6ccc3[nH]6)C=C5)C=C4)cc2)ccc1Cl
REMARK SMILES IDX 18 1 17 2 16 3 15 4 14 5 12 6 13 7 11 8 9 9 10 10 79 11
REMARK SMILES IDX 78 12 80 13 77 14 8 15 6 16 7 17 5 19 4 20 3 21 2 22 1 23
REMARK SMILES IDX 19 24 20 25 21 26 22 27 23 28 24 29 25 30 26 31 27 32 28 33
REMARK SMILES IDX 29 34 30 35 76 36 31 37 75 38 32 39 33 40 34 41 69 42 35 43
REMARK SMILES IDX 74 44 68 45 70 46 36 47 73 48 67 49 66 50 37 52 59 53 44 54
REMARK SMILES IDX 58 55 45 56 48 57 57 58 71 59 46 60 47 61 56 63 72 64 49 65
REMARK SMILES IDX 38 66 39 67 43 68 40 69 42 70 41 71 60 72 61 73 65 74 62 75
REMARK SMILES IDX 64 76 63 77 50 78 51 79 55 80 52 81 54 82 53 83
REMARK H PARENT 8 18 70 51 48 62
REMARK Flexibility Score: inf
ROOT
ATOM      1  C   UNL     1      -4.456  -3.536  -2.257  1.00  0.00     0.188 C 
ENDROOT
BRANCH   1   2
ATOM      2  O   UNL     1      -5.680  -4.219  -2.457  1.00  0.00    -0.376 OA
BRANCH   2   3
ATOM      3  C   UNL     1      -5.715  -5.632  -2.468  1.00  0.00     0.202 C 
BRANCH   3   4
ATOM      4  C   UNL     1      -5.282  -6.418  -1.222  1.00  0.00     0.261 C 
BRANCH   4   5
ATOM      5  O   UNL     1      -4.140  -5.920  -0.530  1.00  0.00    -0.460 OA
BRANCH   5   6
ATOM      6  C   UNL     1      -2.929  -6.181  -1.061  1.00  0.00     0.338 C 
ATOM      7  O   UNL     1      -2.682  -6.809  -2.076  1.00  0.00    -0.246 OA
BRANCH   6   8
ATOM      8  C   UNL     1      -1.972  -5.326  -0.332  1.00  0.00     0.062 A 
ATOM      9  C   UNL     1      -0.295  -3.571  -0.488  1.00  0.00     0.060 A 
ATOM     10  C   UNL     1      -1.086  -4.555  -1.090  1.00  0.00     0.043 A 
ATOM     11  C   UNL     1      -0.437  -3.356   0.897  1.00  0.00     0.064 A 
ATOM     12  C   UNL     1      -1.294  -4.165   1.658  1.00  0.00     0.023 A 
ATOM     13  Cl  UNL     1       0.192  -2.002   1.748  1.00  0.00    -0.082 Cl
ATOM     14  C   UNL     1      -2.063  -5.149   1.048  1.00  0.00     0.017 A 
BRANCH   9  15
ATOM     15  N   UNL     1       0.485  -2.844  -1.407  1.00  0.00    -0.325 N 
ATOM     16  C   UNL     1       1.813  -2.545  -1.425  1.00  0.00     0.226 C 
ATOM     17  O   UNL     1       2.268  -2.049  -2.462  1.00  0.00    -0.275 OA
ATOM     18  H   UNL     1      -0.020  -2.489  -2.173  1.00  0.00     0.169 HD
BRANCH  16  19
ATOM     19  C   UNL     1       2.719  -2.866  -0.274  1.00  0.00     0.129 C 
BRANCH  19  20
ATOM     20  C   UNL     1       3.406  -1.622   0.284  1.00  0.00     0.170 C 
BRANCH  20  21
ATOM     21  O   UNL     1       2.565  -0.562   0.733  1.00  0.00    -0.381 OA
BRANCH  21  22
ATOM     22  C   UNL     1       1.917   0.182  -0.298  1.00  0.00     0.156 C 
ATOM     23  C   UNL     1       1.621   1.575   0.213  1.00  0.00     0.035 C 
ENDBRANCH  21  22
ENDBRANCH  20  21
ENDBRANCH  19  20
ENDBRANCH  16  19
ENDBRANCH   9  15
ENDBRANCH   6   8
ENDBRANCH   5   6
ENDBRANCH   4   5
ENDBRANCH   3   4
ENDBRANCH   2   3
ENDBRANCH   1   2
BRANCH   1  24
ATOM     24  C   UNL     1      -4.423  -2.740  -0.937  1.00  0.00     0.188 C 
BRANCH  24  25
ATOM     25  O   UNL     1      -5.337  -3.148   0.069  1.00  0.00    -0.377 OA
BRANCH  25  26
ATOM     26  C   UNL     1      -6.742  -3.072  -0.186  1.00  0.00     0.188 C 
BRANCH  26  27
ATOM     27  C   UNL     1      -7.346  -2.369  -1.431  1.00  0.00     0.188 C 
BRANCH  27  28
ATOM     28  O   UNL     1      -6.478  -1.452  -2.078  1.00  0.00    -0.376 OA
BRANCH  28  29
ATOM     29  C   UNL     1      -6.844  -0.084  -2.051  1.00  0.00     0.202 C 
BRANCH  29  30
ATOM     30  C   UNL     1      -6.702   0.591  -0.681  1.00  0.00     0.261 C 
BRANCH  30  31
ATOM     31  O   UNL     1      -7.423  -0.038   0.391  1.00  0.00    -0.460 OA
BRANCH  31  32
ATOM     32  C   UNL     1      -8.772  -0.013   0.311  1.00  0.00     0.338 C 
ATOM     33  O   UNL     1      -9.451   0.495  -0.561  1.00  0.00    -0.246 OA
BRANCH  32  34
ATOM     34  C   UNL     1      -9.304  -0.878   1.383  1.00  0.00     0.060 A 
ATOM     35  C   UNL     1     -10.117  -1.966   1.037  1.00  0.00     0.016 A 
ATOM     36  C   UNL     1      -9.013  -0.604   2.721  1.00  0.00     0.016 A 
ATOM     37  C   UNL     1     -10.686  -2.753   2.037  1.00  0.00     0.010 A 
ATOM     38  C   UNL     1      -9.598  -1.382   3.722  1.00  0.00     0.010 A 
ATOM     39  C   UNL     1     -10.472  -2.431   3.384  1.00  0.00    -0.014 A 
BRANCH  39  40
ATOM     40  C   UNL     1     -11.336  -3.037   4.424  1.00  0.00     0.031 A 
ATOM     41  C   UNL     1     -12.527  -2.250   4.903  1.00  0.00     0.074 A 
ATOM     42  C   UNL     1     -11.098  -4.267   4.911  1.00  0.00     0.049 A 
ATOM     43  N   UNL     1     -13.418  -2.558   5.811  1.00  0.00    -0.248 NA
ATOM     44  C   UNL     1     -12.740  -0.937   4.272  1.00  0.00     0.031 C 
ATOM     45  C   UNL     1     -10.008  -5.148   4.496  1.00  0.00     0.029 A 
ATOM     46  N   UNL     1     -11.769  -4.985   5.869  1.00  0.00    -0.354 N 
ATOM     47  C   UNL     1     -14.287  -1.476   5.865  1.00  0.00     0.074 A 
ATOM     48  C   UNL     1     -13.800  -0.490   4.927  1.00  0.00     0.031 C 
ATOM     49  C   UNL     1     -10.083  -6.291   5.201  1.00  0.00     0.029 A 
ATOM     50  C   UNL     1     -11.203  -6.207   6.137  1.00  0.00     0.049 A 
ATOM     51  H   UNL     1     -12.579  -4.655   6.321  1.00  0.00     0.167 HD
ATOM     52  C   UNL     1     -15.397  -1.317   6.624  1.00  0.00     0.031 A 
ATOM     53  C   UNL     1     -11.542  -7.141   7.047  1.00  0.00     0.031 A 
ATOM     54  C   UNL     1     -15.873  -2.288   7.570  1.00  0.00     0.049 A 
ATOM     55  C   UNL     1     -12.736  -6.906   7.937  1.00  0.00     0.074 A 
ATOM     56  C   UNL     1     -16.993  -2.227   8.380  1.00  0.00     0.029 A 
ATOM     57  N   UNL     1     -15.248  -3.495   7.841  1.00  0.00    -0.354 N 
ATOM     58  N   UNL     1     -13.566  -5.891   7.962  1.00  0.00    -0.248 NA
ATOM     59  C   UNL     1     -13.045  -7.957   8.918  1.00  0.00     0.031 C 
ATOM     60  C   UNL     1     -17.011  -3.368   9.187  1.00  0.00     0.029 A 
ATOM     61  C   UNL     1     -15.943  -4.175   8.826  1.00  0.00     0.049 A 
ATOM     62  H   UNL     1     -14.430  -3.821   7.399  1.00  0.00     0.167 HD
ATOM     63  C   UNL     1     -14.515  -6.198   8.931  1.00  0.00     0.074 A 
ATOM     64  C   UNL     1     -14.164  -7.499   9.461  1.00  0.00     0.031 C 
ATOM     65  C   UNL     1     -15.583  -5.471   9.343  1.00  0.00     0.031 A 
BRANCH  52  66
ATOM     66  C   UNL     1     -16.147  -0.020   6.486  1.00  0.00    -0.014 A 
ATOM     67  C   UNL     1     -16.866   0.292   5.321  1.00  0.00     0.009 A 
ATOM     68  C   UNL     1     -16.151   0.895   7.550  1.00  0.00     0.009 A 
ATOM     69  C   UNL     1     -17.542   1.509   5.212  1.00  0.00     0.001 A 
ATOM     70  C   UNL     1     -16.855   2.096   7.451  1.00  0.00     0.001 A 
ATOM     71  C   UNL     1     -17.541   2.407   6.279  1.00  0.00     0.000 A 
ENDBRANCH  52  66
BRANCH  53  72
ATOM     72  C   UNL     1     -10.735  -8.383   7.181  1.00  0.00    -0.014 A 
ATOM     73  C   UNL     1     -11.274  -9.632   6.837  1.00  0.00     0.009 A 
ATOM     74  C   UNL     1      -9.426  -8.327   7.686  1.00  0.00     0.009 A 
ATOM     75  C   UNL     1     -10.530 -10.801   7.024  1.00  0.00     0.001 A 
ATOM     76  C   UNL     1      -8.673  -9.494   7.841  1.00  0.00     0.001 A 
ATOM     77  C   UNL     1      -9.230 -10.730   7.521  1.00  0.00     0.000 A 
ENDBRANCH  53  72
BRANCH  65  78
ATOM     78  C   UNL     1     -16.482  -6.087  10.381  1.00  0.00    -0.014 A 
ATOM     79  C   UNL     1     -16.065  -6.257  11.711  1.00  0.00     0.009 A 
ATOM     80  C   UNL     1     -17.785  -6.471  10.025  1.00  0.00     0.009 A 
ATOM     81  C   UNL     1     -16.921  -6.838  12.650  1.00  0.00     0.001 A 
ATOM     82  C   UNL     1     -18.650  -7.018  10.974  1.00  0.00     0.001 A 
ATOM     83  C   UNL     1     -18.213  -7.212  12.283  1.00  0.00     0.000 A 
ENDBRANCH  65  78
ENDBRANCH  39  40
ENDBRANCH  32  34
ENDBRANCH  31  32
ENDBRANCH  30  31
ENDBRANCH  29  30
ENDBRANCH  28  29
ENDBRANCH  27  28
ENDBRANCH  26  27
ENDBRANCH  25  26
ENDBRANCH  24  25
ENDBRANCH   1  24
TORSDOF 25
