REMARK SMILES CC[C@@H](C(=O)OCCOCCOCCOCCOC(=O)c1ccc(-c2c3nc(c(-c4ccccc4)c4ccc([nH]4)c(-c4ccccc4)c4nc(c(-c5ccccc5)c5ccc2[nH]5)C=C4)C=C3)cc1)[N@@H+]1CCc2ccc(N)cc2C1
REMARK SMILES IDX 12 1 11 2 10 3 9 4 8 5 7 6 6 7 4 8 5 9 3 10 2 11 1 12 69 13
REMARK SMILES IDX 70 14 79 15 71 17 78 18 72 19 77 20 73 21 75 22 74 23 76 24
REMARK SMILES IDX 13 27 14 28 15 29 16 30 17 31 18 32 19 33 20 34 21 35 22 36
REMARK SMILES IDX 68 37 23 38 67 39 24 40 25 41 26 42 61 43 27 44 66 45 60 46
REMARK SMILES IDX 62 47 28 48 65 49 59 50 58 51 29 53 51 54 36 55 50 56 37 57
REMARK SMILES IDX 40 58 49 59 63 60 38 61 39 62 48 64 64 65 41 66 30 67 31 68
REMARK SMILES IDX 35 69 32 70 34 71 33 72 52 73 53 74 57 75 54 76 56 77 55 78
REMARK SMILES IDX 42 79 43 80 47 81 44 82 46 83 45 84
REMARK H PARENT 69 16 76 25 76 26 62 52 40 63
REMARK Flexibility Score: inf
ROOT
ATOM      1  O   UNL     1      -3.803  -3.892   1.000  1.00  0.00    -0.377 OA
ENDROOT
BRANCH   1   2
ATOM      2  C   UNL     1      -3.019  -5.100   1.077  1.00  0.00     0.188 C 
BRANCH   2   3
ATOM      3  C   UNL     1      -1.598  -5.053   1.728  1.00  0.00     0.188 C 
BRANCH   3   4
ATOM      4  O   UNL     1      -0.469  -4.755   0.849  1.00  0.00    -0.376 OA
BRANCH   4   5
ATOM      5  C   UNL     1       0.769  -4.613   1.613  1.00  0.00     0.202 C 
BRANCH   5   6
ATOM      6  C   UNL     1       2.137  -4.521   0.818  1.00  0.00     0.261 C 
BRANCH   6   7
ATOM      7  O   UNL     1       2.411  -3.201   0.235  1.00  0.00    -0.459 OA
BRANCH   7   8
ATOM      8  C   UNL     1       3.382  -2.990  -0.715  1.00  0.00     0.364 C 
ATOM      9  O   UNL     1       4.425  -3.636  -0.723  1.00  0.00    -0.245 OA
BRANCH   8  10
ATOM     10  C   UNL     1       2.973  -1.923  -1.898  1.00  0.00     0.295 C 
BRANCH  10  11
ATOM     11  C   UNL     1       2.884  -0.413  -1.548  1.00  0.00     0.074 C 
ATOM     12  C   UNL     1       3.515   0.072  -0.252  1.00  0.00     0.011 C 
ENDBRANCH  10  11
BRANCH  10  13
ATOM     13  N   UNL     1       1.893  -2.469  -2.844  1.00  0.00    -0.319 N 
ATOM     14  C   UNL     1       0.961  -1.557  -3.623  1.00  0.00     0.268 C 
ATOM     15  C   UNL     1       1.020  -3.343  -2.096  1.00  0.00     0.300 C 
ATOM     16  H   UNL     1       2.490  -2.876  -3.564  1.00  0.00     0.349 HD
ATOM     17  C   UNL     1      -0.641  -1.912  -3.535  1.00  0.00     0.097 C 
ATOM     18  C   UNL     1       0.056  -2.495  -1.320  1.00  0.00     0.012 A 
ATOM     19  C   UNL     1      -1.012  -2.093  -2.079  1.00  0.00    -0.033 A 
ATOM     20  C   UNL     1       0.221  -1.818  -0.115  1.00  0.00     0.035 A 
ATOM     21  C   UNL     1      -2.174  -1.815  -1.397  1.00  0.00     0.006 A 
ATOM     22  C   UNL     1      -0.849  -1.325   0.577  1.00  0.00     0.032 A 
ATOM     23  C   UNL     1      -2.068  -1.514  -0.026  1.00  0.00     0.026 A 
BRANCH  22  24
ATOM     24  N   UNL     1      -0.701  -0.866   1.873  1.00  0.00    -0.399 N 
ATOM     25  H   UNL     1      -1.480  -0.513   2.362  1.00  0.00     0.156 HD
ATOM     26  H   UNL     1       0.182  -0.891   2.307  1.00  0.00     0.156 HD
ENDBRANCH  22  24
ENDBRANCH  10  13
ENDBRANCH   8  10
ENDBRANCH   7   8
ENDBRANCH   6   7
ENDBRANCH   5   6
ENDBRANCH   4   5
ENDBRANCH   3   4
ENDBRANCH   2   3
ENDBRANCH   1   2
BRANCH   1  27
ATOM     27  C   UNL     1      -4.194  -3.298   2.237  1.00  0.00     0.188 C 
BRANCH  27  28
ATOM     28  C   UNL     1      -5.653  -2.757   2.269  1.00  0.00     0.188 C 
BRANCH  28  29
ATOM     29  O   UNL     1      -6.265  -2.079   1.175  1.00  0.00    -0.376 OA
BRANCH  29  30
ATOM     30  C   UNL     1      -5.521  -1.179   0.376  1.00  0.00     0.202 C 
BRANCH  30  31
ATOM     31  C   UNL     1      -5.272   0.225   0.941  1.00  0.00     0.261 C 
BRANCH  31  32
ATOM     32  O   UNL     1      -4.377   0.238   2.067  1.00  0.00    -0.460 OA
BRANCH  32  33
ATOM     33  C   UNL     1      -4.960   0.517   3.245  1.00  0.00     0.338 C 
ATOM     34  O   UNL     1      -6.157   0.681   3.481  1.00  0.00    -0.246 OA
BRANCH  33  35
ATOM     35  C   UNL     1      -3.956   0.537   4.308  1.00  0.00     0.060 A 
ATOM     36  C   UNL     1      -3.979  -0.500   5.244  1.00  0.00     0.016 A 
ATOM     37  C   UNL     1      -3.140   1.659   4.491  1.00  0.00     0.016 A 
ATOM     38  C   UNL     1      -3.231  -0.389   6.411  1.00  0.00     0.010 A 
ATOM     39  C   UNL     1      -2.398   1.774   5.668  1.00  0.00     0.010 A 
ATOM     40  C   UNL     1      -2.489   0.775   6.653  1.00  0.00    -0.014 A 
BRANCH  40  41
ATOM     41  C   UNL     1      -2.028   1.041   8.033  1.00  0.00     0.031 A 
ATOM     42  C   UNL     1      -2.968   1.747   8.972  1.00  0.00     0.074 A 
ATOM     43  C   UNL     1      -0.828   0.615   8.457  1.00  0.00     0.049 A 
ATOM     44  N   UNL     1      -2.816   2.029  10.240  1.00  0.00    -0.248 NA
ATOM     45  C   UNL     1      -4.257   2.184   8.407  1.00  0.00     0.031 C 
ATOM     46  C   UNL     1       0.147  -0.114   7.649  1.00  0.00     0.029 A 
ATOM     47  N   UNL     1      -0.232   0.735   9.685  1.00  0.00    -0.354 N 
ATOM     48  C   UNL     1      -3.993   2.659  10.627  1.00  0.00     0.074 A 
ATOM     49  C   UNL     1      -4.837   2.746   9.456  1.00  0.00     0.031 C 
ATOM     50  C   UNL     1       1.229  -0.373   8.405  1.00  0.00     0.029 A 
ATOM     51  C   UNL     1       1.023   0.185   9.740  1.00  0.00     0.049 A 
ATOM     52  H   UNL     1      -0.663   1.174  10.453  1.00  0.00     0.167 HD
ATOM     53  C   UNL     1      -4.345   3.120  11.850  1.00  0.00     0.031 A 
ATOM     54  C   UNL     1       1.905   0.147  10.756  1.00  0.00     0.031 A 
ATOM     55  C   UNL     1      -3.491   3.076  13.003  1.00  0.00     0.049 A 
ATOM     56  C   UNL     1       1.526   0.744  12.084  1.00  0.00     0.074 A 
ATOM     57  C   UNL     1      -3.743   3.532  14.284  1.00  0.00     0.029 A 
ATOM     58  N   UNL     1      -2.208   2.553  13.005  1.00  0.00    -0.354 N 
ATOM     59  N   UNL     1       0.397   1.307  12.445  1.00  0.00    -0.248 NA
ATOM     60  C   UNL     1       2.540   0.690  13.147  1.00  0.00     0.031 C 
ATOM     61  C   UNL     1      -2.592   3.322  15.053  1.00  0.00     0.029 A 
ATOM     62  C   UNL     1      -1.643   2.696  14.260  1.00  0.00     0.049 A 
ATOM     63  H   UNL     1      -1.763   2.142  12.229  1.00  0.00     0.167 HD
ATOM     64  C   UNL     1       0.556   1.651  13.782  1.00  0.00     0.074 A 
ATOM     65  C   UNL     1       1.886   1.224  14.169  1.00  0.00     0.031 C 
ATOM     66  C   UNL     1      -0.319   2.263  14.617  1.00  0.00     0.031 A 
BRANCH  53  67
ATOM     67  C   UNL     1      -5.704   3.744  11.976  1.00  0.00    -0.014 A 
ATOM     68  C   UNL     1      -6.864   2.953  11.991  1.00  0.00     0.009 A 
ATOM     69  C   UNL     1      -5.827   5.138  12.075  1.00  0.00     0.009 A 
ATOM     70  C   UNL     1      -8.124   3.550  12.071  1.00  0.00     0.001 A 
ATOM     71  C   UNL     1      -7.088   5.730  12.175  1.00  0.00     0.001 A 
ATOM     72  C   UNL     1      -8.234   4.937  12.164  1.00  0.00     0.000 A 
ENDBRANCH  53  67
BRANCH  54  73
ATOM     73  C   UNL     1       3.239  -0.474  10.559  1.00  0.00    -0.014 A 
ATOM     74  C   UNL     1       3.553  -1.703  11.158  1.00  0.00     0.009 A 
ATOM     75  C   UNL     1       4.212   0.173   9.781  1.00  0.00     0.009 A 
ATOM     76  C   UNL     1       4.824  -2.261  10.999  1.00  0.00     0.001 A 
ATOM     77  C   UNL     1       5.474  -0.398   9.606  1.00  0.00     0.001 A 
ATOM     78  C   UNL     1       5.781  -1.610  10.222  1.00  0.00     0.000 A 
ENDBRANCH  54  73
BRANCH  66  79
ATOM     79  C   UNL     1       0.125   2.476  16.035  1.00  0.00    -0.014 A 
ATOM     80  C   UNL     1       1.044   3.484  16.363  1.00  0.00     0.009 A 
ATOM     81  C   UNL     1      -0.417   1.684  17.059  1.00  0.00     0.009 A 
ATOM     82  C   UNL     1       1.434   3.675  17.690  1.00  0.00     0.001 A 
ATOM     83  C   UNL     1      -0.042   1.892  18.386  1.00  0.00     0.001 A 
ATOM     84  C   UNL     1       0.888   2.882  18.700  1.00  0.00     0.000 A 
ENDBRANCH  66  79
ENDBRANCH  40  41
ENDBRANCH  33  35
ENDBRANCH  32  33
ENDBRANCH  31  32
ENDBRANCH  30  31
ENDBRANCH  29  30
ENDBRANCH  28  29
ENDBRANCH  27  28
ENDBRANCH   1  27
TORSDOF 23
