REMARK SMILES CO[C@H]1CC[C@@H]([NH2+]CC(=O)OCCOCCOCCOCCOC(=O)c2ccc(-c3c4nc(c(-c5ccccc5)c5ccc([nH]5)c(-c5ccccc5)c5nc(c(-c6ccccc6)c6ccc3[nH]6)C=C5)C=C4)cc2)CC1
REMARK SMILES IDX 16 1 15 2 14 3 13 4 12 5 11 6 9 7 10 8 8 9 7 10 6 13 3 14
REMARK SMILES IDX 75 15 4 16 74 17 5 18 2 19 1 20 17 21 18 22 19 23 20 24
REMARK SMILES IDX 21 25 22 26 23 27 24 28 25 29 26 30 27 31 73 32 28 33 72 34
REMARK SMILES IDX 29 35 30 36 31 37 66 38 32 39 71 40 65 41 67 42 33 43 70 44
REMARK SMILES IDX 64 45 63 46 34 48 56 49 41 50 55 51 42 52 45 53 54 54 68 55
REMARK SMILES IDX 43 56 44 57 53 59 69 60 46 61 35 62 36 63 40 64 37 65 39 66
REMARK SMILES IDX 38 67 57 68 58 69 62 70 59 71 61 72 60 73 47 74 48 75 52 76
REMARK SMILES IDX 49 77 51 78 50 79
REMARK H PARENT 7 11 7 12 67 47 45 58
REMARK Flexibility Score: inf
ROOT
ATOM      1  C   UNL     1       0.063  -1.664   5.313  1.00  0.00     0.188 C 
ENDROOT
BRANCH   1   2
ATOM      2  C   UNL     1       0.709  -2.515   6.411  1.00  0.00     0.188 C 
BRANCH   2   3
ATOM      3  O   UNL     1       2.034  -2.149   6.795  1.00  0.00    -0.376 OA
BRANCH   3   4
ATOM      4  C   UNL     1       3.104  -2.595   5.949  1.00  0.00     0.202 C 
BRANCH   4   5
ATOM      5  C   UNL     1       3.342  -4.105   5.950  1.00  0.00     0.261 C 
BRANCH   5   6
ATOM      6  O   UNL     1       2.482  -4.706   4.960  1.00  0.00    -0.459 OA
BRANCH   6   7
ATOM      7  C   UNL     1       1.627  -5.678   5.357  1.00  0.00     0.361 C 
ATOM      8  O   UNL     1       1.604  -6.161   6.483  1.00  0.00    -0.245 OA
BRANCH   7   9
ATOM      9  C   UNL     1       0.645  -6.087   4.259  1.00  0.00     0.385 C 
BRANCH   9  10
ATOM     10  N   UNL     1       0.490  -5.135   3.135  1.00  0.00    -0.335 N 
ATOM     11  H   UNL     1      -0.463  -5.214   2.781  1.00  0.00     0.347 HD
ATOM     12  H   UNL     1       0.707  -4.212   3.511  1.00  0.00     0.347 HD
BRANCH  10  13
ATOM     13  C   UNL     1       1.412  -5.347   2.011  1.00  0.00     0.183 C 
ATOM     14  C   UNL     1       1.130  -2.943   0.219  1.00  0.00     0.118 C 
ATOM     15  C   UNL     1       1.903  -2.889   1.533  1.00  0.00     0.038 C 
ATOM     16  C   UNL     1       0.039  -4.016   0.287  1.00  0.00     0.038 C 
ATOM     17  C   UNL     1       2.488  -4.252   1.885  1.00  0.00     0.067 C 
ATOM     18  C   UNL     1       0.594  -5.380   0.702  1.00  0.00     0.067 C 
BRANCH  14  19
ATOM     19  O   UNL     1       0.545  -1.659   0.008  1.00  0.00    -0.381 OA
ATOM     20  C   UNL     1       0.266  -1.394  -1.358  1.00  0.00     0.195 C 
ENDBRANCH  14  19
ENDBRANCH  10  13
ENDBRANCH   9  10
ENDBRANCH   7   9
ENDBRANCH   6   7
ENDBRANCH   5   6
ENDBRANCH   4   5
ENDBRANCH   3   4
ENDBRANCH   2   3
ENDBRANCH   1   2
BRANCH   1  21
ATOM     21  O   UNL     1       0.995  -1.273   4.314  1.00  0.00    -0.377 OA
BRANCH  21  22
ATOM     22  C   UNL     1       1.591  -0.010   4.618  1.00  0.00     0.188 C 
BRANCH  22  23
ATOM     23  C   UNL     1       0.950   1.095   3.797  1.00  0.00     0.188 C 
BRANCH  23  24
ATOM     24  O   UNL     1      -0.473   1.125   3.856  1.00  0.00    -0.376 OA
BRANCH  24  25
ATOM     25  C   UNL     1      -1.107   0.463   2.749  1.00  0.00     0.202 C 
BRANCH  25  26
ATOM     26  C   UNL     1      -1.166   1.322   1.474  1.00  0.00     0.261 C 
BRANCH  26  27
ATOM     27  O   UNL     1       0.048   1.222   0.702  1.00  0.00    -0.460 OA
BRANCH  27  28
ATOM     28  C   UNL     1       0.966   2.209   0.836  1.00  0.00     0.338 C 
ATOM     29  O   UNL     1       0.857   3.245   1.458  1.00  0.00    -0.246 OA
BRANCH  28  30
ATOM     30  C   UNL     1       2.243   1.726   0.258  1.00  0.00     0.060 A 
ATOM     31  C   UNL     1       3.409   1.755   1.035  1.00  0.00     0.016 A 
ATOM     32  C   UNL     1       2.293   1.276  -1.059  1.00  0.00     0.016 A 
ATOM     33  C   UNL     1       4.637   1.387   0.474  1.00  0.00     0.010 A 
ATOM     34  C   UNL     1       3.511   0.869  -1.607  1.00  0.00     0.010 A 
ATOM     35  C   UNL     1       4.704   0.986  -0.868  1.00  0.00    -0.014 A 
BRANCH  35  36
ATOM     36  C   UNL     1       6.006   0.940  -1.592  1.00  0.00     0.031 A 
ATOM     37  C   UNL     1       6.273   2.012  -2.625  1.00  0.00     0.074 A 
ATOM     38  C   UNL     1       6.939  -0.002  -1.360  1.00  0.00     0.049 A 
ATOM     39  N   UNL     1       7.265   2.128  -3.473  1.00  0.00    -0.248 NA
ATOM     40  C   UNL     1       5.267   3.084  -2.733  1.00  0.00     0.031 C 
ATOM     41  C   UNL     1       6.845  -1.078  -0.375  1.00  0.00     0.029 A 
ATOM     42  N   UNL     1       8.163  -0.201  -1.956  1.00  0.00    -0.354 N 
ATOM     43  C   UNL     1       6.983   3.264  -4.224  1.00  0.00     0.074 A 
ATOM     44  C   UNL     1       5.701   3.761  -3.783  1.00  0.00     0.031 C 
ATOM     45  C   UNL     1       7.968  -1.819  -0.430  1.00  0.00     0.029 A 
ATOM     46  C   UNL     1       8.843  -1.296  -1.478  1.00  0.00     0.049 A 
ATOM     47  H   UNL     1       8.519   0.387  -2.661  1.00  0.00     0.167 HD
ATOM     48  C   UNL     1       7.733   3.870  -5.174  1.00  0.00     0.031 A 
ATOM     49  C   UNL     1      10.027  -1.820  -1.855  1.00  0.00     0.031 A 
ATOM     50  C   UNL     1       9.023   3.409  -5.602  1.00  0.00     0.049 A 
ATOM     51  C   UNL     1      10.815  -1.166  -2.967  1.00  0.00     0.074 A 
ATOM     52  C   UNL     1       9.867   3.966  -6.548  1.00  0.00     0.029 A 
ATOM     53  N   UNL     1       9.664   2.289  -5.100  1.00  0.00    -0.354 N 
ATOM     54  N   UNL     1      10.544  -0.082  -3.653  1.00  0.00    -0.248 NA
ATOM     55  C   UNL     1      12.083  -1.810  -3.348  1.00  0.00     0.031 C 
ATOM     56  C   UNL     1      11.000   3.155  -6.651  1.00  0.00     0.029 A 
ATOM     57  C   UNL     1      10.888   2.131  -5.724  1.00  0.00     0.049 A 
ATOM     58  H   UNL     1       9.302   1.695  -4.404  1.00  0.00     0.167 HD
ATOM     59  C   UNL     1      11.625   0.108  -4.508  1.00  0.00     0.074 A 
ATOM     60  C   UNL     1      12.563  -0.961  -4.244  1.00  0.00     0.031 C 
ATOM     61  C   UNL     1      11.825   1.080  -5.432  1.00  0.00     0.031 A 
BRANCH  48  62
ATOM     62  C   UNL     1       7.173   5.113  -5.808  1.00  0.00    -0.014 A 
ATOM     63  C   UNL     1       7.049   6.307  -5.077  1.00  0.00     0.009 A 
ATOM     64  C   UNL     1       6.793   5.102  -7.158  1.00  0.00     0.009 A 
ATOM     65  C   UNL     1       6.522   7.452  -5.675  1.00  0.00     0.001 A 
ATOM     66  C   UNL     1       6.299   6.259  -7.764  1.00  0.00     0.001 A 
ATOM     67  C   UNL     1       6.155   7.429  -7.020  1.00  0.00     0.000 A 
ENDBRANCH  48  62
BRANCH  49  68
ATOM     68  C   UNL     1      10.566  -3.046  -1.198  1.00  0.00    -0.014 A 
ATOM     69  C   UNL     1      11.756  -2.993  -0.453  1.00  0.00     0.009 A 
ATOM     70  C   UNL     1       9.943  -4.290  -1.384  1.00  0.00     0.009 A 
ATOM     71  C   UNL     1      12.336  -4.162   0.045  1.00  0.00     0.001 A 
ATOM     72  C   UNL     1      10.506  -5.453  -0.853  1.00  0.00     0.001 A 
ATOM     73  C   UNL     1      11.710  -5.391  -0.154  1.00  0.00     0.000 A 
ENDBRANCH  49  68
BRANCH  61  74
ATOM     74  C   UNL     1      13.131   1.080  -6.179  1.00  0.00    -0.014 A 
ATOM     75  C   UNL     1      13.428   0.105  -7.144  1.00  0.00     0.009 A 
ATOM     76  C   UNL     1      14.058   2.110  -5.948  1.00  0.00     0.009 A 
ATOM     77  C   UNL     1      14.642   0.142  -7.834  1.00  0.00     0.001 A 
ATOM     78  C   UNL     1      15.255   2.164  -6.664  1.00  0.00     0.001 A 
ATOM     79  C   UNL     1      15.550   1.173  -7.599  1.00  0.00     0.000 A 
ENDBRANCH  61  74
ENDBRANCH  35  36
ENDBRANCH  28  30
ENDBRANCH  27  28
ENDBRANCH  26  27
ENDBRANCH  25  26
ENDBRANCH  24  25
ENDBRANCH  23  24
ENDBRANCH  22  23
ENDBRANCH  21  22
ENDBRANCH   1  21
TORSDOF 23
