REMARK SMILES O=C(OCCOCCOCCOCCOC(=O)c1ccc(-c2c3nc(c(-c4ccccc4)c4ccc([nH]4)c(-c4ccccc4)c4nc(c(-c5ccccc5)c5ccc2[nH]5)C=C4)C=C3)cc1)C1=Cc2cc(OC(F)(F)F)ccc2O[C@@H]1C(F)(F)F
REMARK SMILES IDX 9 1 8 2 7 3 6 4 5 5 4 6 3 7 2 8 1 9 66 10 67 11 80 12 68 13
REMARK SMILES IDX 79 14 69 15 78 16 70 17 77 18 76 19 81 20 82 21 83 22 84 23
REMARK SMILES IDX 71 24 72 25 73 26 74 27 75 28 10 29 11 30 12 31 13 32 14 33
REMARK SMILES IDX 15 34 16 35 17 36 18 37 19 38 65 39 20 40 64 41 21 42 22 43
REMARK SMILES IDX 23 44 58 45 24 46 63 47 57 48 59 49 25 50 62 51 56 52 55 53
REMARK SMILES IDX 26 55 48 56 33 57 47 58 34 59 37 60 46 61 60 62 35 63 36 64
REMARK SMILES IDX 45 66 61 67 38 68 27 69 28 70 32 71 29 72 31 73 30 74 49 75
REMARK SMILES IDX 50 76 54 77 51 78 53 79 52 80 39 81 40 82 44 83 41 84 43 85
REMARK SMILES IDX 42 86
REMARK H PARENT 59 54 37 65
REMARK Flexibility Score: inf
ROOT
ATOM      1  O   UNL     1       2.750  -4.127   0.026  1.00  0.00    -0.377 OA
ENDROOT
BRANCH   1   2
ATOM      2  C   UNL     1       1.929  -2.996  -0.142  1.00  0.00     0.188 C 
BRANCH   2   3
ATOM      3  C   UNL     1       2.303  -2.058  -1.302  1.00  0.00     0.188 C 
BRANCH   3   4
ATOM      4  O   UNL     1       3.639  -1.476  -1.532  1.00  0.00    -0.376 OA
BRANCH   4   5
ATOM      5  C   UNL     1       4.379  -0.060  -1.007  1.00  0.00     0.202 C 
BRANCH   5   6
ATOM      6  C   UNL     1       3.644   1.255   0.575  1.00  0.00     0.261 C 
BRANCH   6   7
ATOM      7  O   UNL     1       2.668   2.394   0.412  1.00  0.00    -0.460 OA
BRANCH   7   8
ATOM      8  C   UNL     1       2.819   3.019  -0.761  1.00  0.00     0.338 C 
ATOM      9  O   UNL     1       2.105   3.860  -1.249  1.00  0.00    -0.246 OA
BRANCH   8  10
ATOM     10  C   UNL     1       3.718   2.055  -1.383  1.00  0.00     0.087 C 
ATOM     11  C   UNL     1       5.103   2.129  -0.915  1.00  0.00     0.027 C 
ATOM     12  C   UNL     1       2.528   0.593  -1.027  1.00  0.00     0.316 C 
ATOM     13  C   UNL     1       5.845   0.990   0.255  1.00  0.00     0.021 A 
ATOM     14  O   UNL     1       3.245  -0.580   0.363  1.00  0.00    -0.475 OA
ATOM     15  C   UNL     1       7.142   1.185   0.639  1.00  0.00     0.058 A 
ATOM     16  C   UNL     1       4.957  -0.293   0.986  1.00  0.00     0.128 A 
ATOM     17  C   UNL     1       7.661   0.287   1.595  1.00  0.00     0.130 A 
ATOM     18  C   UNL     1       5.522  -1.117   1.926  1.00  0.00     0.051 A 
ATOM     19  C   UNL     1       6.894  -0.799   2.198  1.00  0.00     0.050 A 
BRANCH  12  20
ATOM     20  C   UNL     1       2.236   0.354  -2.676  1.00  0.00     0.430 C 
ATOM     21  F   UNL     1       1.371  -0.610  -3.039  1.00  0.00    -0.167 F 
ATOM     22  F   UNL     1       1.652   1.505  -3.134  1.00  0.00    -0.167 F 
ATOM     23  F   UNL     1       3.342   0.215  -3.448  1.00  0.00    -0.167 F 
ENDBRANCH  12  20
BRANCH  17  24
ATOM     24  O   UNL     1       8.973   0.603   1.866  1.00  0.00    -0.406 OA
BRANCH  24  25
ATOM     25  C   UNL     1       9.730  -0.180   2.764  1.00  0.00     0.573 C 
ATOM     26  F   UNL     1       9.200  -0.136   4.003  1.00  0.00    -0.132 F 
ATOM     27  F   UNL     1       9.807  -1.458   2.344  1.00  0.00    -0.132 F 
ATOM     28  F   UNL     1      10.982   0.327   2.820  1.00  0.00    -0.132 F 
ENDBRANCH  24  25
ENDBRANCH  17  24
ENDBRANCH   8  10
ENDBRANCH   7   8
ENDBRANCH   6   7
ENDBRANCH   5   6
ENDBRANCH   4   5
ENDBRANCH   3   4
ENDBRANCH   2   3
ENDBRANCH   1   2
BRANCH   1  29
ATOM     29  C   UNL     1       4.079  -3.767   0.311  1.00  0.00     0.188 C 
BRANCH  29  30
ATOM     30  C   UNL     1       5.098  -3.946  -0.823  1.00  0.00     0.188 C 
BRANCH  30  31
ATOM     31  O   UNL     1       4.757  -4.317  -2.148  1.00  0.00    -0.376 OA
BRANCH  31  32
ATOM     32  C   UNL     1       3.565  -5.008  -2.460  1.00  0.00     0.202 C 
BRANCH  32  33
ATOM     33  C   UNL     1       3.270  -6.403  -1.895  1.00  0.00     0.261 C 
BRANCH  33  34
ATOM     34  O   UNL     1       3.583  -6.603  -0.513  1.00  0.00    -0.460 OA
BRANCH  34  35
ATOM     35  C   UNL     1       4.845  -7.015  -0.275  1.00  0.00     0.338 C 
ATOM     36  O   UNL     1       5.691  -7.313  -1.100  1.00  0.00    -0.246 OA
BRANCH  35  37
ATOM     37  C   UNL     1       5.144  -6.888   1.167  1.00  0.00     0.060 A 
ATOM     38  C   UNL     1       6.354  -6.275   1.523  1.00  0.00     0.016 A 
ATOM     39  C   UNL     1       4.281  -7.376   2.151  1.00  0.00     0.016 A 
ATOM     40  C   UNL     1       6.740  -6.204   2.853  1.00  0.00     0.010 A 
ATOM     41  C   UNL     1       4.691  -7.348   3.487  1.00  0.00     0.010 A 
ATOM     42  C   UNL     1       5.947  -6.814   3.829  1.00  0.00    -0.014 A 
BRANCH  42  43
ATOM     43  C   UNL     1       6.574  -7.115   5.134  1.00  0.00     0.031 A 
ATOM     44  C   UNL     1       7.112  -8.504   5.356  1.00  0.00     0.074 A 
ATOM     45  C   UNL     1       6.759  -6.153   6.053  1.00  0.00     0.049 A 
ATOM     46  N   UNL     1       7.713  -9.002   6.405  1.00  0.00    -0.248 NA
ATOM     47  C   UNL     1       6.955  -9.456   4.243  1.00  0.00     0.031 C 
ATOM     48  C   UNL     1       6.346  -4.758   5.913  1.00  0.00     0.029 A 
ATOM     49  N   UNL     1       7.353  -6.211   7.286  1.00  0.00    -0.354 N 
ATOM     50  C   UNL     1       7.998 -10.323   6.080  1.00  0.00     0.074 A 
ATOM     51  C   UNL     1       7.466 -10.563   4.758  1.00  0.00     0.031 C 
ATOM     52  C   UNL     1       6.695  -4.090   7.026  1.00  0.00     0.029 A 
ATOM     53  C   UNL     1       7.316  -5.020   7.967  1.00  0.00     0.049 A 
ATOM     54  H   UNL     1       7.767  -7.027   7.648  1.00  0.00     0.167 HD
ATOM     55  C   UNL     1       8.659 -11.251   6.811  1.00  0.00     0.031 A 
ATOM     56  C   UNL     1       7.712  -4.728   9.220  1.00  0.00     0.031 A 
ATOM     57  C   UNL     1       9.168 -11.012   8.135  1.00  0.00     0.049 A 
ATOM     58  C   UNL     1       8.342  -5.811  10.058  1.00  0.00     0.074 A 
ATOM     59  C   UNL     1       9.839 -11.886   8.971  1.00  0.00     0.029 A 
ATOM     60  N   UNL     1       9.055  -9.810   8.817  1.00  0.00    -0.354 N 
ATOM     61  N   UNL     1       8.614  -7.055   9.740  1.00  0.00    -0.248 NA
ATOM     62  C   UNL     1       8.733  -5.442  11.425  1.00  0.00     0.031 C 
ATOM     63  C   UNL     1      10.068 -11.234  10.187  1.00  0.00     0.029 A 
ATOM     64  C   UNL     1       9.619  -9.928  10.075  1.00  0.00     0.049 A 
ATOM     65  H   UNL     1       8.635  -8.994   8.459  1.00  0.00     0.167 HD
ATOM     66  C   UNL     1       9.240  -7.604  10.854  1.00  0.00     0.074 A 
ATOM     67  C   UNL     1       9.331  -6.548  11.841  1.00  0.00     0.031 C 
ATOM     68  C   UNL     1       9.700  -8.866  11.046  1.00  0.00     0.031 A 
BRANCH  55  69
ATOM     69  C   UNL     1       8.836 -12.617   6.206  1.00  0.00    -0.014 A 
ATOM     70  C   UNL     1       9.671 -12.824   5.095  1.00  0.00     0.009 A 
ATOM     71  C   UNL     1       8.184 -13.722   6.776  1.00  0.00     0.009 A 
ATOM     72  C   UNL     1       9.821 -14.101   4.549  1.00  0.00     0.001 A 
ATOM     73  C   UNL     1       8.364 -15.002   6.250  1.00  0.00     0.001 A 
ATOM     74  C   UNL     1       9.174 -15.189   5.132  1.00  0.00     0.000 A 
ENDBRANCH  55  69
BRANCH  56  75
ATOM     75  C   UNL     1       7.485  -3.369   9.783  1.00  0.00    -0.014 A 
ATOM     76  C   UNL     1       8.561  -2.552  10.162  1.00  0.00     0.009 A 
ATOM     77  C   UNL     1       6.177  -2.902   9.993  1.00  0.00     0.009 A 
ATOM     78  C   UNL     1       8.331  -1.321  10.781  1.00  0.00     0.001 A 
ATOM     79  C   UNL     1       5.950  -1.653  10.572  1.00  0.00     0.001 A 
ATOM     80  C   UNL     1       7.027  -0.871  10.982  1.00  0.00     0.000 A 
ENDBRANCH  56  75
BRANCH  68  81
ATOM     81  C   UNL     1      10.392  -9.155  12.352  1.00  0.00    -0.014 A 
ATOM     82  C   UNL     1       9.699  -9.149  13.573  1.00  0.00     0.009 A 
ATOM     83  C   UNL     1      11.764  -9.455  12.355  1.00  0.00     0.009 A 
ATOM     84  C   UNL     1      10.377  -9.380  14.772  1.00  0.00     0.001 A 
ATOM     85  C   UNL     1      12.430  -9.730  13.549  1.00  0.00     0.001 A 
ATOM     86  C   UNL     1      11.740  -9.675  14.758  1.00  0.00     0.000 A 
ENDBRANCH  68  81
ENDBRANCH  42  43
ENDBRANCH  35  37
ENDBRANCH  34  35
ENDBRANCH  33  34
ENDBRANCH  32  33
ENDBRANCH  31  32
ENDBRANCH  30  31
ENDBRANCH  29  30
ENDBRANCH   1  29
TORSDOF 23
