REMARK SMILES C[C@@H]1CN(C(=O)Nc2ccc(O)c(C(=O)OCCOCCOCCOCCOC(=O)c3ccc(-c4c5nc(c(-c6ccccc6)c6ccc([nH]6)c(-c6ccccc6)c6nc(c(-c7ccccc7)c7ccc4[nH]7)C=C6)C=C5)cc3)c2)C[C@@H]1C
REMARK SMILES IDX 22 1 21 2 20 3 19 4 18 5 17 6 16 7 14 8 15 9 13 10 8 11 9 12
REMARK SMILES IDX 79 13 10 14 11 15 7 16 5 17 6 18 4 20 1 21 2 22 3 23 81 24
REMARK SMILES IDX 80 25 82 26 12 27 23 29 24 30 25 31 26 32 27 33 28 34 29 35
REMARK SMILES IDX 30 36 31 37 32 38 78 39 33 40 77 41 34 42 35 43 36 44 71 45
REMARK SMILES IDX 37 46 76 47 70 48 72 49 38 50 75 51 69 52 68 53 39 55 61 56
REMARK SMILES IDX 46 57 60 58 47 59 50 60 59 61 73 62 48 63 49 64 58 66 74 67
REMARK SMILES IDX 51 68 40 69 41 70 45 71 42 72 44 73 43 74 62 75 63 76 67 77
REMARK SMILES IDX 64 78 66 79 65 80 52 81 53 82 57 83 54 84 56 85 55 86
REMARK H PARENT 7 19 12 28 72 54 50 65
REMARK Flexibility Score: inf
ROOT
ATOM      1  O   UNL     1       5.330   3.811   6.378  1.00  0.00    -0.377 OA
ENDROOT
BRANCH   1   2
ATOM      2  C   UNL     1       5.587   2.415   6.283  1.00  0.00     0.188 C 
BRANCH   2   3
ATOM      3  C   UNL     1       6.867   1.898   5.583  1.00  0.00     0.188 C 
BRANCH   3   4
ATOM      4  O   UNL     1       7.821   2.909   5.308  1.00  0.00    -0.376 OA
BRANCH   4   5
ATOM      5  C   UNL     1       8.121   3.233   3.964  1.00  0.00     0.202 C 
BRANCH   5   6
ATOM      6  C   UNL     1       6.993   3.724   3.047  1.00  0.00     0.261 C 
BRANCH   6   7
ATOM      7  O   UNL     1       5.720   3.126   3.287  1.00  0.00    -0.460 OA
BRANCH   7   8
ATOM      8  C   UNL     1       5.427   1.980   2.634  1.00  0.00     0.342 C 
ATOM      9  O   UNL     1       6.147   1.381   1.854  1.00  0.00    -0.246 OA
BRANCH   8  10
ATOM     10  C   UNL     1       4.199   1.419   3.243  1.00  0.00     0.103 A 
ATOM     11  C   UNL     1       3.102  -0.505   4.196  1.00  0.00     0.044 A 
ATOM     12  C   UNL     1       2.040   0.299   4.616  1.00  0.00     0.030 A 
ATOM     13  C   UNL     1       4.219   0.058   3.583  1.00  0.00     0.045 A 
ATOM     14  C   UNL     1       2.022   1.656   4.287  1.00  0.00     0.049 A 
ATOM     15  C   UNL     1       3.082   2.204   3.565  1.00  0.00     0.130 A 
BRANCH  11  16
ATOM     16  N   UNL     1       3.014  -1.894   4.283  1.00  0.00    -0.308 N 
ATOM     17  C   UNL     1       2.208  -2.757   3.592  1.00  0.00     0.321 C 
ATOM     18  O   UNL     1       2.286  -3.953   3.891  1.00  0.00    -0.248 OA
ATOM     19  H   UNL     1       3.619  -2.314   4.936  1.00  0.00     0.171 HD
BRANCH  17  20
ATOM     20  N   UNL     1       1.442  -2.331   2.536  1.00  0.00    -0.324 N 
ATOM     21  C   UNL     1       0.788  -0.028  -0.275  1.00  0.00     0.010 C 
ATOM     22  C   UNL     1       0.459  -1.135   0.717  1.00  0.00     0.010 C 
ATOM     23  C   UNL     1       1.290  -0.995   1.984  1.00  0.00     0.125 C 
ATOM     24  C   UNL     1       0.718  -2.586   0.291  1.00  0.00     0.010 C 
ATOM     25  C   UNL     1       0.800  -3.298   1.653  1.00  0.00     0.125 C 
ATOM     26  C   UNL     1       1.998  -2.802  -0.517  1.00  0.00     0.010 C 
ENDBRANCH  17  20
ENDBRANCH  11  16
BRANCH  15  27
ATOM     27  O   UNL     1       3.009   3.505   3.158  1.00  0.00    -0.507 OA
ATOM     28  H   UNL     1       2.260   4.023   3.377  1.00  0.00     0.293 HD
ENDBRANCH  15  27
ENDBRANCH   8  10
ENDBRANCH   7   8
ENDBRANCH   6   7
ENDBRANCH   5   6
ENDBRANCH   4   5
ENDBRANCH   3   4
ENDBRANCH   2   3
ENDBRANCH   1   2
BRANCH   1  29
ATOM     29  C   UNL     1       6.397   4.699   6.700  1.00  0.00     0.188 C 
BRANCH  29  30
ATOM     30  C   UNL     1       7.522   4.256   7.666  1.00  0.00     0.188 C 
BRANCH  30  31
ATOM     31  O   UNL     1       7.361   2.955   8.205  1.00  0.00    -0.376 OA
BRANCH  31  32
ATOM     32  C   UNL     1       6.957   2.851   9.559  1.00  0.00     0.202 C 
BRANCH  32  33
ATOM     33  C   UNL     1       5.601   3.461   9.945  1.00  0.00     0.261 C 
BRANCH  33  34
ATOM     34  O   UNL     1       5.397   4.837   9.589  1.00  0.00    -0.460 OA
BRANCH  34  35
ATOM     35  C   UNL     1       6.168   5.760  10.201  1.00  0.00     0.338 C 
ATOM     36  O   UNL     1       7.031   5.567  11.042  1.00  0.00    -0.246 OA
BRANCH  35  37
ATOM     37  C   UNL     1       5.913   7.054   9.537  1.00  0.00     0.060 A 
ATOM     38  C   UNL     1       6.956   7.692   8.851  1.00  0.00     0.016 A 
ATOM     39  C   UNL     1       4.637   7.619   9.571  1.00  0.00     0.016 A 
ATOM     40  C   UNL     1       6.727   8.910   8.210  1.00  0.00     0.010 A 
ATOM     41  C   UNL     1       4.415   8.849   8.950  1.00  0.00     0.010 A 
ATOM     42  C   UNL     1       5.464   9.512   8.289  1.00  0.00    -0.014 A 
BRANCH  42  43
ATOM     43  C   UNL     1       5.275  10.907   7.828  1.00  0.00     0.031 A 
ATOM     44  C   UNL     1       5.306  12.010   8.848  1.00  0.00     0.074 A 
ATOM     45  C   UNL     1       5.074  11.193   6.530  1.00  0.00     0.049 A 
ATOM     46  N   UNL     1       5.096  13.292   8.693  1.00  0.00    -0.248 NA
ATOM     47  C   UNL     1       5.611  11.608  10.230  1.00  0.00     0.031 C 
ATOM     48  C   UNL     1       5.067  10.221   5.440  1.00  0.00     0.029 A 
ATOM     49  N   UNL     1       4.822  12.395   5.917  1.00  0.00    -0.354 N 
ATOM     50  C   UNL     1       5.233  13.848   9.959  1.00  0.00     0.074 A 
ATOM     51  C   UNL     1       5.511  12.762  10.873  1.00  0.00     0.031 C 
ATOM     52  C   UNL     1       4.809  10.865   4.288  1.00  0.00     0.029 A 
ATOM     53  C   UNL     1       4.593  12.284   4.568  1.00  0.00     0.049 A 
ATOM     54  H   UNL     1       4.808  13.254   6.398  1.00  0.00     0.167 HD
ATOM     55  C   UNL     1       5.136  15.148  10.328  1.00  0.00     0.031 A 
ATOM     56  C   UNL     1       4.222  13.215   3.668  1.00  0.00     0.031 A 
ATOM     57  C   UNL     1       4.829  16.223   9.423  1.00  0.00     0.049 A 
ATOM     58  C   UNL     1       4.024  14.640   4.116  1.00  0.00     0.074 A 
ATOM     59  C   UNL     1       4.723  17.576   9.694  1.00  0.00     0.029 A 
ATOM     60  N   UNL     1       4.559  16.063   8.072  1.00  0.00    -0.354 N 
ATOM     61  N   UNL     1       4.185  15.162   5.308  1.00  0.00    -0.248 NA
ATOM     62  C   UNL     1       3.597  15.603   3.091  1.00  0.00     0.031 C 
ATOM     63  C   UNL     1       4.319  18.225   8.522  1.00  0.00     0.029 A 
ATOM     64  C   UNL     1       4.245  17.287   7.504  1.00  0.00     0.049 A 
ATOM     65  H   UNL     1       4.587  15.206   7.587  1.00  0.00     0.167 HD
ATOM     66  C   UNL     1       3.900  16.516   5.173  1.00  0.00     0.074 A 
ATOM     67  C   UNL     1       3.576  16.737   3.778  1.00  0.00     0.031 C 
ATOM     68  C   UNL     1       3.907  17.490   6.117  1.00  0.00     0.031 A 
BRANCH  55  69
ATOM     69  C   UNL     1       5.312  15.460  11.789  1.00  0.00    -0.014 A 
ATOM     70  C   UNL     1       6.555  15.316  12.428  1.00  0.00     0.009 A 
ATOM     71  C   UNL     1       4.214  15.907  12.540  1.00  0.00     0.009 A 
ATOM     72  C   UNL     1       6.681  15.567  13.796  1.00  0.00     0.001 A 
ATOM     73  C   UNL     1       4.350  16.190  13.900  1.00  0.00     0.001 A 
ATOM     74  C   UNL     1       5.580  16.007  14.530  1.00  0.00     0.000 A 
ENDBRANCH  55  69
BRANCH  56  75
ATOM     75  C   UNL     1       3.982  12.822   2.255  1.00  0.00    -0.014 A 
ATOM     76  C   UNL     1       4.843  13.250   1.233  1.00  0.00     0.009 A 
ATOM     77  C   UNL     1       2.885  12.010   1.920  1.00  0.00     0.009 A 
ATOM     78  C   UNL     1       4.602  12.885  -0.094  1.00  0.00     0.001 A 
ATOM     79  C   UNL     1       2.665  11.622   0.597  1.00  0.00     0.001 A 
ATOM     80  C   UNL     1       3.520  12.066  -0.410  1.00  0.00     0.000 A 
ENDBRANCH  56  75
BRANCH  68  81
ATOM     81  C   UNL     1       3.574  18.889   5.671  1.00  0.00    -0.014 A 
ATOM     82  C   UNL     1       2.269  19.245   5.294  1.00  0.00     0.009 A 
ATOM     83  C   UNL     1       4.572  19.876   5.670  1.00  0.00     0.009 A 
ATOM     84  C   UNL     1       1.981  20.551   4.891  1.00  0.00     0.001 A 
ATOM     85  C   UNL     1       4.274  21.188   5.300  1.00  0.00     0.001 A 
ATOM     86  C   UNL     1       2.981  21.522   4.900  1.00  0.00     0.000 A 
ENDBRANCH  68  81
ENDBRANCH  42  43
ENDBRANCH  35  37
ENDBRANCH  34  35
ENDBRANCH  33  34
ENDBRANCH  32  33
ENDBRANCH  31  32
ENDBRANCH  30  31
ENDBRANCH  29  30
ENDBRANCH   1  29
TORSDOF 23
