REMARK SMILES O=C(OCCOCCOCCOCCOC(=O)[C@H](c1c[nH]c2cc(F)ccc12)[NH+]1CC[NH+](CC(=O)N2CCOCC2)CC1)c1ccc(-c2c3nc(c(-c4ccccc4)c4ccc([nH]4)c(-c4ccccc4)c4nc(c(-c5ccccc5)c5ccc2[nH]5)C=C4)C=C3)cc1
REMARK SMILES IDX 10 1 9 2 8 3 7 4 6 5 5 6 4 7 3 8 2 9 1 10 44 11 45 12 91 13
REMARK SMILES IDX 46 14 90 15 47 16 48 17 49 18 84 19 50 20 89 21 83 22 85 23
REMARK SMILES IDX 51 24 88 25 82 26 81 27 52 29 74 30 59 31 73 32 60 33 63 34
REMARK SMILES IDX 72 35 86 36 61 37 62 38 71 40 87 41 64 42 53 43 54 44 58 45
REMARK SMILES IDX 55 46 57 47 56 48 75 49 76 50 80 51 77 52 79 53 78 54 65 55
REMARK SMILES IDX 66 56 70 57 67 58 69 59 68 60 11 61 12 62 13 63 14 64 15 65
REMARK SMILES IDX 16 66 17 67 18 68 29 69 30 70 43 71 31 73 42 74 32 75 33 77
REMARK SMILES IDX 34 78 35 79 36 80 37 81 41 82 38 83 40 84 39 85 19 86 20 87
REMARK SMILES IDX 28 88 21 89 22 90 27 91 23 93 26 94 24 95 25 96
REMARK H PARENT 85 28 63 39 29 72 32 76 21 92
REMARK Flexibility Score: inf
ROOT
ATOM      1  C   UNL     1       6.141  -3.174  -0.018  1.00  0.00     0.188 C 
ENDROOT
BRANCH   1   2
ATOM      2  O   UNL     1       7.197  -3.955   0.541  1.00  0.00    -0.377 OA
BRANCH   2   3
ATOM      3  C   UNL     1       7.777  -3.512   1.762  1.00  0.00     0.188 C 
BRANCH   3   4
ATOM      4  C   UNL     1       8.354  -2.108   1.721  1.00  0.00     0.188 C 
BRANCH   4   5
ATOM      5  O   UNL     1       7.424  -1.188   1.175  1.00  0.00    -0.376 OA
BRANCH   5   6
ATOM      6  C   UNL     1       7.808  -0.459   0.009  1.00  0.00     0.202 C 
BRANCH   6   7
ATOM      7  C   UNL     1       8.893   0.565   0.290  1.00  0.00     0.261 C 
BRANCH   7   8
ATOM      8  O   UNL     1       8.440   1.416   1.348  1.00  0.00    -0.460 OA
BRANCH   8   9
ATOM      9  C   UNL     1       8.645   0.916   2.591  1.00  0.00     0.338 C 
ATOM     10  O   UNL     1       9.652   0.361   3.007  1.00  0.00    -0.246 OA
BRANCH   9  11
ATOM     11  C   UNL     1       7.395   1.095   3.352  1.00  0.00     0.060 A 
ATOM     12  C   UNL     1       6.163   0.842   2.727  1.00  0.00     0.016 A 
ATOM     13  C   UNL     1       7.443   1.568   4.659  1.00  0.00     0.016 A 
ATOM     14  C   UNL     1       4.977   1.133   3.348  1.00  0.00     0.010 A 
ATOM     15  C   UNL     1       6.248   1.935   5.271  1.00  0.00     0.010 A 
ATOM     16  C   UNL     1       5.035   1.772   4.577  1.00  0.00    -0.014 A 
BRANCH  16  17
ATOM     17  C   UNL     1       3.868   2.589   4.905  1.00  0.00     0.031 A 
ATOM     18  C   UNL     1       3.933   4.034   4.519  1.00  0.00     0.074 A 
ATOM     19  C   UNL     1       2.748   2.010   5.354  1.00  0.00     0.049 A 
ATOM     20  N   UNL     1       3.147   5.016   4.850  1.00  0.00    -0.248 NA
ATOM     21  C   UNL     1       5.044   4.424   3.627  1.00  0.00     0.031 C 
ATOM     22  C   UNL     1       2.547   0.568   5.511  1.00  0.00     0.029 A 
ATOM     23  N   UNL     1       1.572   2.569   5.754  1.00  0.00    -0.354 N 
ATOM     24  C   UNL     1       3.709   6.147   4.271  1.00  0.00     0.074 A 
ATOM     25  C   UNL     1       4.881   5.732   3.542  1.00  0.00     0.031 C 
ATOM     26  C   UNL     1       1.323   0.359   6.020  1.00  0.00     0.029 A 
ATOM     27  C   UNL     1       0.711   1.653   6.300  1.00  0.00     0.049 A 
ATOM     28  H   UNL     1       1.363   3.526   5.662  1.00  0.00     0.167 HD
ATOM     29  C   UNL     1       3.288   7.425   4.392  1.00  0.00     0.031 A 
ATOM     30  C   UNL     1      -0.397   1.868   7.027  1.00  0.00     0.031 A 
ATOM     31  C   UNL     1       2.124   7.765   5.159  1.00  0.00     0.049 A 
ATOM     32  C   UNL     1      -0.786   3.299   7.275  1.00  0.00     0.074 A 
ATOM     33  C   UNL     1       1.604   9.007   5.457  1.00  0.00     0.029 A 
ATOM     34  N   UNL     1       1.298   6.819   5.760  1.00  0.00    -0.354 N 
ATOM     35  N   UNL     1      -0.201   4.396   6.845  1.00  0.00    -0.248 NA
ATOM     36  C   UNL     1      -1.963   3.531   8.115  1.00  0.00     0.031 C 
ATOM     37  C   UNL     1       0.497   8.812   6.291  1.00  0.00     0.029 A 
ATOM     38  C   UNL     1       0.284   7.447   6.450  1.00  0.00     0.049 A 
ATOM     39  H   UNL     1       1.420   5.844   5.701  1.00  0.00     0.167 HD
ATOM     40  C   UNL     1      -0.952   5.451   7.338  1.00  0.00     0.074 A 
ATOM     41  C   UNL     1      -2.037   4.856   8.100  1.00  0.00     0.031 C 
ATOM     42  C   UNL     1      -0.774   6.787   7.179  1.00  0.00     0.031 A 
BRANCH  29  43
ATOM     43  C   UNL     1       4.179   8.490   3.816  1.00  0.00    -0.014 A 
ATOM     44  C   UNL     1       4.374   8.640   2.433  1.00  0.00     0.009 A 
ATOM     45  C   UNL     1       4.926   9.294   4.692  1.00  0.00     0.009 A 
ATOM     46  C   UNL     1       5.341   9.526   1.946  1.00  0.00     0.001 A 
ATOM     47  C   UNL     1       5.867  10.200   4.202  1.00  0.00     0.001 A 
ATOM     48  C   UNL     1       6.088  10.303   2.830  1.00  0.00     0.000 A 
ENDBRANCH  29  43
BRANCH  30  49
ATOM     49  C   UNL     1      -1.111   0.715   7.632  1.00  0.00    -0.014 A 
ATOM     50  C   UNL     1      -2.387   0.343   7.193  1.00  0.00     0.009 A 
ATOM     51  C   UNL     1      -0.480  -0.068   8.617  1.00  0.00     0.009 A 
ATOM     52  C   UNL     1      -3.018  -0.785   7.729  1.00  0.00     0.001 A 
ATOM     53  C   UNL     1      -1.099  -1.210   9.129  1.00  0.00     0.001 A 
ATOM     54  C   UNL     1      -2.371  -1.565   8.688  1.00  0.00     0.000 A 
ENDBRANCH  30  49
BRANCH  42  55
ATOM     55  C   UNL     1      -1.808   7.685   7.787  1.00  0.00    -0.014 A 
ATOM     56  C   UNL     1      -1.832   7.941   9.165  1.00  0.00     0.009 A 
ATOM     57  C   UNL     1      -2.693   8.370   6.940  1.00  0.00     0.009 A 
ATOM     58  C   UNL     1      -2.737   8.866   9.685  1.00  0.00     0.001 A 
ATOM     59  C   UNL     1      -3.574   9.315   7.459  1.00  0.00     0.001 A 
ATOM     60  C   UNL     1      -3.597   9.559   8.831  1.00  0.00     0.000 A 
ENDBRANCH  42  55
ENDBRANCH  16  17
ENDBRANCH   9  11
ENDBRANCH   8   9
ENDBRANCH   7   8
ENDBRANCH   6   7
ENDBRANCH   5   6
ENDBRANCH   4   5
ENDBRANCH   3   4
ENDBRANCH   2   3
ENDBRANCH   1   2
BRANCH   1  61
ATOM     61  C   UNL     1       4.988  -2.609   0.843  1.00  0.00     0.188 C 
BRANCH  61  62
ATOM     62  O   UNL     1       4.983  -2.954   2.222  1.00  0.00    -0.376 OA
BRANCH  62  63
ATOM     63  C   UNL     1       4.216  -4.099   2.562  1.00  0.00     0.202 C 
BRANCH  63  64
ATOM     64  C   UNL     1       4.962  -5.440   2.442  1.00  0.00     0.261 C 
BRANCH  64  65
ATOM     65  O   UNL     1       5.494  -5.881   1.159  1.00  0.00    -0.459 OA
BRANCH  65  66
ATOM     66  C   UNL     1       4.763  -5.686   0.024  1.00  0.00     0.370 C 
ATOM     67  O   UNL     1       3.724  -5.025   0.015  1.00  0.00    -0.245 OA
BRANCH  66  68
ATOM     68  C   UNL     1       5.231  -6.547  -1.207  1.00  0.00     0.328 C 
BRANCH  68  69
ATOM     69  N   UNL     1       4.519  -7.899  -1.241  1.00  0.00    -0.310 N 
ATOM     70  C   UNL     1       4.952  -9.012  -0.320  1.00  0.00     0.325 C 
ATOM     71  C   UNL     1       3.127  -7.730  -0.867  1.00  0.00     0.325 C 
ATOM     72  H   UNL     1       4.739  -8.180  -2.196  1.00  0.00     0.349 HD
ATOM     73  C   UNL     1       3.750  -9.737   0.668  1.00  0.00     0.325 C 
ATOM     74  C   UNL     1       3.008  -7.586   0.680  1.00  0.00     0.325 C 
ATOM     75  N   UNL     1       2.674  -8.849   1.215  1.00  0.00    -0.318 N 
ATOM     76  H   UNL     1       2.720  -9.093   2.204  1.00  0.00     0.348 HD
BRANCH  75  77
ATOM     77  C   UNL     1       1.197  -8.998   1.109  1.00  0.00     0.364 C 
BRANCH  77  78
ATOM     78  C   UNL     1       0.437  -8.569  -0.206  1.00  0.00     0.277 C 
ATOM     79  O   UNL     1       0.159  -9.488  -0.995  1.00  0.00    -0.268 OA
ATOM     80  N   UNL     1       0.036  -7.240  -0.540  1.00  0.00    -0.333 N 
ATOM     81  C   UNL     1       0.509  -5.945   0.021  1.00  0.00     0.148 C 
ATOM     82  C   UNL     1      -0.576  -7.115  -1.874  1.00  0.00     0.148 C 
ATOM     83  C   UNL     1      -0.091  -4.628  -0.515  1.00  0.00     0.181 C 
ATOM     84  C   UNL     1      -1.296  -5.790  -2.122  1.00  0.00     0.181 C 
ATOM     85  O   UNL     1      -0.402  -4.698  -1.908  1.00  0.00    -0.378 OA
ENDBRANCH  77  78
ENDBRANCH  75  77
ENDBRANCH  68  69
BRANCH  68  86
ATOM     86  C   UNL     1       4.865  -5.682  -2.505  1.00  0.00     0.046 A 
ATOM     87  C   UNL     1       3.604  -5.502  -3.072  1.00  0.00     0.094 A 
ATOM     88  C   UNL     1       5.714  -4.754  -3.259  1.00  0.00     0.009 A 
ATOM     89  N   UNL     1       3.618  -4.474  -3.967  1.00  0.00    -0.361 N 
ATOM     90  C   UNL     1       4.890  -4.011  -4.121  1.00  0.00     0.049 A 
ATOM     91  C   UNL     1       7.090  -4.415  -3.264  1.00  0.00     0.014 A 
ATOM     92  H   UNL     1       2.826  -4.119  -4.433  1.00  0.00     0.166 HD
ATOM     93  C   UNL     1       5.335  -2.980  -4.956  1.00  0.00     0.065 A 
ATOM     94  C   UNL     1       7.563  -3.400  -4.122  1.00  0.00     0.040 A 
ATOM     95  C   UNL     1       6.691  -2.701  -4.945  1.00  0.00     0.125 A 
ATOM     96  F   UNL     1       7.161  -1.734  -5.745  1.00  0.00    -0.207 F 
ENDBRANCH  68  86
ENDBRANCH  66  68
ENDBRANCH  65  66
ENDBRANCH  64  65
ENDBRANCH  63  64
ENDBRANCH  62  63
ENDBRANCH  61  62
ENDBRANCH   1  61
TORSDOF 24
