REMARK SMILES O=C(OCCOCCOCCOCCOC(=O)[C@H]1C[C@H](O)CN1C(=O)c1ccccc1O)c1ccc(-c2c3nc(c(-c4ccccc4)c4ccc([nH]4)c(-c4ccccc4)c4nc(c(-c5ccccc5)c5ccc2[nH]5)C=C4)C=C3)cc1
REMARK SMILES IDX 10 1 9 2 8 3 7 4 6 5 5 6 4 7 3 8 2 9 1 10 33 11 34 12 80 13
REMARK SMILES IDX 35 14 79 15 36 16 37 17 38 18 73 19 39 20 78 21 72 22 74 23
REMARK SMILES IDX 40 24 77 25 71 26 70 27 41 29 63 30 48 31 62 32 49 33 52 34
REMARK SMILES IDX 61 35 75 36 50 37 51 38 60 40 76 41 53 42 42 43 43 44 47 45
REMARK SMILES IDX 44 46 46 47 45 48 64 49 65 50 69 51 66 52 68 53 67 54 54 55
REMARK SMILES IDX 55 56 59 57 56 58 58 59 57 60 11 61 12 62 13 63 14 64 15 65
REMARK SMILES IDX 16 66 17 67 18 68 19 69 23 70 20 71 22 72 24 73 25 74 26 75
REMARK SMILES IDX 27 76 31 77 28 78 30 79 29 80 32 81 21 83
REMARK H PARENT 74 28 52 39 32 82 21 84
REMARK Flexibility Score: inf
ROOT
ATOM      1  C   UNL     1       3.877   1.169  -3.498  1.00  0.00     0.188 C 
ENDROOT
BRANCH   1   2
ATOM      2  O   UNL     1       2.478   1.333  -3.493  1.00  0.00    -0.377 OA
BRANCH   2   3
ATOM      3  C   UNL     1       1.789   1.220  -2.267  1.00  0.00     0.188 C 
BRANCH   3   4
ATOM      4  C   UNL     1       2.338   0.252  -1.233  1.00  0.00     0.188 C 
BRANCH   4   5
ATOM      5  O   UNL     1       3.704   0.491  -0.915  1.00  0.00    -0.376 OA
BRANCH   5   6
ATOM      6  C   UNL     1       4.538  -0.664  -0.808  1.00  0.00     0.202 C 
BRANCH   6   7
ATOM      7  C   UNL     1       4.168  -1.666   0.288  1.00  0.00     0.261 C 
BRANCH   7   8
ATOM      8  O   UNL     1       2.849  -1.540   0.857  1.00  0.00    -0.460 OA
BRANCH   8   9
ATOM      9  C   UNL     1       2.303  -0.679   1.746  1.00  0.00     0.338 C 
ATOM     10  O   UNL     1       1.135  -0.871   2.084  1.00  0.00    -0.246 OA
BRANCH   9  11
ATOM     11  C   UNL     1       2.985   0.527   2.307  1.00  0.00     0.060 A 
ATOM     12  C   UNL     1       4.166   1.074   1.821  1.00  0.00     0.016 A 
ATOM     13  C   UNL     1       2.361   1.188   3.382  1.00  0.00     0.016 A 
ATOM     14  C   UNL     1       4.741   2.202   2.367  1.00  0.00     0.010 A 
ATOM     15  C   UNL     1       2.953   2.304   3.984  1.00  0.00     0.010 A 
ATOM     16  C   UNL     1       4.176   2.774   3.496  1.00  0.00    -0.014 A 
BRANCH  16  17
ATOM     17  C   UNL     1       5.102   3.585   4.298  1.00  0.00     0.031 A 
ATOM     18  C   UNL     1       5.785   2.885   5.439  1.00  0.00     0.074 A 
ATOM     19  C   UNL     1       5.518   4.777   3.840  1.00  0.00     0.049 A 
ATOM     20  N   UNL     1       6.652   3.345   6.298  1.00  0.00    -0.248 NA
ATOM     21  C   UNL     1       5.466   1.454   5.620  1.00  0.00     0.031 C 
ATOM     22  C   UNL     1       5.072   5.406   2.592  1.00  0.00     0.029 A 
ATOM     23  N   UNL     1       6.458   5.636   4.331  1.00  0.00    -0.354 N 
ATOM     24  C   UNL     1       6.928   2.281   7.149  1.00  0.00     0.074 A 
ATOM     25  C   UNL     1       6.156   1.149   6.704  1.00  0.00     0.031 C 
ATOM     26  C   UNL     1       5.764   6.542   2.405  1.00  0.00     0.029 A 
ATOM     27  C   UNL     1       6.631   6.756   3.556  1.00  0.00     0.049 A 
ATOM     28  H   UNL     1       6.963   5.470   5.160  1.00  0.00     0.167 HD
ATOM     29  C   UNL     1       7.746   2.269   8.224  1.00  0.00     0.031 A 
ATOM     30  C   UNL     1       7.384   7.845   3.792  1.00  0.00     0.031 A 
ATOM     31  C   UNL     1       8.501   3.421   8.625  1.00  0.00     0.049 A 
ATOM     32  C   UNL     1       8.179   7.864   5.069  1.00  0.00     0.074 A 
ATOM     33  C   UNL     1       9.293   3.598   9.741  1.00  0.00     0.029 A 
ATOM     34  N   UNL     1       8.549   4.603   7.895  1.00  0.00    -0.354 N 
ATOM     35  N   UNL     1       8.337   6.909   5.958  1.00  0.00    -0.248 NA
ATOM     36  C   UNL     1       8.884   9.109   5.386  1.00  0.00     0.031 C 
ATOM     37  C   UNL     1       9.775   4.912   9.714  1.00  0.00     0.029 A 
ATOM     38  C   UNL     1       9.343   5.526   8.546  1.00  0.00     0.049 A 
ATOM     39  H   UNL     1       8.086   4.759   7.041  1.00  0.00     0.167 HD
ATOM     40  C   UNL     1       9.181   7.427   6.928  1.00  0.00     0.074 A 
ATOM     41  C   UNL     1       9.514   8.775   6.504  1.00  0.00     0.031 C 
ATOM     42  C   UNL     1       9.643   6.853   8.068  1.00  0.00     0.031 A 
BRANCH  29  43
ATOM     43  C   UNL     1       7.736   1.029   9.073  1.00  0.00    -0.014 A 
ATOM     44  C   UNL     1       8.295  -0.184   8.640  1.00  0.00     0.009 A 
ATOM     45  C   UNL     1       7.073   1.064  10.310  1.00  0.00     0.009 A 
ATOM     46  C   UNL     1       8.148  -1.345   9.408  1.00  0.00     0.001 A 
ATOM     47  C   UNL     1       6.954  -0.088  11.089  1.00  0.00     0.001 A 
ATOM     48  C   UNL     1       7.479  -1.295  10.630  1.00  0.00     0.000 A 
ENDBRANCH  29  43
BRANCH  30  49
ATOM     49  C   UNL     1       7.353   9.010   2.866  1.00  0.00    -0.014 A 
ATOM     50  C   UNL     1       8.508   9.439   2.196  1.00  0.00     0.009 A 
ATOM     51  C   UNL     1       6.157   9.723   2.666  1.00  0.00     0.009 A 
ATOM     52  C   UNL     1       8.472  10.569   1.371  1.00  0.00     0.001 A 
ATOM     53  C   UNL     1       6.116  10.830   1.815  1.00  0.00     0.001 A 
ATOM     54  C   UNL     1       7.277  11.260   1.179  1.00  0.00     0.000 A 
ENDBRANCH  30  49
BRANCH  42  55
ATOM     55  C   UNL     1      10.601   7.666   8.886  1.00  0.00    -0.014 A 
ATOM     56  C   UNL     1      10.173   8.780   9.623  1.00  0.00     0.009 A 
ATOM     57  C   UNL     1      11.947   7.275   8.947  1.00  0.00     0.009 A 
ATOM     58  C   UNL     1      11.089   9.512  10.377  1.00  0.00     0.001 A 
ATOM     59  C   UNL     1      12.852   7.986   9.731  1.00  0.00     0.001 A 
ATOM     60  C   UNL     1      12.425   9.111  10.435  1.00  0.00     0.000 A 
ENDBRANCH  42  55
ENDBRANCH  16  17
ENDBRANCH   9  11
ENDBRANCH   8   9
ENDBRANCH   7   8
ENDBRANCH   6   7
ENDBRANCH   5   6
ENDBRANCH   4   5
ENDBRANCH   3   4
ENDBRANCH   2   3
ENDBRANCH   1   2
BRANCH   1  61
ATOM     61  C   UNL     1       4.852   2.233  -2.955  1.00  0.00     0.188 C 
BRANCH  61  62
ATOM     62  O   UNL     1       4.423   3.541  -2.640  1.00  0.00    -0.376 OA
BRANCH  62  63
ATOM     63  C   UNL     1       3.385   4.131  -3.400  1.00  0.00     0.202 C 
BRANCH  63  64
ATOM     64  C   UNL     1       3.513   4.229  -4.928  1.00  0.00     0.261 C 
BRANCH  64  65
ATOM     65  O   UNL     1       3.721   2.991  -5.633  1.00  0.00    -0.462 OA
BRANCH  65  66
ATOM     66  C   UNL     1       4.961   2.739  -6.138  1.00  0.00     0.329 C 
ATOM     67  O   UNL     1       5.940   3.456  -5.945  1.00  0.00    -0.250 OA
BRANCH  66  68
ATOM     68  C   UNL     1       5.073   1.386  -6.901  1.00  0.00     0.198 C 
ATOM     69  C   UNL     1       5.970   0.353  -6.171  1.00  0.00     0.071 C 
ATOM     70  N   UNL     1       3.859   0.636  -7.228  1.00  0.00    -0.322 N 
ATOM     71  C   UNL     1       5.100  -0.895  -5.947  1.00  0.00     0.136 C 
ATOM     72  C   UNL     1       4.040  -0.795  -7.030  1.00  0.00     0.152 C 
BRANCH  70  73
ATOM     73  C   UNL     1       2.890   1.239  -8.004  1.00  0.00     0.258 C 
ATOM     74  O   UNL     1       2.980   2.418  -8.369  1.00  0.00    -0.269 OA
BRANCH  73  75
ATOM     75  C   UNL     1       1.774   0.438  -8.536  1.00  0.00     0.081 A 
ATOM     76  C   UNL     1       1.643   0.427  -9.931  1.00  0.00     0.018 A 
ATOM     77  C   UNL     1       0.849  -0.249  -7.743  1.00  0.00     0.128 A 
ATOM     78  C   UNL     1       0.621  -0.302 -10.532  1.00  0.00     0.001 A 
ATOM     79  C   UNL     1      -0.172  -0.984  -8.347  1.00  0.00     0.047 A 
ATOM     80  C   UNL     1      -0.280  -1.013  -9.740  1.00  0.00     0.004 A 
BRANCH  77  81
ATOM     81  O   UNL     1       0.931  -0.204  -6.381  1.00  0.00    -0.507 OA
ATOM     82  H   UNL     1       1.614   0.288  -5.968  1.00  0.00     0.293 HD
ENDBRANCH  77  81
ENDBRANCH  73  75
ENDBRANCH  70  73
BRANCH  71  83
ATOM     83  O   UNL     1       5.854  -2.096  -5.978  1.00  0.00    -0.391 OA
ATOM     84  H   UNL     1       6.307  -2.172  -6.832  1.00  0.00     0.211 HD
ENDBRANCH  71  83
ENDBRANCH  66  68
ENDBRANCH  65  66
ENDBRANCH  64  65
ENDBRANCH  63  64
ENDBRANCH  62  63
ENDBRANCH  61  62
ENDBRANCH   1  61
TORSDOF 24
