REMARK SMILES COC(=O)c1ccc([C@H]2Nc3c(C(=O)OCCOCCOCCOCCOC(=O)c4ccc(-c5c6nc(c(-c7ccccc7)c7ccc([nH]7)c(-c7ccccc7)c7nc(c(-c8ccccc8)c8ccc5[nH]8)C=C7)C=C6)cc4)cccc3[C@H]3[C@H]4CC[C@H](C4)[C@H]32)cc1
REMARK SMILES IDX 20 1 19 2 18 3 17 4 16 5 15 6 13 7 14 8 12 9 9 10 10 11
REMARK SMILES IDX 88 12 11 13 82 15 86 16 81 17 83 18 85 19 87 20 78 21 80 22
REMARK SMILES IDX 84 23 79 24 8 25 5 26 6 27 90 28 7 29 89 30 3 31 4 32 2 33
REMARK SMILES IDX 1 34 21 35 22 36 23 37 24 38 25 39 26 40 27 41 28 42 29 43
REMARK SMILES IDX 30 44 31 45 77 46 32 47 76 48 33 49 34 50 35 51 70 52 36 53
REMARK SMILES IDX 75 54 69 55 71 56 37 57 74 58 68 59 67 60 38 62 60 63 45 64
REMARK SMILES IDX 59 65 46 66 49 67 58 68 72 69 47 70 48 71 57 73 73 74 50 75
REMARK SMILES IDX 39 76 40 77 44 78 41 79 43 80 42 81 61 82 62 83 66 84 63 85
REMARK SMILES IDX 65 86 64 87 51 88 52 89 56 90 53 91 55 92 54 93
REMARK H PARENT 10 14 71 61 49 72
REMARK Flexibility Score: inf
ROOT
ATOM      1  C   UNL     1       0.581 -10.865  -2.300  1.00  0.00     0.188 C 
ENDROOT
BRANCH   1   2
ATOM      2  C   UNL     1       0.723  -9.882  -1.117  1.00  0.00     0.188 C 
BRANCH   2   3
ATOM      3  O   UNL     1       0.673 -10.530   0.156  1.00  0.00    -0.376 OA
BRANCH   3   4
ATOM      4  C   UNL     1      -0.449 -10.239   0.976  1.00  0.00     0.202 C 
BRANCH   4   5
ATOM      5  C   UNL     1      -1.706 -11.021   0.594  1.00  0.00     0.261 C 
BRANCH   5   6
ATOM      6  O   UNL     1      -2.160 -10.831  -0.753  1.00  0.00    -0.460 OA
BRANCH   6   7
ATOM      7  C   UNL     1      -2.553  -9.602  -1.172  1.00  0.00     0.340 C 
ATOM      8  O   UNL     1      -2.590  -8.583  -0.509  1.00  0.00    -0.246 OA
BRANCH   7   9
ATOM      9  C   UNL     1      -2.751  -9.736  -2.638  1.00  0.00     0.083 A 
ATOM     10  C   UNL     1      -1.521  -6.599  -4.162  1.00  0.00     0.113 C 
ATOM     11  N   UNL     1      -1.378  -7.752  -3.241  1.00  0.00    -0.377 N 
ATOM     12  C   UNL     1      -1.044  -7.069  -5.572  1.00  0.00     0.027 C 
ATOM     13  C   UNL     1      -2.077  -8.921  -3.573  1.00  0.00     0.053 A 
ATOM     14  H   UNL     1      -0.818  -7.699  -2.433  1.00  0.00     0.161 HD
ATOM     15  C   UNL     1      -1.162  -8.592  -5.869  1.00  0.00     0.030 C 
ATOM     16  C   UNL     1      -1.480  -6.455  -6.925  1.00  0.00    -0.005 C 
ATOM     17  C   UNL     1      -2.085  -9.321  -4.926  1.00  0.00    -0.020 A 
ATOM     18  C   UNL     1      -1.425  -8.640  -7.405  1.00  0.00    -0.003 C 
ATOM     19  C   UNL     1      -2.933  -6.802  -7.326  1.00  0.00     0.004 C 
ATOM     20  C   UNL     1      -0.703  -7.376  -7.887  1.00  0.00     0.008 C 
ATOM     21  C   UNL     1      -3.518 -10.834  -3.066  1.00  0.00     0.018 A 
ATOM     22  C   UNL     1      -2.793 -10.467  -5.322  1.00  0.00     0.006 A 
ATOM     23  C   UNL     1      -2.865  -8.263  -7.760  1.00  0.00     0.004 C 
ATOM     24  C   UNL     1      -3.546 -11.192  -4.406  1.00  0.00     0.001 A 
BRANCH  10  25
ATOM     25  C   UNL     1      -2.858  -5.880  -3.931  1.00  0.00    -0.025 A 
ATOM     26  C   UNL     1      -5.451  -4.809  -3.587  1.00  0.00     0.060 A 
ATOM     27  C   UNL     1      -4.872  -5.546  -2.563  1.00  0.00     0.016 A 
ATOM     28  C   UNL     1      -4.690  -4.458  -4.701  1.00  0.00     0.016 A 
ATOM     29  C   UNL     1      -3.590  -6.069  -2.739  1.00  0.00     0.007 A 
ATOM     30  C   UNL     1      -3.382  -4.943  -4.832  1.00  0.00     0.007 A 
BRANCH  26  31
ATOM     31  C   UNL     1      -6.879  -4.457  -3.486  1.00  0.00     0.337 C 
ATOM     32  O   UNL     1      -7.420  -4.039  -2.478  1.00  0.00    -0.246 OA
BRANCH  31  33
ATOM     33  O   UNL     1      -7.475  -4.811  -4.652  1.00  0.00    -0.465 OA
ATOM     34  C   UNL     1      -8.901  -4.736  -4.648  1.00  0.00     0.282 C 
ENDBRANCH  31  33
ENDBRANCH  26  31
ENDBRANCH  10  25
ENDBRANCH   7   9
ENDBRANCH   6   7
ENDBRANCH   5   6
ENDBRANCH   4   5
ENDBRANCH   3   4
ENDBRANCH   2   3
ENDBRANCH   1   2
BRANCH   1  35
ATOM     35  O   UNL     1       1.459 -11.985  -2.414  1.00  0.00    -0.377 OA
BRANCH  35  36
ATOM     36  C   UNL     1       1.847 -12.608  -1.198  1.00  0.00     0.188 C 
BRANCH  36  37
ATOM     37  C   UNL     1       3.100 -11.947  -0.592  1.00  0.00     0.188 C 
BRANCH  37  38
ATOM     38  O   UNL     1       3.461 -10.743  -1.256  1.00  0.00    -0.376 OA
BRANCH  38  39
ATOM     39  C   UNL     1       4.418 -10.799  -2.304  1.00  0.00     0.202 C 
BRANCH  39  40
ATOM     40  C   UNL     1       4.257 -11.784  -3.475  1.00  0.00     0.261 C 
BRANCH  40  41
ATOM     41  O   UNL     1       4.018 -13.160  -3.153  1.00  0.00    -0.460 OA
BRANCH  41  42
ATOM     42  C   UNL     1       4.949 -13.838  -2.455  1.00  0.00     0.338 C 
ATOM     43  O   UNL     1       6.024 -13.437  -2.055  1.00  0.00    -0.246 OA
BRANCH  42  44
ATOM     44  C   UNL     1       4.334 -15.136  -2.109  1.00  0.00     0.060 A 
ATOM     45  C   UNL     1       4.166 -15.489  -0.762  1.00  0.00     0.016 A 
ATOM     46  C   UNL     1       3.876 -15.975  -3.128  1.00  0.00     0.016 A 
ATOM     47  C   UNL     1       3.560 -16.702  -0.431  1.00  0.00     0.010 A 
ATOM     48  C   UNL     1       3.296 -17.197  -2.798  1.00  0.00     0.010 A 
ATOM     49  C   UNL     1       3.167 -17.578  -1.451  1.00  0.00    -0.014 A 
BRANCH  49  50
ATOM     50  C   UNL     1       2.854 -18.992  -1.155  1.00  0.00     0.031 A 
ATOM     51  C   UNL     1       3.970 -19.987  -1.286  1.00  0.00     0.074 A 
ATOM     52  C   UNL     1       1.608 -19.396  -0.860  1.00  0.00     0.049 A 
ATOM     53  N   UNL     1       3.928 -21.293  -1.274  1.00  0.00    -0.248 NA
ATOM     54  C   UNL     1       5.317 -19.424  -1.478  1.00  0.00     0.031 C 
ATOM     55  C   UNL     1       0.455 -18.521  -0.665  1.00  0.00     0.029 A 
ATOM     56  N   UNL     1       1.105 -20.664  -0.709  1.00  0.00    -0.354 N 
ATOM     57  C   UNL     1       5.237 -21.707  -1.484  1.00  0.00     0.074 A 
ATOM     58  C   UNL     1       6.044 -20.517  -1.638  1.00  0.00     0.031 C 
ATOM     59  C   UNL     1      -0.633 -19.282  -0.454  1.00  0.00     0.029 A 
ATOM     60  C   UNL     1      -0.257 -20.693  -0.546  1.00  0.00     0.049 A 
ATOM     61  H   UNL     1       1.666 -21.473  -0.718  1.00  0.00     0.167 HD
ATOM     62  C   UNL     1       5.722 -22.967  -1.554  1.00  0.00     0.031 A 
ATOM     63  C   UNL     1      -1.106 -21.739  -0.521  1.00  0.00     0.031 A 
ATOM     64  C   UNL     1       4.908 -24.144  -1.435  1.00  0.00     0.049 A 
ATOM     65  C   UNL     1      -0.562 -23.136  -0.674  1.00  0.00     0.074 A 
ATOM     66  C   UNL     1       5.296 -25.471  -1.477  1.00  0.00     0.029 A 
ATOM     67  N   UNL     1       3.531 -24.131  -1.266  1.00  0.00    -0.354 N 
ATOM     68  N   UNL     1       0.679 -23.524  -0.850  1.00  0.00    -0.248 NA
ATOM     69  C   UNL     1      -1.534 -24.238  -0.624  1.00  0.00     0.031 C 
ATOM     70  C   UNL     1       4.145 -26.260  -1.393  1.00  0.00     0.029 A 
ATOM     71  C   UNL     1       3.049 -25.426  -1.229  1.00  0.00     0.049 A 
ATOM     72  H   UNL     1       2.980 -23.319  -1.184  1.00  0.00     0.167 HD
ATOM     73  C   UNL     1       0.642 -24.913  -0.899  1.00  0.00     0.074 A 
ATOM     74  C   UNL     1      -0.745 -25.299  -0.735  1.00  0.00     0.031 C 
ATOM     75  C   UNL     1       1.665 -25.789  -1.057  1.00  0.00     0.031 A 
BRANCH  62  76
ATOM     76  C   UNL     1       7.191 -23.117  -1.833  1.00  0.00    -0.014 A 
ATOM     77  C   UNL     1       8.161 -22.742  -0.889  1.00  0.00     0.009 A 
ATOM     78  C   UNL     1       7.611 -23.616  -3.076  1.00  0.00     0.009 A 
ATOM     79  C   UNL     1       9.519 -22.816  -1.203  1.00  0.00     0.001 A 
ATOM     80  C   UNL     1       8.970 -23.721  -3.374  1.00  0.00     0.001 A 
ATOM     81  C   UNL     1       9.923 -23.307  -2.444  1.00  0.00     0.000 A 
ENDBRANCH  62  76
BRANCH  63  82
ATOM     82  C   UNL     1      -2.565 -21.497  -0.377  1.00  0.00    -0.014 A 
ATOM     83  C   UNL     1      -3.229 -21.813   0.816  1.00  0.00     0.009 A 
ATOM     84  C   UNL     1      -3.296 -20.921  -1.429  1.00  0.00     0.009 A 
ATOM     85  C   UNL     1      -4.598 -21.567   0.951  1.00  0.00     0.001 A 
ATOM     86  C   UNL     1      -4.659 -20.652  -1.283  1.00  0.00     0.001 A 
ATOM     87  C   UNL     1      -5.310 -20.980  -0.095  1.00  0.00     0.000 A 
ENDBRANCH  63  82
BRANCH  75  88
ATOM     88  C   UNL     1       1.344 -27.256  -1.007  1.00  0.00    -0.014 A 
ATOM     89  C   UNL     1       0.718 -27.908  -2.080  1.00  0.00     0.009 A 
ATOM     90  C   UNL     1       1.764 -28.013   0.099  1.00  0.00     0.009 A 
ATOM     91  C   UNL     1       0.506 -29.288  -2.037  1.00  0.00     0.001 A 
ATOM     92  C   UNL     1       1.575 -29.395   0.127  1.00  0.00     0.001 A 
ATOM     93  C   UNL     1       0.942 -30.031  -0.939  1.00  0.00     0.000 A 
ENDBRANCH  75  88
ENDBRANCH  49  50
ENDBRANCH  42  44
ENDBRANCH  41  42
ENDBRANCH  40  41
ENDBRANCH  39  40
ENDBRANCH  38  39
ENDBRANCH  37  38
ENDBRANCH  36  37
ENDBRANCH  35  36
ENDBRANCH   1  35
TORSDOF 23
