REMARK SMILES Cc1nc2cc(C(=O)OCCOCCOCCOCCOC(=O)c3ccc(-c4c5nc(c(-c6ccccc6)c6ccc([nH]6)c(-c6ccccc6)c6nc(c(-c7ccccc7)c7ccc4[nH]7)C=C6)C=C5)cc3)ccc2n1CCC[NH+]1CCOCC1
REMARK SMILES IDX 14 1 13 2 12 3 11 4 10 5 9 6 7 7 8 8 6 9 1 10 2 11 3 12
REMARK SMILES IDX 75 13 4 14 74 15 5 16 73 17 72 18 76 19 77 20 78 21 79 22
REMARK SMILES IDX 80 23 84 24 81 26 83 27 82 28 15 29 16 30 17 31 18 32 19 33
REMARK SMILES IDX 20 34 21 35 22 36 23 37 24 38 25 39 71 40 26 41 70 42 27 43
REMARK SMILES IDX 28 44 29 45 64 46 30 47 69 48 63 49 65 50 31 51 68 52 62 53
REMARK SMILES IDX 61 54 32 56 54 57 39 58 53 59 40 60 43 61 52 62 66 63 41 64
REMARK SMILES IDX 42 65 51 67 67 68 44 69 33 70 34 71 38 72 35 73 37 74 36 75
REMARK SMILES IDX 55 76 56 77 60 78 57 79 59 80 58 81 45 82 46 83 50 84 47 85
REMARK SMILES IDX 49 86 48 87
REMARK H PARENT 79 25 65 55 43 66
REMARK Flexibility Score: inf
ROOT
ATOM      1  C   UNL     1      -2.944   4.370   4.150  1.00  0.00     0.188 C 
ENDROOT
BRANCH   1   2
ATOM      2  C   UNL     1      -2.782   3.595   5.464  1.00  0.00     0.188 C 
BRANCH   2   3
ATOM      3  O   UNL     1      -3.166   4.340   6.607  1.00  0.00    -0.376 OA
BRANCH   3   4
ATOM      4  C   UNL     1      -2.176   4.908   7.453  1.00  0.00     0.202 C 
BRANCH   4   5
ATOM      5  C   UNL     1      -1.131   5.922   6.944  1.00  0.00     0.261 C 
BRANCH   5   6
ATOM      6  O   UNL     1      -0.484   5.592   5.716  1.00  0.00    -0.460 OA
BRANCH   6   7
ATOM      7  C   UNL     1       0.391   4.567   5.759  1.00  0.00     0.338 C 
ATOM      8  O   UNL     1       0.773   3.972   6.743  1.00  0.00    -0.246 OA
BRANCH   7   9
ATOM      9  C   UNL     1       0.585   4.113   4.364  1.00  0.00     0.062 A 
ATOM     10  C   UNL     1      -0.014  -0.017   0.119  1.00  0.00     0.088 C 
ATOM     11  C   UNL     1       0.232   1.126   1.030  1.00  0.00     0.106 A 
ATOM     12  N   UNL     1       0.068   1.060   2.335  1.00  0.00    -0.233 NA
ATOM     13  N   UNL     1       0.723   2.363   0.668  1.00  0.00    -0.328 N 
ATOM     14  C   UNL     1       0.371   2.301   2.811  1.00  0.00     0.090 A 
ATOM     15  C   UNL     1       0.679   3.179   1.780  1.00  0.00     0.068 A 
ATOM     16  C   UNL     1       0.378   2.748   4.130  1.00  0.00     0.046 A 
ATOM     17  C   UNL     1       0.908   4.546   1.991  1.00  0.00     0.029 A 
ATOM     18  C   UNL     1       0.819   5.006   3.311  1.00  0.00     0.018 A 
BRANCH  13  19
ATOM     19  C   UNL     1       1.333   2.738  -0.595  1.00  0.00     0.130 C 
BRANCH  19  20
ATOM     20  C   UNL     1       2.830   2.398  -0.642  1.00  0.00     0.083 C 
BRANCH  20  21
ATOM     21  C   UNL     1       3.132   0.926  -0.963  1.00  0.00     0.264 C 
BRANCH  21  22
ATOM     22  N   UNL     1       2.414   0.455  -2.155  1.00  0.00    -0.331 N 
ATOM     23  C   UNL     1       2.452  -1.018  -2.290  1.00  0.00     0.291 C 
ATOM     24  C   UNL     1       2.920   1.042  -3.415  1.00  0.00     0.291 C 
ATOM     25  H   UNL     1       1.454   0.768  -2.008  1.00  0.00     0.348 HD
ATOM     26  C   UNL     1       3.799  -1.572  -2.772  1.00  0.00     0.221 C 
ATOM     27  C   UNL     1       4.271   0.464  -3.865  1.00  0.00     0.221 C 
ATOM     28  O   UNL     1       4.206  -0.960  -4.001  1.00  0.00    -0.370 OA
ENDBRANCH  21  22
ENDBRANCH  20  21
ENDBRANCH  19  20
ENDBRANCH  13  19
ENDBRANCH   7   9
ENDBRANCH   6   7
ENDBRANCH   5   6
ENDBRANCH   4   5
ENDBRANCH   3   4
ENDBRANCH   2   3
ENDBRANCH   1   2
BRANCH   1  29
ATOM     29  O   UNL     1      -2.796   5.766   4.297  1.00  0.00    -0.377 OA
BRANCH  29  30
ATOM     30  C   UNL     1      -3.870   6.500   4.878  1.00  0.00     0.188 C 
BRANCH  30  31
ATOM     31  C   UNL     1      -5.149   5.841   5.446  1.00  0.00     0.188 C 
BRANCH  31  32
ATOM     32  O   UNL     1      -5.657   4.813   4.616  1.00  0.00    -0.376 OA
BRANCH  32  33
ATOM     33  C   UNL     1      -6.794   5.122   3.826  1.00  0.00     0.202 C 
BRANCH  33  34
ATOM     34  C   UNL     1      -6.717   6.317   2.853  1.00  0.00     0.261 C 
BRANCH  34  35
ATOM     35  O   UNL     1      -6.208   7.534   3.429  1.00  0.00    -0.460 OA
BRANCH  35  36
ATOM     36  C   UNL     1      -7.043   8.408   4.042  1.00  0.00     0.338 C 
ATOM     37  O   UNL     1      -8.250   8.436   3.977  1.00  0.00    -0.246 OA
BRANCH  36  38
ATOM     38  C   UNL     1      -6.216   9.067   5.098  1.00  0.00     0.060 A 
ATOM     39  C   UNL     1      -4.933   9.560   4.839  1.00  0.00     0.016 A 
ATOM     40  C   UNL     1      -6.638   8.868   6.422  1.00  0.00     0.016 A 
ATOM     41  C   UNL     1      -4.042   9.731   5.902  1.00  0.00     0.010 A 
ATOM     42  C   UNL     1      -5.738   9.015   7.478  1.00  0.00     0.010 A 
ATOM     43  C   UNL     1      -4.424   9.408   7.222  1.00  0.00    -0.014 A 
BRANCH  43  44
ATOM     44  C   UNL     1      -3.506   9.778   8.317  1.00  0.00     0.031 A 
ATOM     45  C   UNL     1      -3.281  11.246   8.352  1.00  0.00     0.074 A 
ATOM     46  C   UNL     1      -3.033   9.004   9.322  1.00  0.00     0.049 A 
ATOM     47  N   UNL     1      -2.172  11.896   8.247  1.00  0.00    -0.248 NA
ATOM     48  C   UNL     1      -4.488  12.094   8.366  1.00  0.00     0.031 C 
ATOM     49  C   UNL     1      -3.449   7.638   9.635  1.00  0.00     0.029 A 
ATOM     50  N   UNL     1      -2.153   9.297  10.342  1.00  0.00    -0.354 N 
ATOM     51  C   UNL     1      -2.526  13.238   8.359  1.00  0.00     0.074 A 
ATOM     52  C   UNL     1      -3.957  13.307   8.249  1.00  0.00     0.031 C 
ATOM     53  C   UNL     1      -2.959   7.276  10.842  1.00  0.00     0.029 A 
ATOM     54  C   UNL     1      -2.140   8.355  11.370  1.00  0.00     0.049 A 
ATOM     55  H   UNL     1      -1.584  10.101  10.344  1.00  0.00     0.167 HD
ATOM     56  C   UNL     1      -1.650  14.165   8.823  1.00  0.00     0.031 A 
ATOM     57  C   UNL     1      -1.571   8.453  12.600  1.00  0.00     0.031 A 
ATOM     58  C   UNL     1      -0.293  13.701   8.759  1.00  0.00     0.049 A 
ATOM     59  C   UNL     1      -0.549   9.517  12.574  1.00  0.00     0.074 A 
ATOM     60  C   UNL     1       0.654  13.528   7.777  1.00  0.00     0.029 A 
ATOM     61  N   UNL     1       0.111  12.993   9.858  1.00  0.00    -0.354 N 
ATOM     62  N   UNL     1       0.572   9.426  11.922  1.00  0.00    -0.248 NA
ATOM     63  C   UNL     1      -0.887  10.850  13.061  1.00  0.00     0.031 C 
ATOM     64  C   UNL     1       1.552  12.537   8.266  1.00  0.00     0.029 A 
ATOM     65  C   UNL     1       1.148  12.156   9.545  1.00  0.00     0.049 A 
ATOM     66  H   UNL     1      -0.289  13.075  10.754  1.00  0.00     0.167 HD
ATOM     67  C   UNL     1       0.846  10.724  11.541  1.00  0.00     0.074 A 
ATOM     68  C   UNL     1       0.032  11.565  12.407  1.00  0.00     0.031 C 
ATOM     69  C   UNL     1       1.443  10.986  10.346  1.00  0.00     0.031 A 
BRANCH  56  70
ATOM     70  C   UNL     1      -2.063  15.266   9.773  1.00  0.00    -0.014 A 
ATOM     71  C   UNL     1      -3.284  15.266  10.477  1.00  0.00     0.009 A 
ATOM     72  C   UNL     1      -1.091  16.185  10.204  1.00  0.00     0.009 A 
ATOM     73  C   UNL     1      -3.532  16.131  11.544  1.00  0.00     0.001 A 
ATOM     74  C   UNL     1      -1.321  17.028  11.300  1.00  0.00     0.001 A 
ATOM     75  C   UNL     1      -2.540  17.000  11.969  1.00  0.00     0.000 A 
ENDBRANCH  56  70
BRANCH  57  76
ATOM     76  C   UNL     1      -2.010   7.850  13.886  1.00  0.00    -0.014 A 
ATOM     77  C   UNL     1      -3.372   7.576  14.103  1.00  0.00     0.009 A 
ATOM     78  C   UNL     1      -1.156   7.804  15.004  1.00  0.00     0.009 A 
ATOM     79  C   UNL     1      -3.873   7.317  15.383  1.00  0.00     0.001 A 
ATOM     80  C   UNL     1      -1.659   7.551  16.290  1.00  0.00     0.001 A 
ATOM     81  C   UNL     1      -3.020   7.326  16.481  1.00  0.00     0.000 A 
ENDBRANCH  57  76
BRANCH  69  82
ATOM     82  C   UNL     1       2.282   9.909   9.719  1.00  0.00    -0.014 A 
ATOM     83  C   UNL     1       3.622  10.220   9.438  1.00  0.00     0.009 A 
ATOM     84  C   UNL     1       1.777   8.670   9.296  1.00  0.00     0.009 A 
ATOM     85  C   UNL     1       4.430   9.333   8.728  1.00  0.00     0.001 A 
ATOM     86  C   UNL     1       2.596   7.768   8.609  1.00  0.00     0.001 A 
ATOM     87  C   UNL     1       3.917   8.107   8.313  1.00  0.00     0.000 A 
ENDBRANCH  69  82
ENDBRANCH  43  44
ENDBRANCH  36  38
ENDBRANCH  35  36
ENDBRANCH  34  35
ENDBRANCH  33  34
ENDBRANCH  32  33
ENDBRANCH  31  32
ENDBRANCH  30  31
ENDBRANCH  29  30
ENDBRANCH   1  29
TORSDOF 24
