REMARK SMILES O=C(OCCOCCOCCOCCOC(=O)c1c[nH]c(=O)c(-c2cccc([N+](=O)[O-])c2)c1)c1ccc(-c2c3nc(c(-c4ccccc4)c4ccc([nH]4)c(-c4ccccc4)c4nc(c(-c5ccccc5)c5ccc2[nH]5)C=C4)C=C3)cc1
REMARK SMILES IDX 9 1 8 2 7 3 6 4 5 5 4 6 3 7 2 8 1 9 34 10 35 11 81 12 36 13
REMARK SMILES IDX 80 14 37 15 38 16 39 17 74 18 40 19 79 20 73 21 75 22 41 23
REMARK SMILES IDX 78 24 72 25 71 26 42 28 64 29 49 30 63 31 50 32 53 33 62 34
REMARK SMILES IDX 76 35 51 36 52 37 61 39 77 40 54 41 43 42 44 43 48 44 45 45
REMARK SMILES IDX 47 46 46 47 65 48 66 49 70 50 67 51 69 52 68 53 55 54 56 55
REMARK SMILES IDX 60 56 57 57 59 58 58 59 10 60 11 61 12 62 13 63 14 64 15 65
REMARK SMILES IDX 16 66 17 67 18 68 19 69 33 70 20 71 23 72 21 73 22 75 24 76
REMARK SMILES IDX 25 77 32 78 26 79 28 80 27 81 29 82 30 83 31 84
REMARK H PARENT 75 27 53 38 20 74
REMARK Flexibility Score: inf
ROOT
ATOM      1  O   UNL     1       2.523   2.288  -3.116  1.00  0.00    -0.377 OA
ENDROOT
BRANCH   1   2
ATOM      2  C   UNL     1       1.857   1.824  -1.943  1.00  0.00     0.188 C 
BRANCH   2   3
ATOM      3  C   UNL     1       2.297   0.447  -1.448  1.00  0.00     0.188 C 
BRANCH   3   4
ATOM      4  O   UNL     1       3.637   0.483  -0.943  1.00  0.00    -0.376 OA
BRANCH   4   5
ATOM      5  C   UNL     1       4.437  -0.655  -1.271  1.00  0.00     0.202 C 
BRANCH   5   6
ATOM      6  C   UNL     1       4.259  -1.840  -0.320  1.00  0.00     0.261 C 
BRANCH   6   7
ATOM      7  O   UNL     1       2.907  -1.970   0.141  1.00  0.00    -0.460 OA
BRANCH   7   8
ATOM      8  C   UNL     1       2.337  -1.402   1.233  1.00  0.00     0.338 C 
ATOM      9  O   UNL     1       1.153  -1.646   1.460  1.00  0.00    -0.246 OA
BRANCH   8  10
ATOM     10  C   UNL     1       3.059  -0.514   2.203  1.00  0.00     0.060 A 
ATOM     11  C   UNL     1       4.233   0.197   1.946  1.00  0.00     0.016 A 
ATOM     12  C   UNL     1       2.474  -0.365   3.475  1.00  0.00     0.016 A 
ATOM     13  C   UNL     1       4.868   0.938   2.931  1.00  0.00     0.010 A 
ATOM     14  C   UNL     1       3.090   0.401   4.470  1.00  0.00     0.010 A 
ATOM     15  C   UNL     1       4.320   1.010   4.206  1.00  0.00    -0.014 A 
BRANCH  15  16
ATOM     16  C   UNL     1       5.189   1.524   5.277  1.00  0.00     0.031 A 
ATOM     17  C   UNL     1       5.896   0.515   6.133  1.00  0.00     0.074 A 
ATOM     18  C   UNL     1       5.484   2.834   5.336  1.00  0.00     0.049 A 
ATOM     19  N   UNL     1       6.734   0.700   7.116  1.00  0.00    -0.248 NA
ATOM     20  C   UNL     1       5.641  -0.903   5.817  1.00  0.00     0.031 C 
ATOM     21  C   UNL     1       4.968   3.858   4.423  1.00  0.00     0.029 A 
ATOM     22  N   UNL     1       6.329   3.518   6.166  1.00  0.00    -0.354 N 
ATOM     23  C   UNL     1       7.074  -0.573   7.557  1.00  0.00     0.074 A 
ATOM     24  C   UNL     1       6.359  -1.522   6.739  1.00  0.00     0.031 C 
ATOM     25  C   UNL     1       5.539   5.037   4.724  1.00  0.00     0.029 A 
ATOM     26  C   UNL     1       6.401   4.861   5.887  1.00  0.00     0.049 A 
ATOM     27  H   UNL     1       6.836   3.089   6.892  1.00  0.00     0.167 HD
ATOM     28  C   UNL     1       7.903  -0.913   8.570  1.00  0.00     0.031 A 
ATOM     29  C   UNL     1       7.075   5.832   6.529  1.00  0.00     0.031 A 
ATOM     30  C   UNL     1       8.589   0.056   9.375  1.00  0.00     0.049 A 
ATOM     31  C   UNL     1       7.892   5.441   7.731  1.00  0.00     0.074 A 
ATOM     32  C   UNL     1       9.391  -0.143  10.482  1.00  0.00     0.029 A 
ATOM     33  N   UNL     1       8.545   1.425   9.146  1.00  0.00    -0.354 N 
ATOM     34  N   UNL     1       8.143   4.242   8.204  1.00  0.00    -0.248 NA
ATOM     35  C   UNL     1       8.504   6.533   8.495  1.00  0.00     0.031 C 
ATOM     36  C   UNL     1       9.791   1.113  10.953  1.00  0.00     0.029 A 
ATOM     37  C   UNL     1       9.287   2.089  10.103  1.00  0.00     0.049 A 
ATOM     38  H   UNL     1       8.057   1.859   8.409  1.00  0.00     0.167 HD
ATOM     39  C   UNL     1       8.954   4.432   9.313  1.00  0.00     0.074 A 
ATOM     40  C   UNL     1       9.171   5.863   9.425  1.00  0.00     0.031 C 
ATOM     41  C   UNL     1       9.474   3.516  10.168  1.00  0.00     0.031 A 
BRANCH  28  42
ATOM     42  C   UNL     1       7.999  -2.376   8.901  1.00  0.00    -0.014 A 
ATOM     43  C   UNL     1       8.664  -3.286   8.063  1.00  0.00     0.009 A 
ATOM     44  C   UNL     1       7.341  -2.861  10.042  1.00  0.00     0.009 A 
ATOM     45  C   UNL     1       8.624  -4.656   8.336  1.00  0.00     0.001 A 
ATOM     46  C   UNL     1       7.326  -4.227  10.327  1.00  0.00     0.001 A 
ATOM     47  C   UNL     1       7.955  -5.125   9.466  1.00  0.00     0.000 A 
ENDBRANCH  28  42
BRANCH  29  48
ATOM     48  C   UNL     1       6.961   7.251   6.093  1.00  0.00    -0.014 A 
ATOM     49  C   UNL     1       8.076   7.953   5.610  1.00  0.00     0.009 A 
ATOM     50  C   UNL     1       5.729   7.922   6.176  1.00  0.00     0.009 A 
ATOM     51  C   UNL     1       7.964   9.297   5.241  1.00  0.00     0.001 A 
ATOM     52  C   UNL     1       5.612   9.255   5.778  1.00  0.00     0.001 A 
ATOM     53  C   UNL     1       6.732   9.945   5.320  1.00  0.00     0.000 A 
ENDBRANCH  29  48
BRANCH  41  54
ATOM     54  C   UNL     1      10.352   4.042  11.265  1.00  0.00    -0.014 A 
ATOM     55  C   UNL     1       9.813   4.724  12.366  1.00  0.00     0.009 A 
ATOM     56  C   UNL     1      11.735   3.808  11.211  1.00  0.00     0.009 A 
ATOM     57  C   UNL     1      10.651   5.192  13.378  1.00  0.00     0.001 A 
ATOM     58  C   UNL     1      12.565   4.250  12.239  1.00  0.00     0.001 A 
ATOM     59  C   UNL     1      12.023   4.950  13.316  1.00  0.00     0.000 A 
ENDBRANCH  41  54
ENDBRANCH  15  16
ENDBRANCH   8  10
ENDBRANCH   7   8
ENDBRANCH   6   7
ENDBRANCH   5   6
ENDBRANCH   4   5
ENDBRANCH   3   4
ENDBRANCH   2   3
ENDBRANCH   1   2
BRANCH   1  60
ATOM     60  C   UNL     1       3.944   2.209  -3.116  1.00  0.00     0.188 C 
BRANCH  60  61
ATOM     61  C   UNL     1       4.718   2.965  -2.013  1.00  0.00     0.188 C 
BRANCH  61  62
ATOM     62  O   UNL     1       3.889   3.674  -1.106  1.00  0.00    -0.376 OA
BRANCH  62  63
ATOM     63  C   UNL     1       3.853   5.087  -1.256  1.00  0.00     0.202 C 
BRANCH  63  64
ATOM     64  C   UNL     1       3.231   5.635  -2.550  1.00  0.00     0.261 C 
BRANCH  64  65
ATOM     65  O   UNL     1       3.767   5.122  -3.780  1.00  0.00    -0.460 OA
BRANCH  65  66
ATOM     66  C   UNL     1       5.044   5.427  -4.124  1.00  0.00     0.339 C 
ATOM     67  O   UNL     1       5.808   6.151  -3.525  1.00  0.00    -0.246 OA
BRANCH  66  68
ATOM     68  C   UNL     1       5.402   4.541  -5.271  1.00  0.00     0.077 A 
ATOM     69  C   UNL     1       6.450   3.710  -5.147  1.00  0.00     0.101 A 
ATOM     70  C   UNL     1       4.572   4.461  -6.455  1.00  0.00     0.031 A 
ATOM     71  N   UNL     1       6.672   2.732  -6.091  1.00  0.00    -0.328 N 
ATOM     72  C   UNL     1       4.815   3.568  -7.436  1.00  0.00     0.048 A 
ATOM     73  C   UNL     1       5.897   2.549  -7.219  1.00  0.00     0.255 A 
ATOM     74  H   UNL     1       7.433   2.124  -5.952  1.00  0.00     0.169 HD
ATOM     75  O   UNL     1       6.098   1.617  -7.990  1.00  0.00    -0.269 OA
BRANCH  72  76
ATOM     76  C   UNL     1       4.114   3.716  -8.723  1.00  0.00    -0.006 A 
ATOM     77  C   UNL     1       4.219   4.958  -9.379  1.00  0.00     0.009 A 
ATOM     78  C   UNL     1       3.380   2.688  -9.327  1.00  0.00     0.094 A 
ATOM     79  C   UNL     1       3.582   5.194 -10.594  1.00  0.00     0.008 A 
ATOM     80  C   UNL     1       2.741   2.931 -10.556  1.00  0.00     0.270 A 
ATOM     81  C   UNL     1       2.835   4.182 -11.185  1.00  0.00     0.085 A 
BRANCH  80  82
ATOM     82  N   UNL     1       1.954   1.871 -11.200  1.00  0.00     0.062 N 
ATOM     83  O   UNL     1       1.415   2.134 -12.286  1.00  0.00    -0.258 OA
ATOM     84  O   UNL     1       1.864   0.781 -10.619  1.00  0.00    -0.258 OA
ENDBRANCH  80  82
ENDBRANCH  72  76
ENDBRANCH  66  68
ENDBRANCH  65  66
ENDBRANCH  64  65
ENDBRANCH  63  64
ENDBRANCH  62  63
ENDBRANCH  61  62
ENDBRANCH  60  61
ENDBRANCH   1  60
TORSDOF 22
