REMARK SMILES O=C(OCCOCCOCCOCCOC(=O)c1cc(-c2ccccc2)nc(Nc2nc3ccccc3s2)n1)c1ccc(-c2c3nc(c(-c4ccccc4)c4ccc([nH]4)c(-c4ccccc4)c4nc(c(-c5ccccc5)c5ccc2[nH]5)C=C4)C=C3)cc1
REMARK SMILES IDX 9 1 8 2 7 3 6 4 5 5 4 6 3 7 2 8 1 9 40 10 41 11 87 12 42 13
REMARK SMILES IDX 86 14 43 15 44 16 45 17 80 18 46 19 85 20 79 21 81 22 47 23
REMARK SMILES IDX 84 24 78 25 77 26 48 28 70 29 55 30 69 31 56 32 59 33 68 34
REMARK SMILES IDX 82 35 57 36 58 37 67 39 83 40 60 41 49 42 50 43 54 44 51 45
REMARK SMILES IDX 53 46 52 47 71 48 72 49 76 50 73 51 75 52 74 53 61 54 62 55
REMARK SMILES IDX 66 56 63 57 65 58 64 59 10 60 11 61 12 62 13 63 14 64 15 65
REMARK SMILES IDX 16 66 17 67 18 68 19 69 39 70 20 71 28 72 27 73 21 74 22 75
REMARK SMILES IDX 26 76 23 77 25 78 24 79 29 80 30 82 31 83 38 84 32 85 37 86
REMARK SMILES IDX 33 87 36 88 34 89 35 90
REMARK H PARENT 81 27 59 38 29 81
REMARK Flexibility Score: inf
ROOT
ATOM      1  O   UNL     1       2.531  -4.054  -0.488  1.00  0.00    -0.377 OA
ENDROOT
BRANCH   1   2
ATOM      2  C   UNL     1       1.685  -2.903  -0.580  1.00  0.00     0.188 C 
BRANCH   2   3
ATOM      3  C   UNL     1       2.022  -1.774   0.397  1.00  0.00     0.188 C 
BRANCH   3   4
ATOM      4  O   UNL     1       3.203  -1.120  -0.059  1.00  0.00    -0.376 OA
BRANCH   4   5
ATOM      5  C   UNL     1       4.126  -0.717   0.944  1.00  0.00     0.202 C 
BRANCH   5   6
ATOM      6  C   UNL     1       3.906   0.705   1.446  1.00  0.00     0.261 C 
BRANCH   6   7
ATOM      7  O   UNL     1       2.531   1.093   1.350  1.00  0.00    -0.460 OA
BRANCH   7   8
ATOM      8  C   UNL     1       1.926   1.602   0.248  1.00  0.00     0.338 C 
ATOM      9  O   UNL     1       0.710   1.782   0.262  1.00  0.00    -0.246 OA
BRANCH   8  10
ATOM     10  C   UNL     1       2.685   2.080  -0.944  1.00  0.00     0.060 A 
ATOM     11  C   UNL     1       3.717   1.386  -1.586  1.00  0.00     0.016 A 
ATOM     12  C   UNL     1       2.242   3.282  -1.510  1.00  0.00     0.016 A 
ATOM     13  C   UNL     1       4.355   1.905  -2.706  1.00  0.00     0.010 A 
ATOM     14  C   UNL     1       2.841   3.787  -2.664  1.00  0.00     0.010 A 
ATOM     15  C   UNL     1       3.920   3.108  -3.247  1.00  0.00    -0.014 A 
BRANCH  15  16
ATOM     16  C   UNL     1       4.683   3.732  -4.339  1.00  0.00     0.031 A 
ATOM     17  C   UNL     1       5.474   4.958  -4.014  1.00  0.00     0.074 A 
ATOM     18  C   UNL     1       4.685   3.195  -5.570  1.00  0.00     0.049 A 
ATOM     19  N   UNL     1       6.020   5.830  -4.814  1.00  0.00    -0.248 NA
ATOM     20  C   UNL     1       5.661   5.244  -2.581  1.00  0.00     0.031 C 
ATOM     21  C   UNL     1       4.053   1.928  -5.943  1.00  0.00     0.029 A 
ATOM     22  N   UNL     1       5.236   3.654  -6.736  1.00  0.00    -0.354 N 
ATOM     23  C   UNL     1       6.549   6.808  -3.982  1.00  0.00     0.074 A 
ATOM     24  C   UNL     1       6.277   6.413  -2.619  1.00  0.00     0.031 C 
ATOM     25  C   UNL     1       4.248   1.714  -7.254  1.00  0.00     0.029 A 
ATOM     26  C   UNL     1       4.935   2.869  -7.821  1.00  0.00     0.049 A 
ATOM     27  H   UNL     1       5.791   4.465  -6.790  1.00  0.00     0.167 HD
ATOM     28  C   UNL     1       7.177   7.950  -4.342  1.00  0.00     0.031 A 
ATOM     29  C   UNL     1       5.136   3.101  -9.131  1.00  0.00     0.031 A 
ATOM     30  C   UNL     1       7.419   8.302  -5.713  1.00  0.00     0.049 A 
ATOM     31  C   UNL     1       5.778   4.403  -9.522  1.00  0.00     0.074 A 
ATOM     32  C   UNL     1       7.999   9.444  -6.230  1.00  0.00     0.029 A 
ATOM     33  N   UNL     1       7.086   7.490  -6.791  1.00  0.00    -0.354 N 
ATOM     34  N   UNL     1       6.205   5.374  -8.747  1.00  0.00    -0.248 NA
ATOM     35  C   UNL     1       5.949   4.656 -10.957  1.00  0.00     0.031 C 
ATOM     36  C   UNL     1       7.977   9.338  -7.626  1.00  0.00     0.029 A 
ATOM     37  C   UNL     1       7.435   8.108  -7.975  1.00  0.00     0.049 A 
ATOM     38  H   UNL     1       6.664   6.603  -6.720  1.00  0.00     0.167 HD
ATOM     39  C   UNL     1       6.708   6.349  -9.596  1.00  0.00     0.074 A 
ATOM     40  C   UNL     1       6.542   5.844 -10.947  1.00  0.00     0.031 C 
ATOM     41  C   UNL     1       7.255   7.553  -9.294  1.00  0.00     0.031 A 
BRANCH  28  42
ATOM     42  C   UNL     1       7.519   8.908  -3.236  1.00  0.00    -0.014 A 
ATOM     43  C   UNL     1       8.516   8.625  -2.288  1.00  0.00     0.009 A 
ATOM     44  C   UNL     1       6.762  10.081  -3.091  1.00  0.00     0.009 A 
ATOM     45  C   UNL     1       8.703   9.464  -1.186  1.00  0.00     0.001 A 
ATOM     46  C   UNL     1       6.971  10.934  -2.006  1.00  0.00     0.001 A 
ATOM     47  C   UNL     1       7.929  10.615  -1.045  1.00  0.00     0.000 A 
ENDBRANCH  28  42
BRANCH  29  48
ATOM     48  C   UNL     1       4.652   2.118 -10.137  1.00  0.00    -0.014 A 
ATOM     49  C   UNL     1       5.553   1.344 -10.882  1.00  0.00     0.009 A 
ATOM     50  C   UNL     1       3.274   1.905 -10.314  1.00  0.00     0.009 A 
ATOM     51  C   UNL     1       5.083   0.381 -11.781  1.00  0.00     0.001 A 
ATOM     52  C   UNL     1       2.808   0.923 -11.191  1.00  0.00     0.001 A 
ATOM     53  C   UNL     1       3.714   0.164 -11.928  1.00  0.00     0.000 A 
ENDBRANCH  29  48
BRANCH  41  54
ATOM     54  C   UNL     1       7.753   8.380 -10.440  1.00  0.00    -0.014 A 
ATOM     55  C   UNL     1       6.867   9.110 -11.246  1.00  0.00     0.009 A 
ATOM     56  C   UNL     1       9.135   8.505 -10.646  1.00  0.00     0.009 A 
ATOM     57  C   UNL     1       7.362   9.944 -12.249  1.00  0.00     0.001 A 
ATOM     58  C   UNL     1       9.626   9.357 -11.632  1.00  0.00     0.001 A 
ATOM     59  C   UNL     1       8.739  10.074 -12.434  1.00  0.00     0.000 A 
ENDBRANCH  41  54
ENDBRANCH  15  16
ENDBRANCH   8  10
ENDBRANCH   7   8
ENDBRANCH   6   7
ENDBRANCH   5   6
ENDBRANCH   4   5
ENDBRANCH   3   4
ENDBRANCH   2   3
ENDBRANCH   1   2
BRANCH   1  60
ATOM     60  C   UNL     1       3.935  -3.810  -0.408  1.00  0.00     0.188 C 
BRANCH  60  61
ATOM     61  C   UNL     1       4.636  -3.154  -1.618  1.00  0.00     0.188 C 
BRANCH  61  62
ATOM     62  O   UNL     1       3.743  -2.666  -2.613  1.00  0.00    -0.376 OA
BRANCH  62  63
ATOM     63  C   UNL     1       3.735  -3.396  -3.837  1.00  0.00     0.202 C 
BRANCH  63  64
ATOM     64  C   UNL     1       3.138  -4.811  -3.779  1.00  0.00     0.261 C 
BRANCH  64  65
ATOM     65  O   UNL     1       3.701  -5.669  -2.768  1.00  0.00    -0.459 OA
BRANCH  65  66
ATOM     66  C   UNL     1       4.968  -6.111  -2.957  1.00  0.00     0.357 C 
ATOM     67  O   UNL     1       5.650  -5.984  -3.941  1.00  0.00    -0.244 OA
BRANCH  66  68
ATOM     68  C   UNL     1       5.413  -6.660  -1.639  1.00  0.00     0.154 A 
ATOM     69  C   UNL     1       4.712  -7.687  -1.069  1.00  0.00     0.065 A 
ATOM     70  N   UNL     1       6.435  -6.015  -1.036  1.00  0.00    -0.206 NA
ATOM     71  C   UNL     1       5.180  -8.112   0.153  1.00  0.00     0.077 A 
ATOM     72  C   UNL     1       6.756  -6.415   0.199  1.00  0.00     0.230 A 
ATOM     73  N   UNL     1       6.189  -7.478   0.799  1.00  0.00    -0.213 NA
BRANCH  71  74
ATOM     74  C   UNL     1       4.648  -9.344   0.763  1.00  0.00     0.000 A 
ATOM     75  C   UNL     1       4.341  -9.448   2.129  1.00  0.00     0.010 A 
ATOM     76  C   UNL     1       4.426 -10.478  -0.046  1.00  0.00     0.010 A 
ATOM     77  C   UNL     1       3.813 -10.636   2.654  1.00  0.00     0.001 A 
ATOM     78  C   UNL     1       3.902 -11.659   0.475  1.00  0.00     0.001 A 
ATOM     79  C   UNL     1       3.592 -11.737   1.827  1.00  0.00     0.000 A 
ENDBRANCH  71  74
BRANCH  72  80
ATOM     80  N   UNL     1       7.747  -5.752   0.911  1.00  0.00    -0.300 N 
ATOM     81  H   UNL     1       8.120  -6.209   1.699  1.00  0.00     0.172 HD
BRANCH  80  82
ATOM     82  C   UNL     1       8.238  -4.534   0.613  1.00  0.00     0.190 A 
ATOM     83  N   UNL     1       7.586  -3.399   0.764  1.00  0.00    -0.220 NA
ATOM     84  S   UNL     1       9.874  -4.357   0.093  1.00  0.00    -0.097 S 
ATOM     85  C   UNL     1       8.390  -2.325   0.406  1.00  0.00     0.084 A 
ATOM     86  C   UNL     1       9.662  -2.657  -0.056  1.00  0.00     0.056 A 
ATOM     87  C   UNL     1       8.040  -0.959   0.467  1.00  0.00     0.030 A 
ATOM     88  C   UNL     1      10.560  -1.680  -0.524  1.00  0.00     0.021 A 
ATOM     89  C   UNL     1       8.913   0.022  -0.010  1.00  0.00     0.002 A 
ATOM     90  C   UNL     1      10.156  -0.340  -0.513  1.00  0.00     0.002 A 
ENDBRANCH  80  82
ENDBRANCH  72  80
ENDBRANCH  66  68
ENDBRANCH  65  66
ENDBRANCH  64  65
ENDBRANCH  63  64
ENDBRANCH  62  63
ENDBRANCH  61  62
ENDBRANCH  60  61
ENDBRANCH   1  60
TORSDOF 23
