REMARK SMILES Cc1ccccc1NC(=S)NN1C(=O)CS[C@H]1c1ccccc1C(=O)OCCOCCOCCOCCOC(=O)c1ccc(-c2c3nc(c(-c4ccccc4)c4ccc([nH]4)c(-c4ccccc4)c4nc(c(-c5ccccc5)c5ccc2[nH]5)C=C4)C=C3)cc1
REMARK SMILES IDX 30 1 29 2 28 3 27 4 26 5 24 6 25 7 23 8 18 9 19 10 20 11
REMARK SMILES IDX 22 12 21 13 17 14 12 15 13 16 14 17 15 18 16 19 11 20 9 22
REMARK SMILES IDX 10 23 8 24 7 26 1 27 2 28 3 29 4 30 6 31 5 32 31 33 32 34
REMARK SMILES IDX 33 35 34 36 35 37 36 38 37 39 38 40 39 41 40 42 41 43 42 44
REMARK SMILES IDX 88 45 43 46 87 47 44 48 45 49 46 50 81 51 47 52 86 53 80 54
REMARK SMILES IDX 82 55 48 56 85 57 79 58 78 59 49 61 71 62 56 63 70 64 57 65
REMARK SMILES IDX 60 66 69 67 83 68 58 69 59 70 68 72 84 73 61 74 50 75 51 76
REMARK SMILES IDX 55 77 52 78 54 79 53 80 72 81 73 82 77 83 74 84 76 85 75 86
REMARK SMILES IDX 62 87 63 88 67 89 64 90 66 91 65 92
REMARK H PARENT 11 21 8 25 82 60 60 71
REMARK Flexibility Score: inf
ROOT
ATOM      1  C   UNL     1      -2.304   6.109  -2.402  1.00  0.00     0.188 C 
ENDROOT
BRANCH   1   2
ATOM      2  O   UNL     1      -2.315   5.411  -1.178  1.00  0.00    -0.376 OA
BRANCH   2   3
ATOM      3  C   UNL     1      -1.470   4.231  -1.008  1.00  0.00     0.202 C 
BRANCH   3   4
ATOM      4  C   UNL     1      -1.756   3.081   0.395  1.00  0.00     0.261 C 
BRANCH   4   5
ATOM      5  O   UNL     1      -2.241   3.439   2.165  1.00  0.00    -0.460 OA
BRANCH   5   6
ATOM      6  C   UNL     1      -3.090   4.529   3.010  1.00  0.00     0.338 C 
ATOM      7  O   UNL     1      -3.140   4.415   4.237  1.00  0.00    -0.246 OA
BRANCH   6   8
ATOM      8  C   UNL     1      -4.197   5.712   2.416  1.00  0.00     0.066 A 
ATOM      9  C   UNL     1      -5.340   5.238   1.741  1.00  0.00     0.001 A 
ATOM     10  C   UNL     1      -6.248   5.986   0.957  1.00  0.00     0.008 A 
ATOM     11  C   UNL     1      -5.929   7.280   0.653  1.00  0.00     0.000 A 
ATOM     12  C   UNL     1      -3.979   7.082   2.185  1.00  0.00     0.016 A 
ATOM     13  C   UNL     1      -4.795   7.823   1.258  1.00  0.00     0.001 A 
BRANCH   9  14
ATOM     14  C   UNL     1      -5.323   3.818   1.467  1.00  0.00     0.197 C 
ATOM     15  N   UNL     1      -4.054   3.492   0.857  1.00  0.00    -0.236 N 
ATOM     16  C   UNL     1      -4.005   2.037   1.101  1.00  0.00     0.252 C 
ATOM     17  O   UNL     1      -3.974   1.190   0.198  1.00  0.00    -0.272 OA
ATOM     18  C   UNL     1      -4.467   1.637   2.503  1.00  0.00     0.174 C 
ATOM     19  S   UNL     1      -5.751   2.810   2.896  1.00  0.00    -0.120 SA
BRANCH  15  20
ATOM     20  N   UNL     1      -2.741   4.806   0.815  1.00  0.00    -0.270 N 
ATOM     21  H   UNL     1      -3.103   5.614   0.385  1.00  0.00     0.191 HD
BRANCH  20  22
ATOM     22  C   UNL     1      -1.088   5.092   1.278  1.00  0.00     0.189 C 
ATOM     23  S   UNL     1      -0.732   6.787   1.147  1.00  0.00    -0.039 S 
BRANCH  22  24
ATOM     24  N   UNL     1       0.220   4.055   1.374  1.00  0.00    -0.331 N 
ATOM     25  H   UNL     1       0.900   4.763   1.302  1.00  0.00     0.169 HD
BRANCH  24  26
ATOM     26  C   UNL     1       1.401   2.710   1.501  1.00  0.00     0.043 A 
ATOM     27  C   UNL     1       4.027   3.123   0.609  1.00  0.00     0.046 C 
ATOM     28  C   UNL     1       2.897   2.473   1.421  1.00  0.00    -0.028 A 
ATOM     29  C   UNL     1       3.591   1.187   1.801  1.00  0.00     0.005 A 
ATOM     30  C   UNL     1       2.960   0.009   2.025  1.00  0.00     0.000 A 
ATOM     31  C   UNL     1       1.006   1.439   1.750  1.00  0.00     0.026 A 
ATOM     32  C   UNL     1       1.632   0.137   1.922  1.00  0.00     0.002 A 
ENDBRANCH  24  26
ENDBRANCH  22  24
ENDBRANCH  20  22
ENDBRANCH  15  20
ENDBRANCH   9  14
ENDBRANCH   6   8
ENDBRANCH   5   6
ENDBRANCH   4   5
ENDBRANCH   3   4
ENDBRANCH   2   3
ENDBRANCH   1   2
BRANCH   1  33
ATOM     33  C   UNL     1      -3.471   5.536  -3.192  1.00  0.00     0.188 C 
BRANCH  33  34
ATOM     34  O   UNL     1      -3.241   5.413  -4.584  1.00  0.00    -0.377 OA
BRANCH  34  35
ATOM     35  C   UNL     1      -2.470   4.265  -4.924  1.00  0.00     0.188 C 
BRANCH  35  36
ATOM     36  C   UNL     1      -0.974   4.529  -4.850  1.00  0.00     0.188 C 
BRANCH  36  37
ATOM     37  O   UNL     1      -0.535   5.778  -5.367  1.00  0.00    -0.376 OA
BRANCH  37  38
ATOM     38  C   UNL     1      -0.817   6.018  -6.743  1.00  0.00     0.202 C 
BRANCH  38  39
ATOM     39  C   UNL     1      -0.271   4.949  -7.705  1.00  0.00     0.261 C 
BRANCH  39  40
ATOM     40  O   UNL     1       1.156   4.847  -7.539  1.00  0.00    -0.460 OA
BRANCH  40  41
ATOM     41  C   UNL     1       1.619   3.603  -7.236  1.00  0.00     0.338 C 
ATOM     42  O   UNL     1       1.251   2.564  -7.746  1.00  0.00    -0.246 OA
BRANCH  41  43
ATOM     43  C   UNL     1       2.352   3.671  -5.936  1.00  0.00     0.060 A 
ATOM     44  C   UNL     1       2.599   2.470  -5.269  1.00  0.00     0.016 A 
ATOM     45  C   UNL     1       2.343   4.877  -5.229  1.00  0.00     0.016 A 
ATOM     46  C   UNL     1       2.598   2.469  -3.880  1.00  0.00     0.010 A 
ATOM     47  C   UNL     1       2.162   4.845  -3.858  1.00  0.00     0.010 A 
ATOM     48  C   UNL     1       2.208   3.635  -3.183  1.00  0.00    -0.014 A 
BRANCH  48  49
ATOM     49  C   UNL     1       1.715   3.531  -1.783  1.00  0.00     0.031 A 
ATOM     50  C   UNL     1       2.285   4.725  -0.752  1.00  0.00     0.074 A 
ATOM     51  C   UNL     1       0.885   2.408  -1.667  1.00  0.00     0.049 A 
ATOM     52  N   UNL     1       2.068   4.899   0.526  1.00  0.00    -0.248 NA
ATOM     53  C   UNL     1       3.192   5.819  -1.142  1.00  0.00     0.031 C 
ATOM     54  C   UNL     1      -0.150   1.983  -2.657  1.00  0.00     0.029 A 
ATOM     55  N   UNL     1       0.593   1.478  -0.692  1.00  0.00    -0.354 N 
ATOM     56  C   UNL     1       2.650   5.994   1.142  1.00  0.00     0.074 A 
ATOM     57  C   UNL     1       3.378   6.527  -0.004  1.00  0.00     0.031 C 
ATOM     58  C   UNL     1      -1.066   1.163  -2.086  1.00  0.00     0.029 A 
ATOM     59  C   UNL     1      -0.631   0.780  -0.740  1.00  0.00     0.049 A 
ATOM     60  H   UNL     1       1.235   1.303   0.034  1.00  0.00     0.167 HD
ATOM     61  C   UNL     1       2.369   6.377   2.470  1.00  0.00     0.031 A 
ATOM     62  C   UNL     1      -1.229  -0.152   0.123  1.00  0.00     0.031 A 
ATOM     63  C   UNL     1       1.472   5.470   3.426  1.00  0.00     0.049 A 
ATOM     64  C   UNL     1      -1.347  -0.019   1.862  1.00  0.00     0.074 A 
ATOM     65  C   UNL     1       0.322   5.780   4.161  1.00  0.00     0.029 A 
ATOM     66  N   UNL     1       1.590   4.067   3.743  1.00  0.00    -0.354 N 
ATOM     67  N   UNL     1      -1.433   1.124   2.575  1.00  0.00    -0.248 NA
ATOM     68  C   UNL     1      -1.167  -1.105   2.844  1.00  0.00     0.031 C 
ATOM     69  C   UNL     1      -0.347   4.601   4.593  1.00  0.00     0.029 A 
ATOM     70  C   UNL     1       0.311   3.463   4.153  1.00  0.00     0.049 A 
ATOM     71  H   UNL     1       2.436   3.567   3.692  1.00  0.00     0.167 HD
ATOM     72  C   UNL     1      -0.744   1.017   3.837  1.00  0.00     0.074 A 
ATOM     73  C   UNL     1      -0.854  -0.449   3.999  1.00  0.00     0.031 C 
ATOM     74  C   UNL     1       0.067   1.977   4.556  1.00  0.00     0.031 A 
BRANCH  61  75
ATOM     75  C   UNL     1       2.481   7.924   2.825  1.00  0.00    -0.014 A 
ATOM     76  C   UNL     1       1.899   8.440   4.003  1.00  0.00     0.009 A 
ATOM     77  C   UNL     1       2.938   8.932   1.953  1.00  0.00     0.009 A 
ATOM     78  C   UNL     1       1.578   9.804   4.176  1.00  0.00     0.001 A 
ATOM     79  C   UNL     1       2.675  10.305   2.135  1.00  0.00     0.001 A 
ATOM     80  C   UNL     1       1.940  10.738   3.221  1.00  0.00     0.000 A 
ENDBRANCH  61  75
BRANCH  62  81
ATOM     81  C   UNL     1      -1.087  -1.454  -0.719  1.00  0.00    -0.014 A 
ATOM     82  C   UNL     1      -2.034  -1.636  -1.758  1.00  0.00     0.009 A 
ATOM     83  C   UNL     1       0.257  -1.809  -1.045  1.00  0.00     0.009 A 
ATOM     84  C   UNL     1      -1.613  -1.810  -3.101  1.00  0.00     0.001 A 
ATOM     85  C   UNL     1       0.672  -1.951  -2.388  1.00  0.00     0.001 A 
ATOM     86  C   UNL     1      -0.258  -1.891  -3.420  1.00  0.00     0.000 A 
ENDBRANCH  62  81
BRANCH  74  87
ATOM     87  C   UNL     1       0.790   1.713   5.922  1.00  0.00    -0.014 A 
ATOM     88  C   UNL     1       1.234   0.491   6.424  1.00  0.00     0.009 A 
ATOM     89  C   UNL     1       1.127   2.837   6.740  1.00  0.00     0.009 A 
ATOM     90  C   UNL     1       1.911   0.407   7.667  1.00  0.00     0.001 A 
ATOM     91  C   UNL     1       1.834   2.774   7.942  1.00  0.00     0.001 A 
ATOM     92  C   UNL     1       2.215   1.542   8.419  1.00  0.00     0.000 A 
ENDBRANCH  74  87
ENDBRANCH  48  49
ENDBRANCH  41  43
ENDBRANCH  40  41
ENDBRANCH  39  40
ENDBRANCH  38  39
ENDBRANCH  37  38
ENDBRANCH  36  37
ENDBRANCH  35  36
ENDBRANCH  34  35
ENDBRANCH  33  34
ENDBRANCH   1  33
TORSDOF 25
