REMARK SMILES CC(C)C[C@H](NC(=O)[C@H](Cc1ccccc1)NC(=O)CNC(=O)CNC(=O)OCc1ccccc1)C(=O)OCCOCCOCCOCCOC(=O)c1ccc(-c2c3nc(c(-c4ccccc4)c4ccc([nH]4)c(-c4ccccc4)c4nc(c(-c5ccccc5)c5ccc2[nH]5)C=C4)C=C3)cc1
REMARK SMILES IDX 40 1 39 2 38 3 36 4 37 5 5 6 4 7 2 8 1 9 3 10 6 11 7 12 8 14
REMARK SMILES IDX 9 15 17 16 18 17 19 19 20 20 21 21 22 22 23 24 24 25 25 26
REMARK SMILES IDX 26 27 27 29 28 30 29 31 30 32 31 33 35 34 32 35 34 36 33 37
REMARK SMILES IDX 10 38 11 39 12 40 16 41 13 42 15 43 14 44 41 45 42 46 43 47
REMARK SMILES IDX 44 48 45 49 46 50 47 51 48 52 49 53 50 54 51 55 52 56 53 57
REMARK SMILES IDX 54 58 100 59 55 60 99 61 56 62 57 63 58 64 93 65 59 66 98 67
REMARK SMILES IDX 92 68 94 69 60 70 97 71 91 72 90 73 61 75 83 76 68 77 82 78
REMARK SMILES IDX 69 79 72 80 81 81 95 82 70 83 71 84 80 86 96 87 73 88 62 89
REMARK SMILES IDX 63 90 67 91 64 92 66 93 65 94 84 95 85 96 89 97 86 98 88 99
REMARK SMILES IDX 87 100 74 101 75 102 79 103 76 104 78 105 77 106
REMARK H PARENT 6 13 17 18 21 23 25 28 94 74 72 85
REMARK Flexibility Score: inf
ROOT
ATOM      1  C   UNL     1      -5.792  -6.290   0.023  1.00  0.00     0.202 C 
ENDROOT
BRANCH   1   2
ATOM      2  C   UNL     1      -5.035  -4.981   0.156  1.00  0.00     0.261 C 
BRANCH   2   3
ATOM      3  O   UNL     1      -5.848  -4.014   0.836  1.00  0.00    -0.462 OA
BRANCH   3   4
ATOM      4  C   UNL     1      -5.994  -2.791   0.281  1.00  0.00     0.328 C 
ATOM      5  O   UNL     1      -5.525  -2.489  -0.812  1.00  0.00    -0.250 OA
BRANCH   4   6
ATOM      6  C   UNL     1      -6.564  -1.717   1.260  1.00  0.00     0.192 C 
BRANCH   6   7
ATOM      7  C   UNL     1      -5.319  -1.119   1.884  1.00  0.00     0.040 C 
BRANCH   7   8
ATOM      8  C   UNL     1      -4.379  -2.183   2.429  1.00  0.00    -0.015 C 
ATOM      9  C   UNL     1      -3.108  -2.025   1.588  1.00  0.00     0.007 C 
ATOM     10  C   UNL     1      -4.625  -2.422   3.916  1.00  0.00     0.007 C 
ENDBRANCH   7   8
ENDBRANCH   6   7
BRANCH   6  11
ATOM     11  N   UNL     1      -7.549  -1.739   2.342  1.00  0.00    -0.341 N 
ATOM     12  C   UNL     1      -8.147  -0.630   2.932  1.00  0.00     0.243 C 
ATOM     13  H   UNL     1      -7.813  -2.623   2.686  1.00  0.00     0.164 HD
ATOM     14  O   UNL     1      -8.835  -0.836   3.939  1.00  0.00    -0.273 OA
BRANCH  12  15
ATOM     15  C   UNL     1      -7.845   0.885   2.466  1.00  0.00     0.175 C 
BRANCH  15  16
ATOM     16  N   UNL     1      -7.417   1.002   1.076  1.00  0.00    -0.342 N 
ATOM     17  C   UNL     1      -6.266   1.468   0.506  1.00  0.00     0.240 C 
ATOM     18  H   UNL     1      -8.084   0.684   0.426  1.00  0.00     0.164 HD
ATOM     19  O   UNL     1      -6.102   1.207  -0.689  1.00  0.00    -0.273 OA
BRANCH  17  20
ATOM     20  C   UNL     1      -5.148   2.161   1.303  1.00  0.00     0.216 C 
BRANCH  20  21
ATOM     21  N   UNL     1      -5.562   3.184   2.235  1.00  0.00    -0.346 N 
ATOM     22  C   UNL     1      -4.882   3.603   3.340  1.00  0.00     0.239 C 
ATOM     23  H   UNL     1      -6.424   3.623   2.054  1.00  0.00     0.164 HD
ATOM     24  O   UNL     1      -5.267   4.634   3.895  1.00  0.00    -0.273 OA
BRANCH  22  25
ATOM     25  C   UNL     1      -3.675   2.789   3.867  1.00  0.00     0.219 C 
BRANCH  25  26
ATOM     26  N   UNL     1      -4.080   1.491   4.413  1.00  0.00    -0.312 N 
ATOM     27  C   UNL     1      -3.328   0.386   4.769  1.00  0.00     0.407 C 
ATOM     28  H   UNL     1      -5.050   1.388   4.549  1.00  0.00     0.167 HD
ATOM     29  O   UNL     1      -3.679  -0.234   5.764  1.00  0.00    -0.225 OA
BRANCH  27  30
ATOM     30  O   UNL     1      -2.299   0.033   3.947  1.00  0.00    -0.445 OA
BRANCH  30  31
ATOM     31  C   UNL     1      -1.303  -1.095   4.148  1.00  0.00     0.270 C 
BRANCH  31  32
ATOM     32  C   UNL     1      -1.594  -2.553   4.625  1.00  0.00    -0.011 A 
ATOM     33  C   UNL     1      -1.692  -3.699   3.783  1.00  0.00     0.007 A 
ATOM     34  C   UNL     1      -1.804  -2.798   5.984  1.00  0.00     0.007 A 
ATOM     35  C   UNL     1      -2.279  -4.903   4.212  1.00  0.00     0.000 A 
ATOM     36  C   UNL     1      -2.301  -4.035   6.437  1.00  0.00     0.000 A 
ATOM     37  C   UNL     1      -2.614  -5.058   5.545  1.00  0.00     0.000 A 
ENDBRANCH  31  32
ENDBRANCH  30  31
ENDBRANCH  27  30
ENDBRANCH  25  26
ENDBRANCH  22  25
ENDBRANCH  20  21
ENDBRANCH  17  20
ENDBRANCH  15  16
BRANCH  15  38
ATOM     38  C   UNL     1      -9.109   1.761   2.753  1.00  0.00     0.070 C 
BRANCH  38  39
ATOM     39  C   UNL     1      -9.410   3.090   2.056  1.00  0.00    -0.045 A 
ATOM     40  C   UNL     1      -8.713   3.635   0.972  1.00  0.00     0.004 A 
ATOM     41  C   UNL     1     -10.534   3.813   2.491  1.00  0.00     0.004 A 
ATOM     42  C   UNL     1      -9.068   4.846   0.371  1.00  0.00     0.000 A 
ATOM     43  C   UNL     1     -10.916   5.016   1.879  1.00  0.00     0.000 A 
ATOM     44  C   UNL     1     -10.176   5.538   0.824  1.00  0.00     0.000 A 
ENDBRANCH  38  39
ENDBRANCH  15  38
ENDBRANCH  12  15
ENDBRANCH   6  11
ENDBRANCH   4   6
ENDBRANCH   3   4
ENDBRANCH   2   3
ENDBRANCH   1   2
BRANCH   1  45
ATOM     45  O   UNL     1      -7.076  -6.278  -0.591  1.00  0.00    -0.376 OA
BRANCH  45  46
ATOM     46  C   UNL     1      -7.912  -5.128  -0.512  1.00  0.00     0.188 C 
BRANCH  46  47
ATOM     47  C   UNL     1      -8.466  -4.620   0.850  1.00  0.00     0.188 C 
BRANCH  47  48
ATOM     48  O   UNL     1      -7.769  -4.973   2.035  1.00  0.00    -0.377 OA
BRANCH  48  49
ATOM     49  C   UNL     1      -7.962  -6.273   2.584  1.00  0.00     0.188 C 
BRANCH  49  50
ATOM     50  C   UNL     1      -8.608  -7.376   1.724  1.00  0.00     0.188 C 
BRANCH  50  51
ATOM     51  O   UNL     1      -9.626  -6.939   0.845  1.00  0.00    -0.376 OA
BRANCH  51  52
ATOM     52  C   UNL     1     -10.976  -6.874   1.269  1.00  0.00     0.202 C 
BRANCH  52  53
ATOM     53  C   UNL     1     -11.331  -6.186   2.598  1.00  0.00     0.261 C 
BRANCH  53  54
ATOM     54  O   UNL     1     -10.679  -6.685   3.774  1.00  0.00    -0.460 OA
BRANCH  54  55
ATOM     55  C   UNL     1     -10.756  -7.998   4.031  1.00  0.00     0.338 C 
ATOM     56  O   UNL     1     -11.390  -8.848   3.405  1.00  0.00    -0.246 OA
BRANCH  55  57
ATOM     57  C   UNL     1      -9.789  -8.309   5.091  1.00  0.00     0.060 A 
ATOM     58  C   UNL     1      -8.739  -9.200   4.825  1.00  0.00     0.016 A 
ATOM     59  C   UNL     1      -9.948  -7.752   6.361  1.00  0.00     0.016 A 
ATOM     60  C   UNL     1      -7.878  -9.584   5.845  1.00  0.00     0.010 A 
ATOM     61  C   UNL     1      -9.108  -8.165   7.393  1.00  0.00     0.010 A 
ATOM     62  C   UNL     1      -8.107  -9.121   7.146  1.00  0.00    -0.014 A 
BRANCH  62  63
ATOM     63  C   UNL     1      -7.485  -9.843   8.274  1.00  0.00     0.031 A 
ATOM     64  C   UNL     1      -8.290 -10.924   8.943  1.00  0.00     0.074 A 
ATOM     65  C   UNL     1      -6.225  -9.586   8.660  1.00  0.00     0.049 A 
ATOM     66  N   UNL     1      -7.988 -11.668   9.975  1.00  0.00    -0.248 NA
ATOM     67  C   UNL     1      -9.617 -11.204   8.366  1.00  0.00     0.031 C 
ATOM     68  C   UNL     1      -5.327  -8.614   8.040  1.00  0.00     0.029 A 
ATOM     69  N   UNL     1      -5.488 -10.131   9.679  1.00  0.00    -0.354 N 
ATOM     70  C   UNL     1      -9.086 -12.496  10.172  1.00  0.00     0.074 A 
ATOM     71  C   UNL     1     -10.075 -12.143   9.179  1.00  0.00     0.031 C 
ATOM     72  C   UNL     1      -4.157  -8.621   8.704  1.00  0.00     0.029 A 
ATOM     73  C   UNL     1      -4.244  -9.568   9.815  1.00  0.00     0.049 A 
ATOM     74  H   UNL     1      -5.819 -10.855  10.258  1.00  0.00     0.167 HD
ATOM     75  C   UNL     1      -9.254 -13.472  11.095  1.00  0.00     0.031 A 
ATOM     76  C   UNL     1      -3.299  -9.779  10.750  1.00  0.00     0.031 A 
ATOM     77  C   UNL     1      -8.278 -13.803  12.096  1.00  0.00     0.049 A 
ATOM     78  C   UNL     1      -3.554 -10.794  11.835  1.00  0.00     0.074 A 
ATOM     79  C   UNL     1      -8.352 -14.763  13.089  1.00  0.00     0.029 A 
ATOM     80  N   UNL     1      -7.050 -13.175  12.233  1.00  0.00    -0.354 N 
ATOM     81  N   UNL     1      -4.592 -11.577  12.012  1.00  0.00    -0.248 NA
ATOM     82  C   UNL     1      -2.499 -10.960  12.844  1.00  0.00     0.031 C 
ATOM     83  C   UNL     1      -7.191 -14.676  13.864  1.00  0.00     0.029 A 
ATOM     84  C   UNL     1      -6.365 -13.711  13.310  1.00  0.00     0.049 A 
ATOM     85  H   UNL     1      -6.715 -12.455  11.651  1.00  0.00     0.167 HD
ATOM     86  C   UNL     1      -4.298 -12.351  13.129  1.00  0.00     0.074 A 
ATOM     87  C   UNL     1      -2.978 -11.956  13.575  1.00  0.00     0.031 C 
ATOM     88  C   UNL     1      -5.049 -13.306  13.733  1.00  0.00     0.031 A 
BRANCH  75  89
ATOM     89  C   UNL     1     -10.559 -14.218  11.081  1.00  0.00    -0.014 A 
ATOM     90  C   UNL     1     -10.881 -15.108  10.043  1.00  0.00     0.009 A 
ATOM     91  C   UNL     1     -11.471 -14.045  12.133  1.00  0.00     0.009 A 
ATOM     92  C   UNL     1     -12.103 -15.784  10.044  1.00  0.00     0.001 A 
ATOM     93  C   UNL     1     -12.678 -14.746  12.148  1.00  0.00     0.001 A 
ATOM     94  C   UNL     1     -12.997 -15.607  11.099  1.00  0.00     0.000 A 
ENDBRANCH  75  89
BRANCH  76  95
ATOM     95  C   UNL     1      -2.036  -8.993  10.732  1.00  0.00    -0.014 A 
ATOM     96  C   UNL     1      -0.803  -9.619  10.497  1.00  0.00     0.009 A 
ATOM     97  C   UNL     1      -2.056  -7.614  10.995  1.00  0.00     0.009 A 
ATOM     98  C   UNL     1       0.386  -8.889  10.563  1.00  0.00     0.001 A 
ATOM     99  C   UNL     1      -0.869  -6.879  11.026  1.00  0.00     0.001 A 
ATOM    100  C   UNL     1       0.352  -7.520  10.824  1.00  0.00     0.000 A 
ENDBRANCH  76  95
BRANCH  88 101
ATOM    101  C   UNL     1      -4.439 -14.022  14.907  1.00  0.00    -0.014 A 
ATOM    102  C   UNL     1      -4.233 -13.378  16.137  1.00  0.00     0.009 A 
ATOM    103  C   UNL     1      -4.096 -15.379  14.786  1.00  0.00     0.009 A 
ATOM    104  C   UNL     1      -3.654 -14.065  17.205  1.00  0.00     0.001 A 
ATOM    105  C   UNL     1      -3.551 -16.073  15.866  1.00  0.00     0.001 A 
ATOM    106  C   UNL     1      -3.319 -15.412  17.071  1.00  0.00     0.000 A 
ENDBRANCH  88 101
ENDBRANCH  62  63
ENDBRANCH  55  57
ENDBRANCH  54  55
ENDBRANCH  53  54
ENDBRANCH  52  53
ENDBRANCH  51  52
ENDBRANCH  50  51
ENDBRANCH  49  50
ENDBRANCH  48  49
ENDBRANCH  47  48
ENDBRANCH  46  47
ENDBRANCH  45  46
ENDBRANCH   1  45
TORSDOF 34
