REMARK SMILES CC[C@@H](C)CN(CC)C(=O)N1CC[C@@](CC)(C(=O)OCCOCCOCCOCCOC(=O)c2ccc(-c3c4nc(c(-c5ccccc5)c5ccc([nH]5)c(-c5ccccc5)c5nc(c(-c6ccccc6)c6ccc3[nH]6)C=C5)C=C4)cc2)C1
REMARK SMILES IDX 23 1 22 2 21 3 20 4 19 5 17 6 18 7 14 8 11 9 12 10 82 11
REMARK SMILES IDX 13 12 9 13 10 14 6 15 5 16 3 17 4 18 2 19 1 20 7 21 8 22
REMARK SMILES IDX 15 23 16 24 24 25 25 26 26 27 27 28 28 29 29 30 30 31 31 32
REMARK SMILES IDX 32 33 33 34 34 35 35 36 81 37 36 38 80 39 37 40 38 41 39 42
REMARK SMILES IDX 74 43 40 44 79 45 73 46 75 47 41 48 78 49 72 50 71 51 42 53
REMARK SMILES IDX 64 54 49 55 63 56 50 57 53 58 62 59 76 60 51 61 52 62 61 64
REMARK SMILES IDX 77 65 54 66 43 67 44 68 48 69 45 70 47 71 46 72 65 73 66 74
REMARK SMILES IDX 70 75 67 76 69 77 68 78 55 79 56 80 60 81 57 82 59 83 58 84
REMARK H PARENT 75 52 53 63
REMARK Flexibility Score: inf
ROOT
ATOM      1  C   UNL     1      -0.170  -3.939   7.200  1.00  0.00     0.188 C 
ENDROOT
BRANCH   1   2
ATOM      2  O   UNL     1      -0.227  -5.353   7.055  1.00  0.00    -0.376 OA
BRANCH   2   3
ATOM      3  C   UNL     1       0.731  -6.165   7.708  1.00  0.00     0.202 C 
BRANCH   3   4
ATOM      4  C   UNL     1       2.224  -5.936   7.415  1.00  0.00     0.261 C 
BRANCH   4   5
ATOM      5  O   UNL     1       2.631  -4.588   7.113  1.00  0.00    -0.463 OA
BRANCH   5   6
ATOM      6  C   UNL     1       2.689  -4.258   5.798  1.00  0.00     0.314 C 
ATOM      7  O   UNL     1       2.433  -5.039   4.888  1.00  0.00    -0.252 OA
BRANCH   6   8
ATOM      8  C   UNL     1       3.228  -2.840   5.549  1.00  0.00     0.087 C 
ATOM      9  N   UNL     1       1.873  -0.941   4.900  1.00  0.00    -0.323 N 
ATOM     10  C   UNL     1       1.866  -0.977   6.337  1.00  0.00     0.122 C 
ATOM     11  C   UNL     1       2.378  -2.225   4.403  1.00  0.00     0.140 C 
ATOM     12  C   UNL     1       3.115  -1.766   6.655  1.00  0.00     0.042 C 
BRANCH   9  13
ATOM     13  C   UNL     1       0.880  -0.277   4.207  1.00  0.00     0.320 C 
ATOM     14  O   UNL     1      -0.005  -0.900   3.623  1.00  0.00    -0.248 OA
BRANCH  13  15
ATOM     15  N   UNL     1       1.013   1.105   4.117  1.00  0.00    -0.325 N 
BRANCH  15  16
ATOM     16  C   UNL     1       0.244   1.819   3.090  1.00  0.00     0.124 C 
BRANCH  16  17
ATOM     17  C   UNL     1       0.874   1.717   1.670  1.00  0.00     0.005 C 
ATOM     18  C   UNL     1       0.380   2.886   0.811  1.00  0.00     0.009 C 
BRANCH  17  19
ATOM     19  C   UNL     1       0.556   0.356   1.013  1.00  0.00     0.002 C 
ATOM     20  C   UNL     1       1.028   0.178  -0.421  1.00  0.00     0.004 C 
ENDBRANCH  17  19
ENDBRANCH  16  17
ENDBRANCH  15  16
BRANCH  15  21
ATOM     21  C   UNL     1       1.822   1.925   5.019  1.00  0.00     0.118 C 
ATOM     22  C   UNL     1       0.984   2.391   6.210  1.00  0.00     0.027 C 
ENDBRANCH  15  21
ENDBRANCH  13  15
ENDBRANCH   9  13
BRANCH   8  23
ATOM     23  C   UNL     1       4.721  -3.030   5.195  1.00  0.00     0.017 C 
ATOM     24  C   UNL     1       5.580  -3.382   6.417  1.00  0.00     0.005 C 
ENDBRANCH   8  23
ENDBRANCH   6   8
ENDBRANCH   5   6
ENDBRANCH   4   5
ENDBRANCH   3   4
ENDBRANCH   2   3
ENDBRANCH   1   2
BRANCH   1  25
ATOM     25  C   UNL     1       0.499  -3.295   8.436  1.00  0.00     0.188 C 
BRANCH  25  26
ATOM     26  O   UNL     1       0.768  -4.171   9.514  1.00  0.00    -0.377 OA
BRANCH  26  27
ATOM     27  C   UNL     1      -0.091  -4.007  10.624  1.00  0.00     0.188 C 
BRANCH  27  28
ATOM     28  C   UNL     1      -1.589  -4.135  10.305  1.00  0.00     0.188 C 
BRANCH  28  29
ATOM     29  O   UNL     1      -2.001  -3.270   9.254  1.00  0.00    -0.376 OA
BRANCH  29  30
ATOM     30  C   UNL     1      -2.738  -2.097   9.548  1.00  0.00     0.202 C 
BRANCH  30  31
ATOM     31  C   UNL     1      -1.984  -0.917  10.184  1.00  0.00     0.261 C 
BRANCH  31  32
ATOM     32  O   UNL     1      -1.159  -1.218  11.316  1.00  0.00    -0.460 OA
BRANCH  32  33
ATOM     33  C   UNL     1      -1.781  -1.637  12.437  1.00  0.00     0.338 C 
ATOM     34  O   UNL     1      -2.982  -1.768  12.607  1.00  0.00    -0.246 OA
BRANCH  33  35
ATOM     35  C   UNL     1      -0.743  -2.123  13.371  1.00  0.00     0.060 A 
ATOM     36  C   UNL     1      -0.792  -3.461  13.785  1.00  0.00     0.016 A 
ATOM     37  C   UNL     1       0.297  -1.290  13.793  1.00  0.00     0.016 A 
ATOM     38  C   UNL     1       0.185  -3.965  14.638  1.00  0.00     0.010 A 
ATOM     39  C   UNL     1       1.256  -1.785  14.682  1.00  0.00     0.010 A 
ATOM     40  C   UNL     1       1.182  -3.115  15.132  1.00  0.00    -0.014 A 
BRANCH  40  41
ATOM     41  C   UNL     1       1.979  -3.555  16.299  1.00  0.00     0.031 A 
ATOM     42  C   UNL     1       1.479  -3.181  17.668  1.00  0.00     0.074 A 
ATOM     43  C   UNL     1       3.079  -4.313  16.160  1.00  0.00     0.049 A 
ATOM     44  N   UNL     1       1.981  -3.459  18.843  1.00  0.00    -0.248 NA
ATOM     45  C   UNL     1       0.239  -2.388  17.713  1.00  0.00     0.031 C 
ATOM     46  C   UNL     1       3.625  -4.795  14.894  1.00  0.00     0.029 A 
ATOM     47  N   UNL     1       3.929  -4.818  17.111  1.00  0.00    -0.354 N 
ATOM     48  C   UNL     1       1.119  -2.876  19.763  1.00  0.00     0.074 A 
ATOM     49  C   UNL     1       0.087  -2.197  19.013  1.00  0.00     0.031 C 
ATOM     50  C   UNL     1       4.723  -5.529  15.147  1.00  0.00     0.029 A 
ATOM     51  C   UNL     1       4.972  -5.542  16.587  1.00  0.00     0.049 A 
ATOM     52  H   UNL     1       3.804  -4.675  18.077  1.00  0.00     0.167 HD
ATOM     53  C   UNL     1       1.175  -2.909  21.115  1.00  0.00     0.031 A 
ATOM     54  C   UNL     1       6.013  -6.133  17.205  1.00  0.00     0.031 A 
ATOM     55  C   UNL     1       2.222  -3.554  21.860  1.00  0.00     0.049 A 
ATOM     56  C   UNL     1       6.116  -6.061  18.707  1.00  0.00     0.074 A 
ATOM     57  C   UNL     1       2.379  -3.639  23.232  1.00  0.00     0.029 A 
ATOM     58  N   UNL     1       3.300  -4.214  21.291  1.00  0.00    -0.354 N 
ATOM     59  N   UNL     1       5.288  -5.522  19.571  1.00  0.00    -0.248 NA
ATOM     60  C   UNL     1       7.296  -6.689  19.318  1.00  0.00     0.031 C 
ATOM     61  C   UNL     1       3.588  -4.293  23.491  1.00  0.00     0.029 A 
ATOM     62  C   UNL     1       4.145  -4.682  22.283  1.00  0.00     0.049 A 
ATOM     63  H   UNL     1       3.444  -4.333  20.324  1.00  0.00     0.167 HD
ATOM     64  C   UNL     1       5.829  -5.777  20.826  1.00  0.00     0.074 A 
ATOM     65  C   UNL     1       7.047  -6.531  20.610  1.00  0.00     0.031 C 
ATOM     66  C   UNL     1       5.358  -5.424  22.049  1.00  0.00     0.031 A 
BRANCH  53  67
ATOM     67  C   UNL     1       0.095  -2.176  21.862  1.00  0.00    -0.014 A 
ATOM     68  C   UNL     1      -1.236  -2.626  21.856  1.00  0.00     0.009 A 
ATOM     69  C   UNL     1       0.412  -1.011  22.577  1.00  0.00     0.009 A 
ATOM     70  C   UNL     1      -2.232  -1.899  22.513  1.00  0.00     0.001 A 
ATOM     71  C   UNL     1      -0.579  -0.306  23.261  1.00  0.00     0.001 A 
ATOM     72  C   UNL     1      -1.902  -0.743  23.218  1.00  0.00     0.000 A 
ENDBRANCH  53  67
BRANCH  54  73
ATOM     73  C   UNL     1       7.051  -6.840  16.409  1.00  0.00    -0.014 A 
ATOM     74  C   UNL     1       7.196  -8.233  16.497  1.00  0.00     0.009 A 
ATOM     75  C   UNL     1       7.921  -6.121  15.574  1.00  0.00     0.009 A 
ATOM     76  C   UNL     1       8.204  -8.887  15.783  1.00  0.00     0.001 A 
ATOM     77  C   UNL     1       8.907  -6.781  14.838  1.00  0.00     0.001 A 
ATOM     78  C   UNL     1       9.054  -8.162  14.951  1.00  0.00     0.000 A 
ENDBRANCH  54  73
BRANCH  66  79
ATOM     79  C   UNL     1       6.141  -5.887  23.249  1.00  0.00    -0.014 A 
ATOM     80  C   UNL     1       7.404  -5.356  23.553  1.00  0.00     0.009 A 
ATOM     81  C   UNL     1       5.586  -6.850  24.107  1.00  0.00     0.009 A 
ATOM     82  C   UNL     1       8.114  -5.814  24.666  1.00  0.00     0.001 A 
ATOM     83  C   UNL     1       6.281  -7.279  25.239  1.00  0.00     0.001 A 
ATOM     84  C   UNL     1       7.550  -6.771  25.510  1.00  0.00     0.000 A 
ENDBRANCH  66  79
ENDBRANCH  40  41
ENDBRANCH  33  35
ENDBRANCH  32  33
ENDBRANCH  31  32
ENDBRANCH  30  31
ENDBRANCH  29  30
ENDBRANCH  28  29
ENDBRANCH  27  28
ENDBRANCH  26  27
ENDBRANCH  25  26
ENDBRANCH   1  25
TORSDOF 27
