REMARK SMILES Cc1ccc(C(=O)NC2(CC(=O)OCCOCCOCCOCCOC(=O)c3ccc(-c4c5nc(c(-c6ccccc6)c6ccc([nH]6)c(-c6ccccc6)c6nc(c(-c7ccccc7)c7ccc4[nH]7)C=C6)C=C5)cc3)CCC2)cc1
REMARK SMILES IDX 18 1 17 2 16 3 15 4 14 5 13 6 11 7 12 8 10 9 9 10 76 11
REMARK SMILES IDX 78 12 77 13 8 14 6 15 7 16 5 18 1 19 2 20 3 21 80 22 4 23
REMARK SMILES IDX 79 24 19 25 20 26 21 27 22 28 23 29 24 30 25 31 26 32 27 33
REMARK SMILES IDX 28 34 29 35 75 36 30 37 74 38 31 39 32 40 33 41 68 42 34 43
REMARK SMILES IDX 73 44 67 45 69 46 35 47 72 48 66 49 65 50 36 52 58 53 43 54
REMARK SMILES IDX 57 55 44 56 47 57 56 58 70 59 45 60 46 61 55 63 71 64 48 65
REMARK SMILES IDX 37 66 38 67 42 68 39 69 41 70 40 71 59 72 60 73 64 74 61 75
REMARK SMILES IDX 63 76 62 77 49 78 50 79 54 80 51 81 53 82 52 83
REMARK H PARENT 8 17 69 51 47 62
REMARK Flexibility Score: inf
ROOT
ATOM      1  C   UNL     1      -4.677  -1.367   0.167  1.00  0.00     0.188 C 
ENDROOT
BRANCH   1   2
ATOM      2  C   UNL     1      -3.951  -2.942   0.154  1.00  0.00     0.188 C 
BRANCH   2   3
ATOM      3  O   UNL     1      -2.281  -3.521  -0.200  1.00  0.00    -0.376 OA
BRANCH   3   4
ATOM      4  C   UNL     1      -0.620  -2.784  -0.084  1.00  0.00     0.202 C 
BRANCH   4   5
ATOM      5  C   UNL     1      -0.022  -0.925  -0.300  1.00  0.00     0.261 C 
BRANCH   5   6
ATOM      6  O   UNL     1       0.477   0.782  -1.390  1.00  0.00    -0.463 OA
BRANCH   6   7
ATOM      7  C   UNL     1      -0.228   2.201  -2.098  1.00  0.00     0.308 C 
ATOM      8  O   UNL     1      -0.564   2.209  -3.300  1.00  0.00    -0.252 OA
BRANCH   7   9
ATOM      9  C   UNL     1      -1.102   3.431  -1.328  1.00  0.00     0.151 C 
BRANCH   9  10
ATOM     10  C   UNL     1      -2.695   3.435  -1.198  1.00  0.00     0.051 C 
ATOM     11  C   UNL     1      -3.406   4.726  -1.853  1.00  0.00     0.029 C 
ATOM     12  C   UNL     1      -3.680   3.897   0.024  1.00  0.00     0.029 C 
ATOM     13  C   UNL     1      -3.480   5.325  -0.436  1.00  0.00     0.005 C 
BRANCH  10  14
ATOM     14  N   UNL     1      -3.281   2.243  -1.754  1.00  0.00    -0.346 N 
ATOM     15  C   UNL     1      -2.781   1.001  -1.835  1.00  0.00     0.251 C 
ATOM     16  O   UNL     1      -3.468   0.221  -2.491  1.00  0.00    -0.269 OA
ATOM     17  H   UNL     1      -4.183   2.357  -2.130  1.00  0.00     0.164 HD
BRANCH  15  18
ATOM     18  C   UNL     1      -1.465   0.593  -1.234  1.00  0.00     0.039 A 
ATOM     19  C   UNL     1       3.501  -0.765  -0.546  1.00  0.00     0.044 C 
ATOM     20  C   UNL     1       2.121  -0.284  -0.832  1.00  0.00    -0.051 A 
ATOM     21  C   UNL     1       1.116  -0.880  -2.118  1.00  0.00     0.004 A 
ATOM     22  C   UNL     1       1.321   0.658   0.342  1.00  0.00     0.004 A 
ATOM     23  C   UNL     1      -0.593  -0.264  -2.398  1.00  0.00     0.014 A 
ATOM     24  C   UNL     1      -0.437   1.165   0.100  1.00  0.00     0.014 A 
ENDBRANCH  15  18
ENDBRANCH  10  14
ENDBRANCH   9  10
ENDBRANCH   7   9
ENDBRANCH   6   7
ENDBRANCH   5   6
ENDBRANCH   4   5
ENDBRANCH   3   4
ENDBRANCH   2   3
ENDBRANCH   1   2
BRANCH   1  25
ATOM     25  O   UNL     1      -5.311  -0.580   1.227  1.00  0.00    -0.377 OA
BRANCH  25  26
ATOM     26  C   UNL     1      -4.828  -0.176   2.515  1.00  0.00     0.188 C 
BRANCH  26  27
ATOM     27  C   UNL     1      -5.252  -1.088   3.604  1.00  0.00     0.188 C 
BRANCH  27  28
ATOM     28  O   UNL     1      -5.514  -2.290   2.922  1.00  0.00    -0.376 OA
BRANCH  28  29
ATOM     29  C   UNL     1      -6.885  -2.611   2.971  1.00  0.00     0.202 C 
BRANCH  29  30
ATOM     30  C   UNL     1      -7.059  -3.282   4.329  1.00  0.00     0.261 C 
BRANCH  30  31
ATOM     31  O   UNL     1      -5.951  -4.230   4.508  1.00  0.00    -0.460 OA
BRANCH  31  32
ATOM     32  C   UNL     1      -4.851  -3.759   5.190  1.00  0.00     0.338 C 
ATOM     33  O   UNL     1      -4.911  -3.101   6.220  1.00  0.00    -0.246 OA
BRANCH  32  34
ATOM     34  C   UNL     1      -3.589  -3.820   4.355  1.00  0.00     0.060 A 
ATOM     35  C   UNL     1      -2.553  -2.903   4.535  1.00  0.00     0.016 A 
ATOM     36  C   UNL     1      -3.524  -4.518   3.182  1.00  0.00     0.016 A 
ATOM     37  C   UNL     1      -1.873  -2.342   3.400  1.00  0.00     0.010 A 
ATOM     38  C   UNL     1      -2.713  -4.005   2.134  1.00  0.00     0.010 A 
ATOM     39  C   UNL     1      -2.215  -2.643   2.072  1.00  0.00    -0.014 A 
BRANCH  39  40
ATOM     40  C   UNL     1      -2.231  -1.409   0.671  1.00  0.00     0.031 A 
ATOM     41  C   UNL     1      -2.225  -1.838  -1.316  1.00  0.00     0.074 A 
ATOM     42  C   UNL     1      -2.090  -0.166   1.408  1.00  0.00     0.049 A 
ATOM     43  N   UNL     1      -1.074  -2.240  -2.099  1.00  0.00    -0.248 NA
ATOM     44  C   UNL     1      -3.195  -2.455  -2.423  1.00  0.00     0.031 C 
ATOM     45  C   UNL     1      -2.744   1.177   1.280  1.00  0.00     0.029 A 
ATOM     46  N   UNL     1      -1.017   0.242   2.391  1.00  0.00    -0.354 N 
ATOM     47  C   UNL     1      -1.126  -2.355  -3.536  1.00  0.00     0.074 A 
ATOM     48  C   UNL     1      -2.505  -2.806  -3.559  1.00  0.00     0.031 C 
ATOM     49  C   UNL     1      -2.097   2.135   1.999  1.00  0.00     0.029 A 
ATOM     50  C   UNL     1      -0.797   1.686   2.464  1.00  0.00     0.049 A 
ATOM     51  H   UNL     1      -0.512  -0.405   2.933  1.00  0.00     0.167 HD
ATOM     52  C   UNL     1      -0.272  -1.816  -4.648  1.00  0.00     0.031 A 
ATOM     53  C   UNL     1       0.370   2.520   2.366  1.00  0.00     0.031 A 
ATOM     54  C   UNL     1       0.675  -0.369  -4.710  1.00  0.00     0.049 A 
ATOM     55  C   UNL     1       1.492   3.047   1.002  1.00  0.00     0.074 A 
ATOM     56  C   UNL     1       0.463   0.876  -5.346  1.00  0.00     0.029 A 
ATOM     57  N   UNL     1       1.958   0.055  -4.080  1.00  0.00    -0.354 N 
ATOM     58  N   UNL     1       1.357   3.065  -0.363  1.00  0.00    -0.248 NA
ATOM     59  C   UNL     1       2.922   3.240   1.263  1.00  0.00     0.031 C 
ATOM     60  C   UNL     1       1.342   1.960  -4.800  1.00  0.00     0.029 A 
ATOM     61  C   UNL     1       1.982   1.506  -3.632  1.00  0.00     0.049 A 
ATOM     62  H   UNL     1       2.723  -0.553  -3.965  1.00  0.00     0.167 HD
ATOM     63  C   UNL     1       2.614   2.792  -1.110  1.00  0.00     0.074 A 
ATOM     64  C   UNL     1       3.514   3.102   0.048  1.00  0.00     0.031 C 
ATOM     65  C   UNL     1       2.958   2.171  -2.445  1.00  0.00     0.031 A 
BRANCH  52  66
ATOM     66  C   UNL     1      -0.630  -2.408  -6.025  1.00  0.00    -0.014 A 
ATOM     67  C   UNL     1      -0.632  -1.637  -7.200  1.00  0.00     0.009 A 
ATOM     68  C   UNL     1      -0.927  -3.776  -6.190  1.00  0.00     0.009 A 
ATOM     69  C   UNL     1      -1.008  -2.161  -8.445  1.00  0.00     0.001 A 
ATOM     70  C   UNL     1      -1.328  -4.304  -7.430  1.00  0.00     0.001 A 
ATOM     71  C   UNL     1      -1.382  -3.491  -8.556  1.00  0.00     0.000 A 
ENDBRANCH  52  66
BRANCH  53  72
ATOM     72  C   UNL     1       0.695   2.566   3.877  1.00  0.00    -0.014 A 
ATOM     73  C   UNL     1      -0.317   3.284   4.582  1.00  0.00     0.009 A 
ATOM     74  C   UNL     1       1.115   1.345   4.466  1.00  0.00     0.009 A 
ATOM     75  C   UNL     1      -1.146   2.619   5.511  1.00  0.00     0.001 A 
ATOM     76  C   UNL     1       0.313   0.710   5.444  1.00  0.00     0.001 A 
ATOM     77  C   UNL     1      -0.860   1.314   5.900  1.00  0.00     0.000 A 
ENDBRANCH  53  72
BRANCH  65  78
ATOM     78  C   UNL     1       4.464   1.875  -2.854  1.00  0.00    -0.014 A 
ATOM     79  C   UNL     1       5.622   2.210  -2.151  1.00  0.00     0.009 A 
ATOM     80  C   UNL     1       4.737   1.147  -4.042  1.00  0.00     0.009 A 
ATOM     81  C   UNL     1       6.877   1.630  -2.428  1.00  0.00     0.001 A 
ATOM     82  C   UNL     1       5.971   0.558  -4.339  1.00  0.00     0.001 A 
ATOM     83  C   UNL     1       7.038   0.757  -3.491  1.00  0.00     0.000 A 
ENDBRANCH  65  78
ENDBRANCH  39  40
ENDBRANCH  32  34
ENDBRANCH  31  32
ENDBRANCH  30  31
ENDBRANCH  29  30
ENDBRANCH  28  29
ENDBRANCH  27  28
ENDBRANCH  26  27
ENDBRANCH  25  26
ENDBRANCH   1  25
TORSDOF 23
