REMARK SMILES Cc1ccc2c(c1)c(-c1ccnc3c(C)cccc13)c(C)n2CC(=O)OCCOCCOCCOCCOC(=O)c1ccc(-c2c3nc(c(-c4ccccc4)c4ccc([nH]4)c(-c4ccccc4)c4nc(c(-c5ccccc5)c5ccc2[nH]5)C=C4)C=C3)cc1
REMARK SMILES IDX 32 1 31 2 30 3 29 4 28 5 27 6 26 7 24 8 25 9 23 10 22 11
REMARK SMILES IDX 1 12 2 13 3 14 7 15 4 16 6 17 5 18 8 19 20 20 21 21 9 22
REMARK SMILES IDX 10 23 19 24 11 25 13 26 18 27 12 28 14 29 17 30 15 31 16 32
REMARK SMILES IDX 33 33 34 34 35 35 36 36 37 37 38 38 39 39 40 40 41 41 42 42
REMARK SMILES IDX 88 43 43 44 87 45 44 46 45 47 46 48 81 49 47 50 86 51 80 52
REMARK SMILES IDX 82 53 48 54 85 55 79 56 78 57 49 59 71 60 56 61 70 62 57 63
REMARK SMILES IDX 60 64 69 65 83 66 58 67 59 68 68 70 84 71 61 72 50 73 51 74
REMARK SMILES IDX 55 75 52 76 54 77 53 78 72 79 73 80 77 81 74 82 76 83 75 84
REMARK SMILES IDX 62 85 63 86 67 87 64 88 66 89 65 90
REMARK H PARENT 82 58 60 69
REMARK Flexibility Score: inf
ROOT
ATOM      1  O   UNL     1       0.525   1.464   7.692  1.00  0.00    -0.377 OA
ENDROOT
BRANCH   1   2
ATOM      2  C   UNL     1      -0.804   1.562   8.142  1.00  0.00     0.188 C 
BRANCH   2   3
ATOM      3  C   UNL     1      -1.228   0.582   9.240  1.00  0.00     0.188 C 
BRANCH   3   4
ATOM      4  O   UNL     1      -0.240   0.039  10.098  1.00  0.00    -0.376 OA
BRANCH   4   5
ATOM      5  C   UNL     1       0.893  -0.596   9.505  1.00  0.00     0.202 C 
BRANCH   5   6
ATOM      6  C   UNL     1       0.698  -1.579   8.332  1.00  0.00     0.261 C 
BRANCH   6   7
ATOM      7  O   UNL     1       0.046  -1.008   7.168  1.00  0.00    -0.462 OA
BRANCH   7   8
ATOM      8  C   UNL     1      -0.918  -1.746   6.570  1.00  0.00     0.326 C 
ATOM      9  O   UNL     1      -1.180  -2.902   6.900  1.00  0.00    -0.250 OA
BRANCH   8  10
ATOM     10  C   UNL     1      -1.815  -1.001   5.599  1.00  0.00     0.244 C 
BRANCH  10  11
ATOM     11  N   UNL     1      -1.275   0.072   4.752  1.00  0.00    -0.333 N 
ATOM     12  C   UNL     1       1.280  -0.122  -0.291  1.00  0.00     0.044 C 
ATOM     13  C   UNL     1       0.700  -0.139   1.092  1.00  0.00    -0.050 A 
ATOM     14  C   UNL     1       0.554  -1.339   1.792  1.00  0.00     0.005 A 
ATOM     15  C   UNL     1       0.311   1.061   1.699  1.00  0.00     0.014 A 
ATOM     16  C   UNL     1      -0.044  -1.382   3.059  1.00  0.00     0.027 A 
ATOM     17  C   UNL     1      -0.341   1.038   2.949  1.00  0.00     0.008 A 
ATOM     18  C   UNL     1      -0.530  -0.182   3.602  1.00  0.00     0.049 A 
ATOM     19  C   UNL     1      -0.929   2.050   3.753  1.00  0.00     0.011 A 
ATOM     20  C   UNL     1      -1.709   1.402   4.706  1.00  0.00     0.024 A 
ATOM     21  C   UNL     1      -2.812   1.999   5.524  1.00  0.00     0.065 C 
BRANCH  19  22
ATOM     22  C   UNL     1      -0.908   3.501   3.550  1.00  0.00    -0.005 A 
ATOM     23  C   UNL     1      -2.061   4.144   3.110  1.00  0.00     0.029 A 
ATOM     24  C   UNL     1       0.263   4.264   3.808  1.00  0.00     0.008 A 
ATOM     25  C   UNL     1      -2.043   5.519   3.030  1.00  0.00     0.112 A 
ATOM     26  C   UNL     1       0.164   5.676   3.734  1.00  0.00     0.074 A 
ATOM     27  C   UNL     1       1.514   3.685   4.121  1.00  0.00     0.011 A 
ATOM     28  N   UNL     1      -0.984   6.281   3.372  1.00  0.00    -0.256 NA
ATOM     29  C   UNL     1       1.293   6.454   4.040  1.00  0.00    -0.025 A 
ATOM     30  C   UNL     1       2.643   4.469   4.319  1.00  0.00     0.001 A 
ATOM     31  C   UNL     1       1.203   7.955   4.158  1.00  0.00     0.047 C 
ATOM     32  C   UNL     1       2.528   5.849   4.318  1.00  0.00     0.005 A 
ENDBRANCH  19  22
ENDBRANCH  10  11
ENDBRANCH   8  10
ENDBRANCH   7   8
ENDBRANCH   6   7
ENDBRANCH   5   6
ENDBRANCH   4   5
ENDBRANCH   3   4
ENDBRANCH   2   3
ENDBRANCH   1   2
BRANCH   1  33
ATOM     33  C   UNL     1       1.427   2.503   8.016  1.00  0.00     0.188 C 
BRANCH  33  34
ATOM     34  C   UNL     1       1.130   3.329   9.270  1.00  0.00     0.188 C 
BRANCH  34  35
ATOM     35  O   UNL     1       0.064   4.279   9.170  1.00  0.00    -0.376 OA
BRANCH  35  36
ATOM     36  C   UNL     1       0.008   5.075   7.979  1.00  0.00     0.202 C 
BRANCH  36  37
ATOM     37  C   UNL     1       1.148   6.088   7.842  1.00  0.00     0.261 C 
BRANCH  37  38
ATOM     38  O   UNL     1       2.369   5.396   7.547  1.00  0.00    -0.460 OA
BRANCH  38  39
ATOM     39  C   UNL     1       3.497   5.916   8.084  1.00  0.00     0.338 C 
ATOM     40  O   UNL     1       3.680   7.049   8.492  1.00  0.00    -0.246 OA
BRANCH  39  41
ATOM     41  C   UNL     1       4.316   4.742   8.435  1.00  0.00     0.060 A 
ATOM     42  C   UNL     1       4.591   3.753   7.489  1.00  0.00     0.016 A 
ATOM     43  C   UNL     1       4.529   4.515   9.799  1.00  0.00     0.016 A 
ATOM     44  C   UNL     1       4.961   2.489   7.921  1.00  0.00     0.010 A 
ATOM     45  C   UNL     1       4.894   3.246  10.230  1.00  0.00     0.010 A 
ATOM     46  C   UNL     1       5.056   2.219   9.295  1.00  0.00    -0.014 A 
BRANCH  46  47
ATOM     47  C   UNL     1       5.525   0.887   9.695  1.00  0.00     0.031 A 
ATOM     48  C   UNL     1       6.887   0.569   9.180  1.00  0.00     0.074 A 
ATOM     49  C   UNL     1       4.896   0.087  10.581  1.00  0.00     0.049 A 
ATOM     50  N   UNL     1       7.303  -0.491   8.566  1.00  0.00    -0.248 NA
ATOM     51  C   UNL     1       7.892   1.646   9.283  1.00  0.00     0.031 C 
ATOM     52  C   UNL     1       3.707   0.422  11.369  1.00  0.00     0.029 A 
ATOM     53  N   UNL     1       5.256  -1.143  11.070  1.00  0.00    -0.354 N 
ATOM     54  C   UNL     1       8.664  -0.279   8.354  1.00  0.00     0.074 A 
ATOM     55  C   UNL     1       8.932   1.100   8.662  1.00  0.00     0.031 C 
ATOM     56  C   UNL     1       3.580  -0.461  12.381  1.00  0.00     0.029 A 
ATOM     57  C   UNL     1       4.619  -1.469  12.263  1.00  0.00     0.049 A 
ATOM     58  H   UNL     1       5.902  -1.736  10.621  1.00  0.00     0.167 HD
ATOM     59  C   UNL     1       9.545  -1.298   8.190  1.00  0.00     0.031 A 
ATOM     60  C   UNL     1       4.966  -2.426  13.160  1.00  0.00     0.031 A 
ATOM     61  C   UNL     1       8.915  -2.503   7.737  1.00  0.00     0.049 A 
ATOM     62  C   UNL     1       5.884  -3.378  12.502  1.00  0.00     0.074 A 
ATOM     63  C   UNL     1       8.232  -2.869   6.598  1.00  0.00     0.029 A 
ATOM     64  N   UNL     1       8.665  -3.469   8.678  1.00  0.00    -0.354 N 
ATOM     65  N   UNL     1       5.536  -4.201  11.556  1.00  0.00    -0.248 NA
ATOM     66  C   UNL     1       7.317  -3.178  12.658  1.00  0.00     0.031 C 
ATOM     67  C   UNL     1       7.282  -3.836   7.025  1.00  0.00     0.029 A 
ATOM     68  C   UNL     1       7.452  -4.041   8.397  1.00  0.00     0.049 A 
ATOM     69  H   UNL     1       9.256  -3.710   9.427  1.00  0.00     0.167 HD
ATOM     70  C   UNL     1       6.653  -4.293  10.739  1.00  0.00     0.074 A 
ATOM     71  C   UNL     1       7.749  -3.756  11.535  1.00  0.00     0.031 C 
ATOM     72  C   UNL     1       6.529  -4.533   9.402  1.00  0.00     0.031 A 
BRANCH  59  73
ATOM     73  C   UNL     1      10.909  -1.276   8.836  1.00  0.00    -0.014 A 
ATOM     74  C   UNL     1      11.233  -0.411   9.903  1.00  0.00     0.009 A 
ATOM     75  C   UNL     1      11.819  -2.309   8.565  1.00  0.00     0.009 A 
ATOM     76  C   UNL     1      12.406  -0.546  10.646  1.00  0.00     0.001 A 
ATOM     77  C   UNL     1      12.975  -2.478   9.340  1.00  0.00     0.001 A 
ATOM     78  C   UNL     1      13.269  -1.595  10.376  1.00  0.00     0.000 A 
ENDBRANCH  59  73
BRANCH  60  79
ATOM     79  C   UNL     1       4.796  -2.372  14.634  1.00  0.00    -0.014 A 
ATOM     80  C   UNL     1       4.781  -1.129  15.298  1.00  0.00     0.009 A 
ATOM     81  C   UNL     1       4.882  -3.526  15.428  1.00  0.00     0.009 A 
ATOM     82  C   UNL     1       4.854  -1.036  16.690  1.00  0.00     0.001 A 
ATOM     83  C   UNL     1       4.966  -3.433  16.827  1.00  0.00     0.001 A 
ATOM     84  C   UNL     1       4.960  -2.190  17.456  1.00  0.00     0.000 A 
ENDBRANCH  60  79
BRANCH  72  85
ATOM     85  C   UNL     1       5.224  -5.088   8.883  1.00  0.00    -0.014 A 
ATOM     86  C   UNL     1       5.279  -6.230   8.065  1.00  0.00     0.009 A 
ATOM     87  C   UNL     1       3.994  -4.424   9.017  1.00  0.00     0.009 A 
ATOM     88  C   UNL     1       4.150  -6.677   7.377  1.00  0.00     0.001 A 
ATOM     89  C   UNL     1       2.855  -4.894   8.353  1.00  0.00     0.001 A 
ATOM     90  C   UNL     1       2.938  -6.008   7.519  1.00  0.00     0.000 A 
ENDBRANCH  72  85
ENDBRANCH  46  47
ENDBRANCH  39  41
ENDBRANCH  38  39
ENDBRANCH  37  38
ENDBRANCH  36  37
ENDBRANCH  35  36
ENDBRANCH  34  35
ENDBRANCH  33  34
ENDBRANCH   1  33
TORSDOF 22
