REMARK SMILES CCc1cc(Nc2ccc(C(=O)OCCOCCOCCOCCOC(=O)c3ccc(-c4c5nc(c(-c6ccccc6)c6ccc([nH]6)c(-c6ccccc6)c6nc(c(-c7ccccc7)c7ccc4[nH]7)C=C6)C=C5)cc3)cc2)nc(C(C)C)n1
REMARK SMILES IDX 18 1 17 2 16 3 15 4 14 5 13 6 11 7 12 8 10 9 7 10 8 11 77 12
REMARK SMILES IDX 9 13 76 14 6 15 5 17 3 18 4 19 83 20 79 21 78 22 2 23 1 24
REMARK SMILES IDX 80 25 81 26 82 27 19 28 20 29 21 30 22 31 23 32 24 33 25 34
REMARK SMILES IDX 26 35 27 36 28 37 29 38 75 39 30 40 74 41 31 42 32 43 33 44
REMARK SMILES IDX 68 45 34 46 73 47 67 48 69 49 35 50 72 51 66 52 65 53 36 55
REMARK SMILES IDX 58 56 43 57 57 58 44 59 47 60 56 61 70 62 45 63 46 64 55 66
REMARK SMILES IDX 71 67 48 68 37 69 38 70 42 71 39 72 41 73 40 74 59 75 60 76
REMARK SMILES IDX 64 77 61 78 63 79 62 80 49 81 50 82 54 83 51 84 53 85 52 86
REMARK H PARENT 6 16 69 54 47 65
REMARK Flexibility Score: inf
ROOT
ATOM      1  C   UNL     1       1.886  10.827   2.311  1.00  0.00     0.188 C 
ENDROOT
BRANCH   1   2
ATOM      2  C   UNL     1       1.052  11.500   3.424  1.00  0.00     0.188 C 
BRANCH   2   3
ATOM      3  O   UNL     1       1.754  12.493   4.151  1.00  0.00    -0.376 OA
BRANCH   3   4
ATOM      4  C   UNL     1       2.104  12.244   5.499  1.00  0.00     0.202 C 
BRANCH   4   5
ATOM      5  C   UNL     1       3.043  11.069   5.808  1.00  0.00     0.261 C 
BRANCH   5   6
ATOM      6  O   UNL     1       2.761   9.848   5.118  1.00  0.00    -0.460 OA
BRANCH   6   7
ATOM      7  C   UNL     1       1.675   9.157   5.528  1.00  0.00     0.338 C 
ATOM      8  O   UNL     1       0.928   9.452   6.444  1.00  0.00    -0.246 OA
BRANCH   7   9
ATOM      9  C   UNL     1       1.409   8.093   4.533  1.00  0.00     0.060 A 
ATOM     10  C   UNL     1       0.822   6.072   2.683  1.00  0.00     0.040 A 
ATOM     11  C   UNL     1      -0.201   6.884   3.188  1.00  0.00     0.027 A 
ATOM     12  C   UNL     1       2.148   6.337   3.058  1.00  0.00     0.027 A 
ATOM     13  C   UNL     1       0.088   7.880   4.122  1.00  0.00     0.018 A 
ATOM     14  C   UNL     1       2.448   7.348   3.970  1.00  0.00     0.018 A 
BRANCH  10  15
ATOM     15  N   UNL     1       0.487   4.890   1.990  1.00  0.00    -0.340 N 
ATOM     16  H   UNL     1      -0.037   4.968   1.160  1.00  0.00     0.168 HD
BRANCH  15  17
ATOM     17  C   UNL     1       0.864   3.601   2.424  1.00  0.00     0.134 A 
ATOM     18  C   UNL     1       0.881   1.260   2.170  1.00  0.00     0.046 A 
ATOM     19  C   UNL     1       0.490   2.497   1.689  1.00  0.00     0.071 A 
ATOM     20  N   UNL     1       1.603   1.120   3.302  1.00  0.00    -0.238 NA
ATOM     21  C   UNL     1       1.933   2.247   3.953  1.00  0.00     0.133 A 
ATOM     22  N   UNL     1       1.593   3.475   3.544  1.00  0.00    -0.216 NA
BRANCH  18  23
ATOM     23  C   UNL     1       0.484  -0.006   1.458  1.00  0.00     0.053 C 
ATOM     24  C   UNL     1       1.045  -0.090   0.046  1.00  0.00     0.011 C 
ENDBRANCH  18  23
BRANCH  21  25
ATOM     25  C   UNL     1       2.737   2.163   5.229  1.00  0.00     0.051 C 
ATOM     26  C   UNL     1       2.012   1.334   6.286  1.00  0.00     0.016 C 
ATOM     27  C   UNL     1       4.139   1.625   4.957  1.00  0.00     0.016 C 
ENDBRANCH  21  25
ENDBRANCH  15  17
ENDBRANCH  10  15
ENDBRANCH   7   9
ENDBRANCH   6   7
ENDBRANCH   5   6
ENDBRANCH   4   5
ENDBRANCH   3   4
ENDBRANCH   2   3
ENDBRANCH   1   2
BRANCH   1  28
ATOM     28  O   UNL     1       3.284  11.075   2.237  1.00  0.00    -0.377 OA
BRANCH  28  29
ATOM     29  C   UNL     1       3.781  12.403   2.373  1.00  0.00     0.188 C 
BRANCH  29  30
ATOM     30  C   UNL     1       2.930  13.631   1.968  1.00  0.00     0.188 C 
BRANCH  30  31
ATOM     31  O   UNL     1       1.697  13.315   1.347  1.00  0.00    -0.376 OA
BRANCH  31  32
ATOM     32  C   UNL     1       1.578  13.549  -0.044  1.00  0.00     0.202 C 
BRANCH  32  33
ATOM     33  C   UNL     1       2.518  12.768  -0.973  1.00  0.00     0.261 C 
BRANCH  33  34
ATOM     34  O   UNL     1       3.918  12.830  -0.662  1.00  0.00    -0.460 OA
BRANCH  34  35
ATOM     35  C   UNL     1       4.537  14.020  -0.808  1.00  0.00     0.338 C 
ATOM     36  O   UNL     1       4.041  15.072  -1.180  1.00  0.00    -0.246 OA
BRANCH  35  37
ATOM     37  C   UNL     1       5.902  13.881  -0.263  1.00  0.00     0.060 A 
ATOM     38  C   UNL     1       6.287  14.661   0.837  1.00  0.00     0.016 A 
ATOM     39  C   UNL     1       6.794  12.967  -0.829  1.00  0.00     0.016 A 
ATOM     40  C   UNL     1       7.580  14.550   1.352  1.00  0.00     0.010 A 
ATOM     41  C   UNL     1       8.093  12.874  -0.327  1.00  0.00     0.010 A 
ATOM     42  C   UNL     1       8.502  13.689   0.745  1.00  0.00    -0.014 A 
BRANCH  42  43
ATOM     43  C   UNL     1       9.941  13.778   1.093  1.00  0.00     0.031 A 
ATOM     44  C   UNL     1      10.841  14.583   0.194  1.00  0.00     0.074 A 
ATOM     45  C   UNL     1      10.441  13.171   2.184  1.00  0.00     0.049 A 
ATOM     46  N   UNL     1      12.135  14.762   0.258  1.00  0.00    -0.248 NA
ATOM     47  C   UNL     1      10.192  15.279  -0.931  1.00  0.00     0.031 C 
ATOM     48  C   UNL     1       9.669  12.407   3.162  1.00  0.00     0.029 A 
ATOM     49  N   UNL     1      11.733  13.100   2.645  1.00  0.00    -0.354 N 
ATOM     50  C   UNL     1      12.456  15.571  -0.825  1.00  0.00     0.074 A 
ATOM     51  C   UNL     1      11.228  15.833  -1.541  1.00  0.00     0.031 C 
ATOM     52  C   UNL     1      10.505  11.939   4.107  1.00  0.00     0.029 A 
ATOM     53  C   UNL     1      11.873  12.335   3.778  1.00  0.00     0.049 A 
ATOM     54  H   UNL     1      12.488  13.555   2.205  1.00  0.00     0.167 HD
ATOM     55  C   UNL     1      13.666  16.054  -1.191  1.00  0.00     0.031 A 
ATOM     56  C   UNL     1      12.983  11.978   4.454  1.00  0.00     0.031 A 
ATOM     57  C   UNL     1      14.889  15.789  -0.482  1.00  0.00     0.049 A 
ATOM     58  C   UNL     1      14.329  12.459   3.970  1.00  0.00     0.074 A 
ATOM     59  C   UNL     1      16.161  16.258  -0.758  1.00  0.00     0.029 A 
ATOM     60  N   UNL     1      14.993  14.976   0.635  1.00  0.00    -0.354 N 
ATOM     61  N   UNL     1      14.616  13.257   2.969  1.00  0.00    -0.248 NA
ATOM     62  C   UNL     1      15.506  11.992   4.718  1.00  0.00     0.031 C 
ATOM     63  C   UNL     1      17.047  15.671   0.148  1.00  0.00     0.029 A 
ATOM     64  C   UNL     1      16.315  14.899   1.037  1.00  0.00     0.049 A 
ATOM     65  H   UNL     1      14.240  14.522   1.076  1.00  0.00     0.167 HD
ATOM     66  C   UNL     1      15.997  13.418   2.995  1.00  0.00     0.074 A 
ATOM     67  C   UNL     1      16.488  12.648   4.118  1.00  0.00     0.031 C 
ATOM     68  C   UNL     1      16.789  14.140   2.164  1.00  0.00     0.031 A 
BRANCH  55  69
ATOM     69  C   UNL     1      13.740  16.884  -2.442  1.00  0.00    -0.014 A 
ATOM     70  C   UNL     1      13.217  18.185  -2.494  1.00  0.00     0.009 A 
ATOM     71  C   UNL     1      14.399  16.371  -3.571  1.00  0.00     0.009 A 
ATOM     72  C   UNL     1      13.333  18.946  -3.659  1.00  0.00     0.001 A 
ATOM     73  C   UNL     1      14.541  17.145  -4.723  1.00  0.00     0.001 A 
ATOM     74  C   UNL     1      14.002  18.429  -4.769  1.00  0.00     0.000 A 
ENDBRANCH  55  69
BRANCH  56  75
ATOM     75  C   UNL     1      12.894  11.093   5.648  1.00  0.00    -0.014 A 
ATOM     76  C   UNL     1      13.265  11.564   6.918  1.00  0.00     0.009 A 
ATOM     77  C   UNL     1      12.500   9.752   5.515  1.00  0.00     0.009 A 
ATOM     78  C   UNL     1      13.285  10.702   8.017  1.00  0.00     0.001 A 
ATOM     79  C   UNL     1      12.486   8.902   6.623  1.00  0.00     0.001 A 
ATOM     80  C   UNL     1      12.893   9.373   7.870  1.00  0.00     0.000 A 
ENDBRANCH  56  75
BRANCH  68  81
ATOM     81  C   UNL     1      18.262  14.184   2.470  1.00  0.00    -0.014 A 
ATOM     82  C   UNL     1      19.084  13.060   2.295  1.00  0.00     0.009 A 
ATOM     83  C   UNL     1      18.842  15.389   2.898  1.00  0.00     0.009 A 
ATOM     84  C   UNL     1      20.450  13.134   2.579  1.00  0.00     0.001 A 
ATOM     85  C   UNL     1      20.212  15.470   3.146  1.00  0.00     0.001 A 
ATOM     86  C   UNL     1      21.013  14.339   2.998  1.00  0.00     0.000 A 
ENDBRANCH  68  81
ENDBRANCH  42  43
ENDBRANCH  35  37
ENDBRANCH  34  35
ENDBRANCH  33  34
ENDBRANCH  32  33
ENDBRANCH  31  32
ENDBRANCH  30  31
ENDBRANCH  29  30
ENDBRANCH  28  29
ENDBRANCH   1  28
TORSDOF 24
