REMARK SMILES C[NH+](CC(=O)OCCOCCOCCOCCOC(=O)c1ccc(-c2c3nc(c(-c4ccccc4)c4ccc([nH]4)c(-c4ccccc4)c4nc(c(-c5ccccc5)c5ccc2[nH]5)C=C4)C=C3)cc1)Cc1csc(-c2ccco2)n1
REMARK SMILES IDX 11 1 10 2 9 3 8 4 7 5 6 6 4 7 5 8 3 9 2 10 1 11 69 13 70 14
REMARK SMILES IDX 71 15 79 16 72 17 73 18 74 19 75 20 78 21 76 22 77 23 12 24
REMARK SMILES IDX 13 25 14 26 15 27 16 28 17 29 18 30 19 31 20 32 21 33 22 34
REMARK SMILES IDX 68 35 23 36 67 37 24 38 25 39 26 40 61 41 27 42 66 43 60 44
REMARK SMILES IDX 62 45 28 46 65 47 59 48 58 49 29 51 51 52 36 53 50 54 37 55
REMARK SMILES IDX 40 56 49 57 63 58 38 59 39 60 48 62 64 63 41 64 30 65 31 66
REMARK SMILES IDX 35 67 32 68 34 69 33 70 52 71 53 72 57 73 54 74 56 75 55 76
REMARK SMILES IDX 42 77 43 78 47 79 44 80 46 81 45 82
REMARK H PARENT 2 12 62 50 40 61
REMARK Flexibility Score: inf
ROOT
ATOM      1  C   UNL     1      -1.864   3.242  -2.594  1.00  0.00     0.188 C 
ENDROOT
BRANCH   1   2
ATOM      2  C   UNL     1      -3.087   2.224  -2.050  1.00  0.00     0.188 C 
BRANCH   2   3
ATOM      3  O   UNL     1      -4.097   2.705  -1.170  1.00  0.00    -0.376 OA
BRANCH   3   4
ATOM      4  C   UNL     1      -3.970   2.514   0.240  1.00  0.00     0.202 C 
BRANCH   4   5
ATOM      5  C   UNL     1      -3.713   1.089   0.780  1.00  0.00     0.261 C 
BRANCH   5   6
ATOM      6  O   UNL     1      -2.437   0.547   0.369  1.00  0.00    -0.459 OA
BRANCH   6   7
ATOM      7  C   UNL     1      -2.442  -0.677  -0.220  1.00  0.00     0.361 C 
ATOM      8  O   UNL     1      -3.417  -1.424  -0.233  1.00  0.00    -0.245 OA
BRANCH   7   9
ATOM      9  C   UNL     1      -1.149  -1.042  -0.962  1.00  0.00     0.386 C 
BRANCH   9  10
ATOM     10  N   UNL     1      -0.046  -0.090  -0.902  1.00  0.00    -0.323 N 
ATOM     11  C   UNL     1       0.717   0.028   0.315  1.00  0.00     0.333 C 
ATOM     12  H   UNL     1      -0.641   0.738  -0.908  1.00  0.00     0.348 HD
BRANCH  10  13
ATOM     13  C   UNL     1       0.317   0.697  -2.073  1.00  0.00     0.320 C 
BRANCH  13  14
ATOM     14  C   UNL     1      -0.323   2.053  -2.048  1.00  0.00     0.106 A 
ATOM     15  C   UNL     1      -1.182   2.801  -0.691  1.00  0.00     0.097 A 
ATOM     16  N   UNL     1       0.009   3.300  -3.428  1.00  0.00    -0.232 NA
ATOM     17  S   UNL     1      -1.674   5.019  -1.130  1.00  0.00    -0.119 S 
ATOM     18  C   UNL     1      -0.595   4.838  -3.180  1.00  0.00     0.159 A 
BRANCH  18  19
ATOM     19  C   UNL     1      -0.036   6.104  -3.596  1.00  0.00     0.162 A 
ATOM     20  C   UNL     1       0.728   6.425  -4.705  1.00  0.00     0.053 A 
ATOM     21  O   UNL     1      -0.088   7.209  -2.776  1.00  0.00    -0.462 OA
ATOM     22  C   UNL     1       1.221   7.743  -4.507  1.00  0.00     0.043 A 
ATOM     23  C   UNL     1       0.706   8.166  -3.308  1.00  0.00     0.196 A 
ENDBRANCH  18  19
ENDBRANCH  13  14
ENDBRANCH  10  13
ENDBRANCH   9  10
ENDBRANCH   7   9
ENDBRANCH   6   7
ENDBRANCH   5   6
ENDBRANCH   4   5
ENDBRANCH   3   4
ENDBRANCH   2   3
ENDBRANCH   1   2
BRANCH   1  24
ATOM     24  O   UNL     1      -0.122   3.892  -1.730  1.00  0.00    -0.377 OA
BRANCH  24  25
ATOM     25  C   UNL     1       1.071   3.633  -0.875  1.00  0.00     0.188 C 
BRANCH  25  26
ATOM     26  C   UNL     1       2.253   4.498  -1.297  1.00  0.00     0.188 C 
BRANCH  26  27
ATOM     27  O   UNL     1       2.479   4.657  -2.693  1.00  0.00    -0.376 OA
BRANCH  27  28
ATOM     28  C   UNL     1       3.235   3.634  -3.327  1.00  0.00     0.202 C 
BRANCH  28  29
ATOM     29  C   UNL     1       4.716   4.024  -3.425  1.00  0.00     0.261 C 
BRANCH  29  30
ATOM     30  O   UNL     1       5.212   4.393  -2.128  1.00  0.00    -0.460 OA
BRANCH  30  31
ATOM     31  C   UNL     1       5.154   5.726  -1.867  1.00  0.00     0.338 C 
ATOM     32  O   UNL     1       5.087   6.638  -2.674  1.00  0.00    -0.246 OA
BRANCH  31  33
ATOM     33  C   UNL     1       4.989   5.920  -0.407  1.00  0.00     0.060 A 
ATOM     34  C   UNL     1       4.138   6.950   0.023  1.00  0.00     0.016 A 
ATOM     35  C   UNL     1       5.603   5.077   0.525  1.00  0.00     0.016 A 
ATOM     36  C   UNL     1       3.952   7.184   1.384  1.00  0.00     0.010 A 
ATOM     37  C   UNL     1       5.444   5.328   1.889  1.00  0.00     0.010 A 
ATOM     38  C   UNL     1       4.670   6.421   2.315  1.00  0.00    -0.014 A 
BRANCH  38  39
ATOM     39  C   UNL     1       4.940   7.002   3.649  1.00  0.00     0.031 A 
ATOM     40  C   UNL     1       6.099   7.962   3.735  1.00  0.00     0.074 A 
ATOM     41  C   UNL     1       4.219   6.691   4.738  1.00  0.00     0.049 A 
ATOM     42  N   UNL     1       6.588   8.590   4.772  1.00  0.00    -0.248 NA
ATOM     43  C   UNL     1       6.807   8.247   2.472  1.00  0.00     0.031 C 
ATOM     44  C   UNL     1       3.062   5.800   4.773  1.00  0.00     0.029 A 
ATOM     45  N   UNL     1       4.375   7.095   6.039  1.00  0.00    -0.354 N 
ATOM     46  C   UNL     1       7.650   9.341   4.281  1.00  0.00     0.074 A 
ATOM     47  C   UNL     1       7.755   9.078   2.867  1.00  0.00     0.031 C 
ATOM     48  C   UNL     1       2.622   5.709   6.043  1.00  0.00     0.029 A 
ATOM     49  C   UNL     1       3.479   6.521   6.906  1.00  0.00     0.049 A 
ATOM     50  H   UNL     1       5.065   7.737   6.325  1.00  0.00     0.167 HD
ATOM     51  C   UNL     1       8.477  10.177   4.948  1.00  0.00     0.031 A 
ATOM     52  C   UNL     1       3.382   6.633   8.245  1.00  0.00     0.031 A 
ATOM     53  C   UNL     1       8.411  10.401   6.361  1.00  0.00     0.049 A 
ATOM     54  C   UNL     1       4.350   7.528   8.978  1.00  0.00     0.074 A 
ATOM     55  C   UNL     1       9.214  11.205   7.147  1.00  0.00     0.029 A 
ATOM     56  N   UNL     1       7.488   9.799   7.200  1.00  0.00    -0.354 N 
ATOM     57  N   UNL     1       5.331   8.257   8.499  1.00  0.00    -0.248 NA
ATOM     58  C   UNL     1       4.189   7.623  10.436  1.00  0.00     0.031 C 
ATOM     59  C   UNL     1       8.798  11.059   8.475  1.00  0.00     0.029 A 
ATOM     60  C   UNL     1       7.707  10.203   8.503  1.00  0.00     0.049 A 
ATOM     61  H   UNL     1       6.781   9.177   6.912  1.00  0.00     0.167 HD
ATOM     62  C   UNL     1       5.881   8.919   9.591  1.00  0.00     0.074 A 
ATOM     63  C   UNL     1       5.118   8.514  10.754  1.00  0.00     0.031 C 
ATOM     64  C   UNL     1       6.922   9.787   9.634  1.00  0.00     0.031 A 
BRANCH  51  65
ATOM     65  C   UNL     1       9.542  10.858   4.141  1.00  0.00    -0.014 A 
ATOM     66  C   UNL     1       9.225  11.902   3.257  1.00  0.00     0.009 A 
ATOM     67  C   UNL     1      10.873  10.427   4.240  1.00  0.00     0.009 A 
ATOM     68  C   UNL     1      10.218  12.478   2.462  1.00  0.00     0.001 A 
ATOM     69  C   UNL     1      11.867  11.022   3.462  1.00  0.00     0.001 A 
ATOM     70  C   UNL     1      11.537  12.040   2.567  1.00  0.00     0.000 A 
ENDBRANCH  51  65
BRANCH  52  71
ATOM     71  C   UNL     1       2.345   5.875   8.994  1.00  0.00    -0.014 A 
ATOM     72  C   UNL     1       1.263   6.540   9.593  1.00  0.00     0.009 A 
ATOM     73  C   UNL     1       2.455   4.485   9.150  1.00  0.00     0.009 A 
ATOM     74  C   UNL     1       0.333   5.832  10.360  1.00  0.00     0.001 A 
ATOM     75  C   UNL     1       1.510   3.776   9.896  1.00  0.00     0.001 A 
ATOM     76  C   UNL     1       0.456   4.451  10.509  1.00  0.00     0.000 A 
ENDBRANCH  52  71
BRANCH  64  77
ATOM     77  C   UNL     1       7.261  10.388  10.966  1.00  0.00    -0.014 A 
ATOM     78  C   UNL     1       7.914   9.642  11.958  1.00  0.00     0.009 A 
ATOM     79  C   UNL     1       6.968  11.740  11.206  1.00  0.00     0.009 A 
ATOM     80  C   UNL     1       8.238  10.232  13.181  1.00  0.00     0.001 A 
ATOM     81  C   UNL     1       7.317  12.333  12.419  1.00  0.00     0.001 A 
ATOM     82  C   UNL     1       7.943  11.577  13.409  1.00  0.00     0.000 A 
ENDBRANCH  64  77
ENDBRANCH  38  39
ENDBRANCH  31  33
ENDBRANCH  30  31
ENDBRANCH  29  30
ENDBRANCH  28  29
ENDBRANCH  27  28
ENDBRANCH  26  27
ENDBRANCH  25  26
ENDBRANCH  24  25
ENDBRANCH   1  24
TORSDOF 24
