REMARK SMILES Cc1ccccc1OC1(C(=O)OCCOCCOCCOCCOC(=O)c2ccc(-c3c4nc(c(-c5ccccc5)c5ccc([nH]5)c(-c5ccccc5)c5nc(c(-c6ccccc6)c6ccc3[nH]6)C=C5)C=C4)cc2)CCN(C(=O)[C@H]2CCCCO2)CC1
REMARK SMILES IDX 18 1 17 2 16 3 15 4 14 5 13 6 12 7 10 8 11 9 9 10 75 11
REMARK SMILES IDX 87 12 76 13 86 14 77 15 78 16 79 17 8 18 7 19 1 20 2 21 3 22
REMARK SMILES IDX 4 23 6 24 5 25 80 26 81 27 85 28 82 29 84 30 83 31 19 32
REMARK SMILES IDX 20 33 21 34 22 35 23 36 24 37 25 38 26 39 27 40 28 41 74 42
REMARK SMILES IDX 29 43 73 44 30 45 31 46 32 47 67 48 33 49 72 50 66 51 68 52
REMARK SMILES IDX 34 53 71 54 65 55 64 56 35 58 57 59 42 60 56 61 43 62 46 63
REMARK SMILES IDX 55 64 69 65 44 66 45 67 54 69 70 70 47 71 36 72 37 73 41 74
REMARK SMILES IDX 38 75 40 76 39 77 58 78 59 79 63 80 60 81 62 82 61 83 48 84
REMARK SMILES IDX 49 85 53 86 50 87 52 88 51 89
REMARK H PARENT 68 57 46 68
REMARK Flexibility Score: inf
ROOT
ATOM      1  O   UNL     1       7.944  -7.298  -1.447  1.00  0.00    -0.377 OA
ENDROOT
BRANCH   1   2
ATOM      2  C   UNL     1       7.484  -8.445  -0.752  1.00  0.00     0.188 C 
BRANCH   2   3
ATOM      3  C   UNL     1       6.315  -9.108  -1.500  1.00  0.00     0.188 C 
BRANCH   3   4
ATOM      4  O   UNL     1       6.577  -9.528  -2.839  1.00  0.00    -0.376 OA
BRANCH   4   5
ATOM      5  C   UNL     1       6.583  -8.490  -3.821  1.00  0.00     0.202 C 
BRANCH   5   6
ATOM      6  C   UNL     1       5.214  -7.896  -4.139  1.00  0.00     0.261 C 
BRANCH   6   7
ATOM      7  O   UNL     1       4.986  -6.775  -3.282  1.00  0.00    -0.460 OA
BRANCH   7   8
ATOM      8  C   UNL     1       3.845  -6.751  -2.549  1.00  0.00     0.350 C 
ATOM      9  O   UNL     1       2.879  -7.436  -2.786  1.00  0.00    -0.247 OA
BRANCH   8  10
ATOM     10  C   UNL     1       4.015  -5.748  -1.368  1.00  0.00     0.209 C 
ATOM     11  C   UNL     1       5.429  -5.838  -0.775  1.00  0.00     0.082 C 
ATOM     12  C   UNL     1       3.866  -4.333  -1.954  1.00  0.00     0.082 C 
ATOM     13  C   UNL     1       6.098  -4.590  -0.222  1.00  0.00     0.124 C 
ATOM     14  C   UNL     1       4.088  -3.252  -0.898  1.00  0.00     0.124 C 
ATOM     15  N   UNL     1       5.240  -3.442  -0.018  1.00  0.00    -0.340 N 
ATOM     16  C   UNL     1       5.620  -2.562   1.007  1.00  0.00     0.251 C 
ATOM     17  O   UNL     1       6.690  -2.709   1.607  1.00  0.00    -0.272 OA
BRANCH  10  18
ATOM     18  O   UNL     1       2.971  -5.855  -0.392  1.00  0.00    -0.475 OA
BRANCH  18  19
ATOM     19  C   UNL     1       2.847  -6.913   0.473  1.00  0.00     0.123 A 
ATOM     20  C   UNL     1       3.703  -5.430   2.345  1.00  0.00     0.048 C 
ATOM     21  C   UNL     1       2.953  -6.615   1.839  1.00  0.00    -0.009 A 
ATOM     22  C   UNL     1       2.307  -7.418   2.788  1.00  0.00     0.007 A 
ATOM     23  C   UNL     1       1.623  -8.559   2.395  1.00  0.00     0.001 A 
ATOM     24  C   UNL     1       2.238  -8.112   0.096  1.00  0.00     0.047 A 
ATOM     25  C   UNL     1       1.639  -8.938   1.057  1.00  0.00     0.004 A 
ENDBRANCH  18  19
ENDBRANCH  10  18
BRANCH  16  26
ATOM     26  C   UNL     1       4.629  -1.446   1.410  1.00  0.00     0.207 C 
ATOM     27  C   UNL     1       3.510  -2.057   2.260  1.00  0.00     0.042 C 
ATOM     28  O   UNL     1       5.299  -0.435   2.175  1.00  0.00    -0.368 OA
ATOM     29  C   UNL     1       2.548  -1.000   2.774  1.00  0.00     0.006 C 
ATOM     30  C   UNL     1       4.435   0.621   2.583  1.00  0.00     0.161 C 
ATOM     31  C   UNL     1       3.319   0.103   3.479  1.00  0.00     0.029 C 
ENDBRANCH  16  26
ENDBRANCH   8  10
ENDBRANCH   7   8
ENDBRANCH   6   7
ENDBRANCH   5   6
ENDBRANCH   4   5
ENDBRANCH   3   4
ENDBRANCH   2   3
ENDBRANCH   1   2
BRANCH   1  32
ATOM     32  C   UNL     1       9.328  -7.031  -1.378  1.00  0.00     0.188 C 
BRANCH  32  33
ATOM     33  C   UNL     1      10.239  -8.025  -2.102  1.00  0.00     0.188 C 
BRANCH  33  34
ATOM     34  O   UNL     1       9.690  -9.301  -2.400  1.00  0.00    -0.376 OA
BRANCH  34  35
ATOM     35  C   UNL     1      10.205 -10.458  -1.742  1.00  0.00     0.202 C 
BRANCH  35  36
ATOM     36  C   UNL     1      11.732 -10.611  -1.708  1.00  0.00     0.261 C 
BRANCH  36  37
ATOM     37  O   UNL     1      12.244 -10.687  -3.052  1.00  0.00    -0.460 OA
BRANCH  37  38
ATOM     38  C   UNL     1      12.832  -9.554  -3.521  1.00  0.00     0.338 C 
ATOM     39  O   UNL     1      13.657  -8.884  -2.920  1.00  0.00    -0.246 OA
BRANCH  38  40
ATOM     40  C   UNL     1      12.094  -9.066  -4.726  1.00  0.00     0.060 A 
ATOM     41  C   UNL     1      12.354  -7.774  -5.216  1.00  0.00     0.016 A 
ATOM     42  C   UNL     1      10.899  -9.693  -5.059  1.00  0.00     0.016 A 
ATOM     43  C   UNL     1      11.332  -7.036  -5.837  1.00  0.00     0.010 A 
ATOM     44  C   UNL     1       9.867  -8.916  -5.551  1.00  0.00     0.010 A 
ATOM     45  C   UNL     1      10.042  -7.564  -5.889  1.00  0.00    -0.014 A 
BRANCH  45  46
ATOM     46  C   UNL     1       8.796  -6.777  -6.059  1.00  0.00     0.031 A 
ATOM     47  C   UNL     1       7.710  -7.306  -6.969  1.00  0.00     0.074 A 
ATOM     48  C   UNL     1       8.503  -5.818  -5.133  1.00  0.00     0.049 A 
ATOM     49  N   UNL     1       6.559  -6.752  -7.161  1.00  0.00    -0.248 NA
ATOM     50  C   UNL     1       7.823  -8.552  -7.739  1.00  0.00     0.031 C 
ATOM     51  C   UNL     1       7.168  -5.332  -4.770  1.00  0.00     0.029 A 
ATOM     52  N   UNL     1       9.311  -5.054  -4.289  1.00  0.00    -0.354 N 
ATOM     53  C   UNL     1       5.704  -7.686  -7.724  1.00  0.00     0.074 A 
ATOM     54  C   UNL     1       6.564  -8.759  -8.146  1.00  0.00     0.031 C 
ATOM     55  C   UNL     1       7.251  -4.317  -3.899  1.00  0.00     0.029 A 
ATOM     56  C   UNL     1       8.616  -3.885  -3.941  1.00  0.00     0.049 A 
ATOM     57  H   UNL     1      10.217  -5.295  -3.988  1.00  0.00     0.167 HD
ATOM     58  C   UNL     1       4.350  -7.505  -7.637  1.00  0.00     0.031 A 
ATOM     59  C   UNL     1       8.945  -2.626  -4.370  1.00  0.00     0.031 A 
ATOM     60  C   UNL     1       4.008  -6.179  -7.097  1.00  0.00     0.049 A 
ATOM     61  C   UNL     1       7.876  -2.073  -5.324  1.00  0.00     0.074 A 
ATOM     62  C   UNL     1       3.215  -5.725  -6.057  1.00  0.00     0.029 A 
ATOM     63  N   UNL     1       4.695  -5.063  -7.569  1.00  0.00    -0.354 N 
ATOM     64  N   UNL     1       7.051  -2.854  -5.989  1.00  0.00    -0.248 NA
ATOM     65  C   UNL     1       7.538  -0.662  -5.521  1.00  0.00     0.031 C 
ATOM     66  C   UNL     1       3.535  -4.354  -5.832  1.00  0.00     0.029 A 
ATOM     67  C   UNL     1       4.471  -3.960  -6.778  1.00  0.00     0.049 A 
ATOM     68  H   UNL     1       5.268  -5.064  -8.369  1.00  0.00     0.167 HD
ATOM     69  C   UNL     1       6.060  -2.120  -6.573  1.00  0.00     0.074 A 
ATOM     70  C   UNL     1       6.439  -0.745  -6.301  1.00  0.00     0.031 C 
ATOM     71  C   UNL     1       4.973  -2.659  -7.202  1.00  0.00     0.031 A 
BRANCH  58  72
ATOM     72  C   UNL     1       3.290  -8.583  -7.855  1.00  0.00    -0.014 A 
ATOM     73  C   UNL     1       1.924  -8.224  -7.840  1.00  0.00     0.009 A 
ATOM     74  C   UNL     1       3.544  -9.963  -7.968  1.00  0.00     0.009 A 
ATOM     75  C   UNL     1       0.887  -9.171  -7.912  1.00  0.00     0.001 A 
ATOM     76  C   UNL     1       2.510 -10.915  -8.082  1.00  0.00     0.001 A 
ATOM     77  C   UNL     1       1.181 -10.520  -8.043  1.00  0.00     0.000 A 
ENDBRANCH  58  72
BRANCH  59  78
ATOM     78  C   UNL     1      10.411  -2.368  -4.238  1.00  0.00    -0.014 A 
ATOM     79  C   UNL     1      10.845  -2.328  -2.891  1.00  0.00     0.009 A 
ATOM     80  C   UNL     1      11.287  -2.908  -5.195  1.00  0.00     0.009 A 
ATOM     81  C   UNL     1      11.924  -3.115  -2.472  1.00  0.00     0.001 A 
ATOM     82  C   UNL     1      12.398  -3.659  -4.769  1.00  0.00     0.001 A 
ATOM     83  C   UNL     1      12.661  -3.832  -3.409  1.00  0.00     0.000 A 
ENDBRANCH  59  78
BRANCH  71  84
ATOM     84  C   UNL     1       4.256  -2.006  -8.360  1.00  0.00    -0.014 A 
ATOM     85  C   UNL     1       4.804  -0.950  -9.094  1.00  0.00     0.009 A 
ATOM     86  C   UNL     1       3.104  -2.627  -8.903  1.00  0.00     0.009 A 
ATOM     87  C   UNL     1       4.219  -0.517 -10.289  1.00  0.00     0.001 A 
ATOM     88  C   UNL     1       2.548  -2.233 -10.120  1.00  0.00     0.001 A 
ATOM     89  C   UNL     1       3.103  -1.167 -10.809  1.00  0.00     0.000 A 
ENDBRANCH  71  84
ENDBRANCH  45  46
ENDBRANCH  38  40
ENDBRANCH  37  38
ENDBRANCH  36  37
ENDBRANCH  35  36
ENDBRANCH  34  35
ENDBRANCH  33  34
ENDBRANCH  32  33
ENDBRANCH   1  32
TORSDOF 23
