REMARK SMILES O=C(COc1ccccc1Br)Nc1ccc(C(=O)OCCOCCOCCOCCOC(=O)c2ccc(-c3c4nc(c(-c5ccccc5)c5ccc([nH]5)c(-c5ccccc5)c5nc(c(-c6ccccc6)c6ccc3[nH]6)C=C5)C=C4)cc2)c(O)c1
REMARK SMILES IDX 24 1 23 2 22 3 21 4 20 5 19 6 17 7 18 8 16 9 13 10 14 11
REMARK SMILES IDX 84 12 15 13 82 14 12 15 1 16 2 17 3 19 4 20 5 21 6 22 10 23
REMARK SMILES IDX 7 24 9 25 11 26 8 27 83 28 25 30 26 31 27 32 28 33 29 34
REMARK SMILES IDX 30 35 31 36 32 37 33 38 34 39 35 40 81 41 36 42 80 43 37 44
REMARK SMILES IDX 38 45 39 46 74 47 40 48 79 49 73 50 75 51 41 52 78 53 72 54
REMARK SMILES IDX 71 55 42 57 64 58 49 59 63 60 50 61 53 62 62 63 76 64 51 65
REMARK SMILES IDX 52 66 61 68 77 69 54 70 43 71 44 72 48 73 45 74 47 75 46 76
REMARK SMILES IDX 65 77 66 78 70 79 67 80 69 81 68 82 55 83 56 84 60 85 57 86
REMARK SMILES IDX 59 87 58 88
REMARK H PARENT 12 18 83 29 75 56 53 67
REMARK Flexibility Score: inf
ROOT
ATOM      1  C   UNL     1      -1.234   5.255  -2.225  1.00  0.00     0.188 C 
ENDROOT
BRANCH   1   2
ATOM      2  C   UNL     1      -1.847   5.973  -1.007  1.00  0.00     0.188 C 
BRANCH   2   3
ATOM      3  O   UNL     1      -2.209   7.319  -1.288  1.00  0.00    -0.376 OA
BRANCH   3   4
ATOM      4  C   UNL     1      -1.334   8.367  -0.904  1.00  0.00     0.202 C 
BRANCH   4   5
ATOM      5  C   UNL     1       0.135   8.369  -1.363  1.00  0.00     0.261 C 
BRANCH   5   6
ATOM      6  O   UNL     1       0.866   7.145  -1.201  1.00  0.00    -0.460 OA
BRANCH   6   7
ATOM      7  C   UNL     1       1.115   6.737   0.063  1.00  0.00     0.341 C 
ATOM      8  O   UNL     1       0.833   7.336   1.085  1.00  0.00    -0.246 OA
BRANCH   7   9
ATOM      9  C   UNL     1       1.603   5.337   0.009  1.00  0.00     0.101 A 
ATOM     10  C   UNL     1       2.415   2.646   0.007  1.00  0.00     0.045 A 
ATOM     11  C   UNL     1       1.493   3.097   0.950  1.00  0.00     0.027 A 
ATOM     12  C   UNL     1       2.914   3.542  -0.948  1.00  0.00     0.073 A 
ATOM     13  C   UNL     1       1.109   4.442   0.968  1.00  0.00     0.022 A 
ATOM     14  C   UNL     1       2.473   4.864  -0.977  1.00  0.00     0.132 A 
BRANCH  10  15
ATOM     15  N   UNL     1       2.828   1.310  -0.110  1.00  0.00    -0.323 N 
ATOM     16  O   UNL     1       1.446   0.155   1.381  1.00  0.00    -0.271 OA
ATOM     17  C   UNL     1       2.276   0.183   0.479  1.00  0.00     0.262 C 
ATOM     18  H   UNL     1       3.611   1.153  -0.685  1.00  0.00     0.170 HD
BRANCH  17  19
ATOM     19  C   UNL     1       2.816  -1.105  -0.156  1.00  0.00     0.329 C 
BRANCH  19  20
ATOM     20  O   UNL     1       3.457  -0.809  -1.405  1.00  0.00    -0.483 OA
BRANCH  20  21
ATOM     21  C   UNL     1       2.877  -1.417  -2.486  1.00  0.00     0.134 A 
ATOM     22  C   UNL     1       3.545  -2.535  -2.994  1.00  0.00     0.047 A 
ATOM     23  C   UNL     1       1.792  -0.881  -3.192  1.00  0.00     0.060 A 
ATOM     24  C   UNL     1       3.133  -3.114  -4.197  1.00  0.00     0.004 A 
ATOM     25  C   UNL     1       1.388  -1.462  -4.397  1.00  0.00     0.019 A 
ATOM     26  Br  UNL     1       0.823   0.651  -2.645  1.00  0.00    -0.047 Br
ATOM     27  C   UNL     1       2.062  -2.572  -4.902  1.00  0.00     0.001 A 
ENDBRANCH  20  21
ENDBRANCH  19  20
ENDBRANCH  17  19
ENDBRANCH  10  15
BRANCH  14  28
ATOM     28  O   UNL     1       2.896   5.618  -2.037  1.00  0.00    -0.507 OA
ATOM     29  H   UNL     1       2.631   6.514  -2.110  1.00  0.00     0.293 HD
ENDBRANCH  14  28
ENDBRANCH   7   9
ENDBRANCH   6   7
ENDBRANCH   5   6
ENDBRANCH   4   5
ENDBRANCH   3   4
ENDBRANCH   2   3
ENDBRANCH   1   2
BRANCH   1  30
ATOM     30  O   UNL     1      -0.801   6.151  -3.241  1.00  0.00    -0.377 OA
BRANCH  30  31
ATOM     31  C   UNL     1      -1.790   6.710  -4.111  1.00  0.00     0.188 C 
BRANCH  31  32
ATOM     32  C   UNL     1      -3.302   6.723  -3.765  1.00  0.00     0.188 C 
BRANCH  32  33
ATOM     33  O   UNL     1      -3.755   5.559  -3.089  1.00  0.00    -0.376 OA
BRANCH  33  34
ATOM     34  C   UNL     1      -4.582   4.649  -3.791  1.00  0.00     0.202 C 
BRANCH  34  35
ATOM     35  C   UNL     1      -3.897   3.851  -4.906  1.00  0.00     0.261 C 
BRANCH  35  36
ATOM     36  O   UNL     1      -3.228   4.629  -5.909  1.00  0.00    -0.460 OA
BRANCH  36  37
ATOM     37  C   UNL     1      -3.981   5.436  -6.685  1.00  0.00     0.338 C 
ATOM     38  O   UNL     1      -5.190   5.587  -6.648  1.00  0.00    -0.246 OA
BRANCH  37  39
ATOM     39  C   UNL     1      -3.049   6.248  -7.492  1.00  0.00     0.060 A 
ATOM     40  C   UNL     1      -3.059   7.645  -7.373  1.00  0.00     0.016 A 
ATOM     41  C   UNL     1      -2.143   5.614  -8.344  1.00  0.00     0.016 A 
ATOM     42  C   UNL     1      -2.175   8.415  -8.133  1.00  0.00     0.010 A 
ATOM     43  C   UNL     1      -1.276   6.384  -9.116  1.00  0.00     0.010 A 
ATOM     44  C   UNL     1      -1.308   7.788  -9.037  1.00  0.00    -0.014 A 
BRANCH  44  45
ATOM     45  C   UNL     1      -0.575   8.569 -10.060  1.00  0.00     0.031 A 
ATOM     46  C   UNL     1      -1.168   8.645 -11.440  1.00  0.00     0.074 A 
ATOM     47  C   UNL     1       0.608   9.148  -9.796  1.00  0.00     0.049 A 
ATOM     48  N   UNL     1      -0.648   9.115 -12.543  1.00  0.00    -0.248 NA
ATOM     49  C   UNL     1      -2.529   8.102 -11.594  1.00  0.00     0.031 C 
ATOM     50  C   UNL     1       1.263   9.189  -8.491  1.00  0.00     0.029 A 
ATOM     51  N   UNL     1       1.483   9.793 -10.635  1.00  0.00    -0.354 N 
ATOM     52  C   UNL     1      -1.607   8.904 -13.526  1.00  0.00     0.074 A 
ATOM     53  C   UNL     1      -2.730   8.247 -12.895  1.00  0.00     0.031 C 
ATOM     54  C   UNL     1       2.450   9.809  -8.620  1.00  0.00     0.029 A 
ATOM     55  C   UNL     1       2.657  10.162 -10.024  1.00  0.00     0.049 A 
ATOM     56  H   UNL     1       1.288   9.975 -11.583  1.00  0.00     0.167 HD
ATOM     57  C   UNL     1      -1.556   9.226 -14.839  1.00  0.00     0.031 A 
ATOM     58  C   UNL     1       3.783  10.686 -10.549  1.00  0.00     0.031 A 
ATOM     59  C   UNL     1      -0.432   9.863 -15.467  1.00  0.00     0.049 A 
ATOM     60  C   UNL     1       3.852  10.953 -12.033  1.00  0.00     0.074 A 
ATOM     61  C   UNL     1      -0.285  10.244 -16.789  1.00  0.00     0.029 A 
ATOM     62  N   UNL     1       0.744  10.203 -14.817  1.00  0.00    -0.354 N 
ATOM     63  N   UNL     1       2.935  10.769 -12.952  1.00  0.00    -0.248 NA
ATOM     64  C   UNL     1       5.116  11.500 -12.551  1.00  0.00     0.031 C 
ATOM     65  C   UNL     1       1.004  10.757 -16.952  1.00  0.00     0.029 A 
ATOM     66  C   UNL     1       1.633  10.763 -15.717  1.00  0.00     0.049 A 
ATOM     67  H   UNL     1       0.920  10.066 -13.858  1.00  0.00     0.167 HD
ATOM     68  C   UNL     1       3.495  11.214 -14.144  1.00  0.00     0.074 A 
ATOM     69  C   UNL     1       4.829  11.682 -13.832  1.00  0.00     0.031 C 
ATOM     70  C   UNL     1       2.951  11.238 -15.386  1.00  0.00     0.031 A 
BRANCH  57  71
ATOM     71  C   UNL     1      -2.736   8.851 -15.691  1.00  0.00    -0.014 A 
ATOM     72  C   UNL     1      -3.972   9.504 -15.559  1.00  0.00     0.009 A 
ATOM     73  C   UNL     1      -2.598   7.847 -16.662  1.00  0.00     0.009 A 
ATOM     74  C   UNL     1      -5.055   9.134 -16.360  1.00  0.00     0.001 A 
ATOM     75  C   UNL     1      -3.672   7.502 -17.483  1.00  0.00     0.001 A 
ATOM     76  C   UNL     1      -4.902   8.138 -17.325  1.00  0.00     0.000 A 
ENDBRANCH  57  71
BRANCH  58  77
ATOM     77  C   UNL     1       4.958  10.966  -9.680  1.00  0.00    -0.014 A 
ATOM     78  C   UNL     1       5.380  12.285  -9.450  1.00  0.00     0.009 A 
ATOM     79  C   UNL     1       5.686   9.914  -9.102  1.00  0.00     0.009 A 
ATOM     80  C   UNL     1       6.521  12.542  -8.686  1.00  0.00     0.001 A 
ATOM     81  C   UNL     1       6.807  10.175  -8.312  1.00  0.00     0.001 A 
ATOM     82  C   UNL     1       7.231  11.487  -8.114  1.00  0.00     0.000 A 
ENDBRANCH  58  77
BRANCH  70  83
ATOM     83  C   UNL     1       3.766  11.843 -16.497  1.00  0.00    -0.014 A 
ATOM     84  C   UNL     1       4.879  11.182 -17.037  1.00  0.00     0.009 A 
ATOM     85  C   UNL     1       3.358  13.062 -17.063  1.00  0.00     0.009 A 
ATOM     86  C   UNL     1       5.581  11.744 -18.107  1.00  0.00     0.001 A 
ATOM     87  C   UNL     1       4.041  13.604 -18.151  1.00  0.00     0.001 A 
ATOM     88  C   UNL     1       5.156  12.948 -18.668  1.00  0.00     0.000 A 
ENDBRANCH  70  83
ENDBRANCH  44  45
ENDBRANCH  37  39
ENDBRANCH  36  37
ENDBRANCH  35  36
ENDBRANCH  34  35
ENDBRANCH  33  34
ENDBRANCH  32  33
ENDBRANCH  31  32
ENDBRANCH  30  31
ENDBRANCH   1  30
TORSDOF 25
