REMARK SMILES Cc1ccsc1CNS(=O)(=O)c1ccc(C(=O)OCCOCCOCCOCCOC(=O)c2ccc(-c3c4nc(c(-c5ccccc5)c5ccc([nH]5)c(-c5ccccc5)c5nc(c(-c6ccccc6)c6ccc3[nH]6)C=C5)C=C4)cc2)s1
REMARK SMILES IDX 23 1 22 2 21 3 20 4 19 5 18 6 16 7 17 8 15 9 12 10 13 11
REMARK SMILES IDX 81 12 14 13 9 14 10 15 11 16 8 17 7 19 6 20 1 21 2 22 3 23
REMARK SMILES IDX 4 24 5 25 24 26 25 27 26 28 27 29 28 30 29 31 30 32 31 33
REMARK SMILES IDX 32 34 33 35 34 36 80 37 35 38 79 39 36 40 37 41 38 42 73 43
REMARK SMILES IDX 39 44 78 45 72 46 74 47 40 48 77 49 71 50 70 51 41 53 63 54
REMARK SMILES IDX 48 55 62 56 49 57 52 58 61 59 75 60 50 61 51 62 60 64 76 65
REMARK SMILES IDX 53 66 42 67 43 68 47 69 44 70 46 71 45 72 64 73 65 74 69 75
REMARK SMILES IDX 66 76 68 77 67 78 54 79 55 80 59 81 56 82 58 83 57 84
REMARK H PARENT 8 18 74 52 52 63
REMARK Flexibility Score: inf
ROOT
ATOM      1  C   UNL     1      -3.684  -6.579  -3.280  1.00  0.00     0.188 C 
ENDROOT
BRANCH   1   2
ATOM      2  C   UNL     1      -3.394  -5.442  -4.273  1.00  0.00     0.188 C 
BRANCH   2   3
ATOM      3  O   UNL     1      -3.548  -5.836  -5.637  1.00  0.00    -0.376 OA
BRANCH   3   4
ATOM      4  C   UNL     1      -2.345  -6.016  -6.378  1.00  0.00     0.202 C 
BRANCH   4   5
ATOM      5  C   UNL     1      -1.561  -7.303  -6.074  1.00  0.00     0.261 C 
BRANCH   5   6
ATOM      6  O   UNL     1      -1.065  -7.409  -4.730  1.00  0.00    -0.459 OA
BRANCH   6   7
ATOM      7  C   UNL     1      -0.141  -6.500  -4.328  1.00  0.00     0.348 C 
ATOM      8  O   UNL     1       0.384  -5.677  -5.069  1.00  0.00    -0.245 OA
BRANCH   7   9
ATOM      9  C   UNL     1      -0.002  -6.583  -2.886  1.00  0.00     0.113 A 
ATOM     10  C   UNL     1       0.185  -5.900  -0.510  1.00  0.00     0.135 A 
ATOM     11  C   UNL     1      -0.223  -7.214  -0.650  1.00  0.00     0.034 A 
ATOM     12  S   UNL     1       0.573  -5.223  -2.028  1.00  0.00    -0.115 S 
ATOM     13  C   UNL     1      -0.331  -7.609  -2.018  1.00  0.00     0.029 A 
BRANCH  10  14
ATOM     14  S   UNL     1       0.416  -4.883   0.934  1.00  0.00     0.250 S 
ATOM     15  O   UNL     1       1.846  -4.829   1.140  1.00  0.00    -0.206 OA
ATOM     16  O   UNL     1      -0.461  -5.468   1.925  1.00  0.00    -0.206 OA
BRANCH  14  17
ATOM     17  N   UNL     1      -0.146  -3.309   0.694  1.00  0.00    -0.205 NA
ATOM     18  H   UNL     1      -1.076  -3.374   0.278  1.00  0.00     0.141 HD
BRANCH  17  19
ATOM     19  C   UNL     1       0.668  -2.440  -0.169  1.00  0.00     0.145 C 
BRANCH  19  20
ATOM     20  C   UNL     1       0.371  -0.983   0.069  1.00  0.00     0.022 A 
ATOM     21  C   UNL     1       2.764  -0.018   0.120  1.00  0.00     0.045 C 
ATOM     22  C   UNL     1       1.271   0.074   0.164  1.00  0.00    -0.036 A 
ATOM     23  C   UNL     1       0.583   1.330   0.265  1.00  0.00     0.015 A 
ATOM     24  C   UNL     1      -0.784   1.195   0.248  1.00  0.00     0.065 A 
ATOM     25  S   UNL     1      -1.259  -0.435   0.113  1.00  0.00    -0.147 S 
ENDBRANCH  19  20
ENDBRANCH  17  19
ENDBRANCH  14  17
ENDBRANCH  10  14
ENDBRANCH   7   9
ENDBRANCH   6   7
ENDBRANCH   5   6
ENDBRANCH   4   5
ENDBRANCH   3   4
ENDBRANCH   2   3
ENDBRANCH   1   2
BRANCH   1  26
ATOM     26  O   UNL     1      -3.780  -7.846  -3.908  1.00  0.00    -0.377 OA
BRANCH  26  27
ATOM     27  C   UNL     1      -5.045  -8.218  -4.454  1.00  0.00     0.188 C 
BRANCH  27  28
ATOM     28  C   UNL     1      -6.086  -7.158  -4.875  1.00  0.00     0.188 C 
BRANCH  28  29
ATOM     29  O   UNL     1      -6.379  -6.198  -3.860  1.00  0.00    -0.376 OA
BRANCH  29  30
ATOM     30  C   UNL     1      -7.647  -6.317  -3.224  1.00  0.00     0.202 C 
BRANCH  30  31
ATOM     31  C   UNL     1      -7.678  -7.392  -2.131  1.00  0.00     0.261 C 
BRANCH  31  32
ATOM     32  O   UNL     1      -7.525  -8.737  -2.613  1.00  0.00    -0.460 OA
BRANCH  32  33
ATOM     33  C   UNL     1      -8.455  -9.185  -3.483  1.00  0.00     0.338 C 
ATOM     34  O   UNL     1      -9.459  -8.608  -3.858  1.00  0.00    -0.246 OA
BRANCH  33  35
ATOM     35  C   UNL     1      -7.959 -10.448  -4.061  1.00  0.00     0.060 A 
ATOM     36  C   UNL     1      -7.883 -10.567  -5.454  1.00  0.00     0.016 A 
ATOM     37  C   UNL     1      -7.583 -11.508  -3.233  1.00  0.00     0.016 A 
ATOM     38  C   UNL     1      -7.467 -11.770  -6.025  1.00  0.00     0.010 A 
ATOM     39  C   UNL     1      -7.181 -12.715  -3.805  1.00  0.00     0.010 A 
ATOM     40  C   UNL     1      -7.154 -12.860  -5.203  1.00  0.00    -0.014 A 
BRANCH  40  41
ATOM     41  C   UNL     1      -6.980 -14.208  -5.789  1.00  0.00     0.031 A 
ATOM     42  C   UNL     1      -8.174 -15.119  -5.850  1.00  0.00     0.074 A 
ATOM     43  C   UNL     1      -5.786 -14.624  -6.244  1.00  0.00     0.049 A 
ATOM     44  N   UNL     1      -8.253 -16.357  -6.264  1.00  0.00    -0.248 NA
ATOM     45  C   UNL     1      -9.451 -14.557  -5.377  1.00  0.00     0.031 C 
ATOM     46  C   UNL     1      -4.562 -13.827  -6.271  1.00  0.00     0.029 A 
ATOM     47  N   UNL     1      -5.412 -15.839  -6.762  1.00  0.00    -0.354 N 
ATOM     48  C   UNL     1      -9.583 -16.722  -6.101  1.00  0.00     0.074 A 
ATOM     49  C   UNL     1     -10.270 -15.586  -5.527  1.00  0.00     0.031 C 
ATOM     50  C   UNL     1      -3.565 -14.580  -6.770  1.00  0.00     0.029 A 
ATOM     51  C   UNL     1      -4.076 -15.917  -7.067  1.00  0.00     0.049 A 
ATOM     52  H   UNL     1      -6.042 -16.583  -6.901  1.00  0.00     0.167 HD
ATOM     53  C   UNL     1     -10.182 -17.897  -6.404  1.00  0.00     0.031 A 
ATOM     54  C   UNL     1      -3.348 -16.959  -7.513  1.00  0.00     0.031 A 
ATOM     55  C   UNL     1      -9.499 -19.038  -6.948  1.00  0.00     0.049 A 
ATOM     56  C   UNL     1      -4.019 -18.284  -7.757  1.00  0.00     0.074 A 
ATOM     57  C   UNL     1     -10.022 -20.270  -7.300  1.00  0.00     0.029 A 
ATOM     58  N   UNL     1      -8.139 -19.090  -7.206  1.00  0.00    -0.354 N 
ATOM     59  N   UNL     1      -5.284 -18.607  -7.631  1.00  0.00    -0.248 NA
ATOM     60  C   UNL     1      -3.159 -19.389  -8.206  1.00  0.00     0.031 C 
ATOM     61  C   UNL     1      -8.967 -21.085  -7.724  1.00  0.00     0.029 A 
ATOM     62  C   UNL     1      -7.797 -20.343  -7.683  1.00  0.00     0.049 A 
ATOM     63  H   UNL     1      -7.509 -18.345  -7.069  1.00  0.00     0.167 HD
ATOM     64  C   UNL     1      -5.374 -19.943  -8.007  1.00  0.00     0.074 A 
ATOM     65  C   UNL     1      -4.039 -20.365  -8.378  1.00  0.00     0.031 C 
ATOM     66  C   UNL     1      -6.464 -20.747  -8.043  1.00  0.00     0.031 A 
BRANCH  53  67
ATOM     67  C   UNL     1     -11.650 -18.010  -6.115  1.00  0.00    -0.014 A 
ATOM     68  C   UNL     1     -12.600 -17.350  -6.911  1.00  0.00     0.009 A 
ATOM     69  C   UNL     1     -12.090 -18.799  -5.042  1.00  0.00     0.009 A 
ATOM     70  C   UNL     1     -13.961 -17.453  -6.617  1.00  0.00     0.001 A 
ATOM     71  C   UNL     1     -13.453 -18.919  -4.765  1.00  0.00     0.001 A 
ATOM     72  C   UNL     1     -14.386 -18.240  -5.547  1.00  0.00     0.000 A 
ENDBRANCH  53  67
BRANCH  54  73
ATOM     73  C   UNL     1      -1.887 -16.807  -7.735  1.00  0.00    -0.014 A 
ATOM     74  C   UNL     1      -1.357 -16.812  -9.034  1.00  0.00     0.009 A 
ATOM     75  C   UNL     1      -1.011 -16.687  -6.644  1.00  0.00     0.009 A 
ATOM     76  C   UNL     1       0.022 -16.724  -9.235  1.00  0.00     0.001 A 
ATOM     77  C   UNL     1       0.366 -16.575  -6.850  1.00  0.00     0.001 A 
ATOM     78  C   UNL     1       0.882 -16.602  -8.144  1.00  0.00     0.000 A 
ENDBRANCH  54  73
BRANCH  66  79
ATOM     79  C   UNL     1      -6.265 -22.157  -8.523  1.00  0.00    -0.014 A 
ATOM     80  C   UNL     1      -5.640 -23.119  -7.715  1.00  0.00     0.009 A 
ATOM     81  C   UNL     1      -6.753 -22.538  -9.783  1.00  0.00     0.009 A 
ATOM     82  C   UNL     1      -5.482 -24.429  -8.172  1.00  0.00     0.001 A 
ATOM     83  C   UNL     1      -6.617 -23.854 -10.226  1.00  0.00     0.001 A 
ATOM     84  C   UNL     1      -5.975 -24.796  -9.424  1.00  0.00     0.000 A 
ENDBRANCH  66  79
ENDBRANCH  40  41
ENDBRANCH  33  35
ENDBRANCH  32  33
ENDBRANCH  31  32
ENDBRANCH  30  31
ENDBRANCH  29  30
ENDBRANCH  28  29
ENDBRANCH  27  28
ENDBRANCH  26  27
ENDBRANCH   1  26
TORSDOF 24
