REMARK SMILES CC(C)C(=O)Nc1ccc2c([C@H](C(=O)OCCOCCOCCOCCOC(=O)c3ccc(-c4c5nc(c(-c6ccccc6)c6ccc([nH]6)c(-c6ccccc6)c6nc(c(-c7ccccc7)c7ccc4[nH]7)C=C6)C=C5)cc3)[NH+]3CC[NH+](CC(=O)N(C)C)CC3)c[nH]c2c1
REMARK SMILES IDX 20 1 19 2 18 3 17 4 16 5 15 6 13 7 14 8 12 9 11 10 7 11 8 12
REMARK SMILES IDX 93 13 9 14 92 15 10 16 91 17 90 18 6 20 4 21 5 22 2 24 1 25
REMARK SMILES IDX 3 26 78 27 79 28 89 29 80 31 88 32 81 33 82 35 83 36 84 37
REMARK SMILES IDX 85 38 86 39 87 40 21 41 22 42 23 43 24 44 25 45 26 46 27 47
REMARK SMILES IDX 28 48 29 49 30 50 31 51 77 52 32 53 76 54 33 55 34 56 35 57
REMARK SMILES IDX 70 58 36 59 75 60 69 61 71 62 37 63 74 64 68 65 67 66 38 68
REMARK SMILES IDX 60 69 45 70 59 71 46 72 49 73 58 74 72 75 47 76 48 77 57 79
REMARK SMILES IDX 73 80 50 81 39 82 40 83 44 84 41 85 43 86 42 87 61 88 62 89
REMARK SMILES IDX 66 90 63 91 65 92 64 93 51 94 52 95 56 96 53 97 55 98 54 99
REMARK H PARENT 91 19 6 23 78 30 81 34 71 67 49 78
REMARK Flexibility Score: inf
ROOT
ATOM      1  C   UNL     1       1.004  -3.551  -0.424  1.00  0.00     0.188 C 
ENDROOT
BRANCH   1   2
ATOM      2  C   UNL     1      -0.012  -4.386  -1.255  1.00  0.00     0.188 C 
BRANCH   2   3
ATOM      3  O   UNL     1      -1.345  -3.918  -1.133  1.00  0.00    -0.376 OA
BRANCH   3   4
ATOM      4  C   UNL     1      -2.214  -4.850  -0.509  1.00  0.00     0.202 C 
BRANCH   4   5
ATOM      5  C   UNL     1      -1.973  -4.970   0.998  1.00  0.00     0.261 C 
BRANCH   5   6
ATOM      6  O   UNL     1      -0.638  -5.341   1.409  1.00  0.00    -0.459 OA
BRANCH   6   7
ATOM      7  C   UNL     1      -0.182  -6.608   1.153  1.00  0.00     0.370 C 
ATOM      8  O   UNL     1      -0.831  -7.441   0.535  1.00  0.00    -0.245 OA
BRANCH   7   9
ATOM      9  C   UNL     1       1.189  -6.815   1.852  1.00  0.00     0.328 C 
BRANCH   9  10
ATOM     10  C   UNL     1       1.021  -7.639   3.108  1.00  0.00     0.046 A 
ATOM     11  C   UNL     1       3.680  -9.110   5.995  1.00  0.00     0.043 A 
ATOM     12  C   UNL     1       4.263  -8.393   4.959  1.00  0.00     0.027 A 
ATOM     13  C   UNL     1       2.321  -9.441   5.969  1.00  0.00     0.052 A 
ATOM     14  C   UNL     1       3.478  -7.834   3.957  1.00  0.00     0.013 A 
ATOM     15  C   UNL     1       1.543  -8.858   4.963  1.00  0.00     0.048 A 
ATOM     16  C   UNL     1       2.087  -8.048   3.971  1.00  0.00     0.009 A 
ATOM     17  N   UNL     1       0.190  -8.920   4.736  1.00  0.00    -0.361 N 
ATOM     18  C   UNL     1      -0.142  -8.162   3.647  1.00  0.00     0.094 A 
ATOM     19  H   UNL     1      -0.450  -9.435   5.279  1.00  0.00     0.166 HD
BRANCH  11  20
ATOM     20  N   UNL     1       4.432  -9.519   7.094  1.00  0.00    -0.326 N 
ATOM     21  C   UNL     1       5.314  -8.808   7.856  1.00  0.00     0.226 C 
ATOM     22  O   UNL     1       5.967  -9.438   8.697  1.00  0.00    -0.274 OA
ATOM     23  H   UNL     1       4.308 -10.459   7.361  1.00  0.00     0.169 HD
BRANCH  21  24
ATOM     24  C   UNL     1       5.454  -7.277   7.787  1.00  0.00     0.072 C 
ATOM     25  C   UNL     1       6.387  -6.761   6.698  1.00  0.00     0.018 C 
ATOM     26  C   UNL     1       4.132  -6.511   7.841  1.00  0.00     0.018 C 
ENDBRANCH  21  24
ENDBRANCH  11  20
ENDBRANCH   9  10
BRANCH   9  27
ATOM     27  N   UNL     1       2.276  -7.448   1.073  1.00  0.00    -0.310 N 
ATOM     28  C   UNL     1       2.002  -8.634   0.270  1.00  0.00     0.325 C 
ATOM     29  C   UNL     1       3.263  -6.588   0.440  1.00  0.00     0.325 C 
ATOM     30  H   UNL     1       2.722  -7.824   1.910  1.00  0.00     0.349 HD
ATOM     31  C   UNL     1       1.719  -8.377  -1.234  1.00  0.00     0.325 C 
ATOM     32  C   UNL     1       2.826  -6.207  -0.969  1.00  0.00     0.325 C 
ATOM     33  N   UNL     1       2.405  -7.251  -1.886  1.00  0.00    -0.318 N 
ATOM     34  H   UNL     1       1.664  -6.824  -2.442  1.00  0.00     0.348 HD
BRANCH  33  35
ATOM     35  C   UNL     1       3.384  -7.597  -2.921  1.00  0.00     0.364 C 
BRANCH  35  36
ATOM     36  C   UNL     1       4.723  -8.041  -2.330  1.00  0.00     0.277 C 
ATOM     37  O   UNL     1       4.892  -9.230  -2.042  1.00  0.00    -0.268 OA
ATOM     38  N   UNL     1       5.685  -7.074  -2.038  1.00  0.00    -0.344 N 
ATOM     39  C   UNL     1       5.752  -5.718  -2.570  1.00  0.00     0.146 C 
ATOM     40  C   UNL     1       6.781  -7.463  -1.170  1.00  0.00     0.146 C 
ENDBRANCH  35  36
ENDBRANCH  33  35
ENDBRANCH   9  27
ENDBRANCH   7   9
ENDBRANCH   6   7
ENDBRANCH   5   6
ENDBRANCH   4   5
ENDBRANCH   3   4
ENDBRANCH   2   3
ENDBRANCH   1   2
BRANCH   1  41
ATOM     41  O   UNL     1       0.812  -2.160  -0.243  1.00  0.00    -0.377 OA
BRANCH  41  42
ATOM     42  C   UNL     1      -0.008  -1.502  -1.188  1.00  0.00     0.188 C 
BRANCH  42  43
ATOM     43  C   UNL     1       0.289  -1.739  -2.686  1.00  0.00     0.188 C 
BRANCH  43  44
ATOM     44  O   UNL     1       1.375  -2.628  -2.925  1.00  0.00    -0.376 OA
BRANCH  44  45
ATOM     45  C   UNL     1       2.565  -2.110  -3.486  1.00  0.00     0.202 C 
BRANCH  45  46
ATOM     46  C   UNL     1       3.408  -1.213  -2.573  1.00  0.00     0.261 C 
BRANCH  46  47
ATOM     47  O   UNL     1       2.702  -0.149  -1.924  1.00  0.00    -0.460 OA
BRANCH  47  48
ATOM     48  C   UNL     1       2.219   0.847  -2.708  1.00  0.00     0.338 C 
ATOM     49  O   UNL     1       2.353   0.974  -3.898  1.00  0.00    -0.246 OA
BRANCH  48  50
ATOM     50  C   UNL     1       1.268   1.609  -1.861  1.00  0.00     0.060 A 
ATOM     51  C   UNL     1      -0.067   1.704  -2.284  1.00  0.00     0.016 A 
ATOM     52  C   UNL     1       1.651   2.086  -0.603  1.00  0.00     0.016 A 
ATOM     53  C   UNL     1      -1.027   2.248  -1.434  1.00  0.00     0.010 A 
ATOM     54  C   UNL     1       0.699   2.688   0.223  1.00  0.00     0.010 A 
ATOM     55  C   UNL     1      -0.637   2.785  -0.200  1.00  0.00    -0.014 A 
BRANCH  55  56
ATOM     56  C   UNL     1      -1.570   3.706   0.484  1.00  0.00     0.031 A 
ATOM     57  C   UNL     1      -1.523   5.147   0.060  1.00  0.00     0.074 A 
ATOM     58  C   UNL     1      -2.460   3.283   1.397  1.00  0.00     0.049 A 
ATOM     59  N   UNL     1      -2.248   6.157   0.461  1.00  0.00    -0.248 NA
ATOM     60  C   UNL     1      -0.522   5.492  -0.967  1.00  0.00     0.031 C 
ATOM     61  C   UNL     1      -2.631   1.903   1.849  1.00  0.00     0.029 A 
ATOM     62  N   UNL     1      -3.397   3.991   2.107  1.00  0.00    -0.354 N 
ATOM     63  C   UNL     1      -1.793   7.250  -0.265  1.00  0.00     0.074 A 
ATOM     64  C   UNL     1      -0.716   6.792  -1.111  1.00  0.00     0.031 C 
ATOM     65  C   UNL     1      -3.612   1.867   2.770  1.00  0.00     0.029 A 
ATOM     66  C   UNL     1      -4.117   3.222   2.990  1.00  0.00     0.049 A 
ATOM     67  H   UNL     1      -3.541   4.958   1.995  1.00  0.00     0.167 HD
ATOM     68  C   UNL     1      -2.235   8.526  -0.232  1.00  0.00     0.031 A 
ATOM     69  C   UNL     1      -5.060   3.585   3.881  1.00  0.00     0.031 A 
ATOM     70  C   UNL     1      -3.282   8.986   0.634  1.00  0.00     0.049 A 
ATOM     71  C   UNL     1      -5.473   5.034   3.961  1.00  0.00     0.074 A 
ATOM     72  C   UNL     1      -3.808  10.259   0.747  1.00  0.00     0.029 A 
ATOM     73  N   UNL     1      -3.950   8.188   1.550  1.00  0.00    -0.354 N 
ATOM     74  N   UNL     1      -5.065   6.054   3.244  1.00  0.00    -0.248 NA
ATOM     75  C   UNL     1      -6.488   5.378   4.968  1.00  0.00     0.031 C 
ATOM     76  C   UNL     1      -4.750  10.247   1.780  1.00  0.00     0.029 A 
ATOM     77  C   UNL     1      -4.862   8.950   2.258  1.00  0.00     0.049 A 
ATOM     78  H   UNL     1      -3.798   7.224   1.677  1.00  0.00     0.167 HD
ATOM     79  C   UNL     1      -5.792   7.152   3.692  1.00  0.00     0.074 A 
ATOM     80  C   UNL     1      -6.682   6.667   4.727  1.00  0.00     0.031 C 
ATOM     81  C   UNL     1      -5.734   8.444   3.286  1.00  0.00     0.031 A 
BRANCH  68  82
ATOM     82  C   UNL     1      -1.543   9.517  -1.123  1.00  0.00    -0.014 A 
ATOM     83  C   UNL     1      -1.706   9.490  -2.517  1.00  0.00     0.009 A 
ATOM     84  C   UNL     1      -0.726  10.505  -0.552  1.00  0.00     0.009 A 
ATOM     85  C   UNL     1      -1.043  10.418  -3.323  1.00  0.00     0.001 A 
ATOM     86  C   UNL     1      -0.088  11.449  -1.357  1.00  0.00     0.001 A 
ATOM     87  C   UNL     1      -0.241  11.401  -2.742  1.00  0.00     0.000 A 
ENDBRANCH  68  82
BRANCH  69  88
ATOM     88  C   UNL     1      -5.660   2.578   4.799  1.00  0.00    -0.014 A 
ATOM     89  C   UNL     1      -7.020   2.239   4.715  1.00  0.00     0.009 A 
ATOM     90  C   UNL     1      -4.879   1.983   5.803  1.00  0.00     0.009 A 
ATOM     91  C   UNL     1      -7.590   1.356   5.637  1.00  0.00     0.001 A 
ATOM     92  C   UNL     1      -5.443   1.075   6.702  1.00  0.00     0.001 A 
ATOM     93  C   UNL     1      -6.801   0.772   6.626  1.00  0.00     0.000 A 
ENDBRANCH  69  88
BRANCH  81  94
ATOM     94  C   UNL     1      -6.683   9.415   3.935  1.00  0.00    -0.014 A 
ATOM     95  C   UNL     1      -6.529   9.809   5.273  1.00  0.00     0.009 A 
ATOM     96  C   UNL     1      -7.724   9.975   3.177  1.00  0.00     0.009 A 
ATOM     97  C   UNL     1      -7.426  10.710   5.850  1.00  0.00     0.001 A 
ATOM     98  C   UNL     1      -8.596  10.903   3.746  1.00  0.00     0.001 A 
ATOM     99  C   UNL     1      -8.454  11.259   5.086  1.00  0.00     0.000 A 
ENDBRANCH  81  94
ENDBRANCH  55  56
ENDBRANCH  48  50
ENDBRANCH  47  48
ENDBRANCH  46  47
ENDBRANCH  45  46
ENDBRANCH  44  45
ENDBRANCH  43  44
ENDBRANCH  42  43
ENDBRANCH  41  42
ENDBRANCH   1  41
TORSDOF 26
