REMARK SMILES Cc1ccccc1C(=O)Nc1cc(C(=O)OCCOCCOCCOCCOC(=O)c2ccc(-c3c4nc(c(-c5ccccc5)c5ccc([nH]5)c(-c5ccccc5)c5nc(c(-c6ccccc6)c6ccc3[nH]6)C=C5)C=C4)cc2)ccc1N1CC[NH+](CC(=O)Nc2ccc(F)cc2)CC1
REMARK SMILES IDX 21 1 20 2 19 3 18 4 17 5 16 6 14 7 15 8 13 9 11 10 12 11
REMARK SMILES IDX 81 12 80 13 79 14 10 15 8 16 9 17 7 19 1 20 2 21 3 22 4 23
REMARK SMILES IDX 6 24 5 25 82 26 83 27 98 28 84 29 97 30 85 31 86 33 87 34
REMARK SMILES IDX 88 35 89 36 90 38 91 39 96 40 92 41 95 42 93 43 94 44 22 45
REMARK SMILES IDX 23 46 24 47 25 48 26 49 27 50 28 51 29 52 30 53 31 54 32 55
REMARK SMILES IDX 78 56 33 57 77 58 34 59 35 60 36 61 71 62 37 63 76 64 70 65
REMARK SMILES IDX 72 66 38 67 75 68 69 69 68 70 39 72 61 73 46 74 60 75 47 76
REMARK SMILES IDX 50 77 59 78 73 79 48 80 49 81 58 83 74 84 51 85 40 86 41 87
REMARK SMILES IDX 45 88 42 89 44 90 43 91 62 92 63 93 67 94 64 95 66 96 65 97
REMARK SMILES IDX 52 98 53 99 57 100 54 101 56 102 55 103
REMARK H PARENT 10 18 85 32 89 37 72 71 50 82
REMARK Flexibility Score: inf
ROOT
ATOM      1  C   UNL     1       5.757  -0.274  -3.008  1.00  0.00     0.188 C 
ENDROOT
BRANCH   1   2
ATOM      2  C   UNL     1       5.915  -1.542  -2.171  1.00  0.00     0.188 C 
BRANCH   2   3
ATOM      3  O   UNL     1       6.070  -2.837  -2.736  1.00  0.00    -0.376 OA
BRANCH   3   4
ATOM      4  C   UNL     1       4.881  -3.635  -2.670  1.00  0.00     0.202 C 
BRANCH   4   5
ATOM      5  C   UNL     1       4.329  -4.026  -1.283  1.00  0.00     0.261 C 
BRANCH   5   6
ATOM      6  O   UNL     1       3.815  -2.913  -0.557  1.00  0.00    -0.460 OA
BRANCH   6   7
ATOM      7  C   UNL     1       4.436  -2.649   0.605  1.00  0.00     0.338 C 
ATOM      8  O   UNL     1       5.041  -3.409   1.318  1.00  0.00    -0.246 OA
BRANCH   7   9
ATOM      9  C   UNL     1       4.556  -1.176   0.643  1.00  0.00     0.062 A 
ATOM     10  C   UNL     1       3.825   1.071   0.172  1.00  0.00     0.065 A 
ATOM     11  C   UNL     1       3.606  -0.294   0.099  1.00  0.00     0.044 A 
ATOM     12  C   UNL     1       5.110   1.560   0.600  1.00  0.00     0.061 A 
ATOM     13  C   UNL     1       6.100   0.616   0.933  1.00  0.00     0.029 A 
ATOM     14  C   UNL     1       5.802  -0.724   1.046  1.00  0.00     0.018 A 
BRANCH  10  15
ATOM     15  N   UNL     1       2.808   1.997  -0.131  1.00  0.00    -0.320 N 
ATOM     16  C   UNL     1       1.455   2.122   0.134  1.00  0.00     0.255 C 
ATOM     17  O   UNL     1       1.014   3.268  -0.062  1.00  0.00    -0.269 OA
ATOM     18  H   UNL     1       3.147   2.748  -0.671  1.00  0.00     0.170 HD
BRANCH  16  19
ATOM     19  C   UNL     1       0.457   1.108   0.636  1.00  0.00     0.043 A 
ATOM     20  C   UNL     1       1.808  -0.346   2.312  1.00  0.00     0.045 C 
ATOM     21  C   UNL     1       0.622  -0.018   1.460  1.00  0.00    -0.038 A 
ATOM     22  C   UNL     1      -0.459  -0.916   1.638  1.00  0.00     0.004 A 
ATOM     23  C   UNL     1      -1.741  -0.620   1.200  1.00  0.00     0.000 A 
ATOM     24  C   UNL     1      -0.881   1.416   0.267  1.00  0.00     0.014 A 
ATOM     25  C   UNL     1      -1.967   0.585   0.566  1.00  0.00     0.001 A 
ENDBRANCH  16  19
ENDBRANCH  10  15
BRANCH  12  26
ATOM     26  N   UNL     1       5.360   2.937   0.882  1.00  0.00    -0.359 N 
ATOM     27  C   UNL     1       6.746   3.307   1.337  1.00  0.00     0.178 C 
ATOM     28  C   UNL     1       4.346   3.469   1.801  1.00  0.00     0.178 C 
ATOM     29  C   UNL     1       6.872   4.737   1.929  1.00  0.00     0.284 C 
ATOM     30  C   UNL     1       4.540   4.976   1.992  1.00  0.00     0.284 C 
ATOM     31  N   UNL     1       5.751   5.241   2.735  1.00  0.00    -0.324 N 
ATOM     32  H   UNL     1       5.973   6.230   2.852  1.00  0.00     0.348 HD
BRANCH  31  33
ATOM     33  C   UNL     1       5.619   4.942   4.183  1.00  0.00     0.364 C 
BRANCH  33  34
ATOM     34  C   UNL     1       5.221   3.547   4.703  1.00  0.00     0.279 C 
ATOM     35  O   UNL     1       6.139   2.740   4.944  1.00  0.00    -0.268 OA
ATOM     36  N   UNL     1       3.975   3.090   5.064  1.00  0.00    -0.321 N 
ATOM     37  H   UNL     1       4.092   2.354   5.707  1.00  0.00     0.170 HD
BRANCH  36  38
ATOM     38  C   UNL     1       2.577   3.280   4.856  1.00  0.00     0.041 A 
ATOM     39  C   UNL     1       1.729   2.523   5.688  1.00  0.00     0.029 A 
ATOM     40  C   UNL     1       1.932   4.000   3.855  1.00  0.00     0.029 A 
ATOM     41  C   UNL     1       0.329   2.510   5.529  1.00  0.00     0.041 A 
ATOM     42  C   UNL     1       0.539   3.959   3.648  1.00  0.00     0.041 A 
ATOM     43  C   UNL     1      -0.256   3.226   4.500  1.00  0.00     0.123 A 
ATOM     44  F   UNL     1      -1.583   3.207   4.328  1.00  0.00    -0.207 F 
ENDBRANCH  36  38
ENDBRANCH  33  34
ENDBRANCH  31  33
ENDBRANCH  12  26
ENDBRANCH   7   9
ENDBRANCH   6   7
ENDBRANCH   5   6
ENDBRANCH   4   5
ENDBRANCH   3   4
ENDBRANCH   2   3
ENDBRANCH   1   2
BRANCH   1  45
ATOM     45  O   UNL     1       4.393  -0.020  -3.297  1.00  0.00    -0.377 OA
BRANCH  45  46
ATOM     46  C   UNL     1       3.902  -0.193  -4.604  1.00  0.00     0.188 C 
BRANCH  46  47
ATOM     47  C   UNL     1       4.701  -0.854  -5.726  1.00  0.00     0.188 C 
BRANCH  47  48
ATOM     48  O   UNL     1       5.665  -1.825  -5.365  1.00  0.00    -0.376 OA
BRANCH  48  49
ATOM     49  C   UNL     1       6.997  -1.664  -5.871  1.00  0.00     0.202 C 
BRANCH  49  50
ATOM     50  C   UNL     1       7.144  -1.304  -7.359  1.00  0.00     0.261 C 
BRANCH  50  51
ATOM     51  O   UNL     1       6.633  -2.374  -8.177  1.00  0.00    -0.460 OA
BRANCH  51  52
ATOM     52  C   UNL     1       5.375  -2.196  -8.663  1.00  0.00     0.338 C 
ATOM     53  O   UNL     1       4.966  -1.188  -9.216  1.00  0.00    -0.246 OA
BRANCH  52  54
ATOM     54  C   UNL     1       4.475  -3.267  -8.131  1.00  0.00     0.060 A 
ATOM     55  C   UNL     1       3.080  -3.132  -8.268  1.00  0.00     0.016 A 
ATOM     56  C   UNL     1       4.985  -4.097  -7.143  1.00  0.00     0.016 A 
ATOM     57  C   UNL     1       2.217  -3.639  -7.279  1.00  0.00     0.010 A 
ATOM     58  C   UNL     1       4.143  -4.470  -6.116  1.00  0.00     0.010 A 
ATOM     59  C   UNL     1       2.761  -4.208  -6.129  1.00  0.00    -0.014 A 
BRANCH  59  60
ATOM     60  C   UNL     1       2.081  -4.379  -4.816  1.00  0.00     0.031 A 
ATOM     61  C   UNL     1       2.377  -5.632  -4.024  1.00  0.00     0.074 A 
ATOM     62  C   UNL     1       1.586  -3.258  -4.223  1.00  0.00     0.049 A 
ATOM     63  N   UNL     1       2.059  -5.859  -2.795  1.00  0.00    -0.248 NA
ATOM     64  C   UNL     1       3.097  -6.779  -4.597  1.00  0.00     0.031 C 
ATOM     65  C   UNL     1       1.638  -2.866  -2.814  1.00  0.00     0.029 A 
ATOM     66  N   UNL     1       0.942  -2.169  -4.776  1.00  0.00    -0.354 N 
ATOM     67  C   UNL     1       2.791  -6.955  -2.337  1.00  0.00     0.074 A 
ATOM     68  C   UNL     1       3.381  -7.519  -3.520  1.00  0.00     0.031 C 
ATOM     69  C   UNL     1       0.993  -1.714  -2.595  1.00  0.00     0.029 A 
ATOM     70  C   UNL     1       0.264  -1.435  -3.790  1.00  0.00     0.049 A 
ATOM     71  H   UNL     1       0.957  -1.938  -5.733  1.00  0.00     0.167 HD
ATOM     72  C   UNL     1       2.917  -7.177  -0.989  1.00  0.00     0.031 A 
ATOM     73  C   UNL     1      -1.098  -1.385  -3.785  1.00  0.00     0.031 A 
ATOM     74  C   UNL     1       2.007  -6.306  -0.224  1.00  0.00     0.049 A 
ATOM     75  C   UNL     1      -1.706  -2.318  -2.726  1.00  0.00     0.074 A 
ATOM     76  C   UNL     1       2.160  -5.404   0.815  1.00  0.00     0.029 A 
ATOM     77  N   UNL     1       0.700  -6.139  -0.679  1.00  0.00    -0.354 N 
ATOM     78  N   UNL     1      -1.048  -3.315  -2.164  1.00  0.00    -0.248 NA
ATOM     79  C   UNL     1      -3.021  -2.143  -2.111  1.00  0.00     0.031 C 
ATOM     80  C   UNL     1       0.994  -4.586   0.854  1.00  0.00     0.029 A 
ATOM     81  C   UNL     1       0.091  -5.054  -0.090  1.00  0.00     0.049 A 
ATOM     82  H   UNL     1       0.265  -6.726  -1.340  1.00  0.00     0.167 HD
ATOM     83  C   UNL     1      -1.772  -3.854  -1.131  1.00  0.00     0.074 A 
ATOM     84  C   UNL     1      -3.011  -3.094  -1.155  1.00  0.00     0.031 C 
ATOM     85  C   UNL     1      -1.338  -4.844  -0.285  1.00  0.00     0.031 A 
BRANCH  72  86
ATOM     86  C   UNL     1       3.998  -8.032  -0.308  1.00  0.00    -0.014 A 
ATOM     87  C   UNL     1       4.072  -8.072   1.104  1.00  0.00     0.009 A 
ATOM     88  C   UNL     1       5.023  -8.742  -0.964  1.00  0.00     0.009 A 
ATOM     89  C   UNL     1       5.096  -8.737   1.805  1.00  0.00     0.001 A 
ATOM     90  C   UNL     1       6.034  -9.441  -0.269  1.00  0.00     0.001 A 
ATOM     91  C   UNL     1       6.077  -9.431   1.117  1.00  0.00     0.000 A 
ENDBRANCH  72  86
BRANCH  73  92
ATOM     92  C   UNL     1      -1.546  -0.767  -5.085  1.00  0.00    -0.014 A 
ATOM     93  C   UNL     1      -1.133   0.590  -5.194  1.00  0.00     0.009 A 
ATOM     94  C   UNL     1      -1.456  -1.554  -6.252  1.00  0.00     0.009 A 
ATOM     95  C   UNL     1      -0.325   1.011  -6.264  1.00  0.00     0.001 A 
ATOM     96  C   UNL     1      -0.672  -1.110  -7.340  1.00  0.00     0.001 A 
ATOM     97  C   UNL     1      -0.044   0.136  -7.307  1.00  0.00     0.000 A 
ENDBRANCH  73  92
BRANCH  85  98
ATOM     98  C   UNL     1      -2.240  -5.779   0.507  1.00  0.00    -0.014 A 
ATOM     99  C   UNL     1      -3.615  -5.901   0.295  1.00  0.00     0.009 A 
ATOM    100  C   UNL     1      -1.657  -6.742   1.373  1.00  0.00     0.009 A 
ATOM    101  C   UNL     1      -4.370  -6.889   0.940  1.00  0.00     0.001 A 
ATOM    102  C   UNL     1      -2.392  -7.766   1.972  1.00  0.00     0.001 A 
ATOM    103  C   UNL     1      -3.759  -7.829   1.765  1.00  0.00     0.000 A 
ENDBRANCH  85  98
ENDBRANCH  59  60
ENDBRANCH  52  54
ENDBRANCH  51  52
ENDBRANCH  50  51
ENDBRANCH  49  50
ENDBRANCH  48  49
ENDBRANCH  47  48
ENDBRANCH  46  47
ENDBRANCH  45  46
ENDBRANCH   1  45
TORSDOF 26
