REMARK SMILES Cc1c(C#N)c2ccccc2n1CC(=O)N1CC[C@H](O)C[C@@H]1C(=O)OCCOCCOCCOCCOC(=O)c1ccc(-c2c3nc(c(-c4ccccc4)c4ccc([nH]4)c(-c4ccccc4)c4nc(c(-c5ccccc5)c5ccc2[nH]5)C=C4)C=C3)cc1
REMARK SMILES IDX 30 1 29 2 28 3 27 4 26 5 25 6 23 7 24 8 22 9 16 10 17 11
REMARK SMILES IDX 18 12 21 13 19 14 14 15 15 16 13 17 12 18 1 19 2 20 3 21
REMARK SMILES IDX 6 22 11 23 7 24 10 25 8 26 9 27 4 28 5 29 20 30 31 32 32 33
REMARK SMILES IDX 33 34 34 35 35 36 36 37 37 38 38 39 39 40 40 41 41 42 87 43
REMARK SMILES IDX 42 44 86 45 43 46 44 47 45 48 80 49 46 50 85 51 79 52 81 53
REMARK SMILES IDX 47 54 84 55 78 56 77 57 48 59 70 60 55 61 69 62 56 63 59 64
REMARK SMILES IDX 68 65 82 66 57 67 58 68 67 70 83 71 60 72 49 73 50 74 54 75
REMARK SMILES IDX 51 76 53 77 52 78 71 79 72 80 76 81 73 82 75 83 74 84 61 85
REMARK SMILES IDX 62 86 66 87 63 88 65 89 64 90
REMARK H PARENT 20 31 81 58 59 69
REMARK Flexibility Score: inf
ROOT
ATOM      1  C   UNL     1      -5.774   0.079  -1.841  1.00  0.00     0.188 C 
ENDROOT
BRANCH   1   2
ATOM      2  C   UNL     1      -5.430  -1.402  -2.009  1.00  0.00     0.188 C 
BRANCH   2   3
ATOM      3  O   UNL     1      -6.466  -2.357  -1.964  1.00  0.00    -0.376 OA
BRANCH   3   4
ATOM      4  C   UNL     1      -7.175  -2.820  -0.825  1.00  0.00     0.202 C 
BRANCH   4   5
ATOM      5  C   UNL     1      -7.202  -2.341   0.643  1.00  0.00     0.261 C 
BRANCH   5   6
ATOM      6  O   UNL     1      -6.381  -1.241   0.964  1.00  0.00    -0.462 OA
BRANCH   6   7
ATOM      7  C   UNL     1      -5.084  -1.590   1.003  1.00  0.00     0.329 C 
ATOM      8  O   UNL     1      -4.702  -2.757   0.957  1.00  0.00    -0.250 OA
BRANCH   7   9
ATOM      9  C   UNL     1      -4.169  -0.367   1.151  1.00  0.00     0.197 C 
ATOM     10  N   UNL     1      -2.817  -0.711   0.651  1.00  0.00    -0.327 N 
ATOM     11  C   UNL     1      -2.137  -1.758   1.410  1.00  0.00     0.123 C 
ATOM     12  C   UNL     1      -2.237  -1.568   2.929  1.00  0.00     0.053 C 
ATOM     13  C   UNL     1      -4.133   0.077   2.596  1.00  0.00     0.069 C 
ATOM     14  C   UNL     1      -3.562  -1.031   3.470  1.00  0.00     0.118 C 
BRANCH  10  15
ATOM     15  C   UNL     1      -2.332  -0.058  -0.473  1.00  0.00     0.243 C 
ATOM     16  O   UNL     1      -2.707   1.097  -0.720  1.00  0.00    -0.273 OA
BRANCH  15  17
ATOM     17  C   UNL     1      -1.534  -0.769  -1.565  1.00  0.00     0.222 C 
BRANCH  17  18
ATOM     18  N   UNL     1      -0.486  -1.690  -1.165  1.00  0.00    -0.334 N 
ATOM     19  C   UNL     1       1.016   0.070  -0.137  1.00  0.00     0.066 C 
ATOM     20  C   UNL     1       0.666  -1.339  -0.485  1.00  0.00     0.034 A 
ATOM     21  C   UNL     1       1.274  -2.524  -0.102  1.00  0.00     0.080 A 
ATOM     22  C   UNL     1       0.541  -3.610  -0.659  1.00  0.00     0.018 A 
ATOM     23  C   UNL     1      -0.529  -3.060  -1.372  1.00  0.00     0.050 A 
ATOM     24  C   UNL     1       0.670  -5.014  -0.605  1.00  0.00     0.012 A 
ATOM     25  C   UNL     1      -1.442  -3.868  -2.074  1.00  0.00     0.027 A 
ATOM     26  C   UNL     1      -0.244  -5.823  -1.288  1.00  0.00     0.001 A 
ATOM     27  C   UNL     1      -1.277  -5.254  -2.022  1.00  0.00     0.002 A 
BRANCH  21  28
ATOM     28  C   UNL     1       2.411  -2.626   0.770  1.00  0.00     0.102 C 
ATOM     29  N   UNL     1       3.300  -2.699   1.498  1.00  0.00    -0.192 NA
ENDBRANCH  21  28
ENDBRANCH  17  18
ENDBRANCH  15  17
ENDBRANCH  10  15
BRANCH  14  30
ATOM     30  O   UNL     1      -4.516  -2.074   3.656  1.00  0.00    -0.393 OA
ATOM     31  H   UNL     1      -4.726  -2.477   2.799  1.00  0.00     0.210 HD
ENDBRANCH  14  30
ENDBRANCH   7   9
ENDBRANCH   6   7
ENDBRANCH   5   6
ENDBRANCH   4   5
ENDBRANCH   3   4
ENDBRANCH   2   3
ENDBRANCH   1   2
BRANCH   1  32
ATOM     32  O   UNL     1      -6.832   0.307  -0.957  1.00  0.00    -0.377 OA
BRANCH  32  33
ATOM     33  C   UNL     1      -8.141   0.113  -1.452  1.00  0.00     0.188 C 
BRANCH  33  34
ATOM     34  C   UNL     1      -8.450  -0.490  -2.851  1.00  0.00     0.188 C 
BRANCH  34  35
ATOM     35  O   UNL     1      -7.526  -0.178  -3.862  1.00  0.00    -0.376 OA
BRANCH  35  36
ATOM     36  C   UNL     1      -7.734   0.999  -4.621  1.00  0.00     0.202 C 
BRANCH  36  37
ATOM     37  C   UNL     1      -8.380   2.284  -4.032  1.00  0.00     0.261 C 
BRANCH  37  38
ATOM     38  O   UNL     1      -9.336   2.130  -2.954  1.00  0.00    -0.460 OA
BRANCH  38  39
ATOM     39  C   UNL     1     -10.664   1.962  -3.178  1.00  0.00     0.338 C 
ATOM     40  O   UNL     1     -11.236   2.177  -4.231  1.00  0.00    -0.246 OA
BRANCH  39  41
ATOM     41  C   UNL     1     -11.213   1.083  -2.070  1.00  0.00     0.060 A 
ATOM     42  C   UNL     1     -10.943   1.263  -0.708  1.00  0.00     0.016 A 
ATOM     43  C   UNL     1     -11.729  -0.157  -2.486  1.00  0.00     0.016 A 
ATOM     44  C   UNL     1     -11.028   0.156   0.171  1.00  0.00     0.010 A 
ATOM     45  C   UNL     1     -11.769  -1.265  -1.620  1.00  0.00     0.010 A 
ATOM     46  C   UNL     1     -11.360  -1.146  -0.293  1.00  0.00    -0.014 A 
BRANCH  46  47
ATOM     47  C   UNL     1     -11.624  -2.242   0.692  1.00  0.00     0.031 A 
ATOM     48  C   UNL     1     -12.756  -1.821   1.565  1.00  0.00     0.074 A 
ATOM     49  C   UNL     1     -11.150  -3.519   0.804  1.00  0.00     0.049 A 
ATOM     50  N   UNL     1     -12.717  -1.565   2.829  1.00  0.00    -0.248 NA
ATOM     51  C   UNL     1     -14.018  -1.429   0.906  1.00  0.00     0.031 C 
ATOM     52  C   UNL     1     -10.255  -4.246  -0.094  1.00  0.00     0.029 A 
ATOM     53  N   UNL     1     -11.404  -4.494   1.756  1.00  0.00    -0.354 N 
ATOM     54  C   UNL     1     -14.006  -1.166   3.164  1.00  0.00     0.074 A 
ATOM     55  C   UNL     1     -14.694  -0.909   1.928  1.00  0.00     0.031 C 
ATOM     56  C   UNL     1     -10.182  -5.556   0.239  1.00  0.00     0.029 A 
ATOM     57  C   UNL     1     -10.989  -5.794   1.415  1.00  0.00     0.049 A 
ATOM     58  H   UNL     1     -11.845  -4.291   2.613  1.00  0.00     0.167 HD
ATOM     59  C   UNL     1     -14.488  -1.336   4.424  1.00  0.00     0.031 A 
ATOM     60  C   UNL     1     -11.277  -6.998   2.000  1.00  0.00     0.031 A 
ATOM     61  C   UNL     1     -13.421  -1.512   5.372  1.00  0.00     0.049 A 
ATOM     62  C   UNL     1     -11.751  -6.732   3.372  1.00  0.00     0.074 A 
ATOM     63  C   UNL     1     -12.346  -0.739   5.764  1.00  0.00     0.029 A 
ATOM     64  N   UNL     1     -13.129  -2.797   5.757  1.00  0.00    -0.354 N 
ATOM     65  N   UNL     1     -10.975  -6.291   4.315  1.00  0.00    -0.248 NA
ATOM     66  C   UNL     1     -13.171  -6.458   3.511  1.00  0.00     0.031 C 
ATOM     67  C   UNL     1     -11.269  -1.658   5.904  1.00  0.00     0.029 A 
ATOM     68  C   UNL     1     -11.768  -2.947   5.723  1.00  0.00     0.049 A 
ATOM     69  H   UNL     1     -13.782  -3.488   6.012  1.00  0.00     0.167 HD
ATOM     70  C   UNL     1     -11.712  -5.270   4.885  1.00  0.00     0.074 A 
ATOM     71  C   UNL     1     -13.069  -5.429   4.353  1.00  0.00     0.031 C 
ATOM     72  C   UNL     1     -11.108  -4.210   5.489  1.00  0.00     0.031 A 
BRANCH  59  73
ATOM     73  C   UNL     1     -15.907  -1.765   4.696  1.00  0.00    -0.014 A 
ATOM     74  C   UNL     1     -16.786  -2.235   3.700  1.00  0.00     0.009 A 
ATOM     75  C   UNL     1     -16.307  -1.962   6.029  1.00  0.00     0.009 A 
ATOM     76  C   UNL     1     -17.992  -2.869   4.007  1.00  0.00     0.001 A 
ATOM     77  C   UNL     1     -17.495  -2.633   6.341  1.00  0.00     0.001 A 
ATOM     78  C   UNL     1     -18.337  -3.086   5.330  1.00  0.00     0.000 A 
ENDBRANCH  59  73
BRANCH  60  79
ATOM     79  C   UNL     1     -11.624  -8.303   1.345  1.00  0.00    -0.014 A 
ATOM     80  C   UNL     1     -12.049  -8.328   0.006  1.00  0.00     0.009 A 
ATOM     81  C   UNL     1     -11.876  -9.462   2.114  1.00  0.00     0.009 A 
ATOM     82  C   UNL     1     -12.775  -9.408  -0.515  1.00  0.00     0.001 A 
ATOM     83  C   UNL     1     -12.604 -10.547   1.591  1.00  0.00     0.001 A 
ATOM     84  C   UNL     1     -13.079 -10.505   0.284  1.00  0.00     0.000 A 
ENDBRANCH  60  79
BRANCH  72  85
ATOM     85  C   UNL     1      -9.625  -4.251   5.769  1.00  0.00    -0.014 A 
ATOM     86  C   UNL     1      -9.224  -3.899   7.069  1.00  0.00     0.009 A 
ATOM     87  C   UNL     1      -8.630  -4.415   4.789  1.00  0.00     0.009 A 
ATOM     88  C   UNL     1      -7.884  -3.674   7.378  1.00  0.00     0.001 A 
ATOM     89  C   UNL     1      -7.279  -4.217   5.109  1.00  0.00     0.001 A 
ATOM     90  C   UNL     1      -6.911  -3.831   6.398  1.00  0.00     0.000 A 
ENDBRANCH  72  85
ENDBRANCH  46  47
ENDBRANCH  39  41
ENDBRANCH  38  39
ENDBRANCH  37  38
ENDBRANCH  36  37
ENDBRANCH  35  36
ENDBRANCH  34  35
ENDBRANCH  33  34
ENDBRANCH  32  33
ENDBRANCH   1  32
TORSDOF 25
