REMARK SMILES CC(C)[NH2+][C@@]1(C(=O)OCCOCCOCCOCCOC(=O)c2ccc(-c3c4nc(c(-c5ccccc5)c5ccc([nH]5)c(-c5ccccc5)c5nc(c(-c6ccccc6)c6ccc3[nH]6)C=C5)C=C4)cc2)CCC[C@H](SC2CCCCC2)C1
REMARK SMILES IDX 14 1 13 2 12 3 11 4 10 5 9 6 8 7 6 8 7 9 5 10 71 11 82 12
REMARK SMILES IDX 72 13 74 14 73 15 4 16 2 19 1 20 3 21 75 22 76 23 77 24
REMARK SMILES IDX 81 25 78 26 80 27 79 28 15 29 16 30 17 31 18 32 19 33 20 34
REMARK SMILES IDX 21 35 22 36 23 37 24 38 70 39 25 40 69 41 26 42 27 43 28 44
REMARK SMILES IDX 63 45 29 46 68 47 62 48 64 49 30 50 67 51 61 52 60 53 31 55
REMARK SMILES IDX 53 56 38 57 52 58 39 59 42 60 51 61 65 62 40 63 41 64 50 66
REMARK SMILES IDX 66 67 43 68 32 69 33 70 37 71 34 72 36 73 35 74 54 75 55 76
REMARK SMILES IDX 59 77 56 78 58 79 57 80 44 81 45 82 49 83 46 84 48 85 47 86
REMARK H PARENT 4 17 4 18 64 54 42 65
REMARK Flexibility Score: inf
ROOT
ATOM      1  O   UNL     1      -4.040   3.381   1.860  1.00  0.00    -0.377 OA
ENDROOT
BRANCH   1   2
ATOM      2  C   UNL     1      -3.893   2.419   0.822  1.00  0.00     0.188 C 
BRANCH   2   3
ATOM      3  C   UNL     1      -4.714   1.116   0.821  1.00  0.00     0.188 C 
BRANCH   3   4
ATOM      4  O   UNL     1      -5.873   1.170   1.623  1.00  0.00    -0.376 OA
BRANCH   4   5
ATOM      5  C   UNL     1      -5.926   0.404   2.811  1.00  0.00     0.202 C 
BRANCH   5   6
ATOM      6  C   UNL     1      -4.678   0.115   3.659  1.00  0.00     0.261 C 
BRANCH   6   7
ATOM      7  O   UNL     1      -3.477   0.800   3.279  1.00  0.00    -0.459 OA
BRANCH   7   8
ATOM      8  C   UNL     1      -2.349   0.049   3.273  1.00  0.00     0.368 C 
ATOM      9  O   UNL     1      -2.372  -1.181   3.335  1.00  0.00    -0.245 OA
BRANCH   8  10
ATOM     10  C   UNL     1      -1.002   0.865   3.133  1.00  0.00     0.195 C 
ATOM     11  C   UNL     1      -0.083   0.267   4.231  1.00  0.00     0.081 C 
ATOM     12  C   UNL     1      -1.075   2.418   3.294  1.00  0.00     0.095 C 
ATOM     13  C   UNL     1      -0.446   0.781   5.625  1.00  0.00     0.008 C 
ATOM     14  C   UNL     1      -1.256   3.010   4.716  1.00  0.00     0.053 C 
ATOM     15  C   UNL     1      -0.297   2.297   5.669  1.00  0.00     0.015 C 
BRANCH  10  16
ATOM     16  N   UNL     1      -0.566   0.560   1.737  1.00  0.00    -0.330 N 
ATOM     17  H   UNL     1      -1.034  -0.308   1.475  1.00  0.00     0.347 HD
ATOM     18  H   UNL     1      -0.805   1.421   1.246  1.00  0.00     0.347 HD
BRANCH  16  19
ATOM     19  C   UNL     1       0.838   0.388   1.383  1.00  0.00     0.176 C 
ATOM     20  C   UNL     1       0.862  -0.242  -0.017  1.00  0.00     0.075 C 
ATOM     21  C   UNL     1       1.624   1.698   1.347  1.00  0.00     0.075 C 
ENDBRANCH  16  19
ENDBRANCH  10  16
BRANCH  14  22
ATOM     22  S   UNL     1      -3.033   2.941   5.177  1.00  0.00    -0.155 SA
BRANCH  22  23
ATOM     23  C   UNL     1      -3.295   4.116   6.539  1.00  0.00     0.047 C 
ATOM     24  C   UNL     1      -2.824   3.520   7.862  1.00  0.00     0.014 C 
ATOM     25  C   UNL     1      -2.802   5.543   6.296  1.00  0.00     0.014 C 
ATOM     26  C   UNL     1      -3.156   4.433   9.034  1.00  0.00     0.001 C 
ATOM     27  C   UNL     1      -3.132   6.434   7.498  1.00  0.00     0.001 C 
ATOM     28  C   UNL     1      -2.603   5.835   8.800  1.00  0.00     0.000 C 
ENDBRANCH  22  23
ENDBRANCH  14  22
ENDBRANCH   8  10
ENDBRANCH   7   8
ENDBRANCH   6   7
ENDBRANCH   5   6
ENDBRANCH   4   5
ENDBRANCH   3   4
ENDBRANCH   2   3
ENDBRANCH   1   2
BRANCH   1  29
ATOM     29  C   UNL     1      -5.338   3.767   2.296  1.00  0.00     0.188 C 
BRANCH  29  30
ATOM     30  C   UNL     1      -6.445   3.957   1.243  1.00  0.00     0.188 C 
BRANCH  30  31
ATOM     31  O   UNL     1      -5.983   3.941  -0.098  1.00  0.00    -0.376 OA
BRANCH  31  32
ATOM     32  C   UNL     1      -5.695   5.197  -0.697  1.00  0.00     0.202 C 
BRANCH  32  33
ATOM     33  C   UNL     1      -4.660   6.097  -0.001  1.00  0.00     0.261 C 
BRANCH  33  34
ATOM     34  O   UNL     1      -5.019   6.575   1.310  1.00  0.00    -0.460 OA
BRANCH  34  35
ATOM     35  C   UNL     1      -6.152   7.287   1.428  1.00  0.00     0.338 C 
ATOM     36  O   UNL     1      -6.913   7.635   0.529  1.00  0.00    -0.246 OA
BRANCH  35  37
ATOM     37  C   UNL     1      -6.445   7.471   2.858  1.00  0.00     0.060 A 
ATOM     38  C   UNL     1      -7.625   6.929   3.380  1.00  0.00     0.016 A 
ATOM     39  C   UNL     1      -5.593   8.229   3.667  1.00  0.00     0.016 A 
ATOM     40  C   UNL     1      -7.986   7.194   4.699  1.00  0.00     0.010 A 
ATOM     41  C   UNL     1      -5.964   8.505   4.987  1.00  0.00     0.010 A 
ATOM     42  C   UNL     1      -7.186   8.027   5.494  1.00  0.00    -0.014 A 
BRANCH  42  43
ATOM     43  C   UNL     1      -7.743   8.548   6.767  1.00  0.00     0.031 A 
ATOM     44  C   UNL     1      -8.380   9.914   6.769  1.00  0.00     0.074 A 
ATOM     45  C   UNL     1      -7.773   7.790   7.878  1.00  0.00     0.049 A 
ATOM     46  N   UNL     1      -8.999  10.541   7.738  1.00  0.00    -0.248 NA
ATOM     47  C   UNL     1      -8.321  10.670   5.506  1.00  0.00     0.031 C 
ATOM     48  C   UNL     1      -7.241   6.434   7.995  1.00  0.00     0.029 A 
ATOM     49  N   UNL     1      -8.293   8.057   9.120  1.00  0.00    -0.354 N 
ATOM     50  C   UNL     1      -9.420  11.749   7.196  1.00  0.00     0.074 A 
ATOM     51  C   UNL     1      -8.943  11.793   5.832  1.00  0.00     0.031 C 
ATOM     52  C   UNL     1      -7.461   5.986   9.245  1.00  0.00     0.029 A 
ATOM     53  C   UNL     1      -8.135   7.029  10.017  1.00  0.00     0.049 A 
ATOM     54  H   UNL     1      -8.736   8.906   9.347  1.00  0.00     0.167 HD
ATOM     55  C   UNL     1     -10.158  12.729   7.771  1.00  0.00     0.031 A 
ATOM     56  C   UNL     1      -8.491   6.942  11.313  1.00  0.00     0.031 A 
ATOM     57  C   UNL     1     -10.614  12.707   9.134  1.00  0.00     0.049 A 
ATOM     58  C   UNL     1      -9.227   8.090  11.957  1.00  0.00     0.074 A 
ATOM     59  C   UNL     1     -11.345  13.664   9.816  1.00  0.00     0.029 A 
ATOM     60  N   UNL     1     -10.381  11.672  10.025  1.00  0.00    -0.354 N 
ATOM     61  N   UNL     1      -9.634   9.218  11.426  1.00  0.00    -0.248 NA
ATOM     62  C   UNL     1      -9.570   7.939  13.380  1.00  0.00     0.031 C 
ATOM     63  C   UNL     1     -11.514  13.229  11.135  1.00  0.00     0.029 A 
ATOM     64  C   UNL     1     -10.940  11.974  11.256  1.00  0.00     0.049 A 
ATOM     65  H   UNL     1      -9.891  10.844   9.815  1.00  0.00     0.167 HD
ATOM     66  C   UNL     1     -10.308   9.893  12.438  1.00  0.00     0.074 A 
ATOM     67  C   UNL     1     -10.275   9.037  13.606  1.00  0.00     0.031 C 
ATOM     68  C   UNL     1     -10.900  11.112  12.407  1.00  0.00     0.031 A 
BRANCH  55  69
ATOM     69  C   UNL     1     -10.505  13.920   6.923  1.00  0.00    -0.014 A 
ATOM     70  C   UNL     1     -11.452  13.820   5.890  1.00  0.00     0.009 A 
ATOM     71  C   UNL     1      -9.913  15.165   7.183  1.00  0.00     0.009 A 
ATOM     72  C   UNL     1     -11.779  14.938   5.119  1.00  0.00     0.001 A 
ATOM     73  C   UNL     1     -10.262  16.287   6.428  1.00  0.00     0.001 A 
ATOM     74  C   UNL     1     -11.188  16.171   5.393  1.00  0.00     0.000 A 
ENDBRANCH  55  69
BRANCH  56  75
ATOM     75  C   UNL     1      -8.146   5.735  12.112  1.00  0.00    -0.014 A 
ATOM     76  C   UNL     1      -9.147   4.888  12.613  1.00  0.00     0.009 A 
ATOM     77  C   UNL     1      -6.806   5.460  12.430  1.00  0.00     0.009 A 
ATOM     78  C   UNL     1      -8.817   3.820  13.452  1.00  0.00     0.001 A 
ATOM     79  C   UNL     1      -6.477   4.372  13.241  1.00  0.00     0.001 A 
ATOM     80  C   UNL     1      -7.483   3.562  13.764  1.00  0.00     0.000 A 
ENDBRANCH  56  75
BRANCH  68  81
ATOM     81  C   UNL     1     -11.596  11.570  13.660  1.00  0.00    -0.014 A 
ATOM     82  C   UNL     1     -10.874  11.925  14.811  1.00  0.00     0.009 A 
ATOM     83  C   UNL     1     -12.997  11.662  13.682  1.00  0.00     0.009 A 
ATOM     84  C   UNL     1     -11.544  12.314  15.973  1.00  0.00     0.001 A 
ATOM     85  C   UNL     1     -13.662  12.084  14.835  1.00  0.00     0.001 A 
ATOM     86  C   UNL     1     -12.936  12.396  15.983  1.00  0.00     0.000 A 
ENDBRANCH  68  81
ENDBRANCH  42  43
ENDBRANCH  35  37
ENDBRANCH  34  35
ENDBRANCH  33  34
ENDBRANCH  32  33
ENDBRANCH  31  32
ENDBRANCH  30  31
ENDBRANCH  29  30
ENDBRANCH   1  29
TORSDOF 24
