REMARK SMILES COc1c[nH]c(C[N@H+]2CCC[C@@H](c3ccc(C(=O)OCCOCCOCCOCCOC(=O)c4ccc(-c5c6nc(c(-c7ccccc7)c7ccc([nH]7)c(-c7ccccc7)c7nc(c(-c8ccccc8)c8ccc5[nH]8)C=C7)C=C6)cc4)cc3)C2)cc1=O
REMARK SMILES IDX 24 1 23 2 22 3 21 4 20 5 19 6 17 7 18 8 16 9 13 10 14 11
REMARK SMILES IDX 83 12 15 13 82 14 12 15 8 16 9 17 84 18 10 20 11 21 7 22
REMARK SMILES IDX 6 23 3 24 4 25 86 26 5 27 85 28 87 29 2 31 1 32 25 33 26 34
REMARK SMILES IDX 27 35 28 36 29 37 30 38 31 39 32 40 33 41 34 42 35 43 81 44
REMARK SMILES IDX 36 45 80 46 37 47 38 48 39 49 74 50 40 51 79 52 73 53 75 54
REMARK SMILES IDX 41 55 78 56 72 57 71 58 42 60 64 61 49 62 63 63 50 64 53 65
REMARK SMILES IDX 62 66 76 67 51 68 52 69 61 71 77 72 54 73 43 74 44 75 48 76
REMARK SMILES IDX 45 77 47 78 46 79 65 80 66 81 70 82 67 83 69 84 68 85 55 86
REMARK SMILES IDX 56 87 60 88 57 89 59 90 58 91
REMARK H PARENT 8 19 5 30 75 59 53 70
REMARK Flexibility Score: inf
ROOT
ATOM      1  C   UNL     1      -5.920   7.762   5.052  1.00  0.00     0.188 C 
ENDROOT
BRANCH   1   2
ATOM      2  C   UNL     1      -6.595   6.894   3.968  1.00  0.00     0.188 C 
BRANCH   2   3
ATOM      3  O   UNL     1      -8.009   6.879   4.050  1.00  0.00    -0.376 OA
BRANCH   3   4
ATOM      4  C   UNL     1      -8.665   5.708   4.498  1.00  0.00     0.202 C 
BRANCH   4   5
ATOM      5  C   UNL     1      -8.339   5.141   5.889  1.00  0.00     0.261 C 
BRANCH   5   6
ATOM      6  O   UNL     1      -6.960   5.153   6.270  1.00  0.00    -0.460 OA
BRANCH   6   7
ATOM      7  C   UNL     1      -6.168   4.216   5.708  1.00  0.00     0.338 C 
ATOM      8  O   UNL     1      -6.512   3.336   4.939  1.00  0.00    -0.246 OA
BRANCH   7   9
ATOM      9  C   UNL     1      -4.760   4.570   5.996  1.00  0.00     0.060 A 
ATOM     10  C   UNL     1      -2.054   5.148   6.451  1.00  0.00    -0.039 A 
ATOM     11  C   UNL     1      -2.520   4.878   5.151  1.00  0.00     0.005 A 
ATOM     12  C   UNL     1      -2.984   5.238   7.498  1.00  0.00     0.005 A 
ATOM     13  C   UNL     1      -3.856   4.553   4.932  1.00  0.00     0.016 A 
ATOM     14  C   UNL     1      -4.337   4.964   7.270  1.00  0.00     0.016 A 
BRANCH  10  15
ATOM     15  C   UNL     1      -0.559   5.102   6.759  1.00  0.00     0.074 C 
ATOM     16  N   UNL     1       1.346   3.424   6.554  1.00  0.00    -0.329 N 
ATOM     17  C   UNL     1       2.132   4.406   5.797  1.00  0.00     0.262 C 
ATOM     18  C   UNL     1      -0.088   3.671   6.414  1.00  0.00     0.270 C 
ATOM     19  H   UNL     1       1.589   3.545   7.538  1.00  0.00     0.348 HD
ATOM     20  C   UNL     1       1.774   5.843   6.199  1.00  0.00     0.062 C 
ATOM     21  C   UNL     1       0.284   6.135   6.003  1.00  0.00     0.020 C 
BRANCH  16  22
ATOM     22  C   UNL     1       1.698   2.024   6.209  1.00  0.00     0.317 C 
BRANCH  22  23
ATOM     23  C   UNL     1       1.486   1.587   4.758  1.00  0.00     0.074 A 
ATOM     24  C   UNL     1       0.859   1.084   2.012  1.00  0.00     0.182 A 
ATOM     25  C   UNL     1      -0.079   1.274   2.949  1.00  0.00     0.133 A 
ATOM     26  C   UNL     1       2.283   1.034   2.502  1.00  0.00     0.223 A 
ATOM     27  N   UNL     1       0.196   1.433   4.280  1.00  0.00    -0.357 N 
ATOM     28  C   UNL     1       2.530   1.359   3.939  1.00  0.00     0.083 A 
ATOM     29  O   UNL     1       3.234   0.769   1.774  1.00  0.00    -0.286 OA
ATOM     30  H   UNL     1      -0.551   1.438   4.921  1.00  0.00     0.166 HD
BRANCH  24  31
ATOM     31  O   UNL     1       0.516   1.033   0.675  1.00  0.00    -0.491 OA
ATOM     32  C   UNL     1       1.002  -0.130   0.016  1.00  0.00     0.278 C 
ENDBRANCH  24  31
ENDBRANCH  22  23
ENDBRANCH  16  22
ENDBRANCH  10  15
ENDBRANCH   7   9
ENDBRANCH   6   7
ENDBRANCH   5   6
ENDBRANCH   4   5
ENDBRANCH   3   4
ENDBRANCH   2   3
ENDBRANCH   1   2
BRANCH   1  33
ATOM     33  O   UNL     1      -6.706   8.208   6.149  1.00  0.00    -0.377 OA
BRANCH  33  34
ATOM     34  C   UNL     1      -7.949   8.866   5.912  1.00  0.00     0.188 C 
BRANCH  34  35
ATOM     35  C   UNL     1      -8.279   9.546   4.560  1.00  0.00     0.188 C 
BRANCH  35  36
ATOM     36  O   UNL     1      -7.185   9.662   3.667  1.00  0.00    -0.376 OA
BRANCH  36  37
ATOM     37  C   UNL     1      -6.627  10.948   3.470  1.00  0.00     0.202 C 
BRANCH  37  38
ATOM     38  C   UNL     1      -5.979  11.616   4.691  1.00  0.00     0.261 C 
BRANCH  38  39
ATOM     39  O   UNL     1      -6.803  11.720   5.863  1.00  0.00    -0.460 OA
BRANCH  39  40
ATOM     40  C   UNL     1      -7.879  12.530   5.790  1.00  0.00     0.338 C 
ATOM     41  O   UNL     1      -8.235  13.202   4.834  1.00  0.00    -0.246 OA
BRANCH  40  42
ATOM     42  C   UNL     1      -8.681  12.327   7.013  1.00  0.00     0.060 A 
ATOM     43  C   UNL     1      -9.991  11.846   6.896  1.00  0.00     0.016 A 
ATOM     44  C   UNL     1      -8.137  12.600   8.271  1.00  0.00     0.016 A 
ATOM     45  C   UNL     1     -10.774  11.669   8.037  1.00  0.00     0.010 A 
ATOM     46  C   UNL     1      -8.929  12.440   9.412  1.00  0.00     0.010 A 
ATOM     47  C   UNL     1     -10.261  12.005   9.297  1.00  0.00    -0.014 A 
BRANCH  47  48
ATOM     48  C   UNL     1     -11.173  12.056  10.465  1.00  0.00     0.031 A 
ATOM     49  C   UNL     1     -11.719  13.388  10.901  1.00  0.00     0.074 A 
ATOM     50  C   UNL     1     -11.546  10.933  11.105  1.00  0.00     0.049 A 
ATOM     51  N   UNL     1     -12.541  13.670  11.880  1.00  0.00    -0.248 NA
ATOM     52  C   UNL     1     -11.279  14.560  10.127  1.00  0.00     0.031 C 
ATOM     53  C   UNL     1     -11.120   9.579  10.759  1.00  0.00     0.029 A 
ATOM     54  N   UNL     1     -12.376  10.761  12.185  1.00  0.00    -0.354 N 
ATOM     55  C   UNL     1     -12.712  15.048  11.842  1.00  0.00     0.074 A 
ATOM     56  C   UNL     1     -11.882  15.550  10.768  1.00  0.00     0.031 C 
ATOM     57  C   UNL     1     -11.695   8.711  11.611  1.00  0.00     0.029 A 
ATOM     58  C   UNL     1     -12.500   9.452  12.580  1.00  0.00     0.049 A 
ATOM     59  H   UNL     1     -12.838  11.505  12.634  1.00  0.00     0.167 HD
ATOM     60  C   UNL     1     -13.494  15.828  12.626  1.00  0.00     0.031 A 
ATOM     61  C   UNL     1     -13.175   8.914  13.615  1.00  0.00     0.031 A 
ATOM     62  C   UNL     1     -14.302  15.334  13.710  1.00  0.00     0.049 A 
ATOM     63  C   UNL     1     -13.976   9.813  14.522  1.00  0.00     0.074 A 
ATOM     64  C   UNL     1     -15.140  16.042  14.553  1.00  0.00     0.029 A 
ATOM     65  N   UNL     1     -14.364  14.007  14.108  1.00  0.00    -0.354 N 
ATOM     66  N   UNL     1     -14.157  11.110  14.456  1.00  0.00    -0.248 NA
ATOM     67  C   UNL     1     -14.678   9.165  15.639  1.00  0.00     0.031 C 
ATOM     68  C   UNL     1     -15.654  15.155  15.505  1.00  0.00     0.029 A 
ATOM     69  C   UNL     1     -15.199  13.881  15.206  1.00  0.00     0.049 A 
ATOM     70  H   UNL     1     -13.884  13.264  13.675  1.00  0.00     0.167 HD
ATOM     71  C   UNL     1     -15.018  11.428  15.500  1.00  0.00     0.074 A 
ATOM     72  C   UNL     1     -15.338  10.184  16.169  1.00  0.00     0.031 C 
ATOM     73  C   UNL     1     -15.503  12.639  15.870  1.00  0.00     0.031 A 
BRANCH  60  74
ATOM     74  C   UNL     1     -13.477  17.310  12.364  1.00  0.00    -0.014 A 
ATOM     75  C   UNL     1     -14.042  17.857  11.200  1.00  0.00     0.009 A 
ATOM     76  C   UNL     1     -12.911  18.175  13.313  1.00  0.00     0.009 A 
ATOM     77  C   UNL     1     -14.005  19.236  10.976  1.00  0.00     0.001 A 
ATOM     78  C   UNL     1     -12.905  19.555  13.102  1.00  0.00     0.001 A 
ATOM     79  C   UNL     1     -13.443  20.083  11.930  1.00  0.00     0.000 A 
ENDBRANCH  60  74
BRANCH  61  80
ATOM     80  C   UNL     1     -13.116   7.449  13.865  1.00  0.00    -0.014 A 
ATOM     81  C   UNL     1     -14.256   6.645  13.712  1.00  0.00     0.009 A 
ATOM     82  C   UNL     1     -11.918   6.850  14.288  1.00  0.00     0.009 A 
ATOM     83  C   UNL     1     -14.205   5.279  14.004  1.00  0.00     0.001 A 
ATOM     84  C   UNL     1     -11.861   5.479  14.546  1.00  0.00     0.001 A 
ATOM     85  C   UNL     1     -13.007   4.697  14.415  1.00  0.00     0.000 A 
ENDBRANCH  61  80
BRANCH  73  86
ATOM     86  C   UNL     1     -16.468  12.670  17.026  1.00  0.00    -0.014 A 
ATOM     87  C   UNL     1     -16.057  12.385  18.338  1.00  0.00     0.009 A 
ATOM     88  C   UNL     1     -17.812  13.008  16.798  1.00  0.00     0.009 A 
ATOM     89  C   UNL     1     -16.981  12.386  19.386  1.00  0.00     0.001 A 
ATOM     90  C   UNL     1     -18.726  13.046  17.852  1.00  0.00     0.001 A 
ATOM     91  C   UNL     1     -18.313  12.720  19.142  1.00  0.00     0.000 A 
ENDBRANCH  73  86
ENDBRANCH  47  48
ENDBRANCH  40  42
ENDBRANCH  39  40
ENDBRANCH  38  39
ENDBRANCH  37  38
ENDBRANCH  36  37
ENDBRANCH  35  36
ENDBRANCH  34  35
ENDBRANCH  33  34
ENDBRANCH   1  33
TORSDOF 24
