REMARK SMILES Cc1csc(C[N@H+]2CCC[C@@H](CC(=O)OCCOCCOCCOCCOC(=O)c3ccc(-c4c5nc(c(-c6ccccc6)c6ccc([nH]6)c(-c6ccccc6)c6nc(c(-c7ccccc7)c7ccc4[nH]7)C=C6)C=C5)cc3)C2)n1
REMARK SMILES IDX 20 1 19 2 18 3 17 4 16 5 15 6 13 7 14 8 12 9 11 10 7 11 8 12
REMARK SMILES IDX 78 13 9 15 10 16 6 17 5 18 1 19 2 20 3 21 79 22 4 23 21 24
REMARK SMILES IDX 22 25 23 26 24 27 25 28 26 29 27 30 28 31 29 32 30 33 31 34
REMARK SMILES IDX 77 35 32 36 76 37 33 38 34 39 35 40 70 41 36 42 75 43 69 44
REMARK SMILES IDX 71 45 37 46 74 47 68 48 67 49 38 51 60 52 45 53 59 54 46 55
REMARK SMILES IDX 49 56 58 57 72 58 47 59 48 60 57 62 73 63 50 64 39 65 40 66
REMARK SMILES IDX 44 67 41 68 43 69 42 70 61 71 62 72 66 73 63 74 65 75 64 76
REMARK SMILES IDX 51 77 52 78 56 79 53 80 55 81 54 82
REMARK H PARENT 7 14 71 50 49 61
REMARK Flexibility Score: inf
ROOT
ATOM      1  C   UNL     1      -2.729   1.143  -3.147  1.00  0.00     0.188 C 
ENDROOT
BRANCH   1   2
ATOM      2  C   UNL     1      -4.164   1.665  -3.247  1.00  0.00     0.188 C 
BRANCH   2   3
ATOM      3  O   UNL     1      -4.807   1.536  -4.508  1.00  0.00    -0.376 OA
BRANCH   3   4
ATOM      4  C   UNL     1      -4.380   2.386  -5.570  1.00  0.00     0.202 C 
BRANCH   4   5
ATOM      5  C   UNL     1      -4.156   3.880  -5.277  1.00  0.00     0.261 C 
BRANCH   5   6
ATOM      6  O   UNL     1      -3.081   4.127  -4.342  1.00  0.00    -0.463 OA
BRANCH   6   7
ATOM      7  C   UNL     1      -3.269   5.155  -3.479  1.00  0.00     0.306 C 
ATOM      8  O   UNL     1      -4.239   5.909  -3.529  1.00  0.00    -0.252 OA
BRANCH   7   9
ATOM      9  C   UNL     1      -2.320   5.194  -2.290  1.00  0.00     0.132 C 
BRANCH   9  10
ATOM     10  C   UNL     1      -0.791   4.932  -2.315  1.00  0.00     0.055 C 
ATOM     11  N   UNL     1       0.959   3.539  -1.141  1.00  0.00    -0.329 N 
ATOM     12  C   UNL     1       1.382   2.960  -2.414  1.00  0.00     0.262 C 
ATOM     13  C   UNL     1      -0.458   3.910  -1.199  1.00  0.00     0.266 C 
ATOM     14  H   UNL     1       1.505   4.387  -0.989  1.00  0.00     0.348 HD
ATOM     15  C   UNL     1       1.267   4.008  -3.521  1.00  0.00     0.062 C 
ATOM     16  C   UNL     1      -0.148   4.582  -3.660  1.00  0.00     0.016 C 
BRANCH  11  17
ATOM     17  C   UNL     1       1.262   2.659   0.016  1.00  0.00     0.331 C 
BRANCH  17  18
ATOM     18  C   UNL     1       0.555   1.317   0.074  1.00  0.00     0.147 A 
ATOM     19  C   UNL     1      -2.507  -0.581   0.253  1.00  0.00     0.067 C 
ATOM     20  C   UNL     1      -1.074  -0.196   0.201  1.00  0.00     0.049 A 
ATOM     21  C   UNL     1       0.013  -1.046   0.177  1.00  0.00     0.090 A 
ATOM     22  N   UNL     1      -0.751   1.150   0.168  1.00  0.00    -0.240 NA
ATOM     23  S   UNL     1       1.468  -0.145   0.080  1.00  0.00    -0.121 S 
ENDBRANCH  17  18
ENDBRANCH  11  17
ENDBRANCH   9  10
ENDBRANCH   7   9
ENDBRANCH   6   7
ENDBRANCH   5   6
ENDBRANCH   4   5
ENDBRANCH   3   4
ENDBRANCH   2   3
ENDBRANCH   1   2
BRANCH   1  24
ATOM     24  O   UNL     1      -1.783   1.812  -3.959  1.00  0.00    -0.377 OA
BRANCH  24  25
ATOM     25  C   UNL     1      -1.243   1.188  -5.118  1.00  0.00     0.188 C 
BRANCH  25  26
ATOM     26  C   UNL     1      -1.512  -0.301  -5.343  1.00  0.00     0.188 C 
BRANCH  26  27
ATOM     27  O   UNL     1      -1.009  -1.232  -4.382  1.00  0.00    -0.376 OA
BRANCH  27  28
ATOM     28  C   UNL     1       0.071  -0.837  -3.544  1.00  0.00     0.202 C 
BRANCH  28  29
ATOM     29  C   UNL     1       1.469  -1.024  -4.132  1.00  0.00     0.261 C 
BRANCH  29  30
ATOM     30  O   UNL     1       1.708  -0.182  -5.270  1.00  0.00    -0.460 OA
BRANCH  30  31
ATOM     31  C   UNL     1       1.527  -0.776  -6.470  1.00  0.00     0.338 C 
ATOM     32  O   UNL     1       1.206  -1.936  -6.690  1.00  0.00    -0.246 OA
BRANCH  31  33
ATOM     33  C   UNL     1       1.646   0.233  -7.532  1.00  0.00     0.060 A 
ATOM     34  C   UNL     1       0.627   0.318  -8.489  1.00  0.00     0.016 A 
ATOM     35  C   UNL     1       2.784   1.036  -7.626  1.00  0.00     0.016 A 
ATOM     36  C   UNL     1       0.755   1.191  -9.566  1.00  0.00     0.010 A 
ATOM     37  C   UNL     1       2.919   1.898  -8.713  1.00  0.00     0.010 A 
ATOM     38  C   UNL     1       1.919   1.957  -9.700  1.00  0.00    -0.014 A 
BRANCH  38  39
ATOM     39  C   UNL     1       2.170   2.723 -10.938  1.00  0.00     0.031 A 
ATOM     40  C   UNL     1       3.085   2.138 -11.974  1.00  0.00     0.074 A 
ATOM     41  C   UNL     1       1.611   3.932 -11.116  1.00  0.00     0.049 A 
ATOM     42  N   UNL     1       3.556   2.683 -13.065  1.00  0.00    -0.248 NA
ATOM     43  C   UNL     1       3.537   0.755 -11.744  1.00  0.00     0.031 C 
ATOM     44  C   UNL     1       0.666   4.569 -10.201  1.00  0.00     0.029 A 
ATOM     45  N   UNL     1       1.782   4.848 -12.121  1.00  0.00    -0.354 N 
ATOM     46  C   UNL     1       4.372   1.718 -13.643  1.00  0.00     0.074 A 
ATOM     47  C   UNL     1       4.349   0.563 -12.773  1.00  0.00     0.031 C 
ATOM     48  C   UNL     1       0.356   5.787 -10.677  1.00  0.00     0.029 A 
ATOM     49  C   UNL     1       1.119   6.029 -11.899  1.00  0.00     0.049 A 
ATOM     50  H   UNL     1       2.326   4.675 -12.923  1.00  0.00     0.167 HD
ATOM     51  C   UNL     1       5.079   1.795 -14.794  1.00  0.00     0.031 A 
ATOM     52  C   UNL     1       1.161   7.188 -12.584  1.00  0.00     0.031 A 
ATOM     53  C   UNL     1       5.109   2.959 -15.639  1.00  0.00     0.049 A 
ATOM     54  C   UNL     1       2.039   7.284 -13.804  1.00  0.00     0.074 A 
ATOM     55  C   UNL     1       5.775   3.136 -16.838  1.00  0.00     0.029 A 
ATOM     56  N   UNL     1       4.453   4.149 -15.362  1.00  0.00    -0.354 N 
ATOM     57  N   UNL     1       2.783   6.359 -14.362  1.00  0.00    -0.248 NA
ATOM     58  C   UNL     1       2.087   8.585 -14.485  1.00  0.00     0.031 C 
ATOM     59  C   UNL     1       5.580   4.458 -17.250  1.00  0.00     0.029 A 
ATOM     60  C   UNL     1       4.736   5.081 -16.345  1.00  0.00     0.049 A 
ATOM     61  H   UNL     1       3.873   4.307 -14.583  1.00  0.00     0.167 HD
ATOM     62  C   UNL     1       3.369   6.959 -15.470  1.00  0.00     0.074 A 
ATOM     63  C   UNL     1       2.878   8.321 -15.516  1.00  0.00     0.031 C 
ATOM     64  C   UNL     1       4.239   6.433 -16.367  1.00  0.00     0.031 A 
BRANCH  51  65
ATOM     65  C   UNL     1       5.915   0.607 -15.180  1.00  0.00    -0.014 A 
ATOM     66  C   UNL     1       5.330  -0.598 -15.601  1.00  0.00     0.009 A 
ATOM     67  C   UNL     1       7.316   0.707 -15.153  1.00  0.00     0.009 A 
ATOM     68  C   UNL     1       6.130  -1.686 -15.957  1.00  0.00     0.001 A 
ATOM     69  C   UNL     1       8.113  -0.372 -15.539  1.00  0.00     0.001 A 
ATOM     70  C   UNL     1       7.520  -1.571 -15.931  1.00  0.00     0.000 A 
ENDBRANCH  51  65
BRANCH  52  71
ATOM     71  C   UNL     1       0.388   8.365 -12.107  1.00  0.00    -0.014 A 
ATOM     72  C   UNL     1      -0.689   8.864 -12.853  1.00  0.00     0.009 A 
ATOM     73  C   UNL     1       0.733   9.005 -10.905  1.00  0.00     0.009 A 
ATOM     74  C   UNL     1      -1.388   9.993 -12.419  1.00  0.00     0.001 A 
ATOM     75  C   UNL     1       0.012  10.113 -10.457  1.00  0.00     0.001 A 
ATOM     76  C   UNL     1      -1.042  10.613 -11.219  1.00  0.00     0.000 A 
ENDBRANCH  52  71
BRANCH  64  77
ATOM     77  C   UNL     1       4.700   7.324 -17.487  1.00  0.00    -0.014 A 
ATOM     78  C   UNL     1       5.603   8.373 -17.256  1.00  0.00     0.009 A 
ATOM     79  C   UNL     1       4.279   7.064 -18.801  1.00  0.00     0.009 A 
ATOM     80  C   UNL     1       6.056   9.159 -18.317  1.00  0.00     0.001 A 
ATOM     81  C   UNL     1       4.759   7.830 -19.863  1.00  0.00     0.001 A 
ATOM     82  C   UNL     1       5.642   8.882 -19.620  1.00  0.00     0.000 A 
ENDBRANCH  64  77
ENDBRANCH  38  39
ENDBRANCH  31  33
ENDBRANCH  30  31
ENDBRANCH  29  30
ENDBRANCH  28  29
ENDBRANCH  27  28
ENDBRANCH  26  27
ENDBRANCH  25  26
ENDBRANCH  24  25
ENDBRANCH   1  24
TORSDOF 23
