REMARK SMILES CN(c1ccccc1C(=O)OCCOCCOCCOCCOC(=O)c1ccc(-c2c3nc(c(-c4ccccc4)c4ccc([nH]4)c(-c4ccccc4)c4nc(c(-c5ccccc5)c5ccc2[nH]5)C=C4)C=C3)cc1)S(=O)(=O)c1ccc(I)cc1
REMARK SMILES IDX 16 1 15 2 14 3 13 4 12 5 11 6 9 7 10 8 8 9 3 10 4 11 5 12
REMARK SMILES IDX 7 13 6 14 2 15 1 16 74 17 75 18 76 19 77 20 78 21 83 22
REMARK SMILES IDX 79 23 82 24 80 25 81 26 17 27 18 28 19 29 20 30 21 31 22 32
REMARK SMILES IDX 23 33 24 34 25 35 26 36 27 37 73 38 28 39 72 40 29 41 30 42
REMARK SMILES IDX 31 43 66 44 32 45 71 46 65 47 67 48 33 49 70 50 64 51 63 52
REMARK SMILES IDX 34 54 56 55 41 56 55 57 42 58 45 59 54 60 68 61 43 62 44 63
REMARK SMILES IDX 53 65 69 66 46 67 35 68 36 69 40 70 37 71 39 72 38 73 57 74
REMARK SMILES IDX 58 75 62 76 59 77 61 78 60 79 47 80 48 81 52 82 49 83 51 84
REMARK SMILES IDX 50 85
REMARK H PARENT 67 53 45 64
REMARK Flexibility Score: inf
ROOT
ATOM      1  C   UNL     1      -3.187   0.344   0.360  1.00  0.00     0.188 C 
ENDROOT
BRANCH   1   2
ATOM      2  C   UNL     1      -3.486  -0.674  -0.754  1.00  0.00     0.188 C 
BRANCH   2   3
ATOM      3  O   UNL     1      -3.196  -2.023  -0.410  1.00  0.00    -0.376 OA
BRANCH   3   4
ATOM      4  C   UNL     1      -2.152  -2.641  -1.148  1.00  0.00     0.202 C 
BRANCH   4   5
ATOM      5  C   UNL     1      -0.734  -2.158  -0.819  1.00  0.00     0.261 C 
BRANCH   5   6
ATOM      6  O   UNL     1      -0.597  -0.728  -0.771  1.00  0.00    -0.460 OA
BRANCH   6   7
ATOM      7  C   UNL     1      -0.346  -0.105  -1.935  1.00  0.00     0.340 C 
ATOM      8  O   UNL     1      -0.234  -0.637  -3.029  1.00  0.00    -0.246 OA
BRANCH   7   9
ATOM      9  C   UNL     1      -0.410   1.359  -1.751  1.00  0.00     0.084 A 
ATOM     10  C   UNL     1       0.413   2.137  -0.913  1.00  0.00     0.066 A 
ATOM     11  C   UNL     1       0.321   3.533  -1.071  1.00  0.00     0.028 A 
ATOM     12  C   UNL     1      -0.633   4.147  -1.887  1.00  0.00     0.002 A 
ATOM     13  C   UNL     1      -1.356   1.984  -2.601  1.00  0.00     0.018 A 
ATOM     14  C   UNL     1      -1.493   3.369  -2.639  1.00  0.00     0.001 A 
BRANCH  10  15
ATOM     15  N   UNL     1       1.423   1.692   0.034  1.00  0.00    -0.269 N 
ATOM     16  C   UNL     1       2.126   0.409  -0.202  1.00  0.00     0.164 C 
BRANCH  15  17
ATOM     17  S   UNL     1       1.228   1.972   1.732  1.00  0.00     0.264 S 
ATOM     18  O   UNL     1       0.365   0.944   2.272  1.00  0.00    -0.201 OA
ATOM     19  O   UNL     1       2.567   2.124   2.275  1.00  0.00    -0.201 OA
BRANCH  17  20
ATOM     20  C   UNL     1       0.416   3.540   1.977  1.00  0.00     0.088 A 
ATOM     21  C   UNL     1       1.163   4.726   1.945  1.00  0.00     0.023 A 
ATOM     22  C   UNL     1      -0.946   3.573   2.296  1.00  0.00     0.023 A 
ATOM     23  C   UNL     1       0.524   5.954   2.142  1.00  0.00     0.016 A 
ATOM     24  C   UNL     1      -1.576   4.801   2.518  1.00  0.00     0.016 A 
ATOM     25  C   UNL     1      -0.843   5.986   2.423  1.00  0.00     0.013 A 
ATOM     26  I   UNL     1      -1.794   7.814   2.710  1.00  0.00    -0.044 I 
ENDBRANCH  17  20
ENDBRANCH  15  17
ENDBRANCH  10  15
ENDBRANCH   7   9
ENDBRANCH   6   7
ENDBRANCH   5   6
ENDBRANCH   4   5
ENDBRANCH   3   4
ENDBRANCH   2   3
ENDBRANCH   1   2
BRANCH   1  27
ATOM     27  O   UNL     1      -2.401  -0.064   1.463  1.00  0.00    -0.377 OA
BRANCH  27  28
ATOM     28  C   UNL     1      -2.756  -1.224   2.208  1.00  0.00     0.188 C 
BRANCH  28  29
ATOM     29  C   UNL     1      -4.207  -1.750   2.227  1.00  0.00     0.188 C 
BRANCH  29  30
ATOM     30  O   UNL     1      -5.191  -0.813   1.812  1.00  0.00    -0.376 OA
BRANCH  30  31
ATOM     31  C   UNL     1      -5.987  -0.242   2.842  1.00  0.00     0.202 C 
BRANCH  31  32
ATOM     32  C   UNL     1      -5.240   0.751   3.741  1.00  0.00     0.261 C 
BRANCH  32  33
ATOM     33  O   UNL     1      -4.206   0.171   4.552  1.00  0.00    -0.460 OA
BRANCH  33  34
ATOM     34  C   UNL     1      -4.578  -0.789   5.425  1.00  0.00     0.338 C 
ATOM     35  O   UNL     1      -5.705  -1.192   5.651  1.00  0.00    -0.246 OA
BRANCH  34  36
ATOM     36  C   UNL     1      -3.357  -1.414   5.961  1.00  0.00     0.060 A 
ATOM     37  C   UNL     1      -3.176  -2.792   5.799  1.00  0.00     0.016 A 
ATOM     38  C   UNL     1      -2.410  -0.643   6.639  1.00  0.00     0.016 A 
ATOM     39  C   UNL     1      -2.061  -3.414   6.358  1.00  0.00     0.010 A 
ATOM     40  C   UNL     1      -1.302  -1.269   7.212  1.00  0.00     0.010 A 
ATOM     41  C   UNL     1      -1.144  -2.661   7.105  1.00  0.00    -0.014 A 
BRANCH  41  42
ATOM     42  C   UNL     1      -0.127  -3.356   7.926  1.00  0.00     0.031 A 
ATOM     43  C   UNL     1      -0.444  -3.639   9.368  1.00  0.00     0.074 A 
ATOM     44  C   UNL     1       1.044  -3.749   7.399  1.00  0.00     0.049 A 
ATOM     45  N   UNL     1       0.279  -4.250  10.272  1.00  0.00    -0.248 NA
ATOM     46  C   UNL     1      -1.752  -3.172   9.856  1.00  0.00     0.031 C 
ATOM     47  C   UNL     1       1.458  -3.556   6.011  1.00  0.00     0.029 A 
ATOM     48  N   UNL     1       2.102  -4.399   7.982  1.00  0.00    -0.354 N 
ATOM     49  C   UNL     1      -0.487  -4.243  11.431  1.00  0.00     0.074 A 
ATOM     50  C   UNL     1      -1.714  -3.539  11.127  1.00  0.00     0.031 C 
ATOM     51  C   UNL     1       2.687  -4.077   5.849  1.00  0.00     0.029 A 
ATOM     52  C   UNL     1       3.152  -4.617   7.125  1.00  0.00     0.049 A 
ATOM     53  H   UNL     1       2.108  -4.681   8.925  1.00  0.00     0.167 HD
ATOM     54  C   UNL     1      -0.199  -4.780  12.639  1.00  0.00     0.031 A 
ATOM     55  C   UNL     1       4.355  -5.179   7.353  1.00  0.00     0.031 A 
ATOM     56  C   UNL     1       1.030  -5.454  12.954  1.00  0.00     0.049 A 
ATOM     57  C   UNL     1       4.681  -5.702   8.727  1.00  0.00     0.074 A 
ATOM     58  C   UNL     1       1.411  -6.042  14.148  1.00  0.00     0.029 A 
ATOM     59  N   UNL     1       2.086  -5.618  12.071  1.00  0.00    -0.354 N 
ATOM     60  N   UNL     1       3.932  -5.729   9.804  1.00  0.00    -0.248 NA
ATOM     61  C   UNL     1       6.019  -6.282   8.912  1.00  0.00     0.031 C 
ATOM     62  C   UNL     1       2.719  -6.516  14.002  1.00  0.00     0.029 A 
ATOM     63  C   UNL     1       3.130  -6.274  12.701  1.00  0.00     0.049 A 
ATOM     64  H   UNL     1       2.092  -5.313  11.135  1.00  0.00     0.167 HD
ATOM     65  C   UNL     1       4.698  -6.349  10.784  1.00  0.00     0.074 A 
ATOM     66  C   UNL     1       5.961  -6.700  10.168  1.00  0.00     0.031 C 
ATOM     67  C   UNL     1       4.383  -6.608  12.077  1.00  0.00     0.031 A 
BRANCH  54  68
ATOM     68  C   UNL     1      -1.231  -4.625  13.720  1.00  0.00    -0.014 A 
ATOM     69  C   UNL     1      -2.431  -5.353  13.689  1.00  0.00     0.009 A 
ATOM     70  C   UNL     1      -0.993  -3.751  14.791  1.00  0.00     0.009 A 
ATOM     71  C   UNL     1      -3.387  -5.183  14.693  1.00  0.00     0.001 A 
ATOM     72  C   UNL     1      -1.938  -3.603  15.807  1.00  0.00     0.001 A 
ATOM     73  C   UNL     1      -3.137  -4.311  15.753  1.00  0.00     0.000 A 
ENDBRANCH  54  68
BRANCH  55  74
ATOM     74  C   UNL     1       5.354  -5.271   6.257  1.00  0.00    -0.014 A 
ATOM     75  C   UNL     1       5.697  -6.514   5.704  1.00  0.00     0.009 A 
ATOM     76  C   UNL     1       5.994  -4.117   5.781  1.00  0.00     0.009 A 
ATOM     77  C   UNL     1       6.679  -6.602   4.714  1.00  0.00     0.001 A 
ATOM     78  C   UNL     1       6.956  -4.204   4.773  1.00  0.00     0.001 A 
ATOM     79  C   UNL     1       7.305  -5.447   4.247  1.00  0.00     0.000 A 
ENDBRANCH  55  74
BRANCH  67  80
ATOM     80  C   UNL     1       5.412  -7.330  12.902  1.00  0.00    -0.014 A 
ATOM     81  C   UNL     1       6.587  -6.690  13.326  1.00  0.00     0.009 A 
ATOM     82  C   UNL     1       5.186  -8.661  13.286  1.00  0.00     0.009 A 
ATOM     83  C   UNL     1       7.534  -7.382  14.085  1.00  0.00     0.001 A 
ATOM     84  C   UNL     1       6.120  -9.341  14.069  1.00  0.00     0.001 A 
ATOM     85  C   UNL     1       7.298  -8.705  14.459  1.00  0.00     0.000 A 
ENDBRANCH  67  80
ENDBRANCH  41  42
ENDBRANCH  34  36
ENDBRANCH  33  34
ENDBRANCH  32  33
ENDBRANCH  31  32
ENDBRANCH  30  31
ENDBRANCH  29  30
ENDBRANCH  28  29
ENDBRANCH  27  28
ENDBRANCH   1  27
TORSDOF 23
