REMARK SMILES C[NH+]1CCN(C(=O)c2ccc3c(c2)N(CC(=O)OCCOCCOCCOCCOC(=O)c2ccc(-c4c5nc(c(-c6ccccc6)c6ccc([nH]6)c(-c6ccccc6)c6nc(c(-c7ccccc7)c7ccc4[nH]7)C=C6)C=C5)cc2)C(=O)CO3)CC1
REMARK SMILES IDX 24 1 23 2 22 3 21 4 20 5 19 6 18 7 16 8 17 9 15 10 14 11
REMARK SMILES IDX 8 12 9 13 13 14 10 15 12 16 11 17 84 18 81 19 83 20 82 21
REMARK SMILES IDX 6 22 1 23 2 24 3 25 86 26 4 28 85 29 5 30 7 31 25 32 26 33
REMARK SMILES IDX 27 34 28 35 29 36 30 37 31 38 32 39 33 40 34 41 80 42 35 43
REMARK SMILES IDX 79 44 36 45 37 46 38 47 73 48 39 49 78 50 72 51 74 52 40 53
REMARK SMILES IDX 77 54 71 55 70 56 41 58 63 59 48 60 62 61 49 62 52 63 61 64
REMARK SMILES IDX 75 65 50 66 51 67 60 69 76 70 53 71 42 72 43 73 47 74 44 75
REMARK SMILES IDX 46 76 45 77 64 78 65 79 69 80 66 81 68 82 67 83 54 84 55 85
REMARK SMILES IDX 59 86 56 87 58 88 57 89
REMARK H PARENT 2 27 74 57 52 68
REMARK Flexibility Score: inf
ROOT
ATOM      1  O   UNL     1      -1.959  -5.301  -1.000  1.00  0.00    -0.377 OA
ENDROOT
BRANCH   1   2
ATOM      2  C   UNL     1      -2.348  -4.785   0.255  1.00  0.00     0.188 C 
BRANCH   2   3
ATOM      3  C   UNL     1      -1.383  -3.705   0.708  1.00  0.00     0.188 C 
BRANCH   3   4
ATOM      4  O   UNL     1      -0.058  -3.670   0.239  1.00  0.00    -0.376 OA
BRANCH   4   5
ATOM      5  C   UNL     1       0.742  -4.829   0.388  1.00  0.00     0.202 C 
BRANCH   5   6
ATOM      6  C   UNL     1       0.404  -5.912   1.438  1.00  0.00     0.261 C 
BRANCH   6   7
ATOM      7  O   UNL     1      -0.654  -5.587   2.367  1.00  0.00    -0.462 OA
BRANCH   7   8
ATOM      8  C   UNL     1      -0.349  -4.927   3.508  1.00  0.00     0.326 C 
ATOM      9  O   UNL     1       0.793  -4.821   3.943  1.00  0.00    -0.250 OA
BRANCH   8  10
ATOM     10  C   UNL     1      -1.577  -4.261   4.199  1.00  0.00     0.248 C 
BRANCH  10  11
ATOM     11  N   UNL     1      -2.926  -4.217   3.586  1.00  0.00    -0.295 N 
ATOM     12  C   UNL     1      -3.407  -0.740   2.041  1.00  0.00     0.042 A 
ATOM     13  C   UNL     1      -4.729  -0.864   1.601  1.00  0.00     0.018 A 
ATOM     14  C   UNL     1      -2.832  -1.799   2.792  1.00  0.00     0.044 A 
ATOM     15  C   UNL     1      -5.426  -2.052   1.806  1.00  0.00     0.049 A 
ATOM     16  C   UNL     1      -3.519  -3.036   2.988  1.00  0.00     0.087 A 
ATOM     17  C   UNL     1      -4.821  -3.132   2.462  1.00  0.00     0.143 A 
ATOM     18  O   UNL     1      -5.587  -4.261   2.455  1.00  0.00    -0.482 OA
ATOM     19  C   UNL     1      -3.668  -5.395   3.679  1.00  0.00     0.265 C 
ATOM     20  C   UNL     1      -5.136  -5.303   3.285  1.00  0.00     0.330 C 
ATOM     21  O   UNL     1      -3.198  -6.449   4.111  1.00  0.00    -0.270 OA
BRANCH  12  22
ATOM     22  C   UNL     1      -2.751   0.590   1.797  1.00  0.00     0.254 C 
ATOM     23  C   UNL     1       2.532   0.784   0.256  1.00  0.00     0.332 C 
ATOM     24  N   UNL     1       1.097   0.892   0.007  1.00  0.00    -0.334 N 
ATOM     25  C   UNL     1       0.485   2.004   0.778  1.00  0.00     0.283 C 
ATOM     26  C   UNL     1       0.423  -0.383   0.313  1.00  0.00     0.283 C 
ATOM     27  H   UNL     1       0.971   1.102  -0.983  1.00  0.00     0.347 HD
ATOM     28  C   UNL     1      -1.068   2.069   0.703  1.00  0.00     0.181 C 
ATOM     29  C   UNL     1      -1.073  -0.231   0.041  1.00  0.00     0.181 C 
ATOM     30  N   UNL     1      -1.675   0.754   0.921  1.00  0.00    -0.327 N 
ATOM     31  O   UNL     1      -3.275   1.544   2.371  1.00  0.00    -0.269 OA
ENDBRANCH  12  22
ENDBRANCH  10  11
ENDBRANCH   8  10
ENDBRANCH   7   8
ENDBRANCH   6   7
ENDBRANCH   5   6
ENDBRANCH   4   5
ENDBRANCH   3   4
ENDBRANCH   2   3
ENDBRANCH   1   2
BRANCH   1  32
ATOM     32  C   UNL     1      -2.528  -4.594  -2.096  1.00  0.00     0.188 C 
BRANCH  32  33
ATOM     33  C   UNL     1      -1.842  -3.263  -2.463  1.00  0.00     0.188 C 
BRANCH  33  34
ATOM     34  O   UNL     1      -2.624  -2.065  -2.533  1.00  0.00    -0.376 OA
BRANCH  34  35
ATOM     35  C   UNL     1      -3.587  -1.764  -1.534  1.00  0.00     0.202 C 
BRANCH  35  36
ATOM     36  C   UNL     1      -5.002  -1.680  -2.099  1.00  0.00     0.261 C 
BRANCH  36  37
ATOM     37  O   UNL     1      -5.312  -2.874  -2.807  1.00  0.00    -0.460 OA
BRANCH  37  38
ATOM     38  C   UNL     1      -4.864  -2.897  -4.086  1.00  0.00     0.338 C 
ATOM     39  O   UNL     1      -4.452  -1.969  -4.763  1.00  0.00    -0.246 OA
BRANCH  38  40
ATOM     40  C   UNL     1      -4.764  -4.312  -4.464  1.00  0.00     0.060 A 
ATOM     41  C   UNL     1      -3.623  -4.743  -5.157  1.00  0.00     0.016 A 
ATOM     42  C   UNL     1      -5.746  -5.215  -4.043  1.00  0.00     0.016 A 
ATOM     43  C   UNL     1      -3.471  -6.091  -5.448  1.00  0.00     0.010 A 
ATOM     44  C   UNL     1      -5.611  -6.555  -4.358  1.00  0.00     0.010 A 
ATOM     45  C   UNL     1      -4.497  -6.978  -5.099  1.00  0.00    -0.014 A 
BRANCH  45  46
ATOM     46  C   UNL     1      -4.603  -8.257  -5.810  1.00  0.00     0.031 A 
ATOM     47  C   UNL     1      -5.412  -8.239  -7.075  1.00  0.00     0.074 A 
ATOM     48  C   UNL     1      -4.034  -9.370  -5.325  1.00  0.00     0.049 A 
ATOM     49  N   UNL     1      -5.785  -9.230  -7.833  1.00  0.00    -0.248 NA
ATOM     50  C   UNL     1      -5.877  -6.915  -7.539  1.00  0.00     0.031 C 
ATOM     51  C   UNL     1      -3.196  -9.446  -4.129  1.00  0.00     0.029 A 
ATOM     52  N   UNL     1      -4.096 -10.656  -5.783  1.00  0.00    -0.354 N 
ATOM     53  C   UNL     1      -6.526  -8.650  -8.855  1.00  0.00     0.074 A 
ATOM     54  C   UNL     1      -6.588  -7.232  -8.607  1.00  0.00     0.031 C 
ATOM     55  C   UNL     1      -2.831 -10.727  -3.939  1.00  0.00     0.029 A 
ATOM     56  C   UNL     1      -3.448 -11.554  -4.973  1.00  0.00     0.049 A 
ATOM     57  H   UNL     1      -4.559 -10.913  -6.612  1.00  0.00     0.167 HD
ATOM     58  C   UNL     1      -7.098  -9.258  -9.916  1.00  0.00     0.031 A 
ATOM     59  C   UNL     1      -3.400 -12.896  -5.061  1.00  0.00     0.031 A 
ATOM     60  C   UNL     1      -7.048 -10.675 -10.117  1.00  0.00     0.049 A 
ATOM     61  C   UNL     1      -4.134 -13.559  -6.200  1.00  0.00     0.074 A 
ATOM     62  C   UNL     1      -7.604 -11.423 -11.135  1.00  0.00     0.029 A 
ATOM     63  N   UNL     1      -6.398 -11.558  -9.266  1.00  0.00    -0.354 N 
ATOM     64  N   UNL     1      -4.827 -13.009  -7.170  1.00  0.00    -0.248 NA
ATOM     65  C   UNL     1      -4.075 -15.025  -6.261  1.00  0.00     0.031 C 
ATOM     66  C   UNL     1      -7.332 -12.768 -10.872  1.00  0.00     0.029 A 
ATOM     67  C   UNL     1      -6.547 -12.848  -9.731  1.00  0.00     0.049 A 
ATOM     68  H   UNL     1      -5.904 -11.301  -8.454  1.00  0.00     0.167 HD
ATOM     69  C   UNL     1      -5.242 -14.055  -7.983  1.00  0.00     0.074 A 
ATOM     70  C   UNL     1      -4.723 -15.272  -7.391  1.00  0.00     0.031 C 
ATOM     71  C   UNL     1      -5.980 -14.023  -9.120  1.00  0.00     0.031 A 
BRANCH  58  72
ATOM     72  C   UNL     1      -7.838  -8.396 -10.896  1.00  0.00    -0.014 A 
ATOM     73  C   UNL     1      -7.155  -7.501 -11.737  1.00  0.00     0.009 A 
ATOM     74  C   UNL     1      -9.234  -8.490 -10.995  1.00  0.00     0.009 A 
ATOM     75  C   UNL     1      -7.858  -6.704 -12.642  1.00  0.00     0.001 A 
ATOM     76  C   UNL     1      -9.931  -7.713 -11.922  1.00  0.00     0.001 A 
ATOM     77  C   UNL     1      -9.244  -6.817 -12.739  1.00  0.00     0.000 A 
ENDBRANCH  58  72
BRANCH  59  78
ATOM     78  C   UNL     1      -2.663 -13.699  -4.049  1.00  0.00    -0.014 A 
ATOM     79  C   UNL     1      -1.529 -14.442  -4.412  1.00  0.00     0.009 A 
ATOM     80  C   UNL     1      -3.107 -13.755  -2.718  1.00  0.00     0.009 A 
ATOM     81  C   UNL     1      -0.883 -15.256  -3.477  1.00  0.00     0.001 A 
ATOM     82  C   UNL     1      -2.439 -14.542  -1.777  1.00  0.00     0.001 A 
ATOM     83  C   UNL     1      -1.337 -15.304  -2.161  1.00  0.00     0.000 A 
ENDBRANCH  59  78
BRANCH  71  84
ATOM     84  C   UNL     1      -6.194 -15.321  -9.842  1.00  0.00    -0.014 A 
ATOM     85  C   UNL     1      -7.078 -16.294  -9.357  1.00  0.00     0.009 A 
ATOM     86  C   UNL     1      -5.563 -15.521 -11.081  1.00  0.00     0.009 A 
ATOM     87  C   UNL     1      -7.307 -17.458 -10.091  1.00  0.00     0.001 A 
ATOM     88  C   UNL     1      -5.821 -16.669 -11.827  1.00  0.00     0.001 A 
ATOM     89  C   UNL     1      -6.687 -17.639 -11.328  1.00  0.00     0.000 A 
ENDBRANCH  71  84
ENDBRANCH  45  46
ENDBRANCH  38  40
ENDBRANCH  37  38
ENDBRANCH  36  37
ENDBRANCH  35  36
ENDBRANCH  34  35
ENDBRANCH  33  34
ENDBRANCH  32  33
ENDBRANCH   1  32
TORSDOF 22
