REMARK SMILES O=C(OCCOCCOCCOCCOC(=O)[C@H]1CC2(CC[NH+](S(=O)(=O)N3CCOCC3)CC2)C[NH2+]1)c1ccc(-c2c3nc(c(-c4ccccc4)c4ccc([nH]4)c(-c4ccccc4)c4nc(c(-c5ccccc5)c5ccc2[nH]5)C=C4)C=C3)cc1
REMARK SMILES IDX 9 1 8 2 7 3 6 4 5 5 4 6 3 7 2 8 1 9 37 10 38 11 84 12 39 13
REMARK SMILES IDX 83 14 40 15 41 16 42 17 77 18 43 19 82 20 76 21 78 22 44 23
REMARK SMILES IDX 81 24 75 25 74 26 45 28 67 29 52 30 66 31 53 32 56 33 65 34
REMARK SMILES IDX 79 35 54 36 55 37 64 39 80 40 57 41 46 42 47 43 51 44 48 45
REMARK SMILES IDX 50 46 49 47 68 48 69 49 73 50 70 51 72 52 71 53 58 54 59 55
REMARK SMILES IDX 63 56 60 57 62 58 61 59 10 60 11 61 12 62 13 63 14 64 15 65
REMARK SMILES IDX 16 66 17 67 18 68 19 69 36 70 20 71 35 72 21 75 34 76 22 77
REMARK SMILES IDX 33 78 23 79 24 81 25 82 26 83 27 84 28 85 32 86 29 87 31 88
REMARK SMILES IDX 30 89
REMARK H PARENT 78 27 56 38 36 73 36 74 23 80
REMARK Flexibility Score: inf
ROOT
ATOM      1  O   UNL     1       6.309   5.685  -6.636  1.00  0.00    -0.377 OA
ENDROOT
BRANCH   1   2
ATOM      2  C   UNL     1       6.311   6.185  -7.965  1.00  0.00     0.188 C 
BRANCH   2   3
ATOM      3  C   UNL     1       6.261   5.121  -9.060  1.00  0.00     0.188 C 
BRANCH   3   4
ATOM      4  O   UNL     1       5.052   4.362  -9.018  1.00  0.00    -0.376 OA
BRANCH   4   5
ATOM      5  C   UNL     1       5.143   2.948  -9.200  1.00  0.00     0.202 C 
BRANCH   5   6
ATOM      6  C   UNL     1       5.572   2.483 -10.588  1.00  0.00     0.261 C 
BRANCH   6   7
ATOM      7  O   UNL     1       6.252   3.477 -11.369  1.00  0.00    -0.460 OA
BRANCH   7   8
ATOM      8  C   UNL     1       5.755   4.515 -12.082  1.00  0.00     0.338 C 
ATOM      9  O   UNL     1       6.550   5.245 -12.673  1.00  0.00    -0.246 OA
BRANCH   8  10
ATOM     10  C   UNL     1       4.303   4.849 -12.197  1.00  0.00     0.060 A 
ATOM     11  C   UNL     1       3.319   4.504 -11.276  1.00  0.00     0.016 A 
ATOM     12  C   UNL     1       3.916   5.639 -13.291  1.00  0.00     0.016 A 
ATOM     13  C   UNL     1       1.996   4.849 -11.441  1.00  0.00     0.010 A 
ATOM     14  C   UNL     1       2.581   6.010 -13.473  1.00  0.00     0.010 A 
ATOM     15  C   UNL     1       1.618   5.575 -12.557  1.00  0.00    -0.014 A 
BRANCH  15  16
ATOM     16  C   UNL     1       0.179   5.607 -12.829  1.00  0.00     0.031 A 
ATOM     17  C   UNL     1      -0.333   4.649 -13.859  1.00  0.00     0.074 A 
ATOM     18  C   UNL     1      -0.636   6.289 -12.008  1.00  0.00     0.049 A 
ATOM     19  N   UNL     1      -1.544   4.487 -14.309  1.00  0.00    -0.248 NA
ATOM     20  C   UNL     1       0.659   3.729 -14.451  1.00  0.00     0.031 C 
ATOM     21  C   UNL     1      -0.206   7.063 -10.837  1.00  0.00     0.029 A 
ATOM     22  N   UNL     1      -1.996   6.397 -11.998  1.00  0.00    -0.354 N 
ATOM     23  C   UNL     1      -1.448   3.489 -15.270  1.00  0.00     0.074 A 
ATOM     24  C   UNL     1      -0.069   3.076 -15.340  1.00  0.00     0.031 C 
ATOM     25  C   UNL     1      -1.291   7.552 -10.215  1.00  0.00     0.029 A 
ATOM     26  C   UNL     1      -2.471   7.200 -10.992  1.00  0.00     0.049 A 
ATOM     27  H   UNL     1      -2.579   5.943 -12.649  1.00  0.00     0.167 HD
ATOM     28  C   UNL     1      -2.439   2.982 -16.035  1.00  0.00     0.031 A 
ATOM     29  C   UNL     1      -3.724   7.633 -10.772  1.00  0.00     0.031 A 
ATOM     30  C   UNL     1      -3.796   3.437 -15.931  1.00  0.00     0.049 A 
ATOM     31  C   UNL     1      -4.783   7.175 -11.736  1.00  0.00     0.074 A 
ATOM     32  C   UNL     1      -4.891   3.090 -16.695  1.00  0.00     0.029 A 
ATOM     33  N   UNL     1      -4.233   4.356 -14.983  1.00  0.00    -0.354 N 
ATOM     34  N   UNL     1      -4.682   6.316 -12.726  1.00  0.00    -0.248 NA
ATOM     35  C   UNL     1      -6.119   7.753 -11.569  1.00  0.00     0.031 C 
ATOM     36  C   UNL     1      -5.978   3.849 -16.248  1.00  0.00     0.029 A 
ATOM     37  C   UNL     1      -5.578   4.610 -15.157  1.00  0.00     0.049 A 
ATOM     38  H   UNL     1      -3.666   4.766 -14.290  1.00  0.00     0.167 HD
ATOM     39  C   UNL     1      -5.947   6.229 -13.286  1.00  0.00     0.074 A 
ATOM     40  C   UNL     1      -6.800   7.110 -12.507  1.00  0.00     0.031 C 
ATOM     41  C   UNL     1      -6.375   5.497 -14.345  1.00  0.00     0.031 A 
BRANCH  28  42
ATOM     42  C   UNL     1      -2.042   1.998 -17.097  1.00  0.00    -0.014 A 
ATOM     43  C   UNL     1      -1.594   0.703 -16.788  1.00  0.00     0.009 A 
ATOM     44  C   UNL     1      -2.045   2.409 -18.439  1.00  0.00     0.009 A 
ATOM     45  C   UNL     1      -1.115  -0.139 -17.795  1.00  0.00     0.001 A 
ATOM     46  C   UNL     1      -1.597   1.555 -19.447  1.00  0.00     0.001 A 
ATOM     47  C   UNL     1      -1.119   0.287 -19.123  1.00  0.00     0.000 A 
ENDBRANCH  28  42
BRANCH  29  48
ATOM     48  C   UNL     1      -4.017   8.595  -9.676  1.00  0.00    -0.014 A 
ATOM     49  C   UNL     1      -4.885   8.257  -8.627  1.00  0.00     0.009 A 
ATOM     50  C   UNL     1      -3.444   9.879  -9.686  1.00  0.00     0.009 A 
ATOM     51  C   UNL     1      -5.196   9.192  -7.634  1.00  0.00     0.001 A 
ATOM     52  C   UNL     1      -3.730  10.800  -8.675  1.00  0.00     0.001 A 
ATOM     53  C   UNL     1      -4.616  10.460  -7.657  1.00  0.00     0.000 A 
ENDBRANCH  29  48
BRANCH  41  54
ATOM     54  C   UNL     1      -7.836   5.585 -14.672  1.00  0.00    -0.014 A 
ATOM     55  C   UNL     1      -8.390   6.741 -15.240  1.00  0.00     0.009 A 
ATOM     56  C   UNL     1      -8.654   4.466 -14.450  1.00  0.00     0.009 A 
ATOM     57  C   UNL     1      -9.750   6.787 -15.545  1.00  0.00     0.001 A 
ATOM     58  C   UNL     1     -10.003   4.502 -14.793  1.00  0.00     0.001 A 
ATOM     59  C   UNL     1     -10.553   5.666 -15.329  1.00  0.00     0.000 A 
ENDBRANCH  41  54
ENDBRANCH  15  16
ENDBRANCH   8  10
ENDBRANCH   7   8
ENDBRANCH   6   7
ENDBRANCH   5   6
ENDBRANCH   4   5
ENDBRANCH   3   4
ENDBRANCH   2   3
ENDBRANCH   1   2
BRANCH   1  60
ATOM     60  C   UNL     1       5.389   4.635  -6.374  1.00  0.00     0.188 C 
BRANCH  60  61
ATOM     61  C   UNL     1       3.875   4.906  -6.508  1.00  0.00     0.188 C 
BRANCH  61  62
ATOM     62  O   UNL     1       3.580   6.135  -7.135  1.00  0.00    -0.376 OA
BRANCH  62  63
ATOM     63  C   UNL     1       3.316   7.233  -6.274  1.00  0.00     0.202 C 
BRANCH  63  64
ATOM     64  C   UNL     1       4.152   7.512  -4.997  1.00  0.00     0.261 C 
BRANCH  64  65
ATOM     65  O   UNL     1       4.773   6.403  -4.317  1.00  0.00    -0.459 OA
BRANCH  65  66
ATOM     66  C   UNL     1       4.101   5.738  -3.343  1.00  0.00     0.364 C 
ATOM     67  O   UNL     1       2.965   6.028  -2.983  1.00  0.00    -0.245 OA
BRANCH  66  68
ATOM     68  C   UNL     1       4.857   4.497  -2.801  1.00  0.00     0.294 C 
ATOM     69  C   UNL     1       4.247   3.195  -3.326  1.00  0.00     0.090 C 
ATOM     70  N   UNL     1       6.257   4.375  -3.235  1.00  0.00    -0.334 N 
ATOM     71  C   UNL     1       5.372   2.140  -3.224  1.00  0.00     0.036 C 
ATOM     72  C   UNL     1       6.661   2.981  -3.094  1.00  0.00     0.268 C 
ATOM     73  H   UNL     1       6.851   4.967  -2.653  1.00  0.00     0.347 HD
ATOM     74  H   UNL     1       6.351   4.672  -4.206  1.00  0.00     0.347 HD
ATOM     75  C   UNL     1       5.444   1.235  -4.481  1.00  0.00     0.076 C 
ATOM     76  C   UNL     1       5.144   1.289  -1.953  1.00  0.00     0.076 C 
ATOM     77  C   UNL     1       4.346   0.184  -4.520  1.00  0.00     0.280 C 
ATOM     78  C   UNL     1       4.027   0.255  -2.125  1.00  0.00     0.280 C 
ATOM     79  N   UNL     1       4.308  -0.631  -3.289  1.00  0.00    -0.215 N 
ATOM     80  H   UNL     1       3.541  -1.280  -3.464  1.00  0.00     0.367 HD
BRANCH  79  81
ATOM     81  S   UNL     1       5.505  -1.800  -2.990  1.00  0.00     0.371 S 
ATOM     82  O   UNL     1       6.798  -1.185  -3.106  1.00  0.00    -0.157 OA
ATOM     83  O   UNL     1       5.112  -2.478  -1.767  1.00  0.00    -0.157 OA
BRANCH  81  84
ATOM     84  N   UNL     1       5.309  -2.873  -4.227  1.00  0.00    -0.151 NA
ATOM     85  C   UNL     1       4.115  -3.720  -4.335  1.00  0.00     0.136 C 
ATOM     86  C   UNL     1       6.164  -2.901  -5.423  1.00  0.00     0.136 C 
ATOM     87  C   UNL     1       3.326  -3.265  -5.559  1.00  0.00     0.177 C 
ATOM     88  C   UNL     1       5.343  -2.650  -6.696  1.00  0.00     0.177 C 
ATOM     89  O   UNL     1       4.116  -3.393  -6.755  1.00  0.00    -0.379 OA
ENDBRANCH  81  84
ENDBRANCH  79  81
ENDBRANCH  66  68
ENDBRANCH  65  66
ENDBRANCH  64  65
ENDBRANCH  63  64
ENDBRANCH  62  63
ENDBRANCH  61  62
ENDBRANCH  60  61
ENDBRANCH   1  60
TORSDOF 22
