REMARK SMILES COc1cc2ccccc2cc1C(=O)Nc1cc(C(=O)OCCOCCOCCOCCOC(=O)c2ccc(-c3c4nc(c(-c5ccccc5)c5ccc([nH]5)c(-c5ccccc5)c5nc(c(-c6ccccc6)c6ccc3[nH]6)C=C5)C=C4)cc2)ccc1C
REMARK SMILES IDX 26 1 25 2 24 3 23 4 22 5 21 6 19 7 20 8 18 9 16 10 17 11
REMARK SMILES IDX 86 12 85 13 87 14 84 15 15 16 13 17 14 18 12 20 3 21 4 22
REMARK SMILES IDX 5 23 11 24 6 25 10 26 7 27 9 28 8 29 2 30 1 31 27 32 28 33
REMARK SMILES IDX 29 34 30 35 31 36 32 37 33 38 34 39 35 40 36 41 37 42 83 43
REMARK SMILES IDX 38 44 82 45 39 46 40 47 41 48 76 49 42 50 81 51 75 52 77 53
REMARK SMILES IDX 43 54 80 55 74 56 73 57 44 59 66 60 51 61 65 62 52 63 55 64
REMARK SMILES IDX 64 65 78 66 53 67 54 68 63 70 79 71 56 72 45 73 46 74 50 75
REMARK SMILES IDX 47 76 49 77 48 78 67 79 68 80 72 81 69 82 71 83 70 84 57 85
REMARK SMILES IDX 58 86 62 87 59 88 61 89 60 90
REMARK H PARENT 15 19 77 58 55 69
REMARK Flexibility Score: inf
ROOT
ATOM      1  C   UNL     1      -0.380   1.441   4.222  1.00  0.00     0.188 C 
ENDROOT
BRANCH   1   2
ATOM      2  C   UNL     1      -1.875   1.246   3.883  1.00  0.00     0.188 C 
BRANCH   2   3
ATOM      3  O   UNL     1      -2.738   0.450   4.677  1.00  0.00    -0.376 OA
BRANCH   3   4
ATOM      4  C   UNL     1      -2.896  -0.926   4.334  1.00  0.00     0.202 C 
BRANCH   4   5
ATOM      5  C   UNL     1      -3.059  -1.330   2.876  1.00  0.00     0.261 C 
BRANCH   5   6
ATOM      6  O   UNL     1      -1.783  -1.236   2.247  1.00  0.00    -0.460 OA
BRANCH   6   7
ATOM      7  C   UNL     1      -1.848  -0.714   1.008  1.00  0.00     0.338 C 
ATOM      8  O   UNL     1      -2.796  -0.695   0.256  1.00  0.00    -0.246 OA
BRANCH   7   9
ATOM      9  C   UNL     1      -0.680   0.170   0.890  1.00  0.00     0.062 A 
ATOM     10  C   UNL     1       1.650   0.454   0.509  1.00  0.00     0.045 A 
ATOM     11  C   UNL     1       0.616  -0.314   1.028  1.00  0.00     0.042 A 
ATOM     12  C   UNL     1       1.420   1.815   0.186  1.00  0.00    -0.027 A 
ATOM     13  C   UNL     1       0.124   2.345   0.296  1.00  0.00     0.006 A 
ATOM     14  C   UNL     1       2.406   2.692  -0.537  1.00  0.00     0.046 C 
ATOM     15  C   UNL     1      -0.936   1.501   0.562  1.00  0.00     0.016 A 
BRANCH  10  16
ATOM     16  N   UNL     1       2.876  -0.134   0.173  1.00  0.00    -0.322 N 
ATOM     17  C   UNL     1       3.236  -1.393  -0.264  1.00  0.00     0.259 C 
ATOM     18  O   UNL     1       4.454  -1.579  -0.385  1.00  0.00    -0.269 OA
ATOM     19  H   UNL     1       3.640   0.479   0.269  1.00  0.00     0.170 HD
BRANCH  17  20
ATOM     20  C   UNL     1       2.325  -2.524  -0.661  1.00  0.00     0.082 A 
ATOM     21  C   UNL     1       1.004  -2.473  -1.121  1.00  0.00     0.132 A 
ATOM     22  C   UNL     1       0.260  -3.653  -1.278  1.00  0.00     0.056 A 
ATOM     23  C   UNL     1       0.846  -4.918  -1.158  1.00  0.00    -0.015 A 
ATOM     24  C   UNL     1       2.923  -3.807  -0.593  1.00  0.00     0.026 A 
ATOM     25  C   UNL     1       0.106  -6.097  -1.355  1.00  0.00     0.009 A 
ATOM     26  C   UNL     1       2.214  -4.999  -0.858  1.00  0.00    -0.017 A 
ATOM     27  C   UNL     1       0.711  -7.347  -1.272  1.00  0.00     0.001 A 
ATOM     28  C   UNL     1       2.824  -6.266  -0.831  1.00  0.00     0.009 A 
ATOM     29  C   UNL     1       2.077  -7.431  -1.038  1.00  0.00     0.001 A 
BRANCH  21  30
ATOM     30  O   UNL     1       0.249  -1.366  -1.368  1.00  0.00    -0.496 OA
ATOM     31  C   UNL     1       0.701  -0.535  -2.424  1.00  0.00     0.278 C 
ENDBRANCH  21  30
ENDBRANCH  17  20
ENDBRANCH  10  16
ENDBRANCH   7   9
ENDBRANCH   6   7
ENDBRANCH   5   6
ENDBRANCH   4   5
ENDBRANCH   3   4
ENDBRANCH   2   3
ENDBRANCH   1   2
BRANCH   1  32
ATOM     32  O   UNL     1       0.564   0.388   4.128  1.00  0.00    -0.377 OA
BRANCH  32  33
ATOM     33  C   UNL     1       0.575  -0.604   5.146  1.00  0.00     0.188 C 
BRANCH  33  34
ATOM     34  C   UNL     1       0.420  -0.148   6.601  1.00  0.00     0.188 C 
BRANCH  34  35
ATOM     35  O   UNL     1      -0.903   0.309   6.865  1.00  0.00    -0.376 OA
BRANCH  35  36
ATOM     36  C   UNL     1      -1.045   1.506   7.630  1.00  0.00     0.202 C 
BRANCH  36  37
ATOM     37  C   UNL     1      -0.411   1.472   9.025  1.00  0.00     0.261 C 
BRANCH  37  38
ATOM     38  O   UNL     1      -1.107   0.524   9.852  1.00  0.00    -0.460 OA
BRANCH  38  39
ATOM     39  C   UNL     1      -0.467  -0.663  10.014  1.00  0.00     0.338 C 
ATOM     40  O   UNL     1       0.696  -0.799  10.358  1.00  0.00    -0.246 OA
BRANCH  39  41
ATOM     41  C   UNL     1      -1.284  -1.758   9.421  1.00  0.00     0.060 A 
ATOM     42  C   UNL     1      -0.716  -3.032   9.275  1.00  0.00     0.016 A 
ATOM     43  C   UNL     1      -2.405  -1.418   8.675  1.00  0.00     0.016 A 
ATOM     44  C   UNL     1      -1.115  -3.859   8.217  1.00  0.00     0.010 A 
ATOM     45  C   UNL     1      -2.708  -2.185   7.572  1.00  0.00     0.010 A 
ATOM     46  C   UNL     1      -2.020  -3.370   7.280  1.00  0.00    -0.014 A 
BRANCH  46  47
ATOM     47  C   UNL     1      -2.199  -3.905   5.916  1.00  0.00     0.031 A 
ATOM     48  C   UNL     1      -3.595  -4.123   5.409  1.00  0.00     0.074 A 
ATOM     49  C   UNL     1      -1.150  -3.850   5.045  1.00  0.00     0.049 A 
ATOM     50  N   UNL     1      -3.880  -4.504   4.216  1.00  0.00    -0.248 NA
ATOM     51  C   UNL     1      -4.815  -3.865   6.180  1.00  0.00     0.031 C 
ATOM     52  C   UNL     1      -1.190  -3.894   3.578  1.00  0.00     0.029 A 
ATOM     53  N   UNL     1       0.219  -3.730   5.269  1.00  0.00    -0.354 N 
ATOM     54  C   UNL     1      -5.211  -4.254   3.957  1.00  0.00     0.074 A 
ATOM     55  C   UNL     1      -5.764  -3.886   5.233  1.00  0.00     0.031 C 
ATOM     56  C   UNL     1       0.044  -4.006   3.062  1.00  0.00     0.029 A 
ATOM     57  C   UNL     1       0.905  -4.291   4.180  1.00  0.00     0.049 A 
ATOM     58  H   UNL     1       0.637  -3.319   6.060  1.00  0.00     0.167 HD
ATOM     59  C   UNL     1      -5.633  -4.301   2.659  1.00  0.00     0.031 A 
ATOM     60  C   UNL     1       1.588  -5.470   4.295  1.00  0.00     0.031 A 
ATOM     61  C   UNL     1      -4.577  -4.851   1.804  1.00  0.00     0.049 A 
ATOM     62  C   UNL     1       0.820  -6.584   3.575  1.00  0.00     0.074 A 
ATOM     63  C   UNL     1      -3.819  -4.332   0.774  1.00  0.00     0.029 A 
ATOM     64  N   UNL     1      -3.971  -6.055   2.177  1.00  0.00    -0.354 N 
ATOM     65  N   UNL     1      -0.474  -6.536   3.340  1.00  0.00    -0.248 NA
ATOM     66  C   UNL     1       1.441  -7.729   2.915  1.00  0.00     0.031 C 
ATOM     67  C   UNL     1      -2.671  -5.159   0.654  1.00  0.00     0.029 A 
ATOM     68  C   UNL     1      -2.759  -6.222   1.540  1.00  0.00     0.049 A 
ATOM     69  H   UNL     1      -4.360  -6.700   2.811  1.00  0.00     0.167 HD
ATOM     70  C   UNL     1      -0.811  -7.450   2.377  1.00  0.00     0.074 A 
ATOM     71  C   UNL     1       0.406  -8.233   2.214  1.00  0.00     0.031 C 
ATOM     72  C   UNL     1      -2.001  -7.466   1.693  1.00  0.00     0.031 A 
BRANCH  59  73
ATOM     73  C   UNL     1      -6.912  -3.714   2.086  1.00  0.00    -0.014 A 
ATOM     74  C   UNL     1      -7.097  -3.695   0.684  1.00  0.00     0.009 A 
ATOM     75  C   UNL     1      -7.935  -3.108   2.833  1.00  0.00     0.009 A 
ATOM     76  C   UNL     1      -8.213  -3.105   0.070  1.00  0.00     0.001 A 
ATOM     77  C   UNL     1      -9.068  -2.532   2.225  1.00  0.00     0.001 A 
ATOM     78  C   UNL     1      -9.206  -2.526   0.844  1.00  0.00     0.000 A 
ENDBRANCH  59  73
BRANCH  60  79
ATOM     79  C   UNL     1       2.447  -5.459   5.522  1.00  0.00    -0.014 A 
ATOM     80  C   UNL     1       3.485  -4.492   5.479  1.00  0.00     0.009 A 
ATOM     81  C   UNL     1       1.898  -5.768   6.776  1.00  0.00     0.009 A 
ATOM     82  C   UNL     1       3.728  -3.650   6.571  1.00  0.00     0.001 A 
ATOM     83  C   UNL     1       2.187  -4.946   7.884  1.00  0.00     0.001 A 
ATOM     84  C   UNL     1       3.031  -3.841   7.757  1.00  0.00     0.000 A 
ENDBRANCH  60  79
BRANCH  72  85
ATOM     85  C   UNL     1      -2.582  -8.681   0.998  1.00  0.00    -0.014 A 
ATOM     86  C   UNL     1      -2.103  -9.982   1.169  1.00  0.00     0.009 A 
ATOM     87  C   UNL     1      -3.800  -8.550   0.282  1.00  0.00     0.009 A 
ATOM     88  C   UNL     1      -2.776 -11.083   0.626  1.00  0.00     0.001 A 
ATOM     89  C   UNL     1      -4.509  -9.648  -0.202  1.00  0.00     0.001 A 
ATOM     90  C   UNL     1      -3.987 -10.919  -0.041  1.00  0.00     0.000 A 
ENDBRANCH  72  85
ENDBRANCH  46  47
ENDBRANCH  39  41
ENDBRANCH  38  39
ENDBRANCH  37  38
ENDBRANCH  36  37
ENDBRANCH  35  36
ENDBRANCH  34  35
ENDBRANCH  33  34
ENDBRANCH  32  33
ENDBRANCH   1  32
TORSDOF 23
