REMARK SMILES Cc1c(CC(=O)N[C@@H](CCO)C(=O)OCCOCCOCCOCCOC(=O)c2ccc(-c3c4nc(c(-c5ccccc5)c5ccc([nH]5)c(-c5ccccc5)c5nc(c(-c6ccccc6)c6ccc3[nH]6)C=C5)C=C4)cc2)cc(-c2ccc(S(C)(=O)=O)cc2)n1-c1ccc(F)cc1
REMARK SMILES IDX 18 1 17 2 16 3 15 4 14 5 12 6 13 7 8 8 7 9 5 10 6 11 4 13
REMARK SMILES IDX 3 14 1 15 2 16 89 17 77 18 78 19 90 20 91 21 96 22 92 23
REMARK SMILES IDX 95 24 93 25 94 26 79 27 80 28 88 29 81 30 87 31 82 32 83 33
REMARK SMILES IDX 84 34 85 35 86 36 9 37 10 38 11 39 19 41 20 42 21 43 22 44
REMARK SMILES IDX 23 45 24 46 25 47 26 48 27 49 28 50 29 51 30 52 76 53 31 54
REMARK SMILES IDX 75 55 32 56 33 57 34 58 69 59 35 60 74 61 68 62 70 63 36 64
REMARK SMILES IDX 73 65 67 66 66 67 37 69 59 70 44 71 58 72 45 73 48 74 57 75
REMARK SMILES IDX 71 76 46 77 47 78 56 80 72 81 49 82 38 83 39 84 43 85 40 86
REMARK SMILES IDX 42 87 41 88 60 89 61 90 65 91 62 92 64 93 63 94 50 95 51 96
REMARK SMILES IDX 55 97 52 98 54 99 53 100
REMARK H PARENT 7 12 11 40 70 68 48 79
REMARK Flexibility Score: inf
ROOT
ATOM      1  C   UNL     1       0.578  -2.464  -6.821  1.00  0.00     0.188 C 
ENDROOT
BRANCH   1   2
ATOM      2  O   UNL     1       1.009  -2.201  -8.149  1.00  0.00    -0.376 OA
BRANCH   2   3
ATOM      3  C   UNL     1       2.387  -2.278  -8.474  1.00  0.00     0.202 C 
BRANCH   3   4
ATOM      4  C   UNL     1       3.356  -1.327  -7.752  1.00  0.00     0.261 C 
BRANCH   4   5
ATOM      5  O   UNL     1       3.160  -1.204  -6.328  1.00  0.00    -0.462 OA
BRANCH   5   6
ATOM      6  C   UNL     1       2.707   0.003  -5.896  1.00  0.00     0.328 C 
ATOM      7  O   UNL     1       2.513   0.975  -6.617  1.00  0.00    -0.250 OA
BRANCH   6   8
ATOM      8  C   UNL     1       2.546   0.080  -4.362  1.00  0.00     0.194 C 
BRANCH   8   9
ATOM      9  N   UNL     1       2.381  -1.150  -3.569  1.00  0.00    -0.342 N 
ATOM     10  C   UNL     1       1.321  -1.592  -2.823  1.00  0.00     0.225 C 
ATOM     11  O   UNL     1       1.451  -2.665  -2.226  1.00  0.00    -0.275 OA
ATOM     12  H   UNL     1       3.160  -1.753  -3.576  1.00  0.00     0.164 HD
BRANCH  10  13
ATOM     13  C   UNL     1      -0.009  -0.848  -2.803  1.00  0.00     0.137 C 
BRANCH  13  14
ATOM     14  C   UNL     1       0.111   0.542  -2.273  1.00  0.00    -0.017 A 
ATOM     15  C   UNL     1       1.041   0.085   0.098  1.00  0.00     0.065 C 
ATOM     16  C   UNL     1       0.655   0.944  -1.064  1.00  0.00     0.024 A 
ATOM     17  N   UNL     1       0.772   2.331  -1.082  1.00  0.00    -0.314 N 
ATOM     18  C   UNL     1      -0.288   1.716  -2.957  1.00  0.00     0.033 A 
ATOM     19  C   UNL     1       0.202   2.807  -2.265  1.00  0.00     0.053 A 
BRANCH  17  20
ATOM     20  C   UNL     1       1.427   3.129  -0.102  1.00  0.00     0.046 A 
ATOM     21  C   UNL     1       0.839   4.326   0.327  1.00  0.00     0.029 A 
ATOM     22  C   UNL     1       2.696   2.755   0.364  1.00  0.00     0.029 A 
ATOM     23  C   UNL     1       1.525   5.153   1.214  1.00  0.00     0.041 A 
ATOM     24  C   UNL     1       3.379   3.594   1.245  1.00  0.00     0.041 A 
ATOM     25  C   UNL     1       2.790   4.784   1.658  1.00  0.00     0.123 A 
ATOM     26  F   UNL     1       3.458   5.594   2.490  1.00  0.00    -0.207 F 
ENDBRANCH  17  20
BRANCH  19  27
ATOM     27  C   UNL     1       0.282   4.184  -2.766  1.00  0.00    -0.001 A 
ATOM     28  C   UNL     1       1.523   4.827  -2.899  1.00  0.00     0.011 A 
ATOM     29  C   UNL     1      -0.882   4.856  -3.159  1.00  0.00     0.011 A 
ATOM     30  C   UNL     1       1.597   6.143  -3.356  1.00  0.00     0.021 A 
ATOM     31  C   UNL     1      -0.817   6.173  -3.620  1.00  0.00     0.021 A 
ATOM     32  C   UNL     1       0.421   6.815  -3.695  1.00  0.00     0.067 A 
BRANCH  32  33
ATOM     33  S   UNL     1       0.522   8.500  -4.249  1.00  0.00     0.175 S 
ATOM     34  C   UNL     1       1.060   9.385  -2.809  1.00  0.00     0.163 C 
ATOM     35  O   UNL     1       1.568   8.562  -5.244  1.00  0.00    -0.224 OA
ATOM     36  O   UNL     1      -0.831   8.945  -4.552  1.00  0.00    -0.224 OA
ENDBRANCH  32  33
ENDBRANCH  19  27
ENDBRANCH  13  14
ENDBRANCH  10  13
ENDBRANCH   8   9
BRANCH   8  37
ATOM     37  C   UNL     1       3.694   0.911  -3.774  1.00  0.00     0.065 C 
BRANCH  37  38
ATOM     38  C   UNL     1       5.035   0.180  -3.710  1.00  0.00     0.159 C 
BRANCH  38  39
ATOM     39  O   UNL     1       5.501  -0.183  -4.999  1.00  0.00    -0.396 OA
ATOM     40  H   UNL     1       4.864  -0.784  -5.415  1.00  0.00     0.210 HD
ENDBRANCH  38  39
ENDBRANCH  37  38
ENDBRANCH   8  37
ENDBRANCH   6   8
ENDBRANCH   5   6
ENDBRANCH   4   5
ENDBRANCH   3   4
ENDBRANCH   2   3
ENDBRANCH   1   2
BRANCH   1  41
ATOM     41  C   UNL     1       1.380  -3.365  -5.865  1.00  0.00     0.188 C 
BRANCH  41  42
ATOM     42  O   UNL     1       2.536  -3.978  -6.393  1.00  0.00    -0.377 OA
BRANCH  42  43
ATOM     43  C   UNL     1       2.619  -5.391  -6.278  1.00  0.00     0.188 C 
BRANCH  43  44
ATOM     44  C   UNL     1       1.534  -6.157  -7.028  1.00  0.00     0.188 C 
BRANCH  44  45
ATOM     45  O   UNL     1       0.203  -5.936  -6.611  1.00  0.00    -0.376 OA
BRANCH  45  46
ATOM     46  C   UNL     1      -0.289  -6.318  -5.338  1.00  0.00     0.202 C 
BRANCH  46  47
ATOM     47  C   UNL     1       0.259  -7.413  -4.385  1.00  0.00     0.261 C 
BRANCH  47  48
ATOM     48  O   UNL     1       1.573  -7.390  -3.761  1.00  0.00    -0.460 OA
BRANCH  48  49
ATOM     49  C   UNL     1       2.234  -8.596  -3.830  1.00  0.00     0.338 C 
ATOM     50  O   UNL     1       2.111  -9.368  -4.773  1.00  0.00    -0.246 OA
BRANCH  49  51
ATOM     51  C   UNL     1       3.101  -8.980  -2.641  1.00  0.00     0.060 A 
ATOM     52  C   UNL     1       4.483  -8.884  -2.733  1.00  0.00     0.016 A 
ATOM     53  C   UNL     1       2.615  -9.757  -1.566  1.00  0.00     0.016 A 
ATOM     54  C   UNL     1       5.332  -9.517  -1.767  1.00  0.00     0.010 A 
ATOM     55  C   UNL     1       3.485 -10.443  -0.617  1.00  0.00     0.010 A 
ATOM     56  C   UNL     1       4.885 -10.363  -0.691  1.00  0.00    -0.014 A 
BRANCH  56  57
ATOM     57  C   UNL     1       5.933 -11.410  -0.104  1.00  0.00     0.031 A 
ATOM     58  C   UNL     1       6.613 -11.963  -1.310  1.00  0.00     0.074 A 
ATOM     59  C   UNL     1       6.334 -12.018   1.080  1.00  0.00     0.049 A 
ATOM     60  N   UNL     1       5.931 -12.555  -2.248  1.00  0.00    -0.248 NA
ATOM     61  C   UNL     1       7.976 -11.577  -1.677  1.00  0.00     0.031 C 
ATOM     62  C   UNL     1       5.783 -11.831   2.430  1.00  0.00     0.029 A 
ATOM     63  N   UNL     1       7.368 -12.963   1.364  1.00  0.00    -0.354 N 
ATOM     64  C   UNL     1       6.831 -12.837  -3.248  1.00  0.00     0.074 A 
ATOM     65  C   UNL     1       8.008 -12.042  -2.929  1.00  0.00     0.031 C 
ATOM     66  C   UNL     1       6.524 -12.490   3.369  1.00  0.00     0.029 A 
ATOM     67  C   UNL     1       7.614 -13.238   2.749  1.00  0.00     0.049 A 
ATOM     68  H   UNL     1       7.883 -13.401   0.648  1.00  0.00     0.167 HD
ATOM     69  C   UNL     1       6.796 -14.084  -3.796  1.00  0.00     0.031 A 
ATOM     70  C   UNL     1       8.565 -14.035   3.369  1.00  0.00     0.031 A 
ATOM     71  C   UNL     1       7.863 -14.910  -3.297  1.00  0.00     0.049 A 
ATOM     72  C   UNL     1       9.070 -14.999   2.381  1.00  0.00     0.074 A 
ATOM     73  C   UNL     1       9.224 -14.729  -3.171  1.00  0.00     0.029 A 
ATOM     74  N   UNL     1       7.507 -15.903  -2.406  1.00  0.00    -0.354 N 
ATOM     75  N   UNL     1       8.404 -16.070   2.075  1.00  0.00    -0.248 NA
ATOM     76  C   UNL     1      10.395 -14.896   1.778  1.00  0.00     0.031 C 
ATOM     77  C   UNL     1       9.544 -15.248  -1.894  1.00  0.00     0.029 A 
ATOM     78  C   UNL     1       8.472 -15.999  -1.423  1.00  0.00     0.049 A 
ATOM     79  H   UNL     1       6.694 -16.456  -2.462  1.00  0.00     0.167 HD
ATOM     80  C   UNL     1       8.953 -16.435   0.883  1.00  0.00     0.074 A 
ATOM     81  C   UNL     1      10.301 -15.903   0.907  1.00  0.00     0.031 C 
ATOM     82  C   UNL     1       8.106 -16.604  -0.163  1.00  0.00     0.031 A 
BRANCH  69  83
ATOM     83  C   UNL     1       5.439 -14.622  -4.144  1.00  0.00    -0.014 A 
ATOM     84  C   UNL     1       5.156 -14.931  -5.479  1.00  0.00     0.009 A 
ATOM     85  C   UNL     1       4.410 -14.760  -3.194  1.00  0.00     0.009 A 
ATOM     86  C   UNL     1       3.862 -15.304  -5.859  1.00  0.00     0.001 A 
ATOM     87  C   UNL     1       3.114 -15.102  -3.576  1.00  0.00     0.001 A 
ATOM     88  C   UNL     1       2.838 -15.366  -4.913  1.00  0.00     0.000 A 
ENDBRANCH  69  83
BRANCH  70  89
ATOM     89  C   UNL     1       9.152 -14.372   4.745  1.00  0.00    -0.014 A 
ATOM     90  C   UNL     1       9.629 -15.700   5.001  1.00  0.00     0.009 A 
ATOM     91  C   UNL     1       9.604 -13.399   5.641  1.00  0.00     0.009 A 
ATOM     92  C   UNL     1      10.574 -16.012   5.994  1.00  0.00     0.001 A 
ATOM     93  C   UNL     1      10.533 -13.718   6.667  1.00  0.00     0.001 A 
ATOM     94  C   UNL     1      11.043 -15.009   6.822  1.00  0.00     0.000 A 
ENDBRANCH  70  89
BRANCH  82  95
ATOM     95  C   UNL     1       6.734 -17.187   0.147  1.00  0.00    -0.014 A 
ATOM     96  C   UNL     1       5.881 -16.742   1.182  1.00  0.00     0.009 A 
ATOM     97  C   UNL     1       6.298 -18.285  -0.606  1.00  0.00     0.009 A 
ATOM     98  C   UNL     1       4.695 -17.412   1.504  1.00  0.00     0.001 A 
ATOM     99  C   UNL     1       5.086 -18.927  -0.319  1.00  0.00     0.001 A 
ATOM    100  C   UNL     1       4.296 -18.505   0.748  1.00  0.00     0.000 A 
ENDBRANCH  82  95
ENDBRANCH  56  57
ENDBRANCH  49  51
ENDBRANCH  48  49
ENDBRANCH  47  48
ENDBRANCH  46  47
ENDBRANCH  45  46
ENDBRANCH  44  45
ENDBRANCH  43  44
ENDBRANCH  42  43
ENDBRANCH  41  42
ENDBRANCH   1  41
TORSDOF 29
