REMARK SMILES O=C(C[C@@H](c1ccccc1)[NH+]1CCCCC1)OCCOCCOCCOCCOC(=O)c1ccc(-c2c3nc(c(-c4ccccc4)c4ccc([nH]4)c(-c4ccccc4)c4nc(c(-c5ccccc5)c5ccc2[nH]5)C=C4)C=C3)cc1
REMARK SMILES IDX 23 1 22 2 21 3 20 4 19 5 18 6 17 7 2 8 1 9 3 10 4 11 5 12
REMARK SMILES IDX 6 13 10 14 7 15 9 16 8 17 11 18 12 19 16 20 13 22 15 23
REMARK SMILES IDX 14 24 24 25 25 26 26 27 27 28 28 29 29 30 30 31 31 32 32 33
REMARK SMILES IDX 33 34 79 35 34 36 78 37 35 38 36 39 37 40 72 41 38 42 77 43
REMARK SMILES IDX 71 44 73 45 39 46 76 47 70 48 69 49 40 51 62 52 47 53 61 54
REMARK SMILES IDX 48 55 51 56 60 57 74 58 49 59 50 60 59 62 75 63 52 64 41 65
REMARK SMILES IDX 42 66 46 67 43 68 45 69 44 70 63 71 64 72 68 73 65 74 67 75
REMARK SMILES IDX 66 76 53 77 54 78 58 79 55 80 57 81 56 82
REMARK H PARENT 11 21 73 50 51 61
REMARK Flexibility Score: inf
ROOT
ATOM      1  O   UNL     1       2.058  -3.858  -0.210  1.00  0.00    -0.377 OA
ENDROOT
BRANCH   1   2
ATOM      2  C   UNL     1       1.517  -2.552  -0.072  1.00  0.00     0.188 C 
BRANCH   2   3
ATOM      3  C   UNL     1       2.172  -1.531  -0.986  1.00  0.00     0.188 C 
BRANCH   3   4
ATOM      4  O   UNL     1       3.558  -1.315  -0.798  1.00  0.00    -0.376 OA
BRANCH   4   5
ATOM      5  C   UNL     1       4.138  -0.845   0.406  1.00  0.00     0.202 C 
BRANCH   5   6
ATOM      6  C   UNL     1       3.355  -0.077   1.463  1.00  0.00     0.261 C 
BRANCH   6   7
ATOM      7  O   UNL     1       2.196   0.633   1.021  1.00  0.00    -0.463 OA
BRANCH   7   8
ATOM      8  C   UNL     1       2.369   1.875   0.500  1.00  0.00     0.312 C 
ATOM      9  O   UNL     1       1.821   2.858   0.985  1.00  0.00    -0.252 OA
BRANCH   8  10
ATOM     10  C   UNL     1       3.035   1.895  -0.846  1.00  0.00     0.192 C 
BRANCH  10  11
ATOM     11  C   UNL     1       4.244   2.825  -0.982  1.00  0.00     0.226 C 
BRANCH  11  12
ATOM     12  C   UNL     1       5.352   2.547   0.044  1.00  0.00     0.010 A 
ATOM     13  C   UNL     1       6.407   1.647  -0.181  1.00  0.00     0.010 A 
ATOM     14  C   UNL     1       5.297   3.179   1.301  1.00  0.00     0.010 A 
ATOM     15  C   UNL     1       7.302   1.307   0.840  1.00  0.00     0.001 A 
ATOM     16  C   UNL     1       6.215   2.870   2.309  1.00  0.00     0.001 A 
ATOM     17  C   UNL     1       7.201   1.912   2.087  1.00  0.00     0.000 A 
ENDBRANCH  11  12
BRANCH  11  18
ATOM     18  N   UNL     1       4.779   2.864  -2.378  1.00  0.00    -0.328 N 
ATOM     19  C   UNL     1       4.585   1.630  -3.171  1.00  0.00     0.262 C 
ATOM     20  C   UNL     1       4.233   4.022  -3.100  1.00  0.00     0.262 C 
ATOM     21  H   UNL     1       5.789   2.948  -2.267  1.00  0.00     0.348 HD
ATOM     22  C   UNL     1       5.261   1.717  -4.539  1.00  0.00     0.062 C 
ATOM     23  C   UNL     1       4.918   4.191  -4.453  1.00  0.00     0.062 C 
ATOM     24  C   UNL     1       4.779   2.939  -5.308  1.00  0.00     0.012 C 
ENDBRANCH  11  18
ENDBRANCH  10  11
ENDBRANCH   8  10
ENDBRANCH   7   8
ENDBRANCH   6   7
ENDBRANCH   5   6
ENDBRANCH   4   5
ENDBRANCH   3   4
ENDBRANCH   2   3
ENDBRANCH   1   2
BRANCH   1  25
ATOM     25  C   UNL     1       3.382  -4.010   0.275  1.00  0.00     0.188 C 
BRANCH  25  26
ATOM     26  C   UNL     1       4.520  -4.002  -0.781  1.00  0.00     0.188 C 
BRANCH  26  27
ATOM     27  O   UNL     1       4.293  -4.238  -2.163  1.00  0.00    -0.376 OA
BRANCH  27  28
ATOM     28  C   UNL     1       3.144  -4.945  -2.582  1.00  0.00     0.202 C 
BRANCH  28  29
ATOM     29  C   UNL     1       2.993  -6.412  -2.146  1.00  0.00     0.261 C 
BRANCH  29  30
ATOM     30  O   UNL     1       3.350  -6.691  -0.781  1.00  0.00    -0.460 OA
BRANCH  30  31
ATOM     31  C   UNL     1       4.607  -7.176  -0.588  1.00  0.00     0.338 C 
ATOM     32  O   UNL     1       5.403  -7.499  -1.437  1.00  0.00    -0.246 OA
BRANCH  31  33
ATOM     33  C   UNL     1       4.965  -7.063   0.855  1.00  0.00     0.060 A 
ATOM     34  C   UNL     1       6.213  -6.503   1.170  1.00  0.00     0.016 A 
ATOM     35  C   UNL     1       4.105  -7.464   1.881  1.00  0.00     0.016 A 
ATOM     36  C   UNL     1       6.627  -6.392   2.496  1.00  0.00     0.010 A 
ATOM     37  C   UNL     1       4.532  -7.380   3.214  1.00  0.00     0.010 A 
ATOM     38  C   UNL     1       5.816  -6.891   3.522  1.00  0.00    -0.014 A 
BRANCH  38  39
ATOM     39  C   UNL     1       6.442  -7.175   4.840  1.00  0.00     0.031 A 
ATOM     40  C   UNL     1       6.977  -8.567   5.067  1.00  0.00     0.074 A 
ATOM     41  C   UNL     1       6.618  -6.228   5.778  1.00  0.00     0.049 A 
ATOM     42  N   UNL     1       7.588  -9.066   6.111  1.00  0.00    -0.248 NA
ATOM     43  C   UNL     1       6.804  -9.522   3.958  1.00  0.00     0.031 C 
ATOM     44  C   UNL     1       6.208  -4.830   5.668  1.00  0.00     0.029 A 
ATOM     45  N   UNL     1       7.204  -6.311   7.019  1.00  0.00    -0.354 N 
ATOM     46  C   UNL     1       7.874 -10.386   5.781  1.00  0.00     0.074 A 
ATOM     47  C   UNL     1       7.332 -10.624   4.463  1.00  0.00     0.031 C 
ATOM     48  C   UNL     1       6.547  -4.187   6.801  1.00  0.00     0.029 A 
ATOM     49  C   UNL     1       7.176  -5.132   7.724  1.00  0.00     0.049 A 
ATOM     50  H   UNL     1       7.606  -7.138   7.370  1.00  0.00     0.167 HD
ATOM     51  C   UNL     1       8.542 -11.318   6.499  1.00  0.00     0.031 A 
ATOM     52  C   UNL     1       7.595  -4.855   8.975  1.00  0.00     0.031 A 
ATOM     53  C   UNL     1       9.063 -11.100   7.819  1.00  0.00     0.049 A 
ATOM     54  C   UNL     1       8.248  -5.939   9.797  1.00  0.00     0.074 A 
ATOM     55  C   UNL     1       9.736 -11.990   8.638  1.00  0.00     0.029 A 
ATOM     56  N   UNL     1       8.965  -9.907   8.516  1.00  0.00    -0.354 N 
ATOM     57  N   UNL     1       8.522  -7.179   9.469  1.00  0.00    -0.248 NA
ATOM     58  C   UNL     1       8.664  -5.577  11.161  1.00  0.00     0.031 C 
ATOM     59  C   UNL     1       9.999 -11.349   9.854  1.00  0.00     0.029 A 
ATOM     60  C   UNL     1       9.548 -10.042   9.764  1.00  0.00     0.049 A 
ATOM     61  H   UNL     1       8.543  -9.086   8.175  1.00  0.00     0.167 HD
ATOM     62  C   UNL     1       9.167  -7.732  10.570  1.00  0.00     0.074 A 
ATOM     63  C   UNL     1       9.264  -6.686  11.567  1.00  0.00     0.031 C 
ATOM     64  C   UNL     1       9.638  -8.992  10.744  1.00  0.00     0.031 A 
BRANCH  51  65
ATOM     65  C   UNL     1       8.717 -12.672   5.871  1.00  0.00    -0.014 A 
ATOM     66  C   UNL     1       9.586 -12.863   4.784  1.00  0.00     0.009 A 
ATOM     67  C   UNL     1       8.017 -13.775   6.383  1.00  0.00     0.009 A 
ATOM     68  C   UNL     1       9.726 -14.125   4.204  1.00  0.00     0.001 A 
ATOM     69  C   UNL     1       8.182 -15.042   5.821  1.00  0.00     0.001 A 
ATOM     70  C   UNL     1       9.029 -15.214   4.726  1.00  0.00     0.000 A 
ENDBRANCH  51  65
BRANCH  52  71
ATOM     71  C   UNL     1       7.387  -3.500   9.558  1.00  0.00    -0.014 A 
ATOM     72  C   UNL     1       8.475  -2.671   9.874  1.00  0.00     0.009 A 
ATOM     73  C   UNL     1       6.090  -3.054   9.859  1.00  0.00     0.009 A 
ATOM     74  C   UNL     1       8.270  -1.443  10.509  1.00  0.00     0.001 A 
ATOM     75  C   UNL     1       5.886  -1.812  10.464  1.00  0.00     0.001 A 
ATOM     76  C   UNL     1       6.977  -1.013  10.800  1.00  0.00     0.000 A 
ENDBRANCH  52  71
BRANCH  64  77
ATOM     77  C   UNL     1      10.340  -9.296  12.040  1.00  0.00    -0.014 A 
ATOM     78  C   UNL     1       9.640  -9.375  13.254  1.00  0.00     0.009 A 
ATOM     79  C   UNL     1      11.723  -9.539  12.038  1.00  0.00     0.009 A 
ATOM     80  C   UNL     1      10.318  -9.646  14.445  1.00  0.00     0.001 A 
ATOM     81  C   UNL     1      12.393  -9.844  13.224  1.00  0.00     0.001 A 
ATOM     82  C   UNL     1      11.692  -9.884  14.428  1.00  0.00     0.000 A 
ENDBRANCH  64  77
ENDBRANCH  38  39
ENDBRANCH  31  33
ENDBRANCH  30  31
ENDBRANCH  29  30
ENDBRANCH  28  29
ENDBRANCH  27  28
ENDBRANCH  26  27
ENDBRANCH  25  26
ENDBRANCH   1  25
TORSDOF 23
