REMARK SMILES [NH3+][C@@H](C(=O)OCCOCCOCCOCCOC(=O)c1ccc(-c2c3nc(c(-c4ccccc4)c4ccc([nH]4)c(-c4ccccc4)c4nc(c(-c5ccccc5)c5ccc2[nH]5)C=C4)C=C3)cc1)C(C(F)(F)F)C(F)(F)F
REMARK SMILES IDX 11 1 10 2 9 3 8 4 7 5 6 6 5 7 3 8 4 9 2 10 1 11 68 15 69 16
REMARK SMILES IDX 70 17 71 18 72 19 73 20 74 21 75 22 76 23 12 24 13 25 14 26
REMARK SMILES IDX 15 27 16 28 17 29 18 30 19 31 20 32 21 33 67 34 22 35 66 36
REMARK SMILES IDX 23 37 24 38 25 39 60 40 26 41 65 42 59 43 61 44 27 45 64 46
REMARK SMILES IDX 58 47 57 48 28 50 50 51 35 52 49 53 36 54 39 55 48 56 62 57
REMARK SMILES IDX 37 58 38 59 47 61 63 62 40 63 29 64 30 65 34 66 31 67 33 68
REMARK SMILES IDX 32 69 51 70 52 71 56 72 53 73 55 74 54 75 41 76 42 77 46 78
REMARK SMILES IDX 43 79 45 80 44 81
REMARK H PARENT 1 12 1 13 1 14 61 49 39 60
REMARK Flexibility Score: inf
ROOT
ATOM      1  O   UNL     1       2.240   2.678   0.208  1.00  0.00    -0.377 OA
ENDROOT
BRANCH   1   2
ATOM      2  C   UNL     1       0.832   2.576   0.112  1.00  0.00     0.188 C 
BRANCH   2   3
ATOM      3  C   UNL     1       0.090   3.210   1.304  1.00  0.00     0.188 C 
BRANCH   3   4
ATOM      4  O   UNL     1       0.785   4.227   1.993  1.00  0.00    -0.376 OA
BRANCH   4   5
ATOM      5  C   UNL     1       1.785   3.930   2.958  1.00  0.00     0.202 C 
BRANCH   5   6
ATOM      6  C   UNL     1       2.375   2.536   3.259  1.00  0.00     0.261 C 
BRANCH   6   7
ATOM      7  O   UNL     1       1.820   1.437   2.538  1.00  0.00    -0.459 OA
BRANCH   7   8
ATOM      8  C   UNL     1       1.108   0.500   3.215  1.00  0.00     0.365 C 
ATOM      9  O   UNL     1       0.880   0.518   4.414  1.00  0.00    -0.245 OA
BRANCH   8  10
ATOM     10  C   UNL     1       0.544  -0.560   2.236  1.00  0.00     0.313 C 
BRANCH  10  11
ATOM     11  N   UNL     1       1.484  -0.728   1.090  1.00  0.00    -0.345 N 
ATOM     12  H   UNL     1       2.423  -0.908   1.445  1.00  0.00     0.345 HD
ATOM     13  H   UNL     1       1.490   0.122   0.527  1.00  0.00     0.345 HD
ATOM     14  H   UNL     1       1.181  -1.514   0.515  1.00  0.00     0.345 HD
ENDBRANCH  10  11
BRANCH  10  15
ATOM     15  C   UNL     1      -0.915  -0.281   1.825  1.00  0.00     0.268 C 
BRANCH  15  16
ATOM     16  C   UNL     1      -1.504  -1.454   1.107  1.00  0.00     0.406 C 
ATOM     17  F   UNL     1      -1.484  -2.580   1.841  1.00  0.00    -0.170 F 
ATOM     18  F   UNL     1      -2.775  -1.227   0.716  1.00  0.00    -0.170 F 
ATOM     19  F   UNL     1      -0.808  -1.695  -0.034  1.00  0.00    -0.170 F 
ENDBRANCH  15  16
BRANCH  15  20
ATOM     20  C   UNL     1      -1.803  -0.020   3.008  1.00  0.00     0.406 C 
ATOM     21  F   UNL     1      -1.498   1.170   3.573  1.00  0.00    -0.170 F 
ATOM     22  F   UNL     1      -3.103   0.072   2.658  1.00  0.00    -0.170 F 
ATOM     23  F   UNL     1      -1.693  -0.973   3.950  1.00  0.00    -0.170 F 
ENDBRANCH  15  20
ENDBRANCH  10  15
ENDBRANCH   8  10
ENDBRANCH   7   8
ENDBRANCH   6   7
ENDBRANCH   5   6
ENDBRANCH   4   5
ENDBRANCH   3   4
ENDBRANCH   2   3
ENDBRANCH   1   2
BRANCH   1  24
ATOM     24  C   UNL     1       2.845   3.854  -0.327  1.00  0.00     0.188 C 
BRANCH  24  25
ATOM     25  C   UNL     1       2.040   5.169  -0.471  1.00  0.00     0.188 C 
BRANCH  25  26
ATOM     26  O   UNL     1       0.723   5.009  -0.981  1.00  0.00    -0.376 OA
BRANCH  26  27
ATOM     27  C   UNL     1       0.486   5.300  -2.350  1.00  0.00     0.202 C 
BRANCH  27  28
ATOM     28  C   UNL     1       1.136   4.359  -3.376  1.00  0.00     0.261 C 
BRANCH  28  29
ATOM     29  O   UNL     1       2.569   4.277  -3.331  1.00  0.00    -0.460 OA
BRANCH  29  30
ATOM     30  C   UNL     1       3.265   5.419  -3.516  1.00  0.00     0.338 C 
ATOM     31  O   UNL     1       2.818   6.521  -3.785  1.00  0.00    -0.246 OA
BRANCH  30  32
ATOM     32  C   UNL     1       4.668   5.158  -3.136  1.00  0.00     0.060 A 
ATOM     33  C   UNL     1       5.245   5.922  -2.112  1.00  0.00     0.016 A 
ATOM     34  C   UNL     1       5.407   4.166  -3.783  1.00  0.00     0.016 A 
ATOM     35  C   UNL     1       6.580   5.723  -1.761  1.00  0.00     0.010 A 
ATOM     36  C   UNL     1       6.750   3.983  -3.446  1.00  0.00     0.010 A 
ATOM     37  C   UNL     1       7.353   4.787  -2.460  1.00  0.00    -0.014 A 
BRANCH  37  38
ATOM     38  C   UNL     1       8.828   4.794  -2.314  1.00  0.00     0.031 A 
ATOM     39  C   UNL     1       9.641   5.529  -3.346  1.00  0.00     0.074 A 
ATOM     40  C   UNL     1       9.438   4.184  -1.283  1.00  0.00     0.049 A 
ATOM     41  N   UNL     1      10.940   5.638  -3.458  1.00  0.00    -0.248 NA
ATOM     42  C   UNL     1       8.884   6.234  -4.394  1.00  0.00     0.031 C 
ATOM     43  C   UNL     1       8.765   3.488  -0.188  1.00  0.00     0.029 A 
ATOM     44  N   UNL     1      10.774   4.053  -0.997  1.00  0.00    -0.354 N 
ATOM     45  C   UNL     1      11.154   6.409  -4.594  1.00  0.00     0.074 A 
ATOM     46  C   UNL     1       9.856   6.718  -5.151  1.00  0.00     0.031 C 
ATOM     47  C   UNL     1       9.695   2.996   0.650  1.00  0.00     0.029 A 
ATOM     48  C   UNL     1      11.025   3.310   0.130  1.00  0.00     0.049 A 
ATOM     49  H   UNL     1      11.485   4.454  -1.547  1.00  0.00     0.167 HD
ATOM     50  C   UNL     1      12.327   6.826  -5.127  1.00  0.00     0.031 A 
ATOM     51  C   UNL     1      12.196   2.910   0.665  1.00  0.00     0.031 A 
ATOM     52  C   UNL     1      13.619   6.507  -4.582  1.00  0.00     0.049 A 
ATOM     53  C   UNL     1      13.489   3.309   0.000  1.00  0.00     0.074 A 
ATOM     54  C   UNL     1      14.865   6.897  -5.039  1.00  0.00     0.029 A 
ATOM     55  N   UNL     1      13.831   5.712  -3.467  1.00  0.00    -0.354 N 
ATOM     56  N   UNL     1      13.681   4.062  -1.056  1.00  0.00    -0.248 NA
ATOM     57  C   UNL     1      14.729   2.805   0.610  1.00  0.00     0.031 C 
ATOM     58  C   UNL     1      15.834   6.280  -4.242  1.00  0.00     0.029 A 
ATOM     59  C   UNL     1      15.189   5.569  -3.242  1.00  0.00     0.049 A 
ATOM     60  H   UNL     1      13.121   5.308  -2.918  1.00  0.00     0.167 HD
ATOM     61  C   UNL     1      15.059   4.151  -1.215  1.00  0.00     0.074 A 
ATOM     62  C   UNL     1      15.655   3.388  -0.139  1.00  0.00     0.031 C 
ATOM     63  C   UNL     1      15.769   4.809  -2.165  1.00  0.00     0.031 A 
BRANCH  50  64
ATOM     64  C   UNL     1      12.264   7.635  -6.392  1.00  0.00    -0.014 A 
ATOM     65  C   UNL     1      11.774   8.951  -6.401  1.00  0.00     0.009 A 
ATOM     66  C   UNL     1      12.735   7.079  -7.592  1.00  0.00     0.009 A 
ATOM     67  C   UNL     1      11.726   9.680  -7.591  1.00  0.00     0.001 A 
ATOM     68  C   UNL     1      12.716   7.821  -8.774  1.00  0.00     0.001 A 
ATOM     69  C   UNL     1      12.203   9.116  -8.775  1.00  0.00     0.000 A 
ENDBRANCH  50  64
BRANCH  51  70
ATOM     70  C   UNL     1      12.212   2.062   1.888  1.00  0.00    -0.014 A 
ATOM     71  C   UNL     1      12.730   2.555   3.096  1.00  0.00     0.009 A 
ATOM     72  C   UNL     1      11.745   0.738   1.844  1.00  0.00     0.009 A 
ATOM     73  C   UNL     1      12.808   1.732   4.223  1.00  0.00     0.001 A 
ATOM     74  C   UNL     1      11.793  -0.071   2.981  1.00  0.00     0.001 A 
ATOM     75  C   UNL     1      12.335   0.422   4.166  1.00  0.00     0.000 A 
ENDBRANCH  51  70
BRANCH  63  76
ATOM     76  C   UNL     1      17.270   4.777  -2.058  1.00  0.00    -0.014 A 
ATOM     77  C   UNL     1      18.002   3.607  -2.313  1.00  0.00     0.009 A 
ATOM     78  C   UNL     1      17.965   5.957  -1.742  1.00  0.00     0.009 A 
ATOM     79  C   UNL     1      19.395   3.611  -2.217  1.00  0.00     0.001 A 
ATOM     80  C   UNL     1      19.359   5.966  -1.681  1.00  0.00     0.001 A 
ATOM     81  C   UNL     1      20.073   4.790  -1.907  1.00  0.00     0.000 A 
ENDBRANCH  63  76
ENDBRANCH  37  38
ENDBRANCH  30  32
ENDBRANCH  29  30
ENDBRANCH  28  29
ENDBRANCH  27  28
ENDBRANCH  26  27
ENDBRANCH  25  26
ENDBRANCH  24  25
ENDBRANCH   1  24
TORSDOF 24
