REMARK SMILES Cc1cc(F)c([C@@H](C)[N@@H+]2C[C@H](C)[C@H](C(=O)OCCOCCOCCOCCOC(=O)c3ccc(-c4c5nc(c(-c6ccccc6)c6ccc([nH]6)c(-c6ccccc6)c6nc(c(-c7ccccc7)c7ccc4[nH]7)C=C6)C=C5)cc3)C2)cc1F
REMARK SMILES IDX 22 1 21 2 20 3 19 4 18 5 17 6 16 7 14 8 15 9 13 10 9 11
REMARK SMILES IDX 10 12 79 13 11 15 12 16 7 17 8 18 6 19 1 20 2 21 3 22 81 23
REMARK SMILES IDX 4 24 80 25 82 26 5 27 23 28 24 29 25 30 26 31 27 32 28 33
REMARK SMILES IDX 29 34 30 35 31 36 32 37 78 38 33 39 77 40 34 41 35 42 36 43
REMARK SMILES IDX 71 44 37 45 76 46 70 47 72 48 38 49 75 50 69 51 68 52 39 54
REMARK SMILES IDX 61 55 46 56 60 57 47 58 50 59 59 60 73 61 48 62 49 63 58 65
REMARK SMILES IDX 74 66 51 67 40 68 41 69 45 70 42 71 44 72 43 73 62 74 63 75
REMARK SMILES IDX 67 76 64 77 66 78 65 79 52 80 53 81 57 82 54 83 56 84 55 85
REMARK H PARENT 9 14 72 53 50 64
REMARK Flexibility Score: inf
ROOT
ATOM      1  O   UNL     1      -3.160   1.595   4.165  1.00  0.00    -0.377 OA
ENDROOT
BRANCH   1   2
ATOM      2  C   UNL     1      -4.207   2.507   4.460  1.00  0.00     0.188 C 
BRANCH   2   3
ATOM      3  C   UNL     1      -5.634   2.219   3.972  1.00  0.00     0.188 C 
BRANCH   3   4
ATOM      4  O   UNL     1      -5.817   0.943   3.372  1.00  0.00    -0.376 OA
BRANCH   4   5
ATOM      5  C   UNL     1      -6.066   0.963   1.972  1.00  0.00     0.202 C 
BRANCH   5   6
ATOM      6  C   UNL     1      -4.837   1.221   1.089  1.00  0.00     0.261 C 
BRANCH   6   7
ATOM      7  O   UNL     1      -4.036   2.352   1.474  1.00  0.00    -0.463 OA
BRANCH   7   8
ATOM      8  C   UNL     1      -4.477   3.566   1.101  1.00  0.00     0.315 C 
ATOM      9  O   UNL     1      -5.553   3.743   0.534  1.00  0.00    -0.252 OA
BRANCH   8  10
ATOM     10  C   UNL     1      -3.560   4.725   1.457  1.00  0.00     0.162 C 
ATOM     11  N   UNL     1      -1.859   5.924   0.235  1.00  0.00    -0.328 N 
ATOM     12  C   UNL     1      -1.417   5.815   1.618  1.00  0.00     0.267 C 
ATOM     13  C   UNL     1      -3.240   5.466   0.159  1.00  0.00     0.278 C 
ATOM     14  H   UNL     1      -1.847   6.910  -0.029  1.00  0.00     0.348 HD
ATOM     15  C   UNL     1      -2.240   4.685   2.257  1.00  0.00     0.061 C 
ATOM     16  C   UNL     1      -1.417   3.407   2.403  1.00  0.00     0.015 C 
BRANCH  11  17
ATOM     17  C   UNL     1      -0.925   5.498  -0.818  1.00  0.00     0.215 C 
ATOM     18  C   UNL     1      -1.455   5.792  -2.230  1.00  0.00     0.081 C 
BRANCH  17  19
ATOM     19  C   UNL     1      -0.363   4.089  -0.704  1.00  0.00     0.048 A 
ATOM     20  C   UNL     1       1.295   0.148   0.001  1.00  0.00     0.047 C 
ATOM     21  C   UNL     1       0.743   1.505  -0.301  1.00  0.00    -0.012 A 
ATOM     22  C   UNL     1      -0.577   1.655  -0.740  1.00  0.00     0.046 A 
ATOM     23  C   UNL     1       1.508   2.651  -0.095  1.00  0.00     0.126 A 
ATOM     24  C   UNL     1      -1.111   2.930  -0.945  1.00  0.00     0.132 A 
ATOM     25  C   UNL     1       0.975   3.923  -0.299  1.00  0.00     0.052 A 
ATOM     26  F   UNL     1       2.771   2.546   0.339  1.00  0.00    -0.207 F 
ATOM     27  F   UNL     1      -2.386   3.007  -1.347  1.00  0.00    -0.206 F 
ENDBRANCH  17  19
ENDBRANCH  11  17
ENDBRANCH   8  10
ENDBRANCH   7   8
ENDBRANCH   6   7
ENDBRANCH   5   6
ENDBRANCH   4   5
ENDBRANCH   3   4
ENDBRANCH   2   3
ENDBRANCH   1   2
BRANCH   1  28
ATOM     28  C   UNL     1      -3.380   0.200   4.322  1.00  0.00     0.188 C 
BRANCH  28  29
ATOM     29  C   UNL     1      -4.213  -0.292   5.518  1.00  0.00     0.188 C 
BRANCH  29  30
ATOM     30  O   UNL     1      -4.481   0.704   6.493  1.00  0.00    -0.376 OA
BRANCH  30  31
ATOM     31  C   UNL     1      -3.635   0.721   7.636  1.00  0.00     0.202 C 
BRANCH  31  32
ATOM     32  C   UNL     1      -2.157   1.060   7.396  1.00  0.00     0.261 C 
BRANCH  32  33
ATOM     33  O   UNL     1      -1.414   0.147   6.569  1.00  0.00    -0.460 OA
BRANCH  33  34
ATOM     34  C   UNL     1      -1.347  -1.152   6.929  1.00  0.00     0.338 C 
ATOM     35  O   UNL     1      -1.825  -1.674   7.921  1.00  0.00    -0.246 OA
BRANCH  34  36
ATOM     36  C   UNL     1      -0.747  -1.885   5.793  1.00  0.00     0.060 A 
ATOM     37  C   UNL     1       0.522  -1.539   5.322  1.00  0.00     0.016 A 
ATOM     38  C   UNL     1      -1.483  -2.897   5.165  1.00  0.00     0.016 A 
ATOM     39  C   UNL     1       1.069  -2.231   4.238  1.00  0.00     0.010 A 
ATOM     40  C   UNL     1      -0.942  -3.576   4.069  1.00  0.00     0.010 A 
ATOM     41  C   UNL     1       0.349  -3.266   3.615  1.00  0.00    -0.014 A 
BRANCH  41  42
ATOM     42  C   UNL     1       1.025  -4.165   2.647  1.00  0.00     0.031 A 
ATOM     43  C   UNL     1       0.857  -4.035   1.164  1.00  0.00     0.074 A 
ATOM     44  C   UNL     1       1.802  -5.144   3.150  1.00  0.00     0.049 A 
ATOM     45  N   UNL     1       1.489  -4.680   0.215  1.00  0.00    -0.248 NA
ATOM     46  C   UNL     1      -0.132  -3.064   0.675  1.00  0.00     0.031 C 
ATOM     47  C   UNL     1       2.025  -5.384   4.577  1.00  0.00     0.029 A 
ATOM     48  N   UNL     1       2.540  -6.118   2.527  1.00  0.00    -0.354 N 
ATOM     49  C   UNL     1       1.026  -4.151  -0.981  1.00  0.00     0.074 A 
ATOM     50  C   UNL     1       0.005  -3.182  -0.643  1.00  0.00     0.031 C 
ATOM     51  C   UNL     1       2.850  -6.431   4.721  1.00  0.00     0.029 A 
ATOM     52  C   UNL     1       3.194  -6.952   3.401  1.00  0.00     0.049 A 
ATOM     53  H   UNL     1       2.597  -6.210   1.549  1.00  0.00     0.167 HD
ATOM     54  C   UNL     1       1.440  -4.435  -2.239  1.00  0.00     0.031 A 
ATOM     55  C   UNL     1       3.980  -8.021   3.173  1.00  0.00     0.031 A 
ATOM     56  C   UNL     1       2.396  -5.462  -2.570  1.00  0.00     0.049 A 
ATOM     57  C   UNL     1       4.289  -8.418   1.757  1.00  0.00     0.074 A 
ATOM     58  C   UNL     1       2.890  -5.798  -3.819  1.00  0.00     0.029 A 
ATOM     59  N   UNL     1       2.966  -6.340  -1.664  1.00  0.00    -0.354 N 
ATOM     60  N   UNL     1       3.954  -7.814   0.643  1.00  0.00    -0.248 NA
ATOM     61  C   UNL     1       5.092  -9.634   1.565  1.00  0.00     0.031 C 
ATOM     62  C   UNL     1       3.686  -6.936  -3.681  1.00  0.00     0.029 A 
ATOM     63  C   UNL     1       3.753  -7.261  -2.336  1.00  0.00     0.049 A 
ATOM     64  H   UNL     1       2.833  -6.314  -0.689  1.00  0.00     0.167 HD
ATOM     65  C   UNL     1       4.526  -8.560  -0.379  1.00  0.00     0.074 A 
ATOM     66  C   UNL     1       5.241  -9.653   0.246  1.00  0.00     0.031 C 
ATOM     67  C   UNL     1       4.462  -8.350  -1.715  1.00  0.00     0.031 A 
BRANCH  54  68
ATOM     68  C   UNL     1       0.897  -3.623  -3.381  1.00  0.00    -0.014 A 
ATOM     69  C   UNL     1       0.053  -4.217  -4.333  1.00  0.00     0.009 A 
ATOM     70  C   UNL     1       1.387  -2.330  -3.620  1.00  0.00     0.009 A 
ATOM     71  C   UNL     1      -0.265  -3.544  -5.515  1.00  0.00     0.001 A 
ATOM     72  C   UNL     1       1.051  -1.651  -4.794  1.00  0.00     0.001 A 
ATOM     73  C   UNL     1       0.237  -2.264  -5.746  1.00  0.00     0.000 A 
ENDBRANCH  54  68
BRANCH  55  74
ATOM     74  C   UNL     1       4.542  -8.776   4.323  1.00  0.00    -0.014 A 
ATOM     75  C   UNL     1       3.699  -9.494   5.188  1.00  0.00     0.009 A 
ATOM     76  C   UNL     1       5.920  -8.758   4.582  1.00  0.00     0.009 A 
ATOM     77  C   UNL     1       4.221 -10.159   6.299  1.00  0.00     0.001 A 
ATOM     78  C   UNL     1       6.444  -9.453   5.674  1.00  0.00     0.001 A 
ATOM     79  C   UNL     1       5.593 -10.145   6.536  1.00  0.00     0.000 A 
ENDBRANCH  55  74
BRANCH  67  80
ATOM     80  C   UNL     1       5.177  -9.313  -2.622  1.00  0.00    -0.014 A 
ATOM     81  C   UNL     1       6.286  -8.879  -3.367  1.00  0.00     0.009 A 
ATOM     82  C   UNL     1       4.678 -10.606  -2.836  1.00  0.00     0.009 A 
ATOM     83  C   UNL     1       6.861  -9.709  -4.331  1.00  0.00     0.001 A 
ATOM     84  C   UNL     1       5.275 -11.445  -3.779  1.00  0.00     0.001 A 
ATOM     85  C   UNL     1       6.355 -10.992  -4.535  1.00  0.00     0.000 A 
ENDBRANCH  67  80
ENDBRANCH  41  42
ENDBRANCH  34  36
ENDBRANCH  33  34
ENDBRANCH  32  33
ENDBRANCH  31  32
ENDBRANCH  30  31
ENDBRANCH  29  30
ENDBRANCH  28  29
ENDBRANCH   1  28
TORSDOF 22
