REMARK SMILES Cc1ccc(Nc2c(Cl)cccc2Cl)c(CC(=O)OCCOCCOCCOCCOC(=O)c2ccc(-c3c4nc(c(-c5ccccc5)c5ccc([nH]5)c(-c5ccccc5)c5nc(c(-c6ccccc6)c6ccc3[nH]6)C=C5)C=C4)cc2)c1
REMARK SMILES IDX 24 1 23 2 22 3 21 4 20 5 19 6 17 7 18 8 16 9 15 10 1 11 2 12
REMARK SMILES IDX 3 13 82 14 4 15 5 16 6 17 7 19 8 20 13 21 9 22 10 23 12 24
REMARK SMILES IDX 14 25 11 26 25 27 26 28 27 29 28 30 29 31 30 32 31 33 32 34
REMARK SMILES IDX 33 35 34 36 35 37 81 38 36 39 80 40 37 41 38 42 39 43 74 44
REMARK SMILES IDX 40 45 79 46 73 47 75 48 41 49 78 50 72 51 71 52 42 54 64 55
REMARK SMILES IDX 49 56 63 57 50 58 53 59 62 60 76 61 51 62 52 63 61 65 77 66
REMARK SMILES IDX 54 67 43 68 44 69 48 70 45 71 47 72 46 73 65 74 66 75 70 76
REMARK SMILES IDX 67 77 69 78 68 79 55 80 56 81 60 82 57 83 59 84 58 85
REMARK H PARENT 6 18 75 53 53 64
REMARK Flexibility Score: inf
ROOT
ATOM      1  C   UNL     1      -3.335  -0.318  -1.320  1.00  0.00     0.188 C 
ENDROOT
BRANCH   1   2
ATOM      2  C   UNL     1      -4.046   0.481  -0.262  1.00  0.00     0.188 C 
BRANCH   2   3
ATOM      3  O   UNL     1      -5.082   1.362  -0.647  1.00  0.00    -0.376 OA
BRANCH   3   4
ATOM      4  C   UNL     1      -4.565   2.547  -1.211  1.00  0.00     0.202 C 
BRANCH   4   5
ATOM      5  C   UNL     1      -3.909   3.529  -0.249  1.00  0.00     0.261 C 
BRANCH   5   6
ATOM      6  O   UNL     1      -2.722   2.979   0.342  1.00  0.00    -0.463 OA
BRANCH   6   7
ATOM      7  C   UNL     1      -2.631   3.162   1.677  1.00  0.00     0.310 C 
ATOM      8  O   UNL     1      -3.285   3.993   2.302  1.00  0.00    -0.252 OA
BRANCH   7   9
ATOM      9  C   UNL     1      -1.618   2.286   2.371  1.00  0.00     0.160 C 
BRANCH   9  10
ATOM     10  C   UNL     1      -1.133   0.984   1.746  1.00  0.00    -0.013 A 
ATOM     11  C   UNL     1       2.148   0.070  -0.062  1.00  0.00     0.044 C 
ATOM     12  C   UNL     1       0.778  -0.027   0.538  1.00  0.00    -0.051 A 
ATOM     13  C   UNL     1       0.154  -1.259   0.638  1.00  0.00     0.005 A 
ATOM     14  C   UNL     1       0.112   1.087   1.055  1.00  0.00     0.009 A 
ATOM     15  C   UNL     1      -1.105  -1.368   1.239  1.00  0.00     0.026 A 
ATOM     16  C   UNL     1      -1.775  -0.288   1.851  1.00  0.00     0.042 A 
BRANCH  16  17
ATOM     17  N   UNL     1      -3.045  -0.492   2.508  1.00  0.00    -0.353 N 
ATOM     18  H   UNL     1      -3.351   0.257   3.069  1.00  0.00     0.167 HD
BRANCH  17  19
ATOM     19  C   UNL     1      -3.936  -1.633   2.465  1.00  0.00     0.076 A 
ATOM     20  C   UNL     1      -3.503  -2.965   2.554  1.00  0.00     0.066 A 
ATOM     21  C   UNL     1      -5.284  -1.475   2.055  1.00  0.00     0.066 A 
ATOM     22  Cl  UNL     1      -2.162  -3.405   3.561  1.00  0.00    -0.082 Cl
ATOM     23  C   UNL     1      -4.209  -4.013   1.936  1.00  0.00     0.023 A 
ATOM     24  C   UNL     1      -5.976  -2.502   1.385  1.00  0.00     0.023 A 
ATOM     25  Cl  UNL     1      -6.135   0.016   2.321  1.00  0.00    -0.082 Cl
ATOM     26  C   UNL     1      -5.406  -3.764   1.272  1.00  0.00     0.003 A 
ENDBRANCH  17  19
ENDBRANCH  16  17
ENDBRANCH   9  10
ENDBRANCH   7   9
ENDBRANCH   6   7
ENDBRANCH   5   6
ENDBRANCH   4   5
ENDBRANCH   3   4
ENDBRANCH   2   3
ENDBRANCH   1   2
BRANCH   1  27
ATOM     27  O   UNL     1      -2.027   0.106  -1.667  1.00  0.00    -0.377 OA
BRANCH  27  28
ATOM     28  C   UNL     1      -1.638  -0.412  -2.946  1.00  0.00     0.188 C 
BRANCH  28  29
ATOM     29  C   UNL     1      -1.712  -1.930  -3.153  1.00  0.00     0.188 C 
BRANCH  29  30
ATOM     30  O   UNL     1      -3.070  -2.346  -3.138  1.00  0.00    -0.376 OA
BRANCH  30  31
ATOM     31  C   UNL     1      -3.442  -3.409  -2.269  1.00  0.00     0.202 C 
BRANCH  31  32
ATOM     32  C   UNL     1      -4.183  -4.447  -3.107  1.00  0.00     0.261 C 
BRANCH  32  33
ATOM     33  O   UNL     1      -5.244  -3.776  -3.826  1.00  0.00    -0.460 OA
BRANCH  33  34
ATOM     34  C   UNL     1      -4.874  -3.324  -5.063  1.00  0.00     0.338 C 
ATOM     35  O   UNL     1      -4.248  -3.966  -5.883  1.00  0.00    -0.246 OA
BRANCH  34  36
ATOM     36  C   UNL     1      -5.129  -1.851  -5.187  1.00  0.00     0.060 A 
ATOM     37  C   UNL     1      -4.534  -1.146  -6.248  1.00  0.00     0.016 A 
ATOM     38  C   UNL     1      -5.710  -1.137  -4.142  1.00  0.00     0.016 A 
ATOM     39  C   UNL     1      -4.393   0.252  -6.191  1.00  0.00     0.010 A 
ATOM     40  C   UNL     1      -5.529   0.241  -4.074  1.00  0.00     0.010 A 
ATOM     41  C   UNL     1      -4.811   0.947  -5.058  1.00  0.00    -0.014 A 
BRANCH  41  42
ATOM     42  C   UNL     1      -4.403   2.331  -4.711  1.00  0.00     0.031 A 
ATOM     43  C   UNL     1      -5.436   3.329  -4.278  1.00  0.00     0.074 A 
ATOM     44  C   UNL     1      -3.098   2.555  -4.390  1.00  0.00     0.049 A 
ATOM     45  N   UNL     1      -5.171   4.520  -3.850  1.00  0.00    -0.248 NA
ATOM     46  C   UNL     1      -6.876   3.060  -4.256  1.00  0.00     0.031 C 
ATOM     47  C   UNL     1      -2.562   3.534  -3.435  1.00  0.00     0.029 A 
ATOM     48  N   UNL     1      -1.937   1.937  -4.830  1.00  0.00    -0.354 N 
ATOM     49  C   UNL     1      -6.263   4.965  -3.131  1.00  0.00     0.074 A 
ATOM     50  C   UNL     1      -7.339   4.095  -3.541  1.00  0.00     0.031 C 
ATOM     51  C   UNL     1      -1.221   3.516  -3.430  1.00  0.00     0.029 A 
ATOM     52  C   UNL     1      -0.857   2.807  -4.628  1.00  0.00     0.049 A 
ATOM     53  H   UNL     1      -1.880   1.035  -5.221  1.00  0.00     0.167 HD
ATOM     54  C   UNL     1      -6.081   5.885  -2.133  1.00  0.00     0.031 A 
ATOM     55  C   UNL     1      -0.207   3.393  -5.679  1.00  0.00     0.031 A 
ATOM     56  C   UNL     1      -4.728   6.484  -2.135  1.00  0.00     0.049 A 
ATOM     57  C   UNL     1      -0.463   4.904  -5.715  1.00  0.00     0.074 A 
ATOM     58  C   UNL     1      -3.783   6.820  -1.175  1.00  0.00     0.029 A 
ATOM     59  N   UNL     1      -4.098   6.718  -3.356  1.00  0.00    -0.354 N 
ATOM     60  N   UNL     1      -1.367   5.502  -4.975  1.00  0.00    -0.248 NA
ATOM     61  C   UNL     1       0.268   5.873  -6.521  1.00  0.00     0.031 C 
ATOM     62  C   UNL     1      -2.567   7.167  -1.841  1.00  0.00     0.029 A 
ATOM     63  C   UNL     1      -2.803   7.151  -3.204  1.00  0.00     0.049 A 
ATOM     64  H   UNL     1      -4.533   6.588  -4.229  1.00  0.00     0.167 HD
ATOM     65  C   UNL     1      -1.316   6.858  -5.114  1.00  0.00     0.074 A 
ATOM     66  C   UNL     1      -0.311   7.036  -6.150  1.00  0.00     0.031 C 
ATOM     67  C   UNL     1      -2.100   7.696  -4.364  1.00  0.00     0.031 A 
BRANCH  54  68
ATOM     68  C   UNL     1      -7.079   6.138  -1.002  1.00  0.00    -0.014 A 
ATOM     69  C   UNL     1      -6.876   7.214  -0.113  1.00  0.00     0.009 A 
ATOM     70  C   UNL     1      -8.164   5.297  -0.685  1.00  0.00     0.009 A 
ATOM     71  C   UNL     1      -7.682   7.425   1.020  1.00  0.00     0.001 A 
ATOM     72  C   UNL     1      -9.006   5.529   0.420  1.00  0.00     0.001 A 
ATOM     73  C   UNL     1      -8.757   6.587   1.281  1.00  0.00     0.000 A 
ENDBRANCH  54  68
BRANCH  55  74
ATOM     74  C   UNL     1       0.009   2.393  -6.777  1.00  0.00    -0.014 A 
ATOM     75  C   UNL     1       0.871   1.323  -6.424  1.00  0.00     0.009 A 
ATOM     76  C   UNL     1      -1.010   2.131  -7.710  1.00  0.00     0.009 A 
ATOM     77  C   UNL     1       0.562   0.003  -6.774  1.00  0.00     0.001 A 
ATOM     78  C   UNL     1      -1.290   0.803  -8.088  1.00  0.00     0.001 A 
ATOM     79  C   UNL     1      -0.550  -0.261  -7.565  1.00  0.00     0.000 A 
ENDBRANCH  55  74
BRANCH  67  80
ATOM     80  C   UNL     1      -2.391   9.154  -4.649  1.00  0.00    -0.014 A 
ATOM     81  C   UNL     1      -1.566  10.020  -5.359  1.00  0.00     0.009 A 
ATOM     82  C   UNL     1      -3.616   9.701  -4.179  1.00  0.00     0.009 A 
ATOM     83  C   UNL     1      -1.994  11.316  -5.684  1.00  0.00     0.001 A 
ATOM     84  C   UNL     1      -4.041  10.991  -4.482  1.00  0.00     0.001 A 
ATOM     85  C   UNL     1      -3.235  11.793  -5.264  1.00  0.00     0.000 A 
ENDBRANCH  67  80
ENDBRANCH  41  42
ENDBRANCH  34  36
ENDBRANCH  33  34
ENDBRANCH  32  33
ENDBRANCH  31  32
ENDBRANCH  30  31
ENDBRANCH  29  30
ENDBRANCH  28  29
ENDBRANCH  27  28
ENDBRANCH   1  27
TORSDOF 23
