REMARK SMILES CC(C)c1cc2c(cc1Cl)C=C(C(=O)OCCOCCOCCOCCOC(=O)c1ccc(-c3c4nc(c(-c5ccccc5)c5ccc([nH]5)c(-c5ccccc5)c5nc(c(-c6ccccc6)c6ccc3[nH]6)C=C5)C=C4)cc1)[C@@H](C(F)(F)F)O2
REMARK SMILES IDX 22 1 21 2 20 3 19 4 18 5 17 6 16 7 15 8 13 9 14 10 12 11
REMARK SMILES IDX 4 12 5 13 9 14 6 15 8 16 10 17 7 18 83 19 11 20 78 21 2 22
REMARK SMILES IDX 1 23 3 24 79 25 80 26 81 27 82 28 23 29 24 30 25 31 26 32
REMARK SMILES IDX 27 33 28 34 29 35 30 36 31 37 77 38 32 39 76 40 33 41 34 42
REMARK SMILES IDX 35 43 70 44 36 45 75 46 69 47 71 48 37 49 74 50 68 51 67 52
REMARK SMILES IDX 38 54 60 55 45 56 59 57 46 58 49 59 58 60 72 61 47 62 48 63
REMARK SMILES IDX 57 65 73 66 50 67 39 68 40 69 44 70 41 71 43 72 42 73 61 74
REMARK SMILES IDX 62 75 66 76 63 77 65 78 64 79 51 80 52 81 56 82 53 83 55 84
REMARK SMILES IDX 54 85
REMARK H PARENT 71 53 49 64
REMARK Flexibility Score: inf
ROOT
ATOM      1  C   UNL     1      -9.193  -0.994   2.834  1.00  0.00     0.188 C 
ENDROOT
BRANCH   1   2
ATOM      2  O   UNL     1      -8.165  -0.765   1.870  1.00  0.00    -0.377 OA
BRANCH   2   3
ATOM      3  C   UNL     1      -7.513   0.495   1.893  1.00  0.00     0.188 C 
BRANCH   3   4
ATOM      4  C   UNL     1      -8.306   1.593   1.160  1.00  0.00     0.188 C 
BRANCH   4   5
ATOM      5  O   UNL     1      -9.639   1.199   0.842  1.00  0.00    -0.376 OA
BRANCH   5   6
ATOM      6  C   UNL     1      -9.904   0.819  -0.502  1.00  0.00     0.202 C 
BRANCH   6   7
ATOM      7  C   UNL     1      -9.240  -0.470  -1.011  1.00  0.00     0.261 C 
BRANCH   7   8
ATOM      8  O   UNL     1      -7.808  -0.497  -0.917  1.00  0.00    -0.460 OA
BRANCH   8   9
ATOM      9  C   UNL     1      -7.116   0.377  -1.673  1.00  0.00     0.338 C 
ATOM     10  O   UNL     1      -7.570   1.159  -2.488  1.00  0.00    -0.246 OA
BRANCH   9  11
ATOM     11  C   UNL     1      -5.707   0.343  -1.224  1.00  0.00     0.087 C 
ATOM     12  C   UNL     1      -0.936   1.468  -0.083  1.00  0.00    -0.023 A 
ATOM     13  C   UNL     1      -1.672   0.278  -0.234  1.00  0.00     0.052 A 
ATOM     14  C   UNL     1      -1.664   2.675  -0.050  1.00  0.00     0.045 A 
ATOM     15  C   UNL     1      -3.050   0.296  -0.461  1.00  0.00     0.128 A 
ATOM     16  C   UNL     1      -3.042   2.694  -0.302  1.00  0.00     0.032 A 
ATOM     17  Cl  UNL     1      -0.913   4.200   0.275  1.00  0.00    -0.084 Cl
ATOM     18  C   UNL     1      -3.727   1.507  -0.562  1.00  0.00     0.019 A 
ATOM     19  O   UNL     1      -3.642  -0.922  -0.612  1.00  0.00    -0.475 OA
ATOM     20  C   UNL     1      -5.110   1.522  -1.008  1.00  0.00     0.027 C 
ATOM     21  C   UNL     1      -5.055  -0.990  -0.950  1.00  0.00     0.316 C 
BRANCH  12  22
ATOM     22  C   UNL     1       0.591   1.453  -0.056  1.00  0.00     0.014 C 
ATOM     23  C   UNL     1       1.233   0.090   0.242  1.00  0.00     0.012 C 
ATOM     24  C   UNL     1       1.138   1.955  -1.403  1.00  0.00     0.012 C 
ENDBRANCH  12  22
BRANCH  21  25
ATOM     25  C   UNL     1      -5.195  -1.975  -2.120  1.00  0.00     0.430 C 
ATOM     26  F   UNL     1      -4.567  -3.146  -1.849  1.00  0.00    -0.167 F 
ATOM     27  F   UNL     1      -6.485  -2.283  -2.385  1.00  0.00    -0.167 F 
ATOM     28  F   UNL     1      -4.656  -1.481  -3.258  1.00  0.00    -0.167 F 
ENDBRANCH  21  25
ENDBRANCH   9  11
ENDBRANCH   8   9
ENDBRANCH   7   8
ENDBRANCH   6   7
ENDBRANCH   5   6
ENDBRANCH   4   5
ENDBRANCH   3   4
ENDBRANCH   2   3
ENDBRANCH   1   2
BRANCH   1  29
ATOM     29  C   UNL     1      -9.954   0.171   3.509  1.00  0.00     0.188 C 
BRANCH  29  30
ATOM     30  O   UNL     1      -9.106   1.210   3.994  1.00  0.00    -0.376 OA
BRANCH  30  31
ATOM     31  C   UNL     1      -8.971   1.323   5.404  1.00  0.00     0.202 C 
BRANCH  31  32
ATOM     32  C   UNL     1      -8.017   0.292   6.017  1.00  0.00     0.261 C 
BRANCH  32  33
ATOM     33  O   UNL     1      -8.425  -1.077   5.871  1.00  0.00    -0.460 OA
BRANCH  33  34
ATOM     34  C   UNL     1      -9.613  -1.440   6.404  1.00  0.00     0.338 C 
ATOM     35  O   UNL     1     -10.373  -0.749   7.058  1.00  0.00    -0.246 OA
BRANCH  34  36
ATOM     36  C   UNL     1      -9.934  -2.784   5.880  1.00  0.00     0.060 A 
ATOM     37  C   UNL     1      -8.998  -3.817   5.968  1.00  0.00     0.016 A 
ATOM     38  C   UNL     1     -11.168  -2.995   5.253  1.00  0.00     0.016 A 
ATOM     39  C   UNL     1      -9.309  -5.075   5.450  1.00  0.00     0.010 A 
ATOM     40  C   UNL     1     -11.475  -4.253   4.728  1.00  0.00     0.010 A 
ATOM     41  C   UNL     1     -10.555  -5.306   4.843  1.00  0.00    -0.014 A 
BRANCH  41  42
ATOM     42  C   UNL     1     -10.954  -6.689   4.493  1.00  0.00     0.031 A 
ATOM     43  C   UNL     1     -10.893  -7.207   3.089  1.00  0.00     0.074 A 
ATOM     44  C   UNL     1     -11.382  -7.487   5.490  1.00  0.00     0.049 A 
ATOM     45  N   UNL     1     -11.134  -8.419   2.657  1.00  0.00    -0.248 NA
ATOM     46  C   UNL     1     -10.517  -6.253   2.036  1.00  0.00     0.031 C 
ATOM     47  C   UNL     1     -11.493  -7.082   6.894  1.00  0.00     0.029 A 
ATOM     48  N   UNL     1     -11.791  -8.795   5.485  1.00  0.00    -0.354 N 
ATOM     49  C   UNL     1     -10.919  -8.384   1.286  1.00  0.00     0.074 A 
ATOM     50  C   UNL     1     -10.569  -7.018   0.952  1.00  0.00     0.031 C 
ATOM     51  C   UNL     1     -11.920  -8.128   7.616  1.00  0.00     0.029 A 
ATOM     52  C   UNL     1     -12.139  -9.265   6.727  1.00  0.00     0.049 A 
ATOM     53  H   UNL     1     -11.832  -9.345   4.669  1.00  0.00     0.167 HD
ATOM     54  C   UNL     1     -10.995  -9.404   0.399  1.00  0.00     0.031 A 
ATOM     55  C   UNL     1     -12.583 -10.476   7.116  1.00  0.00     0.031 A 
ATOM     56  C   UNL     1     -11.367 -10.755   0.741  1.00  0.00     0.049 A 
ATOM     57  C   UNL     1     -12.711 -11.573   6.099  1.00  0.00     0.074 A 
ATOM     58  C   UNL     1     -11.426 -11.862  -0.090  1.00  0.00     0.029 A 
ATOM     59  N   UNL     1     -11.756 -11.181   2.001  1.00  0.00    -0.354 N 
ATOM     60  N   UNL     1     -12.424 -11.546   4.821  1.00  0.00    -0.248 NA
ATOM     61  C   UNL     1     -13.209 -12.871   6.577  1.00  0.00     0.031 C 
ATOM     62  C   UNL     1     -11.919 -12.938   0.649  1.00  0.00     0.029 A 
ATOM     63  C   UNL     1     -12.094 -12.524   1.960  1.00  0.00     0.049 A 
ATOM     64  H   UNL     1     -11.787 -10.614   2.805  1.00  0.00     0.167 HD
ATOM     65  C   UNL     1     -12.680 -12.825   4.347  1.00  0.00     0.074 A 
ATOM     66  C   UNL     1     -13.134 -13.609   5.477  1.00  0.00     0.031 C 
ATOM     67  C   UNL     1     -12.547 -13.302   3.086  1.00  0.00     0.031 A 
BRANCH  54  68
ATOM     68  C   UNL     1     -10.661  -9.127  -1.041  1.00  0.00    -0.014 A 
ATOM     69  C   UNL     1     -11.660  -9.225  -2.025  1.00  0.00     0.009 A 
ATOM     70  C   UNL     1      -9.334  -8.912  -1.443  1.00  0.00     0.009 A 
ATOM     71  C   UNL     1     -11.334  -9.137  -3.379  1.00  0.00     0.001 A 
ATOM     72  C   UNL     1      -9.014  -8.796  -2.798  1.00  0.00     0.001 A 
ATOM     73  C   UNL     1     -10.012  -8.921  -3.765  1.00  0.00     0.000 A 
ENDBRANCH  54  68
BRANCH  55  74
ATOM     74  C   UNL     1     -12.898 -10.706   8.550  1.00  0.00    -0.014 A 
ATOM     75  C   UNL     1     -13.992 -10.061   9.152  1.00  0.00     0.009 A 
ATOM     76  C   UNL     1     -12.075 -11.523   9.338  1.00  0.00     0.009 A 
ATOM     77  C   UNL     1     -14.239 -10.210  10.518  1.00  0.00     0.001 A 
ATOM     78  C   UNL     1     -12.343 -11.695  10.697  1.00  0.00     0.001 A 
ATOM     79  C   UNL     1     -13.418 -11.031  11.288  1.00  0.00     0.000 A 
ENDBRANCH  55  74
BRANCH  67  80
ATOM     80  C   UNL     1     -12.880 -14.747   2.835  1.00  0.00    -0.014 A 
ATOM     81  C   UNL     1     -11.858 -15.647   2.487  1.00  0.00     0.009 A 
ATOM     82  C   UNL     1     -14.210 -15.193   2.824  1.00  0.00     0.009 A 
ATOM     83  C   UNL     1     -12.164 -16.955   2.108  1.00  0.00     0.001 A 
ATOM     84  C   UNL     1     -14.509 -16.511   2.474  1.00  0.00     0.001 A 
ATOM     85  C   UNL     1     -13.489 -17.387   2.104  1.00  0.00     0.000 A 
ENDBRANCH  67  80
ENDBRANCH  41  42
ENDBRANCH  34  36
ENDBRANCH  33  34
ENDBRANCH  32  33
ENDBRANCH  31  32
ENDBRANCH  30  31
ENDBRANCH  29  30
ENDBRANCH   1  29
TORSDOF 22
