REMARK SMILES Cc1ccc(S(=O)(=O)n2cc(C(=O)C(=O)NCC(=O)NCC(=O)OCCOCCOCCOCCOC(=O)c3ccc(-c4c5nc(c(-c6ccccc6)c6ccc([nH]6)c(-c6ccccc6)c6nc(c(-c7ccccc7)c7ccc4[nH]7)C=C6)C=C5)cc3)c3ccccc32)cc1
REMARK SMILES IDX 28 1 27 2 26 3 25 4 24 5 22 6 23 7 21 8 20 9 18 10 19 11
REMARK SMILES IDX 17 13 16 14 14 15 15 16 12 18 13 19 11 20 9 21 10 22 92 23
REMARK SMILES IDX 87 24 91 25 88 26 90 27 89 28 6 29 7 30 8 31 5 32 1 33 2 34
REMARK SMILES IDX 3 35 94 36 4 37 93 38 29 39 30 40 31 41 32 42 33 43 34 44
REMARK SMILES IDX 35 45 36 46 37 47 38 48 39 49 40 50 86 51 41 52 85 53 42 54
REMARK SMILES IDX 43 55 44 56 79 57 45 58 84 59 78 60 80 61 46 62 83 63 77 64
REMARK SMILES IDX 76 65 47 67 69 68 54 69 68 70 55 71 58 72 67 73 81 74 56 75
REMARK SMILES IDX 57 76 66 78 82 79 59 80 48 81 49 82 53 83 50 84 52 85 51 86
REMARK SMILES IDX 70 87 71 88 75 89 72 90 74 91 73 92 60 93 61 94 65 95 62 96
REMARK SMILES IDX 64 97 63 98
REMARK H PARENT 20 12 16 17 80 66 58 77
REMARK Flexibility Score: inf
ROOT
ATOM      1  C   UNL     1     -11.803   4.886  -0.847  1.00  0.00     0.188 C 
ENDROOT
BRANCH   1   2
ATOM      2  O   UNL     1     -12.276   3.546  -0.850  1.00  0.00    -0.376 OA
BRANCH   2   3
ATOM      3  C   UNL     1     -11.517   2.599  -0.099  1.00  0.00     0.202 C 
BRANCH   3   4
ATOM      4  C   UNL     1     -10.036   2.518  -0.452  1.00  0.00     0.261 C 
BRANCH   4   5
ATOM      5  O   UNL     1      -9.371   3.553   0.289  1.00  0.00    -0.462 OA
BRANCH   5   6
ATOM      6  C   UNL     1      -8.414   4.251  -0.356  1.00  0.00     0.325 C 
ATOM      7  O   UNL     1      -7.842   3.899  -1.379  1.00  0.00    -0.250 OA
BRANCH   6   8
ATOM      8  C   UNL     1      -8.284   5.645   0.247  1.00  0.00     0.238 C 
BRANCH   8   9
ATOM      9  N   UNL     1      -8.990   5.864   1.505  1.00  0.00    -0.344 N 
ATOM     10  C   UNL     1      -8.596   6.575   2.596  1.00  0.00     0.239 C 
ATOM     11  O   UNL     1      -9.429   6.955   3.420  1.00  0.00    -0.273 OA
ATOM     12  H   UNL     1      -9.875   5.439   1.574  1.00  0.00     0.164 HD
BRANCH  10  13
ATOM     13  C   UNL     1      -7.104   6.731   2.843  1.00  0.00     0.216 C 
BRANCH  13  14
ATOM     14  N   UNL     1      -6.637   5.433   3.321  1.00  0.00    -0.340 N 
ATOM     15  C   UNL     1      -5.753   4.529   2.782  1.00  0.00     0.292 C 
ATOM     16  O   UNL     1      -5.564   3.469   3.369  1.00  0.00    -0.265 OA
ATOM     17  H   UNL     1      -7.024   5.157   4.184  1.00  0.00     0.164 HD
BRANCH  15  18
ATOM     18  C   UNL     1      -5.012   4.835   1.460  1.00  0.00     0.252 C 
ATOM     19  O   UNL     1      -4.846   6.013   1.152  1.00  0.00    -0.283 OA
BRANCH  18  20
ATOM     20  C   UNL     1      -4.541   3.761   0.578  1.00  0.00     0.054 A 
ATOM     21  N   UNL     1      -3.909   1.760  -0.194  1.00  0.00    -0.240 N 
ATOM     22  C   UNL     1      -4.264   2.455   0.934  1.00  0.00     0.117 A 
ATOM     23  C   UNL     1      -3.723   2.622  -1.254  1.00  0.00     0.065 A 
ATOM     24  C   UNL     1      -4.174   3.875  -0.810  1.00  0.00     0.012 A 
ATOM     25  C   UNL     1      -3.174   2.441  -2.536  1.00  0.00     0.028 A 
ATOM     26  C   UNL     1      -4.146   4.956  -1.718  1.00  0.00     0.011 A 
ATOM     27  C   UNL     1      -3.093   3.549  -3.382  1.00  0.00     0.002 A 
ATOM     28  C   UNL     1      -3.591   4.785  -2.989  1.00  0.00     0.001 A 
BRANCH  21  29
ATOM     29  S   UNL     1      -3.433   0.124  -0.159  1.00  0.00     0.268 S 
ATOM     30  O   UNL     1      -3.817  -0.428  -1.453  1.00  0.00    -0.201 OA
ATOM     31  O   UNL     1      -3.910  -0.414   1.089  1.00  0.00    -0.201 OA
BRANCH  29  32
ATOM     32  C   UNL     1      -1.667   0.116  -0.069  1.00  0.00     0.088 A 
ATOM     33  C   UNL     1       2.614  -0.095   0.017  1.00  0.00     0.044 C 
ATOM     34  C   UNL     1       1.118  -0.021   0.009  1.00  0.00    -0.051 A 
ATOM     35  C   UNL     1       0.357  -1.195  -0.062  1.00  0.00     0.005 A 
ATOM     36  C   UNL     1       0.470   1.218   0.073  1.00  0.00     0.005 A 
ATOM     37  C   UNL     1      -1.035  -1.129  -0.105  1.00  0.00     0.022 A 
ATOM     38  C   UNL     1      -0.920   1.289   0.045  1.00  0.00     0.022 A 
ENDBRANCH  29  32
ENDBRANCH  21  29
ENDBRANCH  18  20
ENDBRANCH  15  18
ENDBRANCH  13  14
ENDBRANCH  10  13
ENDBRANCH   8   9
ENDBRANCH   6   8
ENDBRANCH   5   6
ENDBRANCH   4   5
ENDBRANCH   3   4
ENDBRANCH   2   3
ENDBRANCH   1   2
BRANCH   1  39
ATOM     39  C   UNL     1     -12.083   5.759   0.382  1.00  0.00     0.188 C 
BRANCH  39  40
ATOM     40  O   UNL     1     -11.709   5.190   1.634  1.00  0.00    -0.377 OA
BRANCH  40  41
ATOM     41  C   UNL     1     -12.772   5.266   2.593  1.00  0.00     0.188 C 
BRANCH  41  42
ATOM     42  C   UNL     1     -13.777   4.150   2.366  1.00  0.00     0.188 C 
BRANCH  42  43
ATOM     43  O   UNL     1     -14.456   4.145   1.117  1.00  0.00    -0.376 OA
BRANCH  43  44
ATOM     44  C   UNL     1     -15.562   5.017   0.923  1.00  0.00     0.202 C 
BRANCH  44  45
ATOM     45  C   UNL     1     -16.615   4.996   2.035  1.00  0.00     0.261 C 
BRANCH  45  46
ATOM     46  O   UNL     1     -17.134   3.656   2.152  1.00  0.00    -0.460 OA
BRANCH  46  47
ATOM     47  C   UNL     1     -16.946   3.062   3.361  1.00  0.00     0.338 C 
ATOM     48  O   UNL     1     -17.159   3.587   4.442  1.00  0.00    -0.246 OA
BRANCH  47  49
ATOM     49  C   UNL     1     -16.110   1.832   3.189  1.00  0.00     0.060 A 
ATOM     50  C   UNL     1     -15.451   1.313   4.316  1.00  0.00     0.016 A 
ATOM     51  C   UNL     1     -15.659   1.494   1.916  1.00  0.00     0.016 A 
ATOM     52  C   UNL     1     -14.207   0.683   4.174  1.00  0.00     0.010 A 
ATOM     53  C   UNL     1     -14.393   0.947   1.790  1.00  0.00     0.010 A 
ATOM     54  C   UNL     1     -13.616   0.623   2.917  1.00  0.00    -0.014 A 
BRANCH  54  55
ATOM     55  C   UNL     1     -12.166   0.461   2.674  1.00  0.00     0.031 A 
ATOM     56  C   UNL     1     -11.732  -0.482   1.602  1.00  0.00     0.074 A 
ATOM     57  C   UNL     1     -11.287   1.378   3.171  1.00  0.00     0.049 A 
ATOM     58  N   UNL     1     -10.527  -0.580   1.173  1.00  0.00    -0.248 NA
ATOM     59  C   UNL     1     -12.635  -1.363   0.862  1.00  0.00     0.031 C 
ATOM     60  C   UNL     1      -9.933   1.687   2.707  1.00  0.00     0.029 A 
ATOM     61  N   UNL     1     -11.421   2.239   4.259  1.00  0.00    -0.354 N 
ATOM     62  C   UNL     1     -10.510  -1.298   0.003  1.00  0.00     0.074 A 
ATOM     63  C   UNL     1     -11.860  -1.774  -0.150  1.00  0.00     0.031 C 
ATOM     64  C   UNL     1      -9.298   2.510   3.554  1.00  0.00     0.029 A 
ATOM     65  C   UNL     1     -10.127   2.569   4.727  1.00  0.00     0.049 A 
ATOM     66  H   UNL     1     -12.270   2.562   4.637  1.00  0.00     0.167 HD
ATOM     67  C   UNL     1      -9.351  -1.314  -0.715  1.00  0.00     0.031 A 
ATOM     68  C   UNL     1      -9.723   2.087   5.939  1.00  0.00     0.031 A 
ATOM     69  C   UNL     1      -8.238  -0.816   0.109  1.00  0.00     0.049 A 
ATOM     70  C   UNL     1      -8.723   0.945   5.757  1.00  0.00     0.074 A 
ATOM     71  C   UNL     1      -7.410   0.291   0.064  1.00  0.00     0.029 A 
ATOM     72  N   UNL     1      -8.074  -1.363   1.386  1.00  0.00    -0.354 N 
ATOM     73  N   UNL     1      -8.560   0.296   4.626  1.00  0.00    -0.248 NA
ATOM     74  C   UNL     1      -7.741   0.534   6.748  1.00  0.00     0.031 C 
ATOM     75  C   UNL     1      -6.946   0.512   1.397  1.00  0.00     0.029 A 
ATOM     76  C   UNL     1      -7.292  -0.564   2.195  1.00  0.00     0.049 A 
ATOM     77  H   UNL     1      -8.469  -2.218   1.673  1.00  0.00     0.167 HD
ATOM     78  C   UNL     1      -7.405  -0.439   4.645  1.00  0.00     0.074 A 
ATOM     79  C   UNL     1      -6.989  -0.333   6.038  1.00  0.00     0.031 C 
ATOM     80  C   UNL     1      -6.859  -1.022   3.522  1.00  0.00     0.031 A 
BRANCH  67  81
ATOM     81  C   UNL     1      -9.235  -1.639  -2.192  1.00  0.00    -0.014 A 
ATOM     82  C   UNL     1      -7.991  -1.502  -2.842  1.00  0.00     0.009 A 
ATOM     83  C   UNL     1     -10.316  -1.986  -3.027  1.00  0.00     0.009 A 
ATOM     84  C   UNL     1      -7.839  -1.696  -4.226  1.00  0.00     0.001 A 
ATOM     85  C   UNL     1     -10.167  -2.204  -4.409  1.00  0.00     0.001 A 
ATOM     86  C   UNL     1      -8.927  -2.054  -5.011  1.00  0.00     0.000 A 
ENDBRANCH  67  81
BRANCH  68  87
ATOM     87  C   UNL     1     -10.782   2.403   6.958  1.00  0.00    -0.014 A 
ATOM     88  C   UNL     1     -11.014   3.798   7.112  1.00  0.00     0.009 A 
ATOM     89  C   UNL     1     -11.878   1.545   7.132  1.00  0.00     0.009 A 
ATOM     90  C   UNL     1     -12.316   4.318   7.096  1.00  0.00     0.001 A 
ATOM     91  C   UNL     1     -13.181   2.079   7.185  1.00  0.00     0.001 A 
ATOM     92  C   UNL     1     -13.402   3.454   7.075  1.00  0.00     0.000 A 
ENDBRANCH  68  87
BRANCH  80  93
ATOM     93  C   UNL     1      -5.823  -2.136   3.527  1.00  0.00    -0.014 A 
ATOM     94  C   UNL     1      -4.985  -2.456   4.591  1.00  0.00     0.009 A 
ATOM     95  C   UNL     1      -5.717  -2.983   2.395  1.00  0.00     0.009 A 
ATOM     96  C   UNL     1      -4.241  -3.644   4.606  1.00  0.00     0.001 A 
ATOM     97  C   UNL     1      -4.975  -4.162   2.392  1.00  0.00     0.001 A 
ATOM     98  C   UNL     1      -4.268  -4.516   3.523  1.00  0.00     0.000 A 
ENDBRANCH  80  93
ENDBRANCH  54  55
ENDBRANCH  47  49
ENDBRANCH  46  47
ENDBRANCH  45  46
ENDBRANCH  44  45
ENDBRANCH  43  44
ENDBRANCH  42  43
ENDBRANCH  41  42
ENDBRANCH  40  41
ENDBRANCH  39  40
ENDBRANCH   1  39
TORSDOF 27
