REMARK SMILES COc1ccc(-c2cc(Cl)cc3c2O[C@@H](C(F)(F)F)C(C(=O)OCCOCCOCCOCCOC(=O)c2ccc(-c4c5nc(c(-c6ccccc6)c6ccc([nH]6)c(-c6ccccc6)c6nc(c(-c7ccccc7)c7ccc4[nH]7)C=C6)C=C5)cc2)=C3)cc1C
REMARK SMILES IDX 29 1 28 2 27 3 26 4 25 5 24 6 23 7 21 8 22 9 20 10 7 11 8 12
REMARK SMILES IDX 13 13 9 14 12 15 14 16 10 17 11 18 86 19 15 20 6 21 3 22
REMARK SMILES IDX 4 23 88 24 5 25 87 26 89 27 2 28 1 29 16 30 17 31 18 32
REMARK SMILES IDX 19 33 30 34 31 35 32 36 33 37 34 38 35 39 36 40 37 41 38 42
REMARK SMILES IDX 39 43 85 44 40 45 84 46 41 47 42 48 43 49 78 50 44 51 83 52
REMARK SMILES IDX 77 53 79 54 45 55 82 56 76 57 75 58 46 60 68 61 53 62 67 63
REMARK SMILES IDX 54 64 57 65 66 66 80 67 55 68 56 69 65 71 81 72 58 73 47 74
REMARK SMILES IDX 48 75 52 76 49 77 51 78 50 79 69 80 70 81 74 82 71 83 73 84
REMARK SMILES IDX 72 85 59 86 60 87 64 88 61 89 63 90 62 91
REMARK H PARENT 79 59 57 70
REMARK Flexibility Score: inf
ROOT
ATOM      1  O   UNL     1      -3.560   6.958   4.835  1.00  0.00    -0.377 OA
ENDROOT
BRANCH   1   2
ATOM      2  C   UNL     1      -2.789   7.926   4.152  1.00  0.00     0.188 C 
BRANCH   2   3
ATOM      3  C   UNL     1      -1.875   7.529   2.995  1.00  0.00     0.188 C 
BRANCH   3   4
ATOM      4  O   UNL     1      -1.095   6.343   2.960  1.00  0.00    -0.376 OA
BRANCH   4   5
ATOM      5  C   UNL     1      -0.612   5.672   4.111  1.00  0.00     0.202 C 
BRANCH   5   6
ATOM      6  C   UNL     1       0.936   5.375   4.286  1.00  0.00     0.261 C 
BRANCH   6   7
ATOM      7  O   UNL     1       1.472   5.969   5.497  1.00  0.00    -0.460 OA
BRANCH   7   8
ATOM      8  C   UNL     1       2.584   6.743   5.407  1.00  0.00     0.338 C 
ATOM      9  O   UNL     1       3.674   6.400   4.982  1.00  0.00    -0.246 OA
BRANCH   8  10
ATOM     10  C   UNL     1       2.221   8.187   5.714  1.00  0.00     0.087 C 
ATOM     11  C   UNL     1       1.616   7.480   1.778  1.00  0.00     0.026 A 
ATOM     12  C   UNL     1       2.638   8.007   0.953  1.00  0.00     0.033 A 
ATOM     13  C   UNL     1       1.531   8.111   3.112  1.00  0.00     0.135 A 
ATOM     14  C   UNL     1       3.557   8.969   1.378  1.00  0.00     0.042 A 
ATOM     15  C   UNL     1       2.613   8.942   3.560  1.00  0.00     0.019 A 
ATOM     16  O   UNL     1       0.511   7.930   4.102  1.00  0.00    -0.475 OA
ATOM     17  Cl  UNL     1       4.761   9.523   0.284  1.00  0.00    -0.084 Cl
ATOM     18  C   UNL     1       3.574   9.414   2.685  1.00  0.00     0.032 A 
ATOM     19  C   UNL     1       2.857   9.153   5.021  1.00  0.00     0.027 C 
ATOM     20  C   UNL     1       0.749   8.386   5.523  1.00  0.00     0.316 C 
BRANCH  11  21
ATOM     21  C   UNL     1       0.985   6.217   1.073  1.00  0.00    -0.014 A 
ATOM     22  C   UNL     1       0.099   3.981  -0.661  1.00  0.00     0.121 A 
ATOM     23  C   UNL     1      -0.667   5.127  -0.423  1.00  0.00     0.047 A 
ATOM     24  C   UNL     1       1.390   3.980  -0.148  1.00  0.00    -0.008 A 
ATOM     25  C   UNL     1      -0.232   6.218   0.387  1.00  0.00     0.013 A 
ATOM     26  C   UNL     1       1.786   5.063   0.745  1.00  0.00     0.016 A 
ATOM     27  C   UNL     1       2.373   2.960  -0.675  1.00  0.00     0.048 C 
BRANCH  22  28
ATOM     28  O   UNL     1      -0.474   3.076  -1.519  1.00  0.00    -0.496 OA
ATOM     29  C   UNL     1      -0.203   1.677  -1.416  1.00  0.00     0.278 C 
ENDBRANCH  22  28
ENDBRANCH  11  21
BRANCH  20  30
ATOM     30  C   UNL     1      -0.024   7.875   6.813  1.00  0.00     0.430 C 
ATOM     31  F   UNL     1       0.249   8.750   7.834  1.00  0.00    -0.167 F 
ATOM     32  F   UNL     1      -1.363   7.893   6.694  1.00  0.00    -0.167 F 
ATOM     33  F   UNL     1       0.313   6.671   7.311  1.00  0.00    -0.167 F 
ENDBRANCH  20  30
ENDBRANCH   8  10
ENDBRANCH   7   8
ENDBRANCH   6   7
ENDBRANCH   5   6
ENDBRANCH   4   5
ENDBRANCH   3   4
ENDBRANCH   2   3
ENDBRANCH   1   2
BRANCH   1  34
ATOM     34  C   UNL     1      -4.255   5.995   4.052  1.00  0.00     0.188 C 
BRANCH  34  35
ATOM     35  C   UNL     1      -5.147   6.568   2.948  1.00  0.00     0.188 C 
BRANCH  35  36
ATOM     36  O   UNL     1      -4.380   6.596   1.748  1.00  0.00    -0.376 OA
BRANCH  36  37
ATOM     37  C   UNL     1      -4.972   7.226   0.621  1.00  0.00     0.202 C 
BRANCH  37  38
ATOM     38  C   UNL     1      -6.113   6.401   0.026  1.00  0.00     0.261 C 
BRANCH  38  39
ATOM     39  O   UNL     1      -5.623   5.065  -0.208  1.00  0.00    -0.460 OA
BRANCH  39  40
ATOM     40  C   UNL     1      -6.109   4.117   0.634  1.00  0.00     0.338 C 
ATOM     41  O   UNL     1      -7.274   4.032   1.004  1.00  0.00    -0.246 OA
BRANCH  40  42
ATOM     42  C   UNL     1      -4.994   3.333   1.245  1.00  0.00     0.060 A 
ATOM     43  C   UNL     1      -5.259   2.438   2.292  1.00  0.00     0.016 A 
ATOM     44  C   UNL     1      -3.668   3.649   0.955  1.00  0.00     0.016 A 
ATOM     45  C   UNL     1      -4.211   1.944   3.095  1.00  0.00     0.010 A 
ATOM     46  C   UNL     1      -2.641   3.197   1.782  1.00  0.00     0.010 A 
ATOM     47  C   UNL     1      -2.892   2.372   2.887  1.00  0.00    -0.014 A 
BRANCH  47  48
ATOM     48  C   UNL     1      -1.788   2.263   3.884  1.00  0.00     0.031 A 
ATOM     49  C   UNL     1      -0.376   1.872   3.475  1.00  0.00     0.074 A 
ATOM     50  C   UNL     1      -1.972   2.950   5.048  1.00  0.00     0.049 A 
ATOM     51  N   UNL     1       0.680   2.048   4.198  1.00  0.00    -0.248 NA
ATOM     52  C   UNL     1      -0.007   1.234   2.215  1.00  0.00     0.031 C 
ATOM     53  C   UNL     1      -0.926   3.488   5.925  1.00  0.00     0.029 A 
ATOM     54  N   UNL     1      -3.120   3.424   5.675  1.00  0.00    -0.354 N 
ATOM     55  C   UNL     1       1.834   1.844   3.463  1.00  0.00     0.074 A 
ATOM     56  C   UNL     1       1.343   1.275   2.235  1.00  0.00     0.031 C 
ATOM     57  C   UNL     1      -1.448   4.161   6.959  1.00  0.00     0.029 A 
ATOM     58  C   UNL     1      -2.817   3.740   7.008  1.00  0.00     0.049 A 
ATOM     59  H   UNL     1      -4.003   3.523   5.250  1.00  0.00     0.167 HD
ATOM     60  C   UNL     1       3.044   2.226   3.997  1.00  0.00     0.031 A 
ATOM     61  C   UNL     1      -3.255   2.966   8.044  1.00  0.00     0.031 A 
ATOM     62  C   UNL     1       2.932   2.527   5.421  1.00  0.00     0.049 A 
ATOM     63  C   UNL     1      -2.089   2.149   8.629  1.00  0.00     0.074 A 
ATOM     64  C   UNL     1       3.397   3.516   6.261  1.00  0.00     0.029 A 
ATOM     65  N   UNL     1       2.130   1.706   6.203  1.00  0.00    -0.354 N 
ATOM     66  N   UNL     1      -1.016   1.822   7.938  1.00  0.00    -0.248 NA
ATOM     67  C   UNL     1      -1.922   1.815  10.042  1.00  0.00     0.031 C 
ATOM     68  C   UNL     1       2.688   3.397   7.494  1.00  0.00     0.029 A 
ATOM     69  C   UNL     1       1.919   2.240   7.447  1.00  0.00     0.049 A 
ATOM     70  H   UNL     1       1.758   0.846   5.900  1.00  0.00     0.167 HD
ATOM     71  C   UNL     1      -0.003   1.464   8.782  1.00  0.00     0.074 A 
ATOM     72  C   UNL     1      -0.649   1.365  10.079  1.00  0.00     0.031 C 
ATOM     73  C   UNL     1       1.327   1.398   8.470  1.00  0.00     0.031 A 
BRANCH  60  74
ATOM     74  C   UNL     1       4.373   2.481   3.288  1.00  0.00    -0.014 A 
ATOM     75  C   UNL     1       5.611   2.454   3.958  1.00  0.00     0.009 A 
ATOM     76  C   UNL     1       4.427   3.008   2.000  1.00  0.00     0.009 A 
ATOM     77  C   UNL     1       6.808   2.916   3.364  1.00  0.00     0.001 A 
ATOM     78  C   UNL     1       5.610   3.473   1.383  1.00  0.00     0.001 A 
ATOM     79  C   UNL     1       6.811   3.425   2.071  1.00  0.00     0.000 A 
ENDBRANCH  60  74
BRANCH  61  80
ATOM     80  C   UNL     1      -4.727   2.747   7.939  1.00  0.00    -0.014 A 
ATOM     81  C   UNL     1      -5.499   3.918   8.146  1.00  0.00     0.009 A 
ATOM     82  C   UNL     1      -5.250   1.765   7.079  1.00  0.00     0.009 A 
ATOM     83  C   UNL     1      -6.624   4.195   7.359  1.00  0.00     0.001 A 
ATOM     84  C   UNL     1      -6.388   2.047   6.298  1.00  0.00     0.001 A 
ATOM     85  C   UNL     1      -7.039   3.278   6.401  1.00  0.00     0.000 A 
ENDBRANCH  61  80
BRANCH  73  86
ATOM     86  C   UNL     1       2.256   0.352   9.042  1.00  0.00    -0.014 A 
ATOM     87  C   UNL     1       1.773  -0.830   9.605  1.00  0.00     0.009 A 
ATOM     88  C   UNL     1       3.638   0.398   8.724  1.00  0.00     0.009 A 
ATOM     89  C   UNL     1       2.630  -1.909   9.849  1.00  0.00     0.001 A 
ATOM     90  C   UNL     1       4.484  -0.691   8.922  1.00  0.00     0.001 A 
ATOM     91  C   UNL     1       3.976  -1.845   9.494  1.00  0.00     0.000 A 
ENDBRANCH  73  86
ENDBRANCH  47  48
ENDBRANCH  40  42
ENDBRANCH  39  40
ENDBRANCH  38  39
ENDBRANCH  37  38
ENDBRANCH  36  37
ENDBRANCH  35  36
ENDBRANCH  34  35
ENDBRANCH   1  34
TORSDOF 23
