REMARK SMILES COc1ccc(NC2=[NH+]C(=O)/C(=C\c3ccccc3C(=O)OCCOCCOCCOCCOC(=O)c3ccc(-c4c5nc(c(-c6ccccc6)c6ccc([nH]6)c(-c6ccccc6)c6nc(c(-c7ccccc7)c7ccc4[nH]7)C=C6)C=C5)cc3)S2)cc1
REMARK SMILES IDX 27 1 26 2 25 3 24 4 23 5 22 6 20 7 21 8 19 9 14 10 15 11
REMARK SMILES IDX 16 12 18 13 17 14 13 15 7 16 8 17 9 19 85 20 10 21 12 23
REMARK SMILES IDX 11 24 6 25 3 26 4 27 87 28 5 29 86 30 2 31 1 32 28 33 29 34
REMARK SMILES IDX 30 35 31 36 32 37 33 38 34 39 35 40 36 41 37 42 38 43 84 44
REMARK SMILES IDX 39 45 83 46 40 47 41 48 42 49 77 50 43 51 82 52 76 53 78 54
REMARK SMILES IDX 44 55 81 56 75 57 74 58 45 60 67 61 52 62 66 63 53 64 56 65
REMARK SMILES IDX 65 66 79 67 54 68 55 69 64 71 80 72 57 73 46 74 47 75 51 76
REMARK SMILES IDX 48 77 50 78 49 79 68 80 69 81 73 82 70 83 72 84 71 85 58 86
REMARK SMILES IDX 59 87 63 88 60 89 62 90 61 91
REMARK H PARENT 7 18 9 22 78 59 56 70
REMARK Flexibility Score: inf
ROOT
ATOM      1  C   UNL     1      -3.855   4.043  -8.635  1.00  0.00     0.188 C 
ENDROOT
BRANCH   1   2
ATOM      2  C   UNL     1      -3.186   2.945  -9.489  1.00  0.00     0.188 C 
BRANCH   2   3
ATOM      3  O   UNL     1      -2.733   1.843  -8.723  1.00  0.00    -0.376 OA
BRANCH   3   4
ATOM      4  C   UNL     1      -1.352   1.669  -8.476  1.00  0.00     0.202 C 
BRANCH   4   5
ATOM      5  C   UNL     1      -0.492   2.821  -7.945  1.00  0.00     0.261 C 
BRANCH   5   6
ATOM      6  O   UNL     1      -0.889   4.139  -8.324  1.00  0.00    -0.460 OA
BRANCH   6   7
ATOM      7  C   UNL     1      -0.438   4.622  -9.502  1.00  0.00     0.338 C 
ATOM      8  O   UNL     1       0.222   3.999 -10.316  1.00  0.00    -0.246 OA
BRANCH   7   9
ATOM      9  C   UNL     1      -1.053   5.960  -9.749  1.00  0.00     0.067 A 
ATOM     10  C   UNL     1      -1.304   6.937  -8.753  1.00  0.00    -0.010 A 
ATOM     11  C   UNL     1      -1.967   8.119  -9.128  1.00  0.00     0.009 A 
ATOM     12  C   UNL     1      -2.390   8.323 -10.445  1.00  0.00     0.001 A 
ATOM     13  C   UNL     1      -1.487   6.179 -11.069  1.00  0.00     0.016 A 
ATOM     14  C   UNL     1      -2.163   7.348 -11.412  1.00  0.00     0.001 A 
BRANCH  10  15
ATOM     15  C   UNL     1      -1.061   6.754  -7.308  1.00  0.00     0.033 C 
ATOM     16  N   UNL     1       2.303   4.101  -4.686  1.00  0.00    -0.235 N 
ATOM     17  C   UNL     1       1.679   4.983  -5.513  1.00  0.00     0.322 C 
ATOM     18  H   UNL     1       3.282   4.196  -4.660  1.00  0.00     0.313 HD
ATOM     19  N   UNL     1       2.207   5.323  -6.646  1.00  0.00    -0.199 N 
ATOM     20  S   UNL     1       0.177   5.788  -5.107  1.00  0.00     0.006 SA
ATOM     21  C   UNL     1       1.410   6.172  -7.383  1.00  0.00     0.346 C 
ATOM     22  H   UNL     1       3.087   5.006  -6.951  1.00  0.00     0.316 HD
ATOM     23  C   UNL     1       0.084   6.372  -6.728  1.00  0.00     0.110 C 
ATOM     24  O   UNL     1       1.731   6.683  -8.441  1.00  0.00    -0.240 OA
BRANCH  16  25
ATOM     25  C   UNL     1       1.802   3.079  -3.860  1.00  0.00     0.125 A 
ATOM     26  C   UNL     1       0.975   0.994  -2.142  1.00  0.00     0.119 A 
ATOM     27  C   UNL     1       0.058   1.629  -2.973  1.00  0.00     0.051 A 
ATOM     28  C   UNL     1       2.310   1.379  -2.173  1.00  0.00     0.051 A 
ATOM     29  C   UNL     1       0.464   2.676  -3.811  1.00  0.00     0.055 A 
ATOM     30  C   UNL     1       2.713   2.420  -3.016  1.00  0.00     0.055 A 
BRANCH  26  31
ATOM     31  O   UNL     1       0.500  -0.038  -1.382  1.00  0.00    -0.497 OA
ATOM     32  C   UNL     1       0.947   0.004  -0.028  1.00  0.00     0.278 C 
ENDBRANCH  26  31
ENDBRANCH  16  25
ENDBRANCH  10  15
ENDBRANCH   7   9
ENDBRANCH   6   7
ENDBRANCH   5   6
ENDBRANCH   4   5
ENDBRANCH   3   4
ENDBRANCH   2   3
ENDBRANCH   1   2
BRANCH   1  33
ATOM     33  O   UNL     1      -3.623   4.014  -7.233  1.00  0.00    -0.377 OA
BRANCH  33  34
ATOM     34  C   UNL     1      -4.007   2.866  -6.475  1.00  0.00     0.188 C 
BRANCH  34  35
ATOM     35  C   UNL     1      -4.885   1.726  -7.052  1.00  0.00     0.188 C 
BRANCH  35  36
ATOM     36  O   UNL     1      -5.580   2.048  -8.244  1.00  0.00    -0.376 OA
BRANCH  36  37
ATOM     37  C   UNL     1      -6.985   2.204  -8.177  1.00  0.00     0.202 C 
BRANCH  37  38
ATOM     38  C   UNL     1      -7.487   3.407  -7.370  1.00  0.00     0.261 C 
BRANCH  38  39
ATOM     39  O   UNL     1      -7.034   3.473  -6.010  1.00  0.00    -0.460 OA
BRANCH  39  40
ATOM     40  C   UNL     1      -7.448   2.491  -5.180  1.00  0.00     0.338 C 
ATOM     41  O   UNL     1      -8.173   1.552  -5.445  1.00  0.00    -0.246 OA
BRANCH  40  42
ATOM     42  C   UNL     1      -6.718   2.655  -3.908  1.00  0.00     0.060 A 
ATOM     43  C   UNL     1      -5.882   1.623  -3.461  1.00  0.00     0.016 A 
ATOM     44  C   UNL     1      -6.864   3.827  -3.164  1.00  0.00     0.016 A 
ATOM     45  C   UNL     1      -5.214   1.750  -2.244  1.00  0.00     0.010 A 
ATOM     46  C   UNL     1      -6.212   3.944  -1.937  1.00  0.00     0.010 A 
ATOM     47  C   UNL     1      -5.414   2.891  -1.456  1.00  0.00    -0.014 A 
BRANCH  47  48
ATOM     48  C   UNL     1      -4.962   2.899  -0.045  1.00  0.00     0.031 A 
ATOM     49  C   UNL     1      -5.965   2.562   1.023  1.00  0.00     0.074 A 
ATOM     50  C   UNL     1      -3.690   3.185   0.282  1.00  0.00     0.049 A 
ATOM     51  N   UNL     1      -5.824   2.552   2.324  1.00  0.00    -0.248 NA
ATOM     52  C   UNL     1      -7.312   2.188   0.560  1.00  0.00     0.031 C 
ATOM     53  C   UNL     1      -2.615   3.480  -0.663  1.00  0.00     0.029 A 
ATOM     54  N   UNL     1      -3.094   3.280   1.514  1.00  0.00    -0.354 N 
ATOM     55  C   UNL     1      -7.062   2.181   2.832  1.00  0.00     0.074 A 
ATOM     56  C   UNL     1      -7.951   2.006   1.705  1.00  0.00     0.031 C 
ATOM     57  C   UNL     1      -1.488   3.730   0.026  1.00  0.00     0.029 A 
ATOM     58  C   UNL     1      -1.775   3.654   1.458  1.00  0.00     0.049 A 
ATOM     59  H   UNL     1      -3.568   3.098   2.358  1.00  0.00     0.167 HD
ATOM     60  C   UNL     1      -7.428   1.998   4.122  1.00  0.00     0.031 A 
ATOM     61  C   UNL     1      -0.908   3.928   2.452  1.00  0.00     0.031 A 
ATOM     62  C   UNL     1      -6.548   2.192   5.243  1.00  0.00     0.049 A 
ATOM     63  C   UNL     1      -1.365   3.810   3.884  1.00  0.00     0.074 A 
ATOM     64  C   UNL     1      -6.817   2.020   6.589  1.00  0.00     0.029 A 
ATOM     65  N   UNL     1      -5.231   2.613   5.147  1.00  0.00    -0.354 N 
ATOM     66  N   UNL     1      -2.528   3.429   4.355  1.00  0.00    -0.248 NA
ATOM     67  C   UNL     1      -0.381   4.151   4.923  1.00  0.00     0.031 C 
ATOM     68  C   UNL     1      -5.682   2.400   7.311  1.00  0.00     0.029 A 
ATOM     69  C   UNL     1      -4.683   2.738   6.412  1.00  0.00     0.049 A 
ATOM     70  H   UNL     1      -4.757   2.797   4.304  1.00  0.00     0.167 HD
ATOM     71  C   UNL     1      -2.406   3.453   5.740  1.00  0.00     0.074 A 
ATOM     72  C   UNL     1      -1.051   3.871   6.032  1.00  0.00     0.031 C 
ATOM     73  C   UNL     1      -3.330   3.152   6.686  1.00  0.00     0.031 A 
BRANCH  60  74
ATOM     74  C   UNL     1      -8.855   1.607   4.388  1.00  0.00    -0.014 A 
ATOM     75  C   UNL     1      -9.345   0.337   4.045  1.00  0.00     0.009 A 
ATOM     76  C   UNL     1      -9.719   2.520   5.014  1.00  0.00     0.009 A 
ATOM     77  C   UNL     1     -10.678   0.002   4.290  1.00  0.00     0.001 A 
ATOM     78  C   UNL     1     -11.042   2.172   5.287  1.00  0.00     0.001 A 
ATOM     79  C   UNL     1     -11.524   0.917   4.916  1.00  0.00     0.000 A 
ENDBRANCH  60  74
BRANCH  61  80
ATOM     80  C   UNL     1       0.476   4.370   2.135  1.00  0.00    -0.014 A 
ATOM     81  C   UNL     1       1.579   3.559   2.445  1.00  0.00     0.009 A 
ATOM     82  C   UNL     1       0.704   5.624   1.544  1.00  0.00     0.009 A 
ATOM     83  C   UNL     1       2.879   4.005   2.195  1.00  0.00     0.001 A 
ATOM     84  C   UNL     1       2.003   6.054   1.267  1.00  0.00     0.001 A 
ATOM     85  C   UNL     1       3.090   5.249   1.602  1.00  0.00     0.000 A 
ENDBRANCH  61  80
BRANCH  73  86
ATOM     86  C   UNL     1      -2.896   3.214   8.125  1.00  0.00    -0.014 A 
ATOM     87  C   UNL     1      -2.639   4.437   8.764  1.00  0.00     0.009 A 
ATOM     88  C   UNL     1      -2.791   2.026   8.867  1.00  0.00     0.009 A 
ATOM     89  C   UNL     1      -2.249   4.464  10.105  1.00  0.00     0.001 A 
ATOM     90  C   UNL     1      -2.435   2.059  10.216  1.00  0.00     0.001 A 
ATOM     91  C   UNL     1      -2.153   3.277  10.831  1.00  0.00     0.000 A 
ENDBRANCH  73  86
ENDBRANCH  47  48
ENDBRANCH  40  42
ENDBRANCH  39  40
ENDBRANCH  38  39
ENDBRANCH  37  38
ENDBRANCH  36  37
ENDBRANCH  35  36
ENDBRANCH  34  35
ENDBRANCH  33  34
ENDBRANCH   1  33
TORSDOF 23
