REMARK SMILES O=C(C[C@@H]1CSCC[NH2+]1)NC[C@@H](C(=O)OCCOCCOCCOCCOC(=O)c1ccc(-c2c3nc(c(-c4ccccc4)c4ccc([nH]4)c(-c4ccccc4)c4nc(c(-c5ccccc5)c5ccc2[nH]5)C=C4)C=C3)cc1)c1ccccc1
REMARK SMILES IDX 20 1 19 2 18 3 17 4 16 5 15 6 13 7 14 8 12 9 11 10 10 11
REMARK SMILES IDX 1 12 2 13 3 15 4 16 5 17 9 18 6 19 8 20 7 23 78 24 79 25
REMARK SMILES IDX 83 26 80 27 82 28 81 29 21 30 22 31 23 32 24 33 25 34 26 35
REMARK SMILES IDX 27 36 28 37 29 38 30 39 31 40 77 41 32 42 76 43 33 44 34 45
REMARK SMILES IDX 35 46 70 47 36 48 75 49 69 50 71 51 37 52 74 53 68 54 67 55
REMARK SMILES IDX 38 57 60 58 45 59 59 60 46 61 49 62 58 63 72 64 47 65 48 66
REMARK SMILES IDX 57 68 73 69 50 70 39 71 40 72 44 73 41 74 43 75 42 76 61 77
REMARK SMILES IDX 62 78 66 79 63 80 65 81 64 82 51 83 52 84 56 85 53 86 55 87
REMARK SMILES IDX 54 88
REMARK H PARENT 10 14 9 21 9 22 71 56 49 67
REMARK Flexibility Score: inf
ROOT
ATOM      1  C   UNL     1       4.574   3.032   2.395  1.00  0.00     0.188 C 
ENDROOT
BRANCH   1   2
ATOM      2  C   UNL     1       4.982   3.130   3.876  1.00  0.00     0.188 C 
BRANCH   2   3
ATOM      3  O   UNL     1       6.264   2.680   4.276  1.00  0.00    -0.376 OA
BRANCH   3   4
ATOM      4  C   UNL     1       6.748   1.418   3.847  1.00  0.00     0.202 C 
BRANCH   4   5
ATOM      5  C   UNL     1       5.844   0.178   3.644  1.00  0.00     0.261 C 
BRANCH   5   6
ATOM      6  O   UNL     1       4.490   0.391   3.188  1.00  0.00    -0.463 OA
BRANCH   6   7
ATOM      7  C   UNL     1       3.507   0.139   4.090  1.00  0.00     0.315 C 
ATOM      8  O   UNL     1       3.732  -0.333   5.202  1.00  0.00    -0.251 OA
BRANCH   7   9
ATOM      9  C   UNL     1       2.078   0.514   3.639  1.00  0.00     0.148 C 
BRANCH   9  10
ATOM     10  C   UNL     1       1.733   0.873   2.176  1.00  0.00     0.136 C 
BRANCH  10  11
ATOM     11  N   UNL     1       2.487   0.206   1.137  1.00  0.00    -0.355 N 
ATOM     12  O   UNL     1       0.805   0.333  -0.429  1.00  0.00    -0.275 OA
ATOM     13  C   UNL     1       1.924  -0.042  -0.100  1.00  0.00     0.226 C 
ATOM     14  H   UNL     1       3.414  -0.075   1.314  1.00  0.00     0.163 HD
BRANCH  13  15
ATOM     15  C   UNL     1       2.795  -0.872  -1.007  1.00  0.00     0.165 C 
BRANCH  15  16
ATOM     16  C   UNL     1       3.824  -0.032  -1.784  1.00  0.00     0.201 C 
ATOM     17  C   UNL     1       3.378   0.299  -3.229  1.00  0.00     0.135 C 
ATOM     18  N   UNL     1       5.155  -0.683  -1.768  1.00  0.00    -0.342 N 
ATOM     19  S   UNL     1       3.273  -1.149  -4.341  1.00  0.00    -0.150 SA
ATOM     20  C   UNL     1       5.141  -1.982  -2.457  1.00  0.00     0.271 C 
ATOM     21  H   UNL     1       5.439  -0.828  -0.799  1.00  0.00     0.346 HD
ATOM     22  H   UNL     1       5.809  -0.074  -2.259  1.00  0.00     0.346 HD
ATOM     23  C   UNL     1       4.896  -1.879  -3.963  1.00  0.00     0.131 C 
ENDBRANCH  15  16
ENDBRANCH  13  15
ENDBRANCH  10  11
ENDBRANCH   9  10
BRANCH   9  24
ATOM     24  C   UNL     1       1.490   1.527   4.633  1.00  0.00    -0.032 A 
ATOM     25  C   UNL     1       1.541   2.920   4.443  1.00  0.00     0.004 A 
ATOM     26  C   UNL     1       0.972   1.049   5.847  1.00  0.00     0.004 A 
ATOM     27  C   UNL     1       1.126   3.800   5.446  1.00  0.00     0.000 A 
ATOM     28  C   UNL     1       0.543   1.929   6.841  1.00  0.00     0.000 A 
ATOM     29  C   UNL     1       0.630   3.304   6.645  1.00  0.00     0.000 A 
ENDBRANCH   9  24
ENDBRANCH   7   9
ENDBRANCH   6   7
ENDBRANCH   5   6
ENDBRANCH   4   5
ENDBRANCH   3   4
ENDBRANCH   2   3
ENDBRANCH   1   2
BRANCH   1  30
ATOM     30  O   UNL     1       5.469   2.305   1.575  1.00  0.00    -0.377 OA
BRANCH  30  31
ATOM     31  C   UNL     1       6.447   3.071   0.887  1.00  0.00     0.188 C 
BRANCH  31  32
ATOM     32  C   UNL     1       6.995   4.345   1.560  1.00  0.00     0.188 C 
BRANCH  32  33
ATOM     33  O   UNL     1       5.987   5.232   2.032  1.00  0.00    -0.376 OA
BRANCH  33  34
ATOM     34  C   UNL     1       5.625   6.345   1.227  1.00  0.00     0.202 C 
BRANCH  34  35
ATOM     35  C   UNL     1       4.882   6.055  -0.087  1.00  0.00     0.261 C 
BRANCH  35  36
ATOM     36  O   UNL     1       5.560   5.218  -1.038  1.00  0.00    -0.460 OA
BRANCH  36  37
ATOM     37  C   UNL     1       6.773   5.615  -1.489  1.00  0.00     0.338 C 
ATOM     38  O   UNL     1       7.350   6.646  -1.231  1.00  0.00    -0.246 OA
BRANCH  37  39
ATOM     39  C   UNL     1       7.379   4.456  -2.191  1.00  0.00     0.060 A 
ATOM     40  C   UNL     1       8.571   3.912  -1.695  1.00  0.00     0.016 A 
ATOM     41  C   UNL     1       6.751   3.881  -3.298  1.00  0.00     0.016 A 
ATOM     42  C   UNL     1       9.141   2.791  -2.306  1.00  0.00     0.010 A 
ATOM     43  C   UNL     1       7.340   2.779  -3.927  1.00  0.00     0.010 A 
ATOM     44  C   UNL     1       8.546   2.236  -3.445  1.00  0.00    -0.014 A 
BRANCH  44  45
ATOM     45  C   UNL     1       9.251   1.192  -4.230  1.00  0.00     0.031 A 
ATOM     46  C   UNL     1      10.021   1.609  -5.452  1.00  0.00     0.074 A 
ATOM     47  C   UNL     1       9.219  -0.106  -3.872  1.00  0.00     0.049 A 
ATOM     48  N   UNL     1      10.610   0.865  -6.351  1.00  0.00    -0.248 NA
ATOM     49  C   UNL     1      10.155   3.057  -5.683  1.00  0.00     0.031 C 
ATOM     50  C   UNL     1       8.598  -0.637  -2.662  1.00  0.00     0.029 A 
ATOM     51  N   UNL     1       9.711  -1.220  -4.512  1.00  0.00    -0.354 N 
ATOM     52  C   UNL     1      11.172   1.752  -7.261  1.00  0.00     0.074 A 
ATOM     53  C   UNL     1      10.845   3.087  -6.814  1.00  0.00     0.031 C 
ATOM     54  C   UNL     1       8.720  -1.977  -2.662  1.00  0.00     0.029 A 
ATOM     55  C   UNL     1       9.357  -2.401  -3.904  1.00  0.00     0.049 A 
ATOM     56  H   UNL     1      10.263  -1.175  -5.326  1.00  0.00     0.167 HD
ATOM     57  C   UNL     1      11.894   1.473  -8.371  1.00  0.00     0.031 A 
ATOM     58  C   UNL     1       9.475  -3.676  -4.328  1.00  0.00     0.031 A 
ATOM     59  C   UNL     1      12.215   0.144  -8.816  1.00  0.00     0.049 A 
ATOM     60  C   UNL     1      10.147  -3.952  -5.646  1.00  0.00     0.074 A 
ATOM     61  C   UNL     1      12.983  -0.234  -9.904  1.00  0.00     0.029 A 
ATOM     62  N   UNL     1      11.771  -1.020  -8.213  1.00  0.00    -0.354 N 
ATOM     63  N   UNL     1      10.710  -3.110  -6.477  1.00  0.00    -0.248 NA
ATOM     64  C   UNL     1      10.207  -5.356  -6.081  1.00  0.00     0.031 C 
ATOM     65  C   UNL     1      12.935  -1.626 -10.006  1.00  0.00     0.029 A 
ATOM     66  C   UNL     1      12.199  -2.117  -8.940  1.00  0.00     0.049 A 
ATOM     67  H   UNL     1      11.233  -1.062  -7.390  1.00  0.00     0.167 HD
ATOM     68  C   UNL     1      11.219  -3.883  -7.513  1.00  0.00     0.074 A 
ATOM     69  C   UNL     1      10.910  -5.262  -7.201  1.00  0.00     0.031 C 
ATOM     70  C   UNL     1      11.887  -3.485  -8.621  1.00  0.00     0.031 A 
BRANCH  57  71
ATOM     71  C   UNL     1      12.352   2.623  -9.221  1.00  0.00    -0.014 A 
ATOM     72  C   UNL     1      13.400   3.464  -8.818  1.00  0.00     0.009 A 
ATOM     73  C   UNL     1      11.779   2.808 -10.490  1.00  0.00     0.009 A 
ATOM     74  C   UNL     1      13.855   4.476  -9.666  1.00  0.00     0.001 A 
ATOM     75  C   UNL     1      12.253   3.803 -11.345  1.00  0.00     0.001 A 
ATOM     76  C   UNL     1      13.289   4.638 -10.931  1.00  0.00     0.000 A 
ENDBRANCH  57  71
BRANCH  58  77
ATOM     77  C   UNL     1       8.859  -4.794  -3.562  1.00  0.00    -0.014 A 
ATOM     78  C   UNL     1       9.642  -5.783  -2.950  1.00  0.00     0.009 A 
ATOM     79  C   UNL     1       7.461  -4.921  -3.518  1.00  0.00     0.009 A 
ATOM     80  C   UNL     1       9.037  -6.884  -2.336  1.00  0.00     0.001 A 
ATOM     81  C   UNL     1       6.857  -6.000  -2.870  1.00  0.00     0.001 A 
ATOM     82  C   UNL     1       7.647  -6.989  -2.290  1.00  0.00     0.000 A 
ENDBRANCH  58  77
BRANCH  70  83
ATOM     83  C   UNL     1      12.361  -4.551  -9.567  1.00  0.00    -0.014 A 
ATOM     84  C   UNL     1      11.460  -5.255 -10.381  1.00  0.00     0.009 A 
ATOM     85  C   UNL     1      13.735  -4.814  -9.685  1.00  0.00     0.009 A 
ATOM     86  C   UNL     1      11.926  -6.219 -11.277  1.00  0.00     0.001 A 
ATOM     87  C   UNL     1      14.200  -5.754 -10.605  1.00  0.00     0.001 A 
ATOM     88  C   UNL     1      13.295  -6.461 -11.395  1.00  0.00     0.000 A 
ENDBRANCH  70  83
ENDBRANCH  44  45
ENDBRANCH  37  39
ENDBRANCH  36  37
ENDBRANCH  35  36
ENDBRANCH  34  35
ENDBRANCH  33  34
ENDBRANCH  32  33
ENDBRANCH  31  32
ENDBRANCH  30  31
ENDBRANCH   1  30
TORSDOF 25
