REMARK SMILES Cn1cc(S(=O)(=O)N[C@@H]2C=C[C@@H](C(=O)OCCOCCOCCOCCOC(=O)c3ccc(-c4c5nc(c(-c6ccccc6)c6ccc([nH]6)c(-c6ccccc6)c6nc(c(-c7ccccc7)c7ccc4[nH]7)C=C6)C=C5)cc3)C2)cc1C(N)=O
REMARK SMILES IDX 20 1 19 2 18 3 17 4 16 5 15 6 13 7 14 8 12 9 9 10 10 11
REMARK SMILES IDX 78 12 11 13 8 14 5 16 6 17 7 18 4 19 1 20 2 21 3 22 80 23
REMARK SMILES IDX 79 24 81 25 82 26 83 27 21 30 22 31 23 32 24 33 25 34 26 35
REMARK SMILES IDX 27 36 28 37 29 38 30 39 31 40 77 41 32 42 76 43 33 44 34 45
REMARK SMILES IDX 35 46 70 47 36 48 75 49 69 50 71 51 37 52 74 53 68 54 67 55
REMARK SMILES IDX 38 57 60 58 45 59 59 60 46 61 49 62 58 63 72 64 47 65 48 66
REMARK SMILES IDX 57 68 73 69 50 70 39 71 40 72 44 73 41 74 43 75 42 76 61 77
REMARK SMILES IDX 62 78 66 79 63 80 65 81 64 82 51 83 52 84 56 85 53 86 55 87
REMARK SMILES IDX 54 88
REMARK H PARENT 8 15 82 28 82 29 71 56 49 67
REMARK Flexibility Score: inf
ROOT
ATOM      1  C   UNL     1      -1.070  -3.342   0.670  1.00  0.00     0.188 C 
ENDROOT
BRANCH   1   2
ATOM      2  C   UNL     1      -1.333  -4.767   1.178  1.00  0.00     0.188 C 
BRANCH   2   3
ATOM      3  O   UNL     1      -1.307  -5.848   0.254  1.00  0.00    -0.376 OA
BRANCH   3   4
ATOM      4  C   UNL     1      -2.164  -5.811  -0.887  1.00  0.00     0.202 C 
BRANCH   4   5
ATOM      5  C   UNL     1      -3.642  -5.459  -0.685  1.00  0.00     0.261 C 
BRANCH   5   6
ATOM      6  O   UNL     1      -3.858  -4.090  -0.285  1.00  0.00    -0.463 OA
BRANCH   6   7
ATOM      7  C   UNL     1      -4.652  -3.903   0.795  1.00  0.00     0.312 C 
ATOM      8  O   UNL     1      -5.176  -4.807   1.443  1.00  0.00    -0.252 OA
BRANCH   7   9
ATOM      9  C   UNL     1      -4.924  -2.447   1.132  1.00  0.00     0.123 C 
ATOM     10  C   UNL     1      -4.882  -0.079   0.583  1.00  0.00     0.093 C 
ATOM     11  C   UNL     1      -6.186  -0.709   0.218  1.00  0.00    -0.011 C 
ATOM     12  C   UNL     1      -3.987  -1.332   0.654  1.00  0.00     0.043 C 
ATOM     13  C   UNL     1      -6.222  -2.013   0.521  1.00  0.00    -0.015 C 
BRANCH  10  14
ATOM     14  N   UNL     1      -4.900   0.529   1.927  1.00  0.00    -0.204 NA
ATOM     15  H   UNL     1      -4.960  -0.238   2.596  1.00  0.00     0.142 HD
BRANCH  14  16
ATOM     16  S   UNL     1      -6.104   1.631   2.344  1.00  0.00     0.242 S 
ATOM     17  O   UNL     1      -6.383   2.455   1.191  1.00  0.00    -0.207 OA
ATOM     18  O   UNL     1      -5.726   2.187   3.624  1.00  0.00    -0.207 OA
BRANCH  16  19
ATOM     19  C   UNL     1      -7.554   0.757   2.666  1.00  0.00     0.100 A 
ATOM     20  C   UNL     1     -11.104   0.157   2.462  1.00  0.00     0.150 C 
ATOM     21  N   UNL     1      -9.671   0.083   2.653  1.00  0.00    -0.345 N 
ATOM     22  C   UNL     1      -8.844   1.154   2.403  1.00  0.00     0.107 A 
ATOM     23  C   UNL     1      -8.922  -1.024   3.027  1.00  0.00     0.107 A 
ATOM     24  C   UNL     1      -7.617  -0.561   3.175  1.00  0.00     0.055 A 
BRANCH  23  25
ATOM     25  C   UNL     1      -9.420  -2.378   3.193  1.00  0.00     0.265 C 
ATOM     26  N   UNL     1      -8.468  -3.357   3.230  1.00  0.00    -0.364 N 
ATOM     27  O   UNL     1     -10.602  -2.696   3.254  1.00  0.00    -0.268 OA
ATOM     28  H   UNL     1      -7.514  -3.119   3.182  1.00  0.00     0.160 HD
ATOM     29  H   UNL     1      -8.736  -4.302   3.304  1.00  0.00     0.160 HD
ENDBRANCH  23  25
ENDBRANCH  16  19
ENDBRANCH  14  16
ENDBRANCH  10  14
ENDBRANCH   7   9
ENDBRANCH   6   7
ENDBRANCH   5   6
ENDBRANCH   4   5
ENDBRANCH   3   4
ENDBRANCH   2   3
ENDBRANCH   1   2
BRANCH   1  30
ATOM     30  O   UNL     1      -1.260  -3.174  -0.722  1.00  0.00    -0.377 OA
BRANCH  30  31
ATOM     31  C   UNL     1      -0.079  -3.042  -1.510  1.00  0.00     0.188 C 
BRANCH  31  32
ATOM     32  C   UNL     1       1.108  -3.960  -1.169  1.00  0.00     0.188 C 
BRANCH  32  33
ATOM     33  O   UNL     1       1.712  -3.633   0.084  1.00  0.00    -0.376 OA
BRANCH  33  34
ATOM     34  C   UNL     1       2.888  -2.826   0.031  1.00  0.00     0.202 C 
BRANCH  34  35
ATOM     35  C   UNL     1       2.634  -1.339  -0.263  1.00  0.00     0.261 C 
BRANCH  35  36
ATOM     36  O   UNL     1       2.192  -1.041  -1.601  1.00  0.00    -0.460 OA
BRANCH  36  37
ATOM     37  C   UNL     1       2.962  -1.458  -2.627  1.00  0.00     0.338 C 
ATOM     38  O   UNL     1       4.060  -1.978  -2.564  1.00  0.00    -0.246 OA
BRANCH  37  39
ATOM     39  C   UNL     1       2.165  -1.353  -3.864  1.00  0.00     0.060 A 
ATOM     40  C   UNL     1       2.018  -2.493  -4.664  1.00  0.00     0.016 A 
ATOM     41  C   UNL     1       1.591  -0.138  -4.247  1.00  0.00     0.016 A 
ATOM     42  C   UNL     1       1.334  -2.409  -5.877  1.00  0.00     0.010 A 
ATOM     43  C   UNL     1       0.922  -0.051  -5.470  1.00  0.00     0.010 A 
ATOM     44  C   UNL     1       0.823  -1.177  -6.305  1.00  0.00    -0.014 A 
BRANCH  44  45
ATOM     45  C   UNL     1       0.368  -1.010  -7.705  1.00  0.00     0.031 A 
ATOM     46  C   UNL     1       1.364  -0.532  -8.726  1.00  0.00     0.074 A 
ATOM     47  C   UNL     1      -0.900  -1.266  -8.068  1.00  0.00     0.049 A 
ATOM     48  N   UNL     1       1.188  -0.259  -9.993  1.00  0.00    -0.248 NA
ATOM     49  C   UNL     1       2.745  -0.336  -8.251  1.00  0.00     0.031 C 
ATOM     50  C   UNL     1      -1.951  -1.772  -7.188  1.00  0.00     0.029 A 
ATOM     51  N   UNL     1      -1.518  -1.119  -9.285  1.00  0.00    -0.354 N 
ATOM     52  C   UNL     1       2.432   0.142 -10.465  1.00  0.00     0.074 A 
ATOM     53  C   UNL     1       3.348   0.099  -9.347  1.00  0.00     0.031 C 
ATOM     54  C   UNL     1      -3.092  -1.880  -7.893  1.00  0.00     0.029 A 
ATOM     55  C   UNL     1      -2.857  -1.424  -9.261  1.00  0.00     0.049 A 
ATOM     56  H   UNL     1      -1.046  -0.825 -10.097  1.00  0.00     0.167 HD
ATOM     57  C   UNL     1       2.783   0.512 -11.718  1.00  0.00     0.031 A 
ATOM     58  C   UNL     1      -3.788  -1.320 -10.229  1.00  0.00     0.031 A 
ATOM     59  C   UNL     1       1.874   0.583 -12.827  1.00  0.00     0.049 A 
ATOM     60  C   UNL     1      -3.393  -0.813 -11.592  1.00  0.00     0.074 A 
ATOM     61  C   UNL     1       2.139   0.937 -14.139  1.00  0.00     0.029 A 
ATOM     62  N   UNL     1       0.518   0.309 -12.750  1.00  0.00    -0.354 N 
ATOM     63  N   UNL     1      -2.208  -0.468 -12.034  1.00  0.00    -0.248 NA
ATOM     64  C   UNL     1      -4.468  -0.680 -12.587  1.00  0.00     0.031 C 
ATOM     65  C   UNL     1       0.932   0.924 -14.845  1.00  0.00     0.029 A 
ATOM     66  C   UNL     1      -0.074   0.516 -13.983  1.00  0.00     0.049 A 
ATOM     67  H   UNL     1       0.047   0.012 -11.939  1.00  0.00     0.167 HD
ATOM     68  C   UNL     1      -2.391  -0.101 -13.362  1.00  0.00     0.074 A 
ATOM     69  C   UNL     1      -3.798  -0.274 -13.657  1.00  0.00     0.031 C 
ATOM     70  C   UNL     1      -1.475   0.340 -14.259  1.00  0.00     0.031 A 
BRANCH  57  71
ATOM     71  C   UNL     1       4.214   0.904 -11.939  1.00  0.00    -0.014 A 
ATOM     72  C   UNL     1       5.232  -0.061 -11.984  1.00  0.00     0.009 A 
ATOM     73  C   UNL     1       4.546   2.255 -12.121  1.00  0.00     0.009 A 
ATOM     74  C   UNL     1       6.560   0.324 -12.177  1.00  0.00     0.001 A 
ATOM     75  C   UNL     1       5.871   2.635 -12.336  1.00  0.00     0.001 A 
ATOM     76  C   UNL     1       6.878   1.670 -12.356  1.00  0.00     0.000 A 
ENDBRANCH  57  71
BRANCH  58  77
ATOM     77  C   UNL     1      -5.202  -1.674  -9.945  1.00  0.00    -0.014 A 
ATOM     78  C   UNL     1      -5.779  -2.823 -10.507  1.00  0.00     0.009 A 
ATOM     79  C   UNL     1      -5.992  -0.846  -9.132  1.00  0.00     0.009 A 
ATOM     80  C   UNL     1      -7.124  -3.122 -10.279  1.00  0.00     0.001 A 
ATOM     81  C   UNL     1      -7.330  -1.161  -8.886  1.00  0.00     0.001 A 
ATOM     82  C   UNL     1      -7.897  -2.293  -9.467  1.00  0.00     0.000 A 
ENDBRANCH  58  77
BRANCH  70  83
ATOM     83  C   UNL     1      -1.955   0.638 -15.650  1.00  0.00    -0.014 A 
ATOM     84  C   UNL     1      -2.684   1.804 -15.931  1.00  0.00     0.009 A 
ATOM     85  C   UNL     1      -1.621  -0.228 -16.702  1.00  0.00     0.009 A 
ATOM     86  C   UNL     1      -3.087   2.084 -17.238  1.00  0.00     0.001 A 
ATOM     87  C   UNL     1      -2.005   0.067 -18.011  1.00  0.00     0.001 A 
ATOM     88  C   UNL     1      -2.743   1.219 -18.277  1.00  0.00     0.000 A 
ENDBRANCH  70  83
ENDBRANCH  44  45
ENDBRANCH  37  39
ENDBRANCH  36  37
ENDBRANCH  35  36
ENDBRANCH  34  35
ENDBRANCH  33  34
ENDBRANCH  32  33
ENDBRANCH  31  32
ENDBRANCH  30  31
ENDBRANCH   1  30
TORSDOF 24
