REMARK SMILES O=C(COc1ccccc1/C=C1\C(=O)Nc2ccccc21)OCCOCCOCCOCCOC(=O)c1ccc(-c2c3nc(c(-c4ccccc4)c4ccc([nH]4)c(-c4ccccc4)c4nc(c(-c5ccccc5)c5ccc2[nH]5)C=C4)C=C3)cc1
REMARK SMILES IDX 27 1 26 2 25 3 24 4 23 5 22 6 2 7 1 8 3 9 4 10 5 11 6 12
REMARK SMILES IDX 10 13 7 14 9 15 8 16 11 17 12 18 13 19 21 20 14 21 15 22
REMARK SMILES IDX 16 23 20 24 17 26 19 27 18 28 28 29 29 30 30 31 31 32 32 33
REMARK SMILES IDX 33 34 34 35 35 36 36 37 37 38 38 39 84 40 39 41 83 42 40 43
REMARK SMILES IDX 41 44 42 45 77 46 43 47 82 48 76 49 78 50 44 51 81 52 75 53
REMARK SMILES IDX 74 54 45 56 67 57 52 58 66 59 53 60 56 61 65 62 79 63 54 64
REMARK SMILES IDX 55 65 64 67 80 68 57 69 46 70 47 71 51 72 48 73 50 74 49 75
REMARK SMILES IDX 68 76 69 77 73 78 70 79 72 80 71 81 58 82 59 83 63 84 60 85
REMARK SMILES IDX 62 86 61 87
REMARK H PARENT 15 25 78 55 56 66
REMARK Flexibility Score: inf
ROOT
ATOM      1  C   UNL     1       2.210  -1.095   2.285  1.00  0.00     0.188 C 
ENDROOT
BRANCH   1   2
ATOM      2  C   UNL     1       2.976  -1.855   1.182  1.00  0.00     0.188 C 
BRANCH   2   3
ATOM      3  O   UNL     1       4.312  -1.450   0.935  1.00  0.00    -0.376 OA
BRANCH   3   4
ATOM      4  C   UNL     1       4.708  -0.381   0.102  1.00  0.00     0.202 C 
BRANCH   4   5
ATOM      5  C   UNL     1       3.958   0.955   0.123  1.00  0.00     0.261 C 
BRANCH   5   6
ATOM      6  O   UNL     1       2.516   0.915   0.111  1.00  0.00    -0.461 OA
BRANCH   6   7
ATOM      7  C   UNL     1       1.716   0.187  -0.705  1.00  0.00     0.344 C 
ATOM      8  O   UNL     1       0.532   0.027  -0.414  1.00  0.00    -0.248 OA
BRANCH   7   9
ATOM      9  C   UNL     1       2.327  -0.468  -1.918  1.00  0.00     0.351 C 
BRANCH   9  10
ATOM     10  O   UNL     1       3.381   0.331  -2.423  1.00  0.00    -0.481 OA
BRANCH  10  11
ATOM     11  C   UNL     1       2.992   0.964  -3.559  1.00  0.00     0.127 A 
ATOM     12  C   UNL     1       3.449   0.349  -4.730  1.00  0.00     0.047 A 
ATOM     13  C   UNL     1       2.211   2.133  -3.558  1.00  0.00     0.017 A 
ATOM     14  C   UNL     1       3.107   0.885  -5.956  1.00  0.00     0.004 A 
ATOM     15  C   UNL     1       1.978   2.707  -4.811  1.00  0.00     0.012 A 
ATOM     16  C   UNL     1       2.384   2.072  -5.994  1.00  0.00     0.001 A 
BRANCH  13  17
ATOM     17  C   UNL     1       1.629   2.759  -2.334  1.00  0.00     0.026 C 
ATOM     18  C   UNL     1       0.330   3.081  -2.145  1.00  0.00     0.050 C 
ATOM     19  C   UNL     1      -0.760   2.888  -3.184  1.00  0.00     0.256 C 
ATOM     20  C   UNL     1      -0.325   3.756  -0.995  1.00  0.00     0.011 A 
ATOM     21  O   UNL     1      -0.743   2.239  -4.204  1.00  0.00    -0.269 OA
ATOM     22  N   UNL     1      -1.838   3.613  -2.716  1.00  0.00    -0.321 N 
ATOM     23  C   UNL     1      -1.613   4.094  -1.437  1.00  0.00     0.049 A 
ATOM     24  C   UNL     1       0.015   4.030   0.321  1.00  0.00     0.011 A 
ATOM     25  H   UNL     1      -2.665   3.768  -3.229  1.00  0.00     0.170 HD
ATOM     26  C   UNL     1      -2.553   4.748  -0.662  1.00  0.00     0.027 A 
ATOM     27  C   UNL     1      -0.939   4.667   1.145  1.00  0.00     0.001 A 
ATOM     28  C   UNL     1      -2.205   5.035   0.653  1.00  0.00     0.002 A 
ENDBRANCH  13  17
ENDBRANCH  10  11
ENDBRANCH   9  10
ENDBRANCH   7   9
ENDBRANCH   6   7
ENDBRANCH   5   6
ENDBRANCH   4   5
ENDBRANCH   3   4
ENDBRANCH   2   3
ENDBRANCH   1   2
BRANCH   1  29
ATOM     29  O   UNL     1       2.849  -0.853   3.530  1.00  0.00    -0.377 OA
BRANCH  29  30
ATOM     30  C   UNL     1       4.219  -0.501   3.485  1.00  0.00     0.188 C 
BRANCH  30  31
ATOM     31  C   UNL     1       5.164  -1.712   3.569  1.00  0.00     0.188 C 
BRANCH  31  32
ATOM     32  O   UNL     1       4.617  -2.979   3.273  1.00  0.00    -0.376 OA
BRANCH  32  33
ATOM     33  C   UNL     1       3.679  -3.639   4.107  1.00  0.00     0.202 C 
BRANCH  33  34
ATOM     34  C   UNL     1       2.983  -3.093   5.371  1.00  0.00     0.261 C 
BRANCH  34  35
ATOM     35  O   UNL     1       3.417  -1.860   5.933  1.00  0.00    -0.460 OA
BRANCH  35  36
ATOM     36  C   UNL     1       4.555  -1.884   6.646  1.00  0.00     0.338 C 
ATOM     37  O   UNL     1       5.253  -2.848   6.899  1.00  0.00    -0.246 OA
BRANCH  36  38
ATOM     38  C   UNL     1       4.938  -0.478   6.888  1.00  0.00     0.060 A 
ATOM     39  C   UNL     1       6.215  -0.064   6.484  1.00  0.00     0.016 A 
ATOM     40  C   UNL     1       4.049   0.421   7.485  1.00  0.00     0.016 A 
ATOM     41  C   UNL     1       6.638   1.231   6.744  1.00  0.00     0.010 A 
ATOM     42  C   UNL     1       4.490   1.709   7.790  1.00  0.00     0.010 A 
ATOM     43  C   UNL     1       5.809   2.085   7.478  1.00  0.00    -0.014 A 
BRANCH  43  44
ATOM     44  C   UNL     1       6.458   3.192   8.210  1.00  0.00     0.031 A 
ATOM     45  C   UNL     1       6.912   2.908   9.617  1.00  0.00     0.074 A 
ATOM     46  C   UNL     1       6.729   4.365   7.619  1.00  0.00     0.049 A 
ATOM     47  N   UNL     1       7.549   3.680  10.458  1.00  0.00    -0.248 NA
ATOM     48  C   UNL     1       6.609   1.565  10.146  1.00  0.00     0.031 C 
ATOM     49  C   UNL     1       6.406   4.717   6.238  1.00  0.00     0.029 A 
ATOM     50  N   UNL     1       7.359   5.475   8.117  1.00  0.00    -0.354 N 
ATOM     51  C   UNL     1       7.706   2.922  11.612  1.00  0.00     0.074 A 
ATOM     52  C   UNL     1       7.073   1.645  11.381  1.00  0.00     0.031 C 
ATOM     53  C   UNL     1       6.847   5.965   5.996  1.00  0.00     0.029 A 
ATOM     54  C   UNL     1       7.453   6.502   7.213  1.00  0.00     0.049 A 
ATOM     55  H   UNL     1       7.710   5.529   9.035  1.00  0.00     0.167 HD
ATOM     56  C   UNL     1       8.328   3.257  12.765  1.00  0.00     0.031 A 
ATOM     57  C   UNL     1       7.963   7.738   7.366  1.00  0.00     0.031 A 
ATOM     58  C   UNL     1       8.944   4.534  12.995  1.00  0.00     0.049 A 
ATOM     59  C   UNL     1       8.573   8.119   8.691  1.00  0.00     0.074 A 
ATOM     60  C   UNL     1       9.608   4.981  14.122  1.00  0.00     0.029 A 
ATOM     61  N   UNL     1       8.960   5.574  12.077  1.00  0.00    -0.354 N 
ATOM     62  N   UNL     1       8.732   7.394   9.773  1.00  0.00    -0.248 NA
ATOM     63  C   UNL     1       9.091   9.489   8.805  1.00  0.00     0.031 C 
ATOM     64  C   UNL     1       9.964   6.317  13.913  1.00  0.00     0.029 A 
ATOM     65  C   UNL     1       9.598   6.673  12.624  1.00  0.00     0.049 A 
ATOM     66  H   UNL     1       8.575   5.535  11.172  1.00  0.00     0.167 HD
ATOM     67  C   UNL     1       9.409   8.203  10.678  1.00  0.00     0.074 A 
ATOM     68  C   UNL     1       9.637   9.469  10.012  1.00  0.00     0.031 C 
ATOM     69  C   UNL     1       9.817   7.923  11.941  1.00  0.00     0.031 A 
BRANCH  56  70
ATOM     70  C   UNL     1       8.311   2.246  13.878  1.00  0.00    -0.014 A 
ATOM     71  C   UNL     1       9.025   1.039  13.795  1.00  0.00     0.009 A 
ATOM     72  C   UNL     1       7.560   2.510  15.034  1.00  0.00     0.009 A 
ATOM     73  C   UNL     1       8.954   0.103  14.829  1.00  0.00     0.001 A 
ATOM     74  C   UNL     1       7.519   1.588  16.081  1.00  0.00     0.001 A 
ATOM     75  C   UNL     1       8.206   0.380  15.973  1.00  0.00     0.000 A 
ENDBRANCH  56  70
BRANCH  57  76
ATOM     76  C   UNL     1       7.922   8.710   6.242  1.00  0.00    -0.014 A 
ATOM     77  C   UNL     1       9.106   9.144   5.626  1.00  0.00     0.009 A 
ATOM     78  C   UNL     1       6.697   9.234   5.799  1.00  0.00     0.009 A 
ATOM     79  C   UNL     1       9.066  10.106   4.614  1.00  0.00     0.001 A 
ATOM     80  C   UNL     1       6.658  10.170   4.764  1.00  0.00     0.001 A 
ATOM     81  C   UNL     1       7.843  10.615   4.181  1.00  0.00     0.000 A 
ENDBRANCH  57  76
BRANCH  69  82
ATOM     82  C   UNL     1      10.614   8.980  12.659  1.00  0.00    -0.014 A 
ATOM     83  C   UNL     1      10.037  10.190  13.075  1.00  0.00     0.009 A 
ATOM     84  C   UNL     1      11.967   8.739  12.948  1.00  0.00     0.009 A 
ATOM     85  C   UNL     1      10.815  11.157  13.717  1.00  0.00     0.001 A 
ATOM     86  C   UNL     1      12.730   9.689  13.625  1.00  0.00     0.001 A 
ATOM     87  C   UNL     1      12.158  10.904  13.995  1.00  0.00     0.000 A 
ENDBRANCH  69  82
ENDBRANCH  43  44
ENDBRANCH  36  38
ENDBRANCH  35  36
ENDBRANCH  34  35
ENDBRANCH  33  34
ENDBRANCH  32  33
ENDBRANCH  31  32
ENDBRANCH  30  31
ENDBRANCH  29  30
ENDBRANCH   1  29
TORSDOF 23
