REMARK SMILES CC(C)C[C@@H](CNC(=O)[C@@H]1CCOC1)C(=O)OCCOCCOCCOCCOC(=O)c1ccc(-c2c3nc(c(-c4ccccc4)c4ccc([nH]4)c(-c4ccccc4)c4nc(c(-c5ccccc5)c5ccc2[nH]5)C=C4)C=C3)cc1
REMARK SMILES IDX 22 1 21 2 20 3 19 4 18 5 17 6 15 7 16 8 5 9 4 10 2 11 1 12
REMARK SMILES IDX 3 13 6 14 7 15 8 16 9 18 10 19 11 20 14 21 12 22 13 23 23 24
REMARK SMILES IDX 24 25 25 26 26 27 27 28 28 29 29 30 30 31 31 32 32 33 33 34
REMARK SMILES IDX 79 35 34 36 78 37 35 38 36 39 37 40 72 41 38 42 77 43 71 44
REMARK SMILES IDX 73 45 39 46 76 47 70 48 69 49 40 51 62 52 47 53 61 54 48 55
REMARK SMILES IDX 51 56 60 57 74 58 49 59 50 60 59 62 75 63 52 64 41 65 42 66
REMARK SMILES IDX 46 67 43 68 45 69 44 70 63 71 64 72 68 73 65 74 67 75 66 76
REMARK SMILES IDX 53 77 54 78 58 79 55 80 57 81 56 82
REMARK H PARENT 7 17 73 50 51 61
REMARK Flexibility Score: inf
ROOT
ATOM      1  C   UNL     1      -3.494   0.420  -1.012  1.00  0.00     0.188 C 
ENDROOT
BRANCH   1   2
ATOM      2  C   UNL     1      -4.406  -0.775  -0.705  1.00  0.00     0.188 C 
BRANCH   2   3
ATOM      3  O   UNL     1      -5.695  -0.568  -0.167  1.00  0.00    -0.376 OA
BRANCH   3   4
ATOM      4  C   UNL     1      -5.911   0.104   1.062  1.00  0.00     0.202 C 
BRANCH   4   5
ATOM      5  C   UNL     1      -4.905   0.161   2.218  1.00  0.00     0.261 C 
BRANCH   5   6
ATOM      6  O   UNL     1      -3.558   0.616   1.981  1.00  0.00    -0.463 OA
BRANCH   6   7
ATOM      7  C   UNL     1      -2.625  -0.363   1.936  1.00  0.00     0.310 C 
ATOM      8  O   UNL     1      -2.890  -1.562   1.960  1.00  0.00    -0.252 OA
BRANCH   7   9
ATOM      9  C   UNL     1      -1.177   0.087   1.940  1.00  0.00     0.118 C 
BRANCH   9  10
ATOM     10  C   UNL     1      -0.735   1.358   1.185  1.00  0.00     0.020 C 
BRANCH  10  11
ATOM     11  C   UNL     1       0.784   1.377   0.830  1.00  0.00    -0.017 C 
ATOM     12  C   UNL     1       1.252   0.142   0.047  1.00  0.00     0.007 C 
ATOM     13  C   UNL     1       1.139   2.623   0.012  1.00  0.00     0.007 C 
ENDBRANCH  10  11
ENDBRANCH   9  10
BRANCH   9  14
ATOM     14  C   UNL     1      -0.680   0.021   3.384  1.00  0.00     0.131 C 
BRANCH  14  15
ATOM     15  N   UNL     1      -1.323   0.977   4.265  1.00  0.00    -0.355 N 
ATOM     16  C   UNL     1      -2.100   0.819   5.365  1.00  0.00     0.225 C 
ATOM     17  H   UNL     1      -1.165   1.917   4.019  1.00  0.00     0.163 HD
ATOM     18  O   UNL     1      -2.590   1.853   5.835  1.00  0.00    -0.275 OA
BRANCH  16  19
ATOM     19  C   UNL     1      -2.430  -0.520   6.020  1.00  0.00     0.106 C 
ATOM     20  C   UNL     1      -1.300  -1.484   6.286  1.00  0.00     0.044 C 
ATOM     21  C   UNL     1      -3.456  -1.324   5.266  1.00  0.00     0.173 C 
ATOM     22  C   UNL     1      -1.586  -2.702   5.427  1.00  0.00     0.161 C 
ATOM     23  O   UNL     1      -2.829  -2.501   4.763  1.00  0.00    -0.381 OA
ENDBRANCH  16  19
ENDBRANCH  14  15
ENDBRANCH   9  14
ENDBRANCH   7   9
ENDBRANCH   6   7
ENDBRANCH   5   6
ENDBRANCH   4   5
ENDBRANCH   3   4
ENDBRANCH   2   3
ENDBRANCH   1   2
BRANCH   1  24
ATOM     24  O   UNL     1      -3.812   1.643  -0.376  1.00  0.00    -0.377 OA
BRANCH  24  25
ATOM     25  C   UNL     1      -4.868   2.449  -0.887  1.00  0.00     0.188 C 
BRANCH  25  26
ATOM     26  C   UNL     1      -5.822   1.891  -1.960  1.00  0.00     0.188 C 
BRANCH  26  27
ATOM     27  O   UNL     1      -5.191   1.105  -2.956  1.00  0.00    -0.376 OA
BRANCH  27  28
ATOM     28  C   UNL     1      -4.740   1.739  -4.143  1.00  0.00     0.202 C 
BRANCH  28  29
ATOM     29  C   UNL     1      -3.726   2.886  -4.002  1.00  0.00     0.261 C 
BRANCH  29  30
ATOM     30  O   UNL     1      -4.179   4.060  -3.302  1.00  0.00    -0.460 OA
BRANCH  30  31
ATOM     31  C   UNL     1      -5.325   4.643  -3.712  1.00  0.00     0.338 C 
ATOM     32  O   UNL     1      -5.987   4.362  -4.689  1.00  0.00    -0.246 OA
BRANCH  31  33
ATOM     33  C   UNL     1      -5.771   5.569  -2.647  1.00  0.00     0.060 A 
ATOM     34  C   UNL     1      -7.039   5.376  -2.083  1.00  0.00     0.016 A 
ATOM     35  C   UNL     1      -4.966   6.632  -2.231  1.00  0.00     0.016 A 
ATOM     36  C   UNL     1      -7.527   6.277  -1.141  1.00  0.00     0.010 A 
ATOM     37  C   UNL     1      -5.467   7.550  -1.302  1.00  0.00     0.010 A 
ATOM     38  C   UNL     1      -6.766   7.399  -0.787  1.00  0.00    -0.014 A 
BRANCH  38  39
ATOM     39  C   UNL     1      -7.424   8.499  -0.041  1.00  0.00     0.031 A 
ATOM     40  C   UNL     1      -7.962   9.672  -0.817  1.00  0.00     0.074 A 
ATOM     41  C   UNL     1      -7.615   8.422   1.288  1.00  0.00     0.049 A 
ATOM     42  N   UNL     1      -8.607  10.727  -0.387  1.00  0.00    -0.248 NA
ATOM     43  C   UNL     1      -7.751   9.649  -2.274  1.00  0.00     0.031 C 
ATOM     44  C   UNL     1      -7.188   7.317   2.144  1.00  0.00     0.029 A 
ATOM     45  N   UNL     1      -8.233   9.297   2.148  1.00  0.00    -0.354 N 
ATOM     46  C   UNL     1      -8.884  11.485  -1.518  1.00  0.00     0.074 A 
ATOM     47  C   UNL     1      -8.304  10.793  -2.648  1.00  0.00     0.031 C 
ATOM     48  C   UNL     1      -7.555   7.582   3.411  1.00  0.00     0.029 A 
ATOM     49  C   UNL     1      -8.216   8.885   3.458  1.00  0.00     0.049 A 
ATOM     50  H   UNL     1      -8.648  10.139   1.853  1.00  0.00     0.167 HD
ATOM     51  C   UNL     1      -9.571  12.648  -1.613  1.00  0.00     0.031 A 
ATOM     52  C   UNL     1      -8.668   9.499   4.568  1.00  0.00     0.031 A 
ATOM     53  C   UNL     1     -10.131  13.351  -0.490  1.00  0.00     0.049 A 
ATOM     54  C   UNL     1      -9.350  10.837   4.444  1.00  0.00     0.074 A 
ATOM     55  C   UNL     1     -10.836  14.541  -0.482  1.00  0.00     0.029 A 
ATOM     56  N   UNL     1     -10.044  12.928   0.827  1.00  0.00    -0.354 N 
ATOM     57  N   UNL     1      -9.622  11.534   3.366  1.00  0.00    -0.248 NA
ATOM     58  C   UNL     1      -9.801  11.466   5.694  1.00  0.00     0.031 C 
ATOM     59  C   UNL     1     -11.126  14.869   0.847  1.00  0.00     0.029 A 
ATOM     60  C   UNL     1     -10.661  13.847   1.659  1.00  0.00     0.049 A 
ATOM     61  H   UNL     1      -9.609  12.097   1.127  1.00  0.00     0.167 HD
ATOM     62  C   UNL     1     -10.296  12.667   3.807  1.00  0.00     0.074 A 
ATOM     63  C   UNL     1     -10.419  12.548   5.244  1.00  0.00     0.031 C 
ATOM     64  C   UNL     1     -10.768  13.717   3.089  1.00  0.00     0.031 A 
BRANCH  51  65
ATOM     65  C   UNL     1      -9.734  13.249  -2.982  1.00  0.00    -0.014 A 
ATOM     66  C   UNL     1     -10.587  12.669  -3.935  1.00  0.00     0.009 A 
ATOM     67  C   UNL     1      -9.063  14.438  -3.306  1.00  0.00     0.009 A 
ATOM     68  C   UNL     1     -10.745  13.256  -5.192  1.00  0.00     0.001 A 
ATOM     69  C   UNL     1      -9.245  15.038  -4.553  1.00  0.00     0.001 A 
ATOM     70  C   UNL     1     -10.081  14.443  -5.497  1.00  0.00     0.000 A 
ENDBRANCH  51  65
BRANCH  52  71
ATOM     71  C   UNL     1      -8.463   8.882   5.907  1.00  0.00    -0.014 A 
ATOM     72  C   UNL     1      -9.552   8.460   6.686  1.00  0.00     0.009 A 
ATOM     73  C   UNL     1      -7.168   8.762   6.437  1.00  0.00     0.009 A 
ATOM     74  C   UNL     1      -9.351   7.972   7.980  1.00  0.00     0.001 A 
ATOM     75  C   UNL     1      -6.967   8.240   7.716  1.00  0.00     0.001 A 
ATOM     76  C   UNL     1      -8.059   7.859   8.492  1.00  0.00     0.000 A 
ENDBRANCH  52  71
BRANCH  64  77
ATOM     77  C   UNL     1     -11.488  14.798   3.849  1.00  0.00    -0.014 A 
ATOM     78  C   UNL     1     -10.806  15.651   4.732  1.00  0.00     0.009 A 
ATOM     79  C   UNL     1     -12.870  14.972   3.671  1.00  0.00     0.009 A 
ATOM     80  C   UNL     1     -11.503  16.619   5.460  1.00  0.00     0.001 A 
ATOM     81  C   UNL     1     -13.557  15.963   4.372  1.00  0.00     0.001 A 
ATOM     82  C   UNL     1     -12.876  16.775   5.277  1.00  0.00     0.000 A 
ENDBRANCH  64  77
ENDBRANCH  38  39
ENDBRANCH  31  33
ENDBRANCH  30  31
ENDBRANCH  29  30
ENDBRANCH  28  29
ENDBRANCH  27  28
ENDBRANCH  26  27
ENDBRANCH  25  26
ENDBRANCH  24  25
ENDBRANCH   1  24
TORSDOF 25
