REMARK SMILES O=C(OCCOCCOCCOCCOC(=O)c1ccc(-c2c3nc(c(-c4ccccc4)c4ccc([nH]4)c(-c4ccccc4)c4nc(c(-c5ccccc5)c5ccc2[nH]5)C=C4)C=C3)cc1)C1=Cc2cc(C(F)(F)F)ccc2O[C@@H]1C(F)(F)F
REMARK SMILES IDX 10 1 9 2 8 3 7 4 6 5 5 6 4 7 3 8 2 9 1 10 66 11 67 12 79 13
REMARK SMILES IDX 68 14 78 15 69 16 77 17 70 18 76 19 75 20 80 21 81 22 82 23
REMARK SMILES IDX 83 24 71 25 72 26 73 27 74 28 11 29 12 30 13 31 14 32 15 33
REMARK SMILES IDX 16 34 17 35 18 36 19 37 65 38 20 39 64 40 21 41 22 42 23 43
REMARK SMILES IDX 58 44 24 45 63 46 57 47 59 48 25 49 62 50 56 51 55 52 26 54
REMARK SMILES IDX 48 55 33 56 47 57 34 58 37 59 46 60 60 61 35 62 36 63 45 65
REMARK SMILES IDX 61 66 38 67 27 68 28 69 32 70 29 71 31 72 30 73 49 74 50 75
REMARK SMILES IDX 54 76 51 77 53 78 52 79 39 80 40 81 44 82 41 83 43 84 42 85
REMARK H PARENT 59 53 37 64
REMARK Flexibility Score: inf
ROOT
ATOM      1  C   UNL     1       3.158  -0.244  -4.281  1.00  0.00     0.188 C 
ENDROOT
BRANCH   1   2
ATOM      2  O   UNL     1       1.861   0.328  -4.188  1.00  0.00    -0.377 OA
BRANCH   2   3
ATOM      3  C   UNL     1       1.093  -0.070  -3.060  1.00  0.00     0.188 C 
BRANCH   3   4
ATOM      4  C   UNL     1       1.491   0.672  -1.792  1.00  0.00     0.188 C 
BRANCH   4   5
ATOM      5  O   UNL     1       2.850   0.489  -1.430  1.00  0.00    -0.376 OA
BRANCH   5   6
ATOM      6  C   UNL     1       3.279  -0.788  -0.987  1.00  0.00     0.202 C 
BRANCH   6   7
ATOM      7  C   UNL     1       2.750  -1.247   0.370  1.00  0.00     0.261 C 
BRANCH   7   8
ATOM      8  O   UNL     1       2.201  -0.164   1.138  1.00  0.00    -0.460 OA
BRANCH   8   9
ATOM      9  C   UNL     1       2.767   0.062   2.347  1.00  0.00     0.338 C 
ATOM     10  O   UNL     1       2.323  -0.406   3.384  1.00  0.00    -0.246 OA
BRANCH   9  11
ATOM     11  C   UNL     1       3.906   1.025   2.297  1.00  0.00     0.087 C 
ATOM     12  C   UNL     1       4.988   0.544   2.938  1.00  0.00     0.027 C 
ATOM     13  C   UNL     1       4.045   1.833   1.029  1.00  0.00     0.316 C 
ATOM     14  C   UNL     1       6.090   0.155   2.051  1.00  0.00     0.018 A 
ATOM     15  O   UNL     1       5.201   1.496   0.227  1.00  0.00    -0.475 OA
ATOM     16  C   UNL     1       7.108  -0.695   2.505  1.00  0.00     0.025 A 
ATOM     17  C   UNL     1       6.064   0.552   0.714  1.00  0.00     0.128 A 
ATOM     18  C   UNL     1       8.044  -1.222   1.598  1.00  0.00     0.056 A 
ATOM     19  C   UNL     1       6.934  -0.034  -0.202  1.00  0.00     0.048 A 
ATOM     20  C   UNL     1       7.893  -0.947   0.230  1.00  0.00     0.017 A 
BRANCH  13  21
ATOM     21  C   UNL     1       3.925   3.337   1.286  1.00  0.00     0.430 C 
ATOM     22  F   UNL     1       3.631   4.006   0.146  1.00  0.00    -0.167 F 
ATOM     23  F   UNL     1       2.914   3.599   2.155  1.00  0.00    -0.167 F 
ATOM     24  F   UNL     1       5.050   3.872   1.804  1.00  0.00    -0.167 F 
ENDBRANCH  13  21
BRANCH  18  25
ATOM     25  C   UNL     1       9.260  -1.986   2.066  1.00  0.00     0.416 C 
ATOM     26  F   UNL     1      10.378  -1.208   2.027  1.00  0.00    -0.166 F 
ATOM     27  F   UNL     1       9.165  -2.442   3.344  1.00  0.00    -0.166 F 
ATOM     28  F   UNL     1       9.536  -3.072   1.294  1.00  0.00    -0.166 F 
ENDBRANCH  18  25
ENDBRANCH   9  11
ENDBRANCH   8   9
ENDBRANCH   7   8
ENDBRANCH   6   7
ENDBRANCH   5   6
ENDBRANCH   4   5
ENDBRANCH   3   4
ENDBRANCH   2   3
ENDBRANCH   1   2
BRANCH   1  29
ATOM     29  C   UNL     1       4.359   0.675  -3.948  1.00  0.00     0.188 C 
BRANCH  29  30
ATOM     30  O   UNL     1       4.393   2.066  -4.245  1.00  0.00    -0.376 OA
BRANCH  30  31
ATOM     31  C   UNL     1       3.315   2.661  -4.939  1.00  0.00     0.202 C 
BRANCH  31  32
ATOM     32  C   UNL     1       3.264   2.381  -6.450  1.00  0.00     0.261 C 
BRANCH  32  33
ATOM     33  O   UNL     1       3.625   1.039  -6.828  1.00  0.00    -0.460 OA
BRANCH  33  34
ATOM     34  C   UNL     1       4.935   0.836  -7.142  1.00  0.00     0.338 C 
ATOM     35  O   UNL     1       5.786   1.679  -7.302  1.00  0.00    -0.246 OA
BRANCH  34  36
ATOM     36  C   UNL     1       5.238  -0.627  -7.069  1.00  0.00     0.060 A 
ATOM     37  C   UNL     1       6.412  -1.014  -6.404  1.00  0.00     0.016 A 
ATOM     38  C   UNL     1       4.378  -1.607  -7.574  1.00  0.00     0.016 A 
ATOM     39  C   UNL     1       6.738  -2.367  -6.258  1.00  0.00     0.010 A 
ATOM     40  C   UNL     1       4.717  -2.964  -7.449  1.00  0.00     0.010 A 
ATOM     41  C   UNL     1       5.914  -3.351  -6.818  1.00  0.00    -0.014 A 
BRANCH  41  42
ATOM     42  C   UNL     1       6.426  -4.740  -6.971  1.00  0.00     0.031 A 
ATOM     43  C   UNL     1       7.081  -5.099  -8.281  1.00  0.00     0.074 A 
ATOM     44  C   UNL     1       6.350  -5.662  -5.993  1.00  0.00     0.049 A 
ATOM     45  N   UNL     1       7.546  -6.251  -8.694  1.00  0.00    -0.248 NA
ATOM     46  C   UNL     1       7.229  -4.005  -9.257  1.00  0.00     0.031 C 
ATOM     47  C   UNL     1       5.808  -5.444  -4.653  1.00  0.00     0.029 A 
ATOM     48  N   UNL     1       6.731  -6.985  -5.987  1.00  0.00    -0.354 N 
ATOM     49  C   UNL     1       8.026  -6.021  -9.978  1.00  0.00     0.074 A 
ATOM     50  C   UNL     1       7.780  -4.631 -10.285  1.00  0.00     0.031 C 
ATOM     51  C   UNL     1       5.875  -6.598  -3.962  1.00  0.00     0.029 A 
ATOM     52  C   UNL     1       6.430  -7.646  -4.819  1.00  0.00     0.049 A 
ATOM     53  H   UNL     1       7.178  -7.418  -6.750  1.00  0.00     0.167 HD
ATOM     54  C   UNL     1       8.621  -6.888 -10.831  1.00  0.00     0.031 A 
ATOM     55  C   UNL     1       6.559  -8.949  -4.493  1.00  0.00     0.031 A 
ATOM     56  C   UNL     1       8.863  -8.274 -10.541  1.00  0.00     0.049 A 
ATOM     57  C   UNL     1       7.135  -9.917  -5.500  1.00  0.00     0.074 A 
ATOM     58  C   UNL     1       9.472  -9.225 -11.341  1.00  0.00     0.029 A 
ATOM     59  N   UNL     1       8.498  -8.910  -9.366  1.00  0.00    -0.354 N 
ATOM     60  N   UNL     1       7.606  -9.682  -6.701  1.00  0.00    -0.248 NA
ATOM     61  C   UNL     1       7.196 -11.333  -5.103  1.00  0.00     0.031 C 
ATOM     62  C   UNL     1       9.416 -10.453 -10.676  1.00  0.00     0.029 A 
ATOM     63  C   UNL     1       8.836 -10.250  -9.434  1.00  0.00     0.049 A 
ATOM     64  H   UNL     1       8.064  -8.473  -8.598  1.00  0.00     0.167 HD
ATOM     65  C   UNL     1       8.044 -10.911  -7.186  1.00  0.00     0.074 A 
ATOM     66  C   UNL     1       7.803 -11.885  -6.144  1.00  0.00     0.031 C 
ATOM     67  C   UNL     1       8.595 -11.209  -8.389  1.00  0.00     0.031 A 
BRANCH  54  68
ATOM     68  C   UNL     1       9.015  -6.370 -12.185  1.00  0.00    -0.014 A 
ATOM     69  C   UNL     1      10.101  -5.497 -12.348  1.00  0.00     0.009 A 
ATOM     70  C   UNL     1       8.315  -6.807 -13.321  1.00  0.00     0.009 A 
ATOM     71  C   UNL     1      10.464  -5.054 -13.622  1.00  0.00     0.001 A 
ATOM     72  C   UNL     1       8.698  -6.386 -14.595  1.00  0.00     0.001 A 
ATOM     73  C   UNL     1       9.768  -5.505 -14.744  1.00  0.00     0.000 A 
ENDBRANCH  54  68
BRANCH  55  74
ATOM     74  C   UNL     1       6.089  -9.453  -3.171  1.00  0.00    -0.014 A 
ATOM     75  C   UNL     1       6.992  -9.986  -2.237  1.00  0.00     0.009 A 
ATOM     76  C   UNL     1       4.718  -9.473  -2.867  1.00  0.00     0.009 A 
ATOM     77  C   UNL     1       6.530 -10.559  -1.048  1.00  0.00     0.001 A 
ATOM     78  C   UNL     1       4.261 -10.015  -1.663  1.00  0.00     0.001 A 
ATOM     79  C   UNL     1       5.166 -10.570  -0.760  1.00  0.00     0.000 A 
ENDBRANCH  55  74
BRANCH  67  80
ATOM     80  C   UNL     1       9.011 -12.634  -8.633  1.00  0.00    -0.014 A 
ATOM     81  C   UNL     1       8.064 -13.653  -8.815  1.00  0.00     0.009 A 
ATOM     82  C   UNL     1      10.376 -12.951  -8.734  1.00  0.00     0.009 A 
ATOM     83  C   UNL     1       8.476 -14.966  -9.057  1.00  0.00     0.001 A 
ATOM     84  C   UNL     1      10.784 -14.257  -9.010  1.00  0.00     0.001 A 
ATOM     85  C   UNL     1       9.834 -15.265  -9.160  1.00  0.00     0.000 A 
ENDBRANCH  67  80
ENDBRANCH  41  42
ENDBRANCH  34  36
ENDBRANCH  33  34
ENDBRANCH  32  33
ENDBRANCH  31  32
ENDBRANCH  30  31
ENDBRANCH  29  30
ENDBRANCH   1  29
TORSDOF 22
