REMARK SMILES NS(=O)(=O)c1ccc(N2N=C(C(=O)OCCOCCOCCOCCOC(=O)c3ccc(-c4c5nc(c(-c6ccccc6)c6ccc([nH]6)c(-c6ccccc6)c6nc(c(-c7ccccc7)c7ccc4[nH]7)C=C6)C=C5)cc3)C[C@H]2c2cccs2)cc1
REMARK SMILES IDX 19 1 18 2 17 3 16 4 15 5 14 6 12 7 13 8 11 9 9 10 10 11
REMARK SMILES IDX 78 12 77 13 8 14 5 15 6 16 85 17 7 18 84 19 2 20 3 21 4 22
REMARK SMILES IDX 1 23 79 26 80 27 83 28 81 29 82 30 20 31 21 32 22 33 23 34
REMARK SMILES IDX 24 35 25 36 26 37 27 38 28 39 29 40 30 41 76 42 31 43 75 44
REMARK SMILES IDX 32 45 33 46 34 47 69 48 35 49 74 50 68 51 70 52 36 53 73 54
REMARK SMILES IDX 67 55 66 56 37 58 59 59 44 60 58 61 45 62 48 63 57 64 71 65
REMARK SMILES IDX 46 66 47 67 56 69 72 70 49 71 38 72 39 73 43 74 40 75 42 76
REMARK SMILES IDX 41 77 60 78 61 79 65 80 62 81 64 82 63 83 50 84 51 85 55 86
REMARK SMILES IDX 52 87 54 88 53 89
REMARK H PARENT 1 24 1 25 70 57 48 68
REMARK Flexibility Score: inf
ROOT
ATOM      1  C   UNL     1       4.000   6.138  -8.130  1.00  0.00     0.188 C 
ENDROOT
BRANCH   1   2
ATOM      2  C   UNL     1       2.774   5.814  -9.003  1.00  0.00     0.188 C 
BRANCH   2   3
ATOM      3  O   UNL     1       2.634   6.684 -10.110  1.00  0.00    -0.376 OA
BRANCH   3   4
ATOM      4  C   UNL     1       1.773   7.807 -10.067  1.00  0.00     0.202 C 
BRANCH   4   5
ATOM      5  C   UNL     1       1.569   8.695  -8.824  1.00  0.00     0.261 C 
BRANCH   5   6
ATOM      6  O   UNL     1       1.884   8.109  -7.564  1.00  0.00    -0.459 OA
BRANCH   6   7
ATOM      7  C   UNL     1       0.887   7.494  -6.911  1.00  0.00     0.354 C 
ATOM      8  O   UNL     1      -0.288   7.446  -7.213  1.00  0.00    -0.245 OA
BRANCH   7   9
ATOM      9  C   UNL     1       1.496   6.707  -5.780  1.00  0.00     0.148 C 
ATOM     10  N   UNL     1       1.914   5.116  -4.448  1.00  0.00    -0.256 N 
ATOM     11  N   UNL     1       1.196   5.463  -5.558  1.00  0.00    -0.169 NA
ATOM     12  C   UNL     1       2.410   6.314  -3.730  1.00  0.00     0.154 C 
ATOM     13  C   UNL     1       2.567   7.289  -4.906  1.00  0.00     0.099 C 
BRANCH  10  14
ATOM     14  C   UNL     1       1.613   3.907  -3.835  1.00  0.00     0.060 A 
ATOM     15  C   UNL     1       1.024   1.450  -2.605  1.00  0.00     0.082 A 
ATOM     16  C   UNL     1       2.156   1.565  -3.416  1.00  0.00     0.024 A 
ATOM     17  C   UNL     1       0.159   2.532  -2.442  1.00  0.00     0.024 A 
ATOM     18  C   UNL     1       2.448   2.795  -4.019  1.00  0.00     0.029 A 
ATOM     19  C   UNL     1       0.449   3.743  -3.072  1.00  0.00     0.029 A 
BRANCH  15  20
ATOM     20  S   UNL     1       0.643  -0.090  -1.826  1.00  0.00     0.238 S 
ATOM     21  O   UNL     1       1.422  -1.143  -2.425  1.00  0.00    -0.207 OA
ATOM     22  O   UNL     1      -0.790  -0.189  -1.642  1.00  0.00    -0.207 OA
BRANCH  20  23
ATOM     23  N   UNL     1       1.284   0.135  -0.288  1.00  0.00    -0.225 NA
ATOM     24  H   UNL     1       1.125  -0.703   0.272  1.00  0.00     0.137 HD
ATOM     25  H   UNL     1       0.830   0.932   0.156  1.00  0.00     0.137 HD
ENDBRANCH  20  23
ENDBRANCH  15  20
ENDBRANCH  10  14
BRANCH  12  26
ATOM     26  C   UNL     1       1.522   6.859  -2.611  1.00  0.00     0.030 A 
ATOM     27  C   UNL     1       1.396   6.353  -1.327  1.00  0.00     0.017 A 
ATOM     28  S   UNL     1       0.488   8.220  -2.819  1.00  0.00    -0.147 S 
ATOM     29  C   UNL     1       0.435   7.056  -0.545  1.00  0.00     0.012 A 
ATOM     30  C   UNL     1      -0.107   8.118  -1.229  1.00  0.00     0.065 A 
ENDBRANCH  12  26
ENDBRANCH   7   9
ENDBRANCH   6   7
ENDBRANCH   5   6
ENDBRANCH   4   5
ENDBRANCH   3   4
ENDBRANCH   2   3
ENDBRANCH   1   2
BRANCH   1  31
ATOM     31  O   UNL     1       4.444   7.486  -8.195  1.00  0.00    -0.377 OA
BRANCH  31  32
ATOM     32  C   UNL     1       5.165   7.919  -9.353  1.00  0.00     0.188 C 
BRANCH  32  33
ATOM     33  C   UNL     1       5.343   7.034 -10.613  1.00  0.00     0.188 C 
BRANCH  33  34
ATOM     34  O   UNL     1       5.366   5.640 -10.364  1.00  0.00    -0.376 OA
BRANCH  34  35
ATOM     35  C   UNL     1       6.609   4.963 -10.375  1.00  0.00     0.202 C 
BRANCH  35  36
ATOM     36  C   UNL     1       7.646   5.377  -9.321  1.00  0.00     0.261 C 
BRANCH  36  37
ATOM     37  O   UNL     1       7.991   6.770  -9.288  1.00  0.00    -0.460 OA
BRANCH  37  38
ATOM     38  C   UNL     1       8.604   7.282 -10.377  1.00  0.00     0.338 C 
ATOM     39  O   UNL     1       8.926   6.691 -11.389  1.00  0.00    -0.246 OA
BRANCH  38  40
ATOM     40  C   UNL     1       8.659   8.750 -10.207  1.00  0.00     0.060 A 
ATOM     41  C   UNL     1       8.001   9.569 -11.133  1.00  0.00     0.016 A 
ATOM     42  C   UNL     1       9.358   9.311  -9.136  1.00  0.00     0.016 A 
ATOM     43  C   UNL     1       8.071  10.957 -11.011  1.00  0.00     0.010 A 
ATOM     44  C   UNL     1       9.443  10.702  -9.026  1.00  0.00     0.010 A 
ATOM     45  C   UNL     1       8.829  11.531  -9.982  1.00  0.00    -0.014 A 
BRANCH  45  46
ATOM     46  C   UNL     1       9.138  12.981 -10.010  1.00  0.00     0.031 A 
ATOM     47  C   UNL     1      10.476  13.418 -10.543  1.00  0.00     0.074 A 
ATOM     48  C   UNL     1       8.249  13.898  -9.590  1.00  0.00     0.049 A 
ATOM     49  N   UNL     1      10.990  14.619 -10.618  1.00  0.00    -0.248 NA
ATOM     50  C   UNL     1      11.353  12.353 -11.059  1.00  0.00     0.031 C 
ATOM     51  C   UNL     1       6.902  13.613  -9.101  1.00  0.00     0.029 A 
ATOM     52  N   UNL     1       8.357  15.264  -9.503  1.00  0.00    -0.354 N 
ATOM     53  C   UNL     1      12.251  14.453 -11.177  1.00  0.00     0.074 A 
ATOM     54  C   UNL     1      12.438  13.035 -11.392  1.00  0.00     0.031 C 
ATOM     55  C   UNL     1       6.309  14.771  -8.759  1.00  0.00     0.029 A 
ATOM     56  C   UNL     1       7.249  15.872  -8.966  1.00  0.00     0.049 A 
ATOM     57  H   UNL     1       9.154  15.761  -9.798  1.00  0.00     0.167 HD
ATOM     58  C   UNL     1      13.171  15.396 -11.490  1.00  0.00     0.031 A 
ATOM     59  C   UNL     1       7.029  17.164  -8.655  1.00  0.00     0.031 A 
ATOM     60  C   UNL     1      12.994  16.805 -11.259  1.00  0.00     0.049 A 
ATOM     61  C   UNL     1       8.107  18.184  -8.923  1.00  0.00     0.074 A 
ATOM     62  C   UNL     1      13.863  17.841 -11.552  1.00  0.00     0.029 A 
ATOM     63  N   UNL     1      11.876  17.373 -10.670  1.00  0.00    -0.354 N 
ATOM     64  N   UNL     1       9.285  18.020  -9.476  1.00  0.00    -0.248 NA
ATOM     65  C   UNL     1       7.819  19.571  -8.527  1.00  0.00     0.031 C 
ATOM     66  C   UNL     1      13.300  19.029 -11.076  1.00  0.00     0.029 A 
ATOM     67  C   UNL     1      12.048  18.743 -10.557  1.00  0.00     0.049 A 
ATOM     68  H   UNL     1      11.078  16.878 -10.375  1.00  0.00     0.167 HD
ATOM     69  C   UNL     1       9.862  19.284  -9.524  1.00  0.00     0.074 A 
ATOM     70  C   UNL     1       8.899  20.206  -8.960  1.00  0.00     0.031 C 
ATOM     71  C   UNL     1      11.081  19.650  -9.994  1.00  0.00     0.031 A 
BRANCH  58  72
ATOM     72  C   UNL     1      14.473  14.926 -12.078  1.00  0.00    -0.014 A 
ATOM     73  C   UNL     1      14.542  14.391 -13.374  1.00  0.00     0.009 A 
ATOM     74  C   UNL     1      15.656  15.050 -11.332  1.00  0.00     0.009 A 
ATOM     75  C   UNL     1      15.763  13.957 -13.897  1.00  0.00     0.001 A 
ATOM     76  C   UNL     1      16.880  14.647 -11.869  1.00  0.00     0.001 A 
ATOM     77  C   UNL     1      16.930  14.091 -13.146  1.00  0.00     0.000 A 
ENDBRANCH  58  72
BRANCH  59  78
ATOM     78  C   UNL     1       5.744  17.577  -8.027  1.00  0.00    -0.014 A 
ATOM     79  C   UNL     1       4.845  18.411  -8.710  1.00  0.00     0.009 A 
ATOM     80  C   UNL     1       5.427  17.168  -6.722  1.00  0.00     0.009 A 
ATOM     81  C   UNL     1       3.674  18.851  -8.089  1.00  0.00     0.001 A 
ATOM     82  C   UNL     1       4.239  17.582  -6.115  1.00  0.00     0.001 A 
ATOM     83  C   UNL     1       3.369  18.432  -6.795  1.00  0.00     0.000 A 
ENDBRANCH  59  78
BRANCH  71  84
ATOM     84  C   UNL     1      11.427  21.114  -9.960  1.00  0.00    -0.014 A 
ATOM     85  C   UNL     1      11.676  21.783  -8.752  1.00  0.00     0.009 A 
ATOM     86  C   UNL     1      11.551  21.825 -11.165  1.00  0.00     0.009 A 
ATOM     87  C   UNL     1      12.004  23.141  -8.750  1.00  0.00     0.001 A 
ATOM     88  C   UNL     1      11.914  23.172 -11.163  1.00  0.00     0.001 A 
ATOM     89  C   UNL     1      12.129  23.832  -9.955  1.00  0.00     0.000 A 
ENDBRANCH  71  84
ENDBRANCH  45  46
ENDBRANCH  38  40
ENDBRANCH  37  38
ENDBRANCH  36  37
ENDBRANCH  35  36
ENDBRANCH  34  35
ENDBRANCH  33  34
ENDBRANCH  32  33
ENDBRANCH  31  32
ENDBRANCH   1  31
TORSDOF 24
