REMARK SMILES C#CC[N@H+](CC(=O)OCCOCCOCCOCCOC(=O)c1ccc(-c2c3nc(c(-c4ccccc4)c4ccc([nH]4)c(-c4ccccc4)c4nc(c(-c5ccccc5)c5ccc2[nH]5)C=C4)C=C3)cc1)[C@H](C)c1cc(C)ccc1C
REMARK SMILES IDX 13 1 12 2 11 3 10 4 9 5 8 6 6 7 7 8 5 9 4 10 3 12 2 13 1 14
REMARK SMILES IDX 71 15 72 16 73 17 74 18 79 19 75 20 78 21 80 22 76 23 77 24
REMARK SMILES IDX 14 25 15 26 16 27 17 28 18 29 19 30 20 31 21 32 22 33 23 34
REMARK SMILES IDX 24 35 70 36 25 37 69 38 26 39 27 40 28 41 63 42 29 43 68 44
REMARK SMILES IDX 62 45 64 46 30 47 67 48 61 49 60 50 31 52 53 53 38 54 52 55
REMARK SMILES IDX 39 56 42 57 51 58 65 59 40 60 41 61 50 63 66 64 43 65 32 66
REMARK SMILES IDX 33 67 37 68 34 69 36 70 35 71 54 72 55 73 59 74 56 75 58 76
REMARK SMILES IDX 57 77 44 78 45 79 49 80 46 81 48 82 47 83
REMARK H PARENT 4 11 64 51 42 62
REMARK Flexibility Score: inf
ROOT
ATOM      1  C   UNL     1      -2.646  -1.325   4.996  1.00  0.00     0.188 C 
ENDROOT
BRANCH   1   2
ATOM      2  C   UNL     1      -4.132  -1.385   5.405  1.00  0.00     0.188 C 
BRANCH   2   3
ATOM      3  O   UNL     1      -4.664  -2.641   5.771  1.00  0.00    -0.376 OA
BRANCH   3   4
ATOM      4  C   UNL     1      -5.222  -3.534   4.823  1.00  0.00     0.202 C 
BRANCH   4   5
ATOM      5  C   UNL     1      -5.197  -3.344   3.297  1.00  0.00     0.261 C 
BRANCH   5   6
ATOM      6  O   UNL     1      -4.291  -2.362   2.795  1.00  0.00    -0.459 OA
BRANCH   6   7
ATOM      7  C   UNL     1      -4.851  -1.258   2.249  1.00  0.00     0.361 C 
ATOM      8  O   UNL     1      -6.064  -1.087   2.144  1.00  0.00    -0.245 OA
BRANCH   7   9
ATOM      9  C   UNL     1      -3.877  -0.149   1.863  1.00  0.00     0.387 C 
BRANCH   9  10
ATOM     10  N   UNL     1      -2.398  -0.435   1.764  1.00  0.00    -0.310 N 
ATOM     11  H   UNL     1      -1.978  -0.818   2.611  1.00  0.00     0.349 HD
BRANCH  10  12
ATOM     12  C   UNL     1      -2.190  -1.489   0.741  1.00  0.00     0.354 C 
BRANCH  12  13
ATOM     13  C   UNL     1      -0.931  -2.242   0.831  1.00  0.00    -0.047 C 
ATOM     14  C   UNL     1       0.066  -2.916   0.906  1.00  0.00     0.010 C 
ENDBRANCH  12  13
ENDBRANCH  10  12
BRANCH  10  15
ATOM     15  C   UNL     1      -1.720   0.900   1.505  1.00  0.00     0.213 C 
ATOM     16  C   UNL     1      -1.860   1.365   0.040  1.00  0.00     0.081 C 
BRANCH  15  17
ATOM     17  C   UNL     1      -0.280   1.164   2.011  1.00  0.00     0.012 A 
ATOM     18  C   UNL     1       0.586   0.120   2.365  1.00  0.00     0.013 A 
ATOM     19  C   UNL     1       0.255   2.482   2.107  1.00  0.00    -0.042 A 
ATOM     20  C   UNL     1       1.958   0.313   2.617  1.00  0.00    -0.051 A 
ATOM     21  C   UNL     1       1.627   2.676   2.381  1.00  0.00     0.004 A 
ATOM     22  C   UNL     1      -0.545   3.751   1.944  1.00  0.00     0.045 C 
ATOM     23  C   UNL     1       2.850  -0.872   2.843  1.00  0.00     0.044 C 
ATOM     24  C   UNL     1       2.478   1.601   2.600  1.00  0.00     0.004 A 
ENDBRANCH  15  17
ENDBRANCH  10  15
ENDBRANCH   9  10
ENDBRANCH   7   9
ENDBRANCH   6   7
ENDBRANCH   5   6
ENDBRANCH   4   5
ENDBRANCH   3   4
ENDBRANCH   2   3
ENDBRANCH   1   2
BRANCH   1  25
ATOM     25  O   UNL     1      -2.052  -2.450   4.378  1.00  0.00    -0.377 OA
BRANCH  25  26
ATOM     26  C   UNL     1      -1.968  -3.690   5.063  1.00  0.00     0.188 C 
BRANCH  26  27
ATOM     27  C   UNL     1      -2.159  -3.796   6.592  1.00  0.00     0.188 C 
BRANCH  27  28
ATOM     28  O   UNL     1      -2.133  -2.570   7.296  1.00  0.00    -0.376 OA
BRANCH  28  29
ATOM     29  C   UNL     1      -0.930  -2.199   7.950  1.00  0.00     0.202 C 
BRANCH  29  30
ATOM     30  C   UNL     1       0.358  -2.088   7.117  1.00  0.00     0.261 C 
BRANCH  30  31
ATOM     31  O   UNL     1       0.711  -3.231   6.321  1.00  0.00    -0.460 OA
BRANCH  31  32
ATOM     32  C   UNL     1       1.037  -4.373   6.963  1.00  0.00     0.338 C 
ATOM     33  O   UNL     1       1.086  -4.559   8.164  1.00  0.00    -0.246 OA
BRANCH  32  34
ATOM     34  C   UNL     1       1.155  -5.434   5.938  1.00  0.00     0.060 A 
ATOM     35  C   UNL     1       0.208  -6.468   5.904  1.00  0.00     0.016 A 
ATOM     36  C   UNL     1       2.179  -5.385   4.992  1.00  0.00     0.016 A 
ATOM     37  C   UNL     1       0.283  -7.457   4.920  1.00  0.00     0.010 A 
ATOM     38  C   UNL     1       2.272  -6.394   4.029  1.00  0.00     0.010 A 
ATOM     39  C   UNL     1       1.334  -7.442   3.996  1.00  0.00    -0.014 A 
BRANCH  39  40
ATOM     40  C   UNL     1       1.544  -8.583   3.074  1.00  0.00     0.031 A 
ATOM     41  C   UNL     1       2.572  -9.620   3.428  1.00  0.00     0.074 A 
ATOM     42  C   UNL     1       0.851  -8.688   1.926  1.00  0.00     0.049 A 
ATOM     43  N   UNL     1       3.011 -10.630   2.723  1.00  0.00    -0.248 NA
ATOM     44  C   UNL     1       3.189  -9.494   4.758  1.00  0.00     0.031 C 
ATOM     45  C   UNL     1      -0.216  -7.788   1.495  1.00  0.00     0.029 A 
ATOM     46  N   UNL     1       0.962  -9.598   0.903  1.00  0.00    -0.354 N 
ATOM     47  C   UNL     1       3.968 -11.252   3.516  1.00  0.00     0.074 A 
ATOM     48  C   UNL     1       4.061 -10.491   4.743  1.00  0.00     0.031 C 
ATOM     49  C   UNL     1      -0.654  -8.184   0.287  1.00  0.00     0.029 A 
ATOM     50  C   UNL     1       0.136  -9.329  -0.161  1.00  0.00     0.049 A 
ATOM     51  H   UNL     1       1.573 -10.369   0.931  1.00  0.00     0.167 HD
ATOM     52  C   UNL     1       4.705 -12.356   3.245  1.00  0.00     0.031 A 
ATOM     53  C   UNL     1       0.057  -9.915  -1.372  1.00  0.00     0.031 A 
ATOM     54  C   UNL     1       4.631 -13.092   2.010  1.00  0.00     0.049 A 
ATOM     55  C   UNL     1       0.976 -11.064  -1.701  1.00  0.00     0.074 A 
ATOM     56  C   UNL     1       5.329 -14.230   1.643  1.00  0.00     0.029 A 
ATOM     57  N   UNL     1       3.825 -12.752   0.935  1.00  0.00    -0.354 N 
ATOM     58  N   UNL     1       1.858 -11.664  -0.938  1.00  0.00    -0.248 NA
ATOM     59  C   UNL     1       0.892 -11.611  -3.064  1.00  0.00     0.031 C 
ATOM     60  C   UNL     1       5.003 -14.531   0.317  1.00  0.00     0.029 A 
ATOM     61  C   UNL     1       4.045 -13.628  -0.116  1.00  0.00     0.049 A 
ATOM     62  H   UNL     1       3.191 -11.999   0.920  1.00  0.00     0.167 HD
ATOM     63  C   UNL     1       2.417 -12.669  -1.719  1.00  0.00     0.074 A 
ATOM     64  C   UNL     1       1.758 -12.614  -3.007  1.00  0.00     0.031 C 
ATOM     65  C   UNL     1       3.390 -13.557  -1.397  1.00  0.00     0.031 A 
BRANCH  52  66
ATOM     66  C   UNL     1       5.697 -12.797   4.287  1.00  0.00    -0.014 A 
ATOM     67  C   UNL     1       5.283 -13.319   5.523  1.00  0.00     0.009 A 
ATOM     68  C   UNL     1       7.072 -12.705   4.018  1.00  0.00     0.009 A 
ATOM     69  C   UNL     1       6.224 -13.694   6.484  1.00  0.00     0.001 A 
ATOM     70  C   UNL     1       8.011 -13.115   4.966  1.00  0.00     0.001 A 
ATOM     71  C   UNL     1       7.587 -13.596   6.203  1.00  0.00     0.000 A 
ENDBRANCH  52  66
BRANCH  53  72
ATOM     72  C   UNL     1      -0.904  -9.403  -2.386  1.00  0.00    -0.014 A 
ATOM     73  C   UNL     1      -1.989 -10.189  -2.803  1.00  0.00     0.009 A 
ATOM     74  C   UNL     1      -0.734  -8.130  -2.955  1.00  0.00     0.009 A 
ATOM     75  C   UNL     1      -2.870  -9.720  -3.781  1.00  0.00     0.001 A 
ATOM     76  C   UNL     1      -1.635  -7.650  -3.908  1.00  0.00     0.001 A 
ATOM     77  C   UNL     1      -2.697  -8.449  -4.327  1.00  0.00     0.000 A 
ENDBRANCH  53  72
BRANCH  65  78
ATOM     78  C   UNL     1       3.798 -14.556  -2.448  1.00  0.00    -0.014 A 
ATOM     79  C   UNL     1       4.531 -14.164  -3.579  1.00  0.00     0.009 A 
ATOM     80  C   UNL     1       3.504 -15.918  -2.268  1.00  0.00     0.009 A 
ATOM     81  C   UNL     1       4.940 -15.112  -4.520  1.00  0.00     0.001 A 
ATOM     82  C   UNL     1       3.943 -16.867  -3.193  1.00  0.00     0.001 A 
ATOM     83  C   UNL     1       4.654 -16.463  -4.322  1.00  0.00     0.000 A 
ENDBRANCH  65  78
ENDBRANCH  39  40
ENDBRANCH  32  34
ENDBRANCH  31  32
ENDBRANCH  30  31
ENDBRANCH  29  30
ENDBRANCH  28  29
ENDBRANCH  27  28
ENDBRANCH  26  27
ENDBRANCH  25  26
ENDBRANCH   1  25
TORSDOF 25
