REMARK SMILES C[C@@H](C(=O)OCCOCCOCCOCCOC(=O)c1ccc(-c2c3nc(c(-c4ccccc4)c4ccc([nH]4)c(-c4ccccc4)c4nc(c(-c5ccccc5)c5ccc2[nH]5)C=C4)C=C3)cc1)c1ccc(C[C@H]2CCC[C@@H]2O)cc1F
REMARK SMILES IDX 10 1 9 2 8 3 7 4 6 5 5 6 3 7 4 8 2 9 1 10 68 11 69 12 80 13
REMARK SMILES IDX 70 14 79 15 81 16 71 17 72 18 73 19 74 20 77 21 75 22 76 23
REMARK SMILES IDX 78 24 11 26 12 27 13 28 14 29 15 30 16 31 17 32 18 33 19 34
REMARK SMILES IDX 20 35 21 36 67 37 22 38 66 39 23 40 24 41 25 42 60 43 26 44
REMARK SMILES IDX 65 45 59 46 61 47 27 48 64 49 58 50 57 51 28 53 50 54 35 55
REMARK SMILES IDX 49 56 36 57 39 58 48 59 62 60 37 61 38 62 47 64 63 65 40 66
REMARK SMILES IDX 29 67 30 68 34 69 31 70 33 71 32 72 51 73 52 74 56 75 53 76
REMARK SMILES IDX 55 77 54 78 41 79 42 80 46 81 43 82 45 83 44 84
REMARK H PARENT 78 25 61 52 39 63
REMARK Flexibility Score: inf
ROOT
ATOM      1  C   UNL     1       1.222   2.508   1.323  1.00  0.00     0.188 C 
ENDROOT
BRANCH   1   2
ATOM      2  C   UNL     1       0.333   2.602   2.578  1.00  0.00     0.188 C 
BRANCH   2   3
ATOM      3  O   UNL     1       0.910   2.910   3.837  1.00  0.00    -0.376 OA
BRANCH   3   4
ATOM      4  C   UNL     1       2.148   2.323   4.211  1.00  0.00     0.202 C 
BRANCH   4   5
ATOM      5  C   UNL     1       2.432   0.819   4.005  1.00  0.00     0.261 C 
BRANCH   5   6
ATOM      6  O   UNL     1       2.022   0.221   2.758  1.00  0.00    -0.463 OA
BRANCH   6   7
ATOM      7  C   UNL     1       0.942  -0.604   2.805  1.00  0.00     0.313 C 
ATOM      8  O   UNL     1       0.329  -0.848   3.841  1.00  0.00    -0.252 OA
BRANCH   7   9
ATOM      9  C   UNL     1       0.535  -1.204   1.439  1.00  0.00     0.129 C 
ATOM     10  C   UNL     1       1.363  -0.854   0.196  1.00  0.00     0.025 C 
BRANCH   9  11
ATOM     11  C   UNL     1      -0.967  -1.029   1.223  1.00  0.00     0.002 A 
ATOM     12  C   UNL     1      -1.553   0.179   0.810  1.00  0.00     0.008 A 
ATOM     13  C   UNL     1      -1.826  -2.068   1.585  1.00  0.00     0.127 A 
ATOM     14  C   UNL     1      -2.938   0.369   0.869  1.00  0.00     0.004 A 
ATOM     15  C   UNL     1      -3.207  -1.894   1.629  1.00  0.00     0.043 A 
ATOM     16  F   UNL     1      -1.320  -3.259   1.936  1.00  0.00    -0.207 F 
ATOM     17  C   UNL     1      -3.775  -0.651   1.327  1.00  0.00    -0.045 A 
BRANCH  17  18
ATOM     18  C   UNL     1      -5.250  -0.411   1.541  1.00  0.00     0.041 C 
BRANCH  18  19
ATOM     19  C   UNL     1      -5.638   0.269   2.867  1.00  0.00     0.022 C 
ATOM     20  C   UNL     1      -5.125  -0.393   4.157  1.00  0.00     0.007 C 
ATOM     21  C   UNL     1      -5.220   1.734   3.013  1.00  0.00     0.117 C 
ATOM     22  C   UNL     1      -4.895   0.748   5.155  1.00  0.00     0.003 C 
ATOM     23  C   UNL     1      -5.461   1.995   4.494  1.00  0.00     0.032 C 
BRANCH  21  24
ATOM     24  O   UNL     1      -6.008   2.577   2.195  1.00  0.00    -0.393 OA
ATOM     25  H   UNL     1      -6.945   2.457   2.414  1.00  0.00     0.210 HD
ENDBRANCH  21  24
ENDBRANCH  18  19
ENDBRANCH  17  18
ENDBRANCH   9  11
ENDBRANCH   7   9
ENDBRANCH   6   7
ENDBRANCH   5   6
ENDBRANCH   4   5
ENDBRANCH   3   4
ENDBRANCH   2   3
ENDBRANCH   1   2
BRANCH   1  26
ATOM     26  O   UNL     1       2.603   2.689   1.555  1.00  0.00    -0.377 OA
BRANCH  26  27
ATOM     27  C   UNL     1       3.106   3.998   1.348  1.00  0.00     0.188 C 
BRANCH  27  28
ATOM     28  C   UNL     1       2.210   5.185   1.747  1.00  0.00     0.188 C 
BRANCH  28  29
ATOM     29  O   UNL     1       0.904   5.138   1.181  1.00  0.00    -0.376 OA
BRANCH  29  30
ATOM     30  C   UNL     1       0.634   5.904   0.016  1.00  0.00     0.202 C 
BRANCH  30  31
ATOM     31  C   UNL     1       1.278   5.435  -1.299  1.00  0.00     0.261 C 
BRANCH  31  32
ATOM     32  O   UNL     1       2.712   5.369  -1.321  1.00  0.00    -0.460 OA
BRANCH  32  33
ATOM     33  C   UNL     1       3.403   6.494  -1.043  1.00  0.00     0.338 C 
ATOM     34  O   UNL     1       2.948   7.607  -0.839  1.00  0.00    -0.246 OA
BRANCH  33  35
ATOM     35  C   UNL     1       4.812   6.111  -0.814  1.00  0.00     0.060 A 
ATOM     36  C   UNL     1       5.399   6.405   0.424  1.00  0.00     0.016 A 
ATOM     37  C   UNL     1       5.542   5.445  -1.802  1.00  0.00     0.016 A 
ATOM     38  C   UNL     1       6.730   6.065   0.666  1.00  0.00     0.010 A 
ATOM     39  C   UNL     1       6.883   5.130  -1.568  1.00  0.00     0.010 A 
ATOM     40  C   UNL     1       7.492   5.471  -0.347  1.00  0.00    -0.014 A 
BRANCH  40  41
ATOM     41  C   UNL     1       8.967   5.410  -0.212  1.00  0.00     0.031 A 
ATOM     42  C   UNL     1       9.780   6.501  -0.856  1.00  0.00     0.074 A 
ATOM     43  C   UNL     1       9.575   4.433   0.482  1.00  0.00     0.049 A 
ATOM     44  N   UNL     1      11.079   6.648  -0.912  1.00  0.00    -0.248 NA
ATOM     45  C   UNL     1       9.022   7.571  -1.527  1.00  0.00     0.031 C 
ATOM     46  C   UNL     1       8.899   3.354   1.200  1.00  0.00     0.029 A 
ATOM     47  N   UNL     1      10.911   4.194   0.691  1.00  0.00    -0.354 N 
ATOM     48  C   UNL     1      11.292   7.815  -1.635  1.00  0.00     0.074 A 
ATOM     49  C   UNL     1       9.994   8.323  -2.020  1.00  0.00     0.031 C 
ATOM     50  C   UNL     1       9.828   2.563   1.767  1.00  0.00     0.029 A 
ATOM     51  C   UNL     1      11.159   3.058   1.420  1.00  0.00     0.049 A 
ATOM     52  H   UNL     1      11.623   4.783   0.350  1.00  0.00     0.167 HD
ATOM     53  C   UNL     1      12.464   8.414  -1.951  1.00  0.00     0.031 A 
ATOM     54  C   UNL     1      12.329   2.474   1.748  1.00  0.00     0.031 A 
ATOM     55  C   UNL     1      13.756   7.900  -1.583  1.00  0.00     0.049 A 
ATOM     56  C   UNL     1      13.622   3.110   1.303  1.00  0.00     0.074 A 
ATOM     57  C   UNL     1      15.003   8.440  -1.842  1.00  0.00     0.029 A 
ATOM     58  N   UNL     1      13.965   6.719  -0.888  1.00  0.00    -0.354 N 
ATOM     59  N   UNL     1      13.813   4.227   0.644  1.00  0.00    -0.248 NA
ATOM     60  C   UNL     1      14.863   2.403   1.656  1.00  0.00     0.031 C 
ATOM     61  C   UNL     1      15.970   7.550  -1.365  1.00  0.00     0.029 A 
ATOM     62  C   UNL     1      15.323   6.495  -0.741  1.00  0.00     0.049 A 
ATOM     63  H   UNL     1      13.254   6.128  -0.550  1.00  0.00     0.167 HD
ATOM     64  C   UNL     1      15.192   4.374   0.535  1.00  0.00     0.074 A 
ATOM     65  C   UNL     1      15.788   3.240   1.209  1.00  0.00     0.031 C 
ATOM     66  C   UNL     1      15.902   5.362  -0.065  1.00  0.00     0.031 A 
BRANCH  53  67
ATOM     67  C   UNL     1      12.401   9.668  -2.777  1.00  0.00    -0.014 A 
ATOM     68  C   UNL     1      11.905  10.872  -2.251  1.00  0.00     0.009 A 
ATOM     69  C   UNL     1      12.873   9.649  -4.099  1.00  0.00     0.009 A 
ATOM     70  C   UNL     1      11.852  12.021  -3.043  1.00  0.00     0.001 A 
ATOM     71  C   UNL     1      12.849  10.807  -4.878  1.00  0.00     0.001 A 
ATOM     72  C   UNL     1      12.329  11.989  -4.353  1.00  0.00     0.000 A 
ENDBRANCH  53  67
BRANCH  54  73
ATOM     73  C   UNL     1      12.344   1.202   2.521  1.00  0.00    -0.014 A 
ATOM     74  C   UNL     1      12.864   1.160   3.824  1.00  0.00     0.009 A 
ATOM     75  C   UNL     1      11.873   0.012   1.943  1.00  0.00     0.009 A 
ATOM     76  C   UNL     1      12.939  -0.050   4.519  1.00  0.00     0.001 A 
ATOM     77  C   UNL     1      11.919  -1.190   2.652  1.00  0.00     0.001 A 
ATOM     78  C   UNL     1      12.462  -1.222   3.935  1.00  0.00     0.000 A 
ENDBRANCH  54  73
BRANCH  66  79
ATOM     79  C   UNL     1      17.403   5.289   0.021  1.00  0.00    -0.014 A 
ATOM     80  C   UNL     1      18.135   4.323  -0.686  1.00  0.00     0.009 A 
ATOM     81  C   UNL     1      18.098   6.240   0.787  1.00  0.00     0.009 A 
ATOM     82  C   UNL     1      19.528   4.287  -0.597  1.00  0.00     0.001 A 
ATOM     83  C   UNL     1      19.491   6.224   0.846  1.00  0.00     0.001 A 
ATOM     84  C   UNL     1      20.205   5.241   0.164  1.00  0.00     0.000 A 
ENDBRANCH  66  79
ENDBRANCH  40  41
ENDBRANCH  33  35
ENDBRANCH  32  33
ENDBRANCH  31  32
ENDBRANCH  30  31
ENDBRANCH  29  30
ENDBRANCH  28  29
ENDBRANCH  27  28
ENDBRANCH  26  27
ENDBRANCH   1  26
TORSDOF 24
