REMARK SMILES Cc1cc(OC(F)(F)F)cc2c1O[C@H](C(F)(F)F)C(C(=O)OCCOCCOCCOCCOC(=O)c1ccc(-c3c4nc(c(-c5ccccc5)c5ccc([nH]5)c(-c5ccccc5)c5nc(c(-c6ccccc6)c6ccc3[nH]6)C=C5)C=C4)cc1)=C2
REMARK SMILES IDX 28 1 27 2 26 3 25 4 24 5 23 6 22 7 20 8 21 9 19 10 1 11 2 12
REMARK SMILES IDX 3 13 12 14 4 15 11 16 13 17 10 18 85 19 14 20 5 21 6 22 7 23
REMARK SMILES IDX 8 24 9 25 15 26 16 27 17 28 18 29 29 30 30 31 31 32 32 33
REMARK SMILES IDX 33 34 34 35 35 36 36 37 37 38 38 39 84 40 39 41 83 42 40 43
REMARK SMILES IDX 41 44 42 45 77 46 43 47 82 48 76 49 78 50 44 51 81 52 75 53
REMARK SMILES IDX 74 54 45 56 67 57 52 58 66 59 53 60 56 61 65 62 79 63 54 64
REMARK SMILES IDX 55 65 64 67 80 68 57 69 46 70 47 71 51 72 48 73 50 74 49 75
REMARK SMILES IDX 68 76 69 77 73 78 70 79 72 80 71 81 58 82 59 83 63 84 60 85
REMARK SMILES IDX 62 86 61 87
REMARK H PARENT 78 55 56 66
REMARK Flexibility Score: inf
ROOT
ATOM      1  O   UNL     1       1.480  -6.695   3.014  1.00  0.00    -0.377 OA
ENDROOT
BRANCH   1   2
ATOM      2  C   UNL     1       0.649  -6.662   1.863  1.00  0.00     0.188 C 
BRANCH   2   3
ATOM      3  C   UNL     1       1.026  -7.730   0.817  1.00  0.00     0.188 C 
BRANCH   3   4
ATOM      4  O   UNL     1       1.800  -8.788   1.356  1.00  0.00    -0.376 OA
BRANCH   4   5
ATOM      5  C   UNL     1       3.216  -8.761   1.306  1.00  0.00     0.202 C 
BRANCH   5   6
ATOM      6  C   UNL     1       4.058  -7.503   1.592  1.00  0.00     0.261 C 
BRANCH   6   7
ATOM      7  O   UNL     1       3.494  -6.240   1.238  1.00  0.00    -0.460 OA
BRANCH   7   8
ATOM      8  C   UNL     1       3.508  -5.889  -0.059  1.00  0.00     0.338 C 
ATOM      9  O   UNL     1       3.980  -6.524  -0.984  1.00  0.00    -0.246 OA
BRANCH   8  10
ATOM     10  C   UNL     1       2.691  -4.662  -0.196  1.00  0.00     0.087 C 
ATOM     11  C   UNL     1       0.895   0.105   0.035  1.00  0.00     0.048 C 
ATOM     12  C   UNL     1       0.596  -1.109  -0.801  1.00  0.00    -0.005 A 
ATOM     13  C   UNL     1      -0.292  -1.015  -1.887  1.00  0.00     0.054 A 
ATOM     14  C   UNL     1       1.222  -2.334  -0.527  1.00  0.00     0.131 A 
ATOM     15  C   UNL     1      -0.553  -2.126  -2.690  1.00  0.00     0.130 A 
ATOM     16  C   UNL     1       1.005  -3.433  -1.360  1.00  0.00     0.021 A 
ATOM     17  O   UNL     1       2.044  -2.373   0.562  1.00  0.00    -0.475 OA
ATOM     18  C   UNL     1       0.089  -3.335  -2.412  1.00  0.00     0.058 A 
ATOM     19  C   UNL     1       1.797  -4.638  -1.191  1.00  0.00     0.027 C 
ATOM     20  C   UNL     1       2.845  -3.557   0.818  1.00  0.00     0.316 C 
BRANCH  15  21
ATOM     21  O   UNL     1      -1.386  -2.168  -3.772  1.00  0.00    -0.406 OA
BRANCH  21  22
ATOM     22  C   UNL     1      -1.856  -0.934  -4.288  1.00  0.00     0.573 C 
ATOM     23  F   UNL     1      -2.681  -0.326  -3.410  1.00  0.00    -0.132 F 
ATOM     24  F   UNL     1      -0.832  -0.109  -4.592  1.00  0.00    -0.132 F 
ATOM     25  F   UNL     1      -2.552  -1.176  -5.420  1.00  0.00    -0.132 F 
ENDBRANCH  21  22
ENDBRANCH  15  21
BRANCH  20  26
ATOM     26  C   UNL     1       4.302  -3.105   0.977  1.00  0.00     0.430 C 
ATOM     27  F   UNL     1       4.401  -2.059   1.835  1.00  0.00    -0.167 F 
ATOM     28  F   UNL     1       5.093  -4.085   1.470  1.00  0.00    -0.167 F 
ATOM     29  F   UNL     1       4.835  -2.711  -0.203  1.00  0.00    -0.167 F 
ENDBRANCH  20  26
ENDBRANCH   8  10
ENDBRANCH   7   8
ENDBRANCH   6   7
ENDBRANCH   5   6
ENDBRANCH   4   5
ENDBRANCH   3   4
ENDBRANCH   2   3
ENDBRANCH   1   2
BRANCH   1  30
ATOM     30  C   UNL     1       1.182  -7.662   4.023  1.00  0.00     0.188 C 
BRANCH  30  31
ATOM     31  C   UNL     1       0.349  -8.935   3.726  1.00  0.00     0.188 C 
BRANCH  31  32
ATOM     32  O   UNL     1      -0.752  -8.717   2.854  1.00  0.00    -0.376 OA
BRANCH  32  33
ATOM     33  C   UNL     1      -2.057  -8.728   3.404  1.00  0.00     0.202 C 
BRANCH  33  34
ATOM     34  C   UNL     1      -2.411  -7.558   4.330  1.00  0.00     0.261 C 
BRANCH  34  35
ATOM     35  O   UNL     1      -1.528  -7.347   5.442  1.00  0.00    -0.460 OA
BRANCH  35  36
ATOM     36  C   UNL     1      -1.460  -8.313   6.381  1.00  0.00     0.338 C 
ATOM     37  O   UNL     1      -2.077  -9.363   6.414  1.00  0.00    -0.246 OA
BRANCH  36  38
ATOM     38  C   UNL     1      -0.358  -7.949   7.293  1.00  0.00     0.060 A 
ATOM     39  C   UNL     1       0.796  -8.743   7.336  1.00  0.00     0.016 A 
ATOM     40  C   UNL     1      -0.466  -6.807   8.089  1.00  0.00     0.016 A 
ATOM     41  C   UNL     1       1.841  -8.406   8.196  1.00  0.00     0.010 A 
ATOM     42  C   UNL     1       0.563  -6.492   8.977  1.00  0.00     0.010 A 
ATOM     43  C   UNL     1       1.705  -7.307   9.055  1.00  0.00    -0.014 A 
BRANCH  43  44
ATOM     44  C   UNL     1       2.632  -7.154  10.198  1.00  0.00     0.031 A 
ATOM     45  C   UNL     1       2.267  -7.834  11.489  1.00  0.00     0.074 A 
ATOM     46  C   UNL     1       3.773  -6.451  10.098  1.00  0.00     0.049 A 
ATOM     47  N   UNL     1       2.885  -7.808  12.640  1.00  0.00    -0.248 NA
ATOM     48  C   UNL     1       1.045  -8.660  11.478  1.00  0.00     0.031 C 
ATOM     49  C   UNL     1       4.273  -5.808   8.885  1.00  0.00     0.029 A 
ATOM     50  N   UNL     1       4.724  -6.168  11.048  1.00  0.00    -0.354 N 
ATOM     51  C   UNL     1       2.135  -8.617  13.482  1.00  0.00     0.074 A 
ATOM     52  C   UNL     1       1.003  -9.101  12.726  1.00  0.00     0.031 C 
ATOM     53  C   UNL     1       5.443  -5.205   9.165  1.00  0.00     0.029 A 
ATOM     54  C   UNL     1       5.756  -5.392  10.582  1.00  0.00     0.049 A 
ATOM     55  H   UNL     1       4.670  -6.491  11.976  1.00  0.00     0.167 HD
ATOM     56  C   UNL     1       2.375  -8.938  14.772  1.00  0.00     0.031 A 
ATOM     57  C   UNL     1       6.822  -4.881  11.229  1.00  0.00     0.031 A 
ATOM     58  C   UNL     1       3.488  -8.448  15.532  1.00  0.00     0.049 A 
ATOM     59  C   UNL     1       7.003  -5.158  12.699  1.00  0.00     0.074 A 
ATOM     60  C   UNL     1       3.801  -8.710  16.854  1.00  0.00     0.029 A 
ATOM     61  N   UNL     1       4.466  -7.602  15.041  1.00  0.00    -0.354 N 
ATOM     62  N   UNL     1       6.280  -5.912  13.490  1.00  0.00    -0.248 NA
ATOM     63  C   UNL     1       8.144  -4.511  13.367  1.00  0.00     0.031 C 
ATOM     64  C   UNL     1       4.947  -7.983  17.177  1.00  0.00     0.029 A 
ATOM     65  C   UNL     1       5.376  -7.314  16.041  1.00  0.00     0.049 A 
ATOM     66  H   UNL     1       4.508  -7.257  14.120  1.00  0.00     0.167 HD
ATOM     67  C   UNL     1       6.891  -5.854  14.737  1.00  0.00     0.074 A 
ATOM     68  C   UNL     1       8.046  -4.992  14.600  1.00  0.00     0.031 C 
ATOM     69  C   UNL     1       6.526  -6.464  15.889  1.00  0.00     0.031 A 
BRANCH  56  70
ATOM     70  C   UNL     1       1.418  -9.863  15.459  1.00  0.00    -0.014 A 
ATOM     71  C   UNL     1       1.468 -11.245  15.222  1.00  0.00     0.009 A 
ATOM     72  C   UNL     1       0.543  -9.365  16.436  1.00  0.00     0.009 A 
ATOM     73  C   UNL     1       0.663 -12.113  15.960  1.00  0.00     0.001 A 
ATOM     74  C   UNL     1      -0.245 -10.238  17.186  1.00  0.00     0.001 A 
ATOM     75  C   UNL     1      -0.182 -11.611  16.949  1.00  0.00     0.000 A 
ENDBRANCH  56  70
BRANCH  57  76
ATOM     76  C   UNL     1       7.812  -4.058  10.488  1.00  0.00    -0.014 A 
ATOM     77  C   UNL     1       9.088  -4.569  10.206  1.00  0.00     0.009 A 
ATOM     78  C   UNL     1       7.486  -2.767  10.046  1.00  0.00     0.009 A 
ATOM     79  C   UNL     1      10.018  -3.803   9.500  1.00  0.00     0.001 A 
ATOM     80  C   UNL     1       8.410  -2.011   9.321  1.00  0.00     0.001 A 
ATOM     81  C   UNL     1       9.676  -2.528   9.052  1.00  0.00     0.000 A 
ENDBRANCH  57  76
BRANCH  69  82
ATOM     82  C   UNL     1       7.380  -6.262  17.107  1.00  0.00    -0.014 A 
ATOM     83  C   UNL     1       7.299  -5.078  17.853  1.00  0.00     0.009 A 
ATOM     84  C   UNL     1       8.153  -7.328  17.595  1.00  0.00     0.009 A 
ATOM     85  C   UNL     1       7.978  -4.965  19.068  1.00  0.00     0.001 A 
ATOM     86  C   UNL     1       8.812  -7.220  18.821  1.00  0.00     0.001 A 
ATOM     87  C   UNL     1       8.724  -6.039  19.555  1.00  0.00     0.000 A 
ENDBRANCH  69  82
ENDBRANCH  43  44
ENDBRANCH  36  38
ENDBRANCH  35  36
ENDBRANCH  34  35
ENDBRANCH  33  34
ENDBRANCH  32  33
ENDBRANCH  31  32
ENDBRANCH  30  31
ENDBRANCH   1  30
TORSDOF 23
