REMARK SMILES O=C(OCCOCCOCCOCCOC(=O)[C@H]1CC=CC[C@H]1C(=O)Nc1ccc(S(=O)(=O)N2CCc3ccccc32)cc1)c1ccc(-c2c3nc(c(-c4ccccc4)c4ccc([nH]4)c(-c4ccccc4)c4nc(c(-c5ccccc5)c5ccc2[nH]5)C=C4)C=C3)cc1
REMARK SMILES IDX 10 1 9 2 8 3 7 4 6 5 5 6 4 7 3 8 2 9 1 10 45 11 46 12 92 13
REMARK SMILES IDX 47 14 91 15 48 16 49 17 50 18 85 19 51 20 90 21 84 22 86 23
REMARK SMILES IDX 52 24 89 25 83 26 82 27 53 29 75 30 60 31 74 32 61 33 64 34
REMARK SMILES IDX 73 35 87 36 62 37 63 38 72 40 88 41 65 42 54 43 55 44 59 45
REMARK SMILES IDX 56 46 58 47 57 48 76 49 77 50 81 51 78 52 80 53 79 54 66 55
REMARK SMILES IDX 67 56 71 57 68 58 70 59 69 60 11 61 12 62 13 63 14 64 15 65
REMARK SMILES IDX 16 66 17 67 18 68 19 69 23 70 20 71 22 72 21 73 24 74 25 75
REMARK SMILES IDX 26 76 27 78 28 79 44 80 29 81 43 82 30 83 31 84 32 85 33 86
REMARK SMILES IDX 34 87 35 88 42 89 36 90 37 91 41 92 38 93 40 94 39 95
REMARK H PARENT 86 28 64 39 26 77
REMARK Flexibility Score: inf
ROOT
ATOM      1  C   UNL     1       5.199   0.474  -2.894  1.00  0.00     0.188 C 
ENDROOT
BRANCH   1   2
ATOM      2  O   UNL     1       3.858   0.502  -3.371  1.00  0.00    -0.377 OA
BRANCH   2   3
ATOM      3  C   UNL     1       2.793   0.330  -2.443  1.00  0.00     0.188 C 
BRANCH   3   4
ATOM      4  C   UNL     1       2.924  -0.916  -1.581  1.00  0.00     0.188 C 
BRANCH   4   5
ATOM      5  O   UNL     1       3.954  -0.637  -0.638  1.00  0.00    -0.376 OA
BRANCH   5   6
ATOM      6  C   UNL     1       4.445  -1.740   0.096  1.00  0.00     0.202 C 
BRANCH   6   7
ATOM      7  C   UNL     1       3.698  -1.946   1.412  1.00  0.00     0.261 C 
BRANCH   7   8
ATOM      8  O   UNL     1       2.317  -1.544   1.327  1.00  0.00    -0.460 OA
BRANCH   8   9
ATOM      9  C   UNL     1       1.801  -0.335   1.669  1.00  0.00     0.338 C 
ATOM     10  O   UNL     1       0.600  -0.118   1.531  1.00  0.00    -0.246 OA
BRANCH   9  11
ATOM     11  C   UNL     1       2.629   0.727   2.295  1.00  0.00     0.060 A 
ATOM     12  C   UNL     1       3.788   1.241   1.712  1.00  0.00     0.016 A 
ATOM     13  C   UNL     1       2.149   1.319   3.471  1.00  0.00     0.016 A 
ATOM     14  C   UNL     1       4.539   2.219   2.351  1.00  0.00     0.010 A 
ATOM     15  C   UNL     1       2.871   2.346   4.092  1.00  0.00     0.010 A 
ATOM     16  C   UNL     1       4.101   2.759   3.560  1.00  0.00    -0.014 A 
BRANCH  16  17
ATOM     17  C   UNL     1       5.041   3.596   4.337  1.00  0.00     0.031 A 
ATOM     18  C   UNL     1       5.707   2.974   5.531  1.00  0.00     0.074 A 
ATOM     19  C   UNL     1       5.404   4.817   3.904  1.00  0.00     0.049 A 
ATOM     20  N   UNL     1       6.552   3.496   6.381  1.00  0.00    -0.248 NA
ATOM     21  C   UNL     1       5.385   1.560   5.797  1.00  0.00     0.031 C 
ATOM     22  C   UNL     1       4.919   5.462   2.683  1.00  0.00     0.029 A 
ATOM     23  N   UNL     1       6.305   5.712   4.420  1.00  0.00    -0.354 N 
ATOM     24  C   UNL     1       6.825   2.491   7.299  1.00  0.00     0.074 A 
ATOM     25  C   UNL     1       6.060   1.329   6.910  1.00  0.00     0.031 C 
ATOM     26  C   UNL     1       5.564   6.630   2.520  1.00  0.00     0.029 A 
ATOM     27  C   UNL     1       6.460   6.841   3.653  1.00  0.00     0.049 A 
ATOM     28  H   UNL     1       6.794   5.561   5.261  1.00  0.00     0.167 HD
ATOM     29  C   UNL     1       7.638   2.533   8.379  1.00  0.00     0.031 A 
ATOM     30  C   UNL     1       7.233   7.925   3.857  1.00  0.00     0.031 A 
ATOM     31  C   UNL     1       8.400   3.689   8.753  1.00  0.00     0.049 A 
ATOM     32  C   UNL     1       8.079   7.978   5.102  1.00  0.00     0.074 A 
ATOM     33  C   UNL     1       9.191   3.886   9.869  1.00  0.00     0.029 A 
ATOM     34  N   UNL     1       8.472   4.848   7.994  1.00  0.00    -0.354 N 
ATOM     35  N   UNL     1       8.254   7.057   6.021  1.00  0.00    -0.248 NA
ATOM     36  C   UNL     1       8.818   9.223   5.347  1.00  0.00     0.031 C 
ATOM     37  C   UNL     1       9.721   5.181   9.797  1.00  0.00     0.029 A 
ATOM     38  C   UNL     1       9.291   5.769   8.617  1.00  0.00     0.049 A 
ATOM     39  H   UNL     1       8.008   4.992   7.138  1.00  0.00     0.167 HD
ATOM     40  C   UNL     1       9.130   7.607   6.947  1.00  0.00     0.074 A 
ATOM     41  C   UNL     1       9.469   8.932   6.465  1.00  0.00     0.031 C 
ATOM     42  C   UNL     1       9.607   7.074   8.098  1.00  0.00     0.031 A 
BRANCH  29  43
ATOM     43  C   UNL     1       7.657   1.312   9.250  1.00  0.00    -0.014 A 
ATOM     44  C   UNL     1       8.328   0.141   8.861  1.00  0.00     0.009 A 
ATOM     45  C   UNL     1       6.927   1.312  10.449  1.00  0.00     0.009 A 
ATOM     46  C   UNL     1       8.228  -1.018   9.634  1.00  0.00     0.001 A 
ATOM     47  C   UNL     1       6.848   0.158  11.230  1.00  0.00     0.001 A 
ATOM     48  C   UNL     1       7.487  -1.009  10.816  1.00  0.00     0.000 A 
ENDBRANCH  29  43
BRANCH  30  49
ATOM     49  C   UNL     1       7.222   9.056   2.890  1.00  0.00    -0.014 A 
ATOM     50  C   UNL     1       8.361   9.364   2.129  1.00  0.00     0.009 A 
ATOM     51  C   UNL     1       6.073   9.848   2.733  1.00  0.00     0.009 A 
ATOM     52  C   UNL     1       8.353  10.449   1.246  1.00  0.00     0.001 A 
ATOM     53  C   UNL     1       6.059  10.914   1.830  1.00  0.00     0.001 A 
ATOM     54  C   UNL     1       7.202  11.219   1.093  1.00  0.00     0.000 A 
ENDBRANCH  30  49
BRANCH  42  55
ATOM     55  C   UNL     1      10.563   7.916   8.890  1.00  0.00    -0.014 A 
ATOM     56  C   UNL     1      10.104   8.986   9.672  1.00  0.00     0.009 A 
ATOM     57  C   UNL     1      11.929   7.600   8.889  1.00  0.00     0.009 A 
ATOM     58  C   UNL     1      11.005   9.744  10.420  1.00  0.00     0.001 A 
ATOM     59  C   UNL     1      12.824   8.346   9.655  1.00  0.00     0.001 A 
ATOM     60  C   UNL     1      12.362   9.421  10.414  1.00  0.00     0.000 A 
ENDBRANCH  42  55
ENDBRANCH  16  17
ENDBRANCH   9  11
ENDBRANCH   8   9
ENDBRANCH   7   8
ENDBRANCH   6   7
ENDBRANCH   5   6
ENDBRANCH   4   5
ENDBRANCH   3   4
ENDBRANCH   2   3
ENDBRANCH   1   2
BRANCH   1  61
ATOM     61  C   UNL     1       5.733   1.740  -2.217  1.00  0.00     0.188 C 
BRANCH  61  62
ATOM     62  O   UNL     1       4.772   2.635  -1.688  1.00  0.00    -0.376 OA
BRANCH  62  63
ATOM     63  C   UNL     1       4.094   3.511  -2.595  1.00  0.00     0.202 C 
BRANCH  63  64
ATOM     64  C   UNL     1       4.661   3.754  -4.003  1.00  0.00     0.261 C 
BRANCH  64  65
ATOM     65  O   UNL     1       4.407   2.652  -4.918  1.00  0.00    -0.463 OA
BRANCH  65  66
ATOM     66  C   UNL     1       5.418   2.304  -5.749  1.00  0.00     0.310 C 
ATOM     67  O   UNL     1       6.547   2.781  -5.669  1.00  0.00    -0.252 OA
BRANCH  66  68
ATOM     68  C   UNL     1       5.059   1.294  -6.852  1.00  0.00     0.116 C 
ATOM     69  C   UNL     1       4.452  -0.052  -6.438  1.00  0.00     0.043 C 
ATOM     70  C   UNL     1       4.515   1.893  -8.162  1.00  0.00     0.097 C 
ATOM     71  C   UNL     1       3.170  -0.469  -7.079  1.00  0.00    -0.030 C 
ATOM     72  C   UNL     1       3.255   1.310  -8.819  1.00  0.00     0.041 C 
ATOM     73  C   UNL     1       2.641   0.130  -8.147  1.00  0.00    -0.030 C 
BRANCH  70  74
ATOM     74  C   UNL     1       4.519   3.401  -8.244  1.00  0.00     0.228 C 
ATOM     75  O   UNL     1       5.442   3.952  -8.863  1.00  0.00    -0.274 OA
ATOM     76  N   UNL     1       3.601   4.240  -7.720  1.00  0.00    -0.326 N 
ATOM     77  H   UNL     1       3.771   5.163  -8.020  1.00  0.00     0.169 HD
BRANCH  76  78
ATOM     78  C   UNL     1       2.478   4.200  -6.878  1.00  0.00     0.041 A 
ATOM     79  C   UNL     1       1.973   5.463  -6.561  1.00  0.00     0.027 A 
ATOM     80  C   UNL     1       1.905   3.090  -6.251  1.00  0.00     0.027 A 
ATOM     81  C   UNL     1       1.042   5.620  -5.545  1.00  0.00     0.024 A 
ATOM     82  C   UNL     1       0.952   3.236  -5.215  1.00  0.00     0.024 A 
ATOM     83  C   UNL     1       0.580   4.513  -4.821  1.00  0.00     0.088 A 
BRANCH  83  84
ATOM     84  S   UNL     1      -0.182   4.960  -3.281  1.00  0.00     0.264 S 
ATOM     85  O   UNL     1       0.937   5.075  -2.353  1.00  0.00    -0.201 OA
ATOM     86  O   UNL     1      -0.981   6.119  -3.613  1.00  0.00    -0.201 OA
BRANCH  84  87
ATOM     87  N   UNL     1      -1.270   3.741  -2.660  1.00  0.00    -0.266 N 
ATOM     88  C   UNL     1      -0.588   2.507  -2.098  1.00  0.00     0.140 C 
ATOM     89  C   UNL     1      -1.884   4.334  -1.474  1.00  0.00     0.055 A 
ATOM     90  C   UNL     1      -0.350   2.745  -0.594  1.00  0.00     0.060 C 
ATOM     91  C   UNL     1      -1.232   3.914  -0.317  1.00  0.00    -0.022 A 
ATOM     92  C   UNL     1      -2.735   5.428  -1.468  1.00  0.00     0.027 A 
ATOM     93  C   UNL     1      -1.307   4.665   0.845  1.00  0.00     0.006 A 
ATOM     94  C   UNL     1      -2.813   6.194  -0.304  1.00  0.00     0.002 A 
ATOM     95  C   UNL     1      -2.078   5.831   0.835  1.00  0.00     0.000 A 
ENDBRANCH  84  87
ENDBRANCH  83  84
ENDBRANCH  76  78
ENDBRANCH  70  74
ENDBRANCH  66  68
ENDBRANCH  65  66
ENDBRANCH  64  65
ENDBRANCH  63  64
ENDBRANCH  62  63
ENDBRANCH  61  62
ENDBRANCH   1  61
TORSDOF 24
