REMARK SMILES O=C(OCCOCCOCCOCCOC(=O)[C@H]1Cc2c([nH]c3ccccc23)[C@H](c2c[nH]c3ccccc23)[NH2+]1)c1ccc(-c2c3nc(c(-c4ccccc4)c4ccc([nH]4)c(-c4ccccc4)c4nc(c(-c5ccccc5)c5ccc2[nH]5)C=C4)C=C3)cc1
REMARK SMILES IDX 8 1 7 2 6 3 5 4 4 5 3 6 2 7 1 8 40 9 41 10 87 11 42 12 86 13
REMARK SMILES IDX 43 14 44 15 45 16 80 17 46 18 85 19 79 20 81 21 47 22 84 23
REMARK SMILES IDX 78 24 77 25 48 27 70 28 55 29 69 30 56 31 59 32 68 33 82 34
REMARK SMILES IDX 57 35 58 36 67 38 83 39 60 40 49 41 50 42 54 43 51 44 53 45
REMARK SMILES IDX 52 46 71 47 72 48 76 49 73 50 75 51 74 52 61 53 62 54 66 55
REMARK SMILES IDX 63 56 65 57 64 58 9 59 10 60 11 61 12 62 13 63 14 64 15 65
REMARK SMILES IDX 16 66 17 67 18 68 19 69 39 70 20 71 29 72 21 75 28 76 22 77
REMARK SMILES IDX 23 78 27 79 24 81 26 82 25 83 30 84 31 85 38 86 32 87 33 88
REMARK SMILES IDX 37 89 34 91 36 92 35 93
REMARK H PARENT 81 26 59 37 39 73 39 74 22 80 32 90
REMARK Flexibility Score: inf
ROOT
ATOM      1  C   UNL     1       1.939   1.569   1.907  1.00  0.00     0.188 C 
ENDROOT
BRANCH   1   2
ATOM      2  C   UNL     1       2.319   1.453   0.445  1.00  0.00     0.188 C 
BRANCH   2   3
ATOM      3  O   UNL     1       3.559   0.756   0.389  1.00  0.00    -0.376 OA
BRANCH   3   4
ATOM      4  C   UNL     1       4.398   1.118  -0.700  1.00  0.00     0.202 C 
BRANCH   4   5
ATOM      5  C   UNL     1       4.076   0.339  -1.974  1.00  0.00     0.261 C 
BRANCH   5   6
ATOM      6  O   UNL     1       2.707  -0.104  -2.037  1.00  0.00    -0.460 OA
BRANCH   6   7
ATOM      7  C   UNL     1       2.164  -1.261  -1.584  1.00  0.00     0.338 C 
ATOM      8  O   UNL     1       0.975  -1.482  -1.826  1.00  0.00    -0.246 OA
BRANCH   7   9
ATOM      9  C   UNL     1       2.908  -2.305  -0.812  1.00  0.00     0.060 A 
ATOM     10  C   UNL     1       4.035  -2.070  -0.028  1.00  0.00     0.016 A 
ATOM     11  C   UNL     1       2.385  -3.612  -0.816  1.00  0.00     0.016 A 
ATOM     12  C   UNL     1       4.655  -3.074   0.693  1.00  0.00     0.010 A 
ATOM     13  C   UNL     1       3.001  -4.641  -0.092  1.00  0.00     0.010 A 
ATOM     14  C   UNL     1       4.157  -4.368   0.645  1.00  0.00    -0.014 A 
BRANCH  14  15
ATOM     15  C   UNL     1       5.027  -5.417   1.197  1.00  0.00     0.031 A 
ATOM     16  C   UNL     1       5.869  -6.189   0.227  1.00  0.00     0.074 A 
ATOM     17  C   UNL     1       5.224  -5.494   2.524  1.00  0.00     0.049 A 
ATOM     18  N   UNL     1       6.704  -7.164   0.447  1.00  0.00    -0.248 NA
ATOM     19  C   UNL     1       5.783  -5.787  -1.192  1.00  0.00     0.031 C 
ATOM     20  C   UNL     1       4.596  -4.625   3.525  1.00  0.00     0.029 A 
ATOM     21  N   UNL     1       6.051  -6.301   3.257  1.00  0.00    -0.354 N 
ATOM     22  C   UNL     1       7.210  -7.512  -0.801  1.00  0.00     0.074 A 
ATOM     23  C   UNL     1       6.592  -6.634  -1.772  1.00  0.00     0.031 C 
ATOM     24  C   UNL     1       5.084  -4.931   4.739  1.00  0.00     0.029 A 
ATOM     25  C   UNL     1       5.989  -6.066   4.609  1.00  0.00     0.049 A 
ATOM     26  H   UNL     1       6.635  -6.984   2.854  1.00  0.00     0.167 HD
ATOM     27  C   UNL     1       8.091  -8.486  -1.099  1.00  0.00     0.031 A 
ATOM     28  C   UNL     1       6.570  -6.736   5.620  1.00  0.00     0.031 A 
ATOM     29  C   UNL     1       8.666  -9.344  -0.102  1.00  0.00     0.049 A 
ATOM     30  C   UNL     1       7.431  -7.917   5.261  1.00  0.00     0.074 A 
ATOM     31  C   UNL     1       9.474 -10.451  -0.263  1.00  0.00     0.029 A 
ATOM     32  N   UNL     1       8.482  -9.168   1.264  1.00  0.00    -0.354 N 
ATOM     33  N   UNL     1       7.805  -8.334   4.072  1.00  0.00    -0.248 NA
ATOM     34  C   UNL     1       7.928  -8.735   6.372  1.00  0.00     0.031 C 
ATOM     35  C   UNL     1       9.741 -10.974   1.008  1.00  0.00     0.029 A 
ATOM     36  C   UNL     1       9.146 -10.158   1.960  1.00  0.00     0.049 A 
ATOM     37  H   UNL     1       7.955  -8.444   1.675  1.00  0.00     0.167 HD
ATOM     38  C   UNL     1       8.586  -9.458   4.292  1.00  0.00     0.074 A 
ATOM     39  C   UNL     1       8.657  -9.637   5.731  1.00  0.00     0.031 C 
ATOM     40  C   UNL     1       9.183 -10.282   3.395  1.00  0.00     0.031 A 
BRANCH  27  41
ATOM     41  C   UNL     1       8.377  -8.722  -2.554  1.00  0.00    -0.014 A 
ATOM     42  C   UNL     1       9.175  -7.842  -3.303  1.00  0.00     0.009 A 
ATOM     43  C   UNL     1       7.776  -9.812  -3.201  1.00  0.00     0.009 A 
ATOM     44  C   UNL     1       9.334  -8.032  -4.679  1.00  0.00     0.001 A 
ATOM     45  C   UNL     1       7.955 -10.012  -4.571  1.00  0.00     0.001 A 
ATOM     46  C   UNL     1       8.724  -9.116  -5.311  1.00  0.00     0.000 A 
ENDBRANCH  27  41
BRANCH  28  47
ATOM     47  C   UNL     1       6.277  -6.388   7.039  1.00  0.00    -0.014 A 
ATOM     48  C   UNL     1       7.292  -5.973   7.913  1.00  0.00     0.009 A 
ATOM     49  C   UNL     1       4.970  -6.514   7.541  1.00  0.00     0.009 A 
ATOM     50  C   UNL     1       7.010  -5.721   9.261  1.00  0.00     0.001 A 
ATOM     51  C   UNL     1       4.684  -6.230   8.878  1.00  0.00     0.001 A 
ATOM     52  C   UNL     1       5.707  -5.846   9.741  1.00  0.00     0.000 A 
ENDBRANCH  28  47
BRANCH  40  53
ATOM     53  C   UNL     1       9.981 -11.418   3.961  1.00  0.00    -0.014 A 
ATOM     54  C   UNL     1       9.348 -12.538   4.519  1.00  0.00     0.009 A 
ATOM     55  C   UNL     1      11.381 -11.380   3.888  1.00  0.00     0.009 A 
ATOM     56  C   UNL     1      10.110 -13.590   5.027  1.00  0.00     0.001 A 
ATOM     57  C   UNL     1      12.138 -12.447   4.369  1.00  0.00     0.001 A 
ATOM     58  C   UNL     1      11.502 -13.546   4.946  1.00  0.00     0.000 A 
ENDBRANCH  40  53
ENDBRANCH  14  15
ENDBRANCH   7   9
ENDBRANCH   6   7
ENDBRANCH   5   6
ENDBRANCH   4   5
ENDBRANCH   3   4
ENDBRANCH   2   3
ENDBRANCH   1   2
BRANCH   1  59
ATOM     59  O   UNL     1       2.827   2.370   2.680  1.00  0.00    -0.377 OA
BRANCH  59  60
ATOM     60  C   UNL     1       4.214   2.063   2.687  1.00  0.00     0.188 C 
BRANCH  60  61
ATOM     61  C   UNL     1       4.755   0.821   3.388  1.00  0.00     0.188 C 
BRANCH  61  62
ATOM     62  O   UNL     1       4.315   0.458   4.690  1.00  0.00    -0.376 OA
BRANCH  62  63
ATOM     63  C   UNL     1       3.006   0.790   5.119  1.00  0.00     0.202 C 
BRANCH  63  64
ATOM     64  C   UNL     1       2.935   2.076   5.961  1.00  0.00     0.261 C 
BRANCH  64  65
ATOM     65  O   UNL     1       3.121   3.323   5.250  1.00  0.00    -0.459 OA
BRANCH  65  66
ATOM     66  C   UNL     1       4.381   3.830   5.271  1.00  0.00     0.365 C 
ATOM     67  O   UNL     1       5.333   3.251   5.794  1.00  0.00    -0.245 OA
BRANCH  66  68
ATOM     68  C   UNL     1       4.555   5.204   4.592  1.00  0.00     0.298 C 
ATOM     69  C   UNL     1       4.350   5.236   3.062  1.00  0.00     0.115 C 
ATOM     70  N   UNL     1       3.767   6.279   5.276  1.00  0.00    -0.323 N 
ATOM     71  C   UNL     1       4.538   6.620   2.561  1.00  0.00    -0.006 A 
ATOM     72  C   UNL     1       4.287   7.621   4.929  1.00  0.00     0.264 C 
ATOM     73  H   UNL     1       3.830   6.147   6.285  1.00  0.00     0.347 HD
ATOM     74  H   UNL     1       2.797   6.216   4.967  1.00  0.00     0.347 HD
ATOM     75  C   UNL     1       4.497   7.694   3.427  1.00  0.00     0.083 A 
ATOM     76  C   UNL     1       4.831   7.089   1.256  1.00  0.00     0.003 A 
ATOM     77  N   UNL     1       4.682   8.822   2.667  1.00  0.00    -0.353 N 
ATOM     78  C   UNL     1       4.917   8.479   1.347  1.00  0.00     0.046 A 
ATOM     79  C   UNL     1       5.045   6.467   0.009  1.00  0.00     0.010 A 
ATOM     80  H   UNL     1       4.652   9.743   3.013  1.00  0.00     0.166 HD
ATOM     81  C   UNL     1       5.202   9.279   0.231  1.00  0.00     0.026 A 
ATOM     82  C   UNL     1       5.341   7.253  -1.109  1.00  0.00     0.001 A 
ATOM     83  C   UNL     1       5.415   8.639  -0.997  1.00  0.00     0.002 A 
BRANCH  72  84
ATOM     84  C   UNL     1       5.543   7.988   5.726  1.00  0.00     0.041 A 
ATOM     85  C   UNL     1       6.143   9.240   5.657  1.00  0.00     0.093 A 
ATOM     86  C   UNL     1       6.358   7.231   6.670  1.00  0.00     0.009 A 
ATOM     87  N   UNL     1       7.293   9.233   6.392  1.00  0.00    -0.361 N 
ATOM     88  C   UNL     1       7.473   8.012   6.986  1.00  0.00     0.046 A 
ATOM     89  C   UNL     1       6.304   5.954   7.279  1.00  0.00     0.011 A 
ATOM     90  H   UNL     1       7.907   9.998   6.482  1.00  0.00     0.166 HD
ATOM     91  C   UNL     1       8.537   7.555   7.780  1.00  0.00     0.026 A 
ATOM     92  C   UNL     1       7.370   5.462   8.040  1.00  0.00     0.001 A 
ATOM     93  C   UNL     1       8.481   6.253   8.278  1.00  0.00     0.002 A 
ENDBRANCH  72  84
ENDBRANCH  66  68
ENDBRANCH  65  66
ENDBRANCH  64  65
ENDBRANCH  63  64
ENDBRANCH  62  63
ENDBRANCH  61  62
ENDBRANCH  60  61
ENDBRANCH  59  60
ENDBRANCH   1  59
TORSDOF 21
