REMARK SMILES O=C(OCCOCCOCCOCCOC(=O)[C@@H]1CN(c2ncccn2)CCN1C(=O)C1CCOCC1)c1ccc(-c2c3nc(c(-c4ccccc4)c4ccc([nH]4)c(-c4ccccc4)c4nc(c(-c5ccccc5)c5ccc2[nH]5)C=C4)C=C3)cc1
REMARK SMILES IDX 9 1 8 2 7 3 6 4 5 5 4 6 3 7 2 8 1 9 38 10 39 11 85 12 40 13
REMARK SMILES IDX 84 14 41 15 42 16 43 17 78 18 44 19 83 20 77 21 79 22 45 23
REMARK SMILES IDX 82 24 76 25 75 26 46 28 68 29 53 30 67 31 54 32 57 33 66 34
REMARK SMILES IDX 80 35 55 36 56 37 65 39 81 40 58 41 47 42 48 43 52 44 49 45
REMARK SMILES IDX 51 46 50 47 69 48 70 49 74 50 71 51 73 52 72 53 59 54 60 55
REMARK SMILES IDX 64 56 61 57 63 58 62 59 10 60 11 61 12 62 13 63 14 64 15 65
REMARK SMILES IDX 16 66 17 67 18 68 19 69 29 70 20 71 28 72 27 73 30 74 31 75
REMARK SMILES IDX 32 76 33 77 37 78 34 79 36 80 35 81 21 82 22 83 26 84 23 85
REMARK SMILES IDX 25 86 24 87
REMARK H PARENT 79 27 57 38
REMARK Flexibility Score: inf
ROOT
ATOM      1  O   UNL     1       4.411   2.921  -1.077  1.00  0.00    -0.377 OA
ENDROOT
BRANCH   1   2
ATOM      2  C   UNL     1       3.798   1.822  -1.749  1.00  0.00     0.188 C 
BRANCH   2   3
ATOM      3  C   UNL     1       3.539   0.600  -0.877  1.00  0.00     0.188 C 
BRANCH   3   4
ATOM      4  O   UNL     1       4.763  -0.018  -0.523  1.00  0.00    -0.376 OA
BRANCH   4   5
ATOM      5  C   UNL     1       5.378  -0.811  -1.528  1.00  0.00     0.202 C 
BRANCH   5   6
ATOM      6  C   UNL     1       4.565  -2.070  -1.852  1.00  0.00     0.261 C 
BRANCH   6   7
ATOM      7  O   UNL     1       4.363  -2.817  -0.637  1.00  0.00    -0.460 OA
BRANCH   7   8
ATOM      8  C   UNL     1       3.203  -2.580   0.028  1.00  0.00     0.338 C 
ATOM      9  O   UNL     1       2.081  -2.525  -0.465  1.00  0.00    -0.246 OA
BRANCH   8  10
ATOM     10  C   UNL     1       3.515  -2.293   1.448  1.00  0.00     0.060 A 
ATOM     11  C   UNL     1       4.746  -1.695   1.740  1.00  0.00     0.016 A 
ATOM     12  C   UNL     1       2.615  -2.561   2.486  1.00  0.00     0.016 A 
ATOM     13  C   UNL     1       5.098  -1.360   3.021  1.00  0.00     0.010 A 
ATOM     14  C   UNL     1       3.018  -2.340   3.812  1.00  0.00     0.010 A 
ATOM     15  C   UNL     1       4.285  -1.784   4.064  1.00  0.00    -0.014 A 
BRANCH  15  16
ATOM     16  C   UNL     1       5.042  -1.986   5.311  1.00  0.00     0.031 A 
ATOM     17  C   UNL     1       5.803  -3.284   5.416  1.00  0.00     0.074 A 
ATOM     18  C   UNL     1       5.335  -0.928   6.085  1.00  0.00     0.049 A 
ATOM     19  N   UNL     1       6.698  -3.657   6.290  1.00  0.00    -0.248 NA
ATOM     20  C   UNL     1       5.575  -4.270   4.339  1.00  0.00     0.031 C 
ATOM     21  C   UNL     1       4.836   0.434   5.880  1.00  0.00     0.029 A 
ATOM     22  N   UNL     1       6.177  -0.822   7.155  1.00  0.00    -0.354 N 
ATOM     23  C   UNL     1       7.141  -4.903   5.859  1.00  0.00     0.074 A 
ATOM     24  C   UNL     1       6.428  -5.230   4.650  1.00  0.00     0.031 C 
ATOM     25  C   UNL     1       5.379   1.240   6.809  1.00  0.00     0.029 A 
ATOM     26  C   UNL     1       6.218   0.440   7.694  1.00  0.00     0.049 A 
ATOM     27  H   UNL     1       6.704  -1.577   7.505  1.00  0.00     0.167 HD
ATOM     28  C   UNL     1       8.056  -5.713   6.436  1.00  0.00     0.031 A 
ATOM     29  C   UNL     1       6.837   0.868   8.809  1.00  0.00     0.031 A 
ATOM     30  C   UNL     1       8.693  -5.390   7.679  1.00  0.00     0.049 A 
ATOM     31  C   UNL     1       7.666  -0.135   9.570  1.00  0.00     0.074 A 
ATOM     32  C   UNL     1       9.503  -6.176   8.472  1.00  0.00     0.029 A 
ATOM     33  N   UNL     1       8.565  -4.162   8.313  1.00  0.00    -0.354 N 
ATOM     34  N   UNL     1       7.989  -1.364   9.235  1.00  0.00    -0.248 NA
ATOM     35  C   UNL     1       8.207   0.299  10.862  1.00  0.00     0.031 C 
ATOM     36  C   UNL     1       9.813  -5.441   9.622  1.00  0.00     0.029 A 
ATOM     37  C   UNL     1       9.259  -4.173   9.505  1.00  0.00     0.049 A 
ATOM     38  H   UNL     1       8.054  -3.396   7.964  1.00  0.00     0.167 HD
ATOM     39  C   UNL     1       8.788  -1.843  10.264  1.00  0.00     0.074 A 
ATOM     40  C   UNL     1       8.921  -0.759  11.219  1.00  0.00     0.031 C 
ATOM     41  C   UNL     1       9.360  -3.063  10.418  1.00  0.00     0.031 A 
BRANCH  28  42
ATOM     42  C   UNL     1       8.292  -7.047   5.787  1.00  0.00    -0.014 A 
ATOM     43  C   UNL     1       9.004  -7.167   4.582  1.00  0.00     0.009 A 
ATOM     44  C   UNL     1       7.735  -8.199   6.362  1.00  0.00     0.009 A 
ATOM     45  C   UNL     1       9.120  -8.409   3.950  1.00  0.00     0.001 A 
ATOM     46  C   UNL     1       7.874  -9.442   5.742  1.00  0.00     0.001 A 
ATOM     47  C   UNL     1       8.557  -9.545   4.532  1.00  0.00     0.000 A 
ENDBRANCH  28  42
BRANCH  29  48
ATOM     48  C   UNL     1       6.603   2.243   9.332  1.00  0.00    -0.014 A 
ATOM     49  C   UNL     1       7.655   3.149   9.528  1.00  0.00     0.009 A 
ATOM     50  C   UNL     1       5.304   2.634   9.707  1.00  0.00     0.009 A 
ATOM     51  C   UNL     1       7.418   4.394  10.122  1.00  0.00     0.001 A 
ATOM     52  C   UNL     1       5.064   3.890  10.266  1.00  0.00     0.001 A 
ATOM     53  C   UNL     1       6.125   4.763  10.489  1.00  0.00     0.000 A 
ENDBRANCH  29  48
BRANCH  41  54
ATOM     54  C   UNL     1      10.210  -3.262  11.639  1.00  0.00    -0.014 A 
ATOM     55  C   UNL     1       9.641  -3.361  12.917  1.00  0.00     0.009 A 
ATOM     56  C   UNL     1      11.598  -3.403  11.492  1.00  0.00     0.009 A 
ATOM     57  C   UNL     1      10.455  -3.559  14.032  1.00  0.00     0.001 A 
ATOM     58  C   UNL     1      12.404  -3.639  12.603  1.00  0.00     0.001 A 
ATOM     59  C   UNL     1      11.833  -3.704  13.873  1.00  0.00     0.000 A 
ENDBRANCH  41  54
ENDBRANCH  15  16
ENDBRANCH   8  10
ENDBRANCH   7   8
ENDBRANCH   6   7
ENDBRANCH   5   6
ENDBRANCH   4   5
ENDBRANCH   3   4
ENDBRANCH   2   3
ENDBRANCH   1   2
BRANCH   1  60
ATOM     60  C   UNL     1       5.725   2.799  -0.527  1.00  0.00     0.188 C 
BRANCH  60  61
ATOM     61  C   UNL     1       6.043   4.050   0.340  1.00  0.00     0.188 C 
BRANCH  61  62
ATOM     62  O   UNL     1       5.558   3.930   1.694  1.00  0.00    -0.376 OA
BRANCH  62  63
ATOM     63  C   UNL     1       5.553   5.148   2.468  1.00  0.00     0.202 C 
BRANCH  63  64
ATOM     64  C   UNL     1       4.310   6.066   2.351  1.00  0.00     0.261 C 
BRANCH  64  65
ATOM     65  O   UNL     1       3.882   6.247   1.004  1.00  0.00    -0.462 OA
BRANCH  65  66
ATOM     66  C   UNL     1       4.565   7.143   0.275  1.00  0.00     0.330 C 
ATOM     67  O   UNL     1       5.282   8.019   0.741  1.00  0.00    -0.250 OA
BRANCH  66  68
ATOM     68  C   UNL     1       4.422   6.846  -1.205  1.00  0.00     0.214 C 
ATOM     69  C   UNL     1       3.975   8.096  -1.970  1.00  0.00     0.157 C 
ATOM     70  N   UNL     1       3.786   5.619  -1.795  1.00  0.00    -0.325 N 
ATOM     71  N   UNL     1       4.348   7.978  -3.384  1.00  0.00    -0.336 N 
ATOM     72  C   UNL     1       4.304   5.472  -3.190  1.00  0.00     0.142 C 
ATOM     73  C   UNL     1       4.039   6.728  -4.082  1.00  0.00     0.141 C 
BRANCH  70  74
ATOM     74  C   UNL     1       2.492   5.131  -1.600  1.00  0.00     0.226 C 
ATOM     75  O   UNL     1       1.761   5.055  -2.607  1.00  0.00    -0.275 OA
BRANCH  74  76
ATOM     76  C   UNL     1       1.842   4.535  -0.274  1.00  0.00     0.083 C 
ATOM     77  C   UNL     1       0.810   5.449   0.372  1.00  0.00     0.042 C 
ATOM     78  C   UNL     1       2.575   3.684   0.767  1.00  0.00     0.042 C 
ATOM     79  C   UNL     1       0.133   4.721   1.531  1.00  0.00     0.161 C 
ATOM     80  C   UNL     1       2.008   3.488   2.174  1.00  0.00     0.161 C 
ATOM     81  O   UNL     1       1.096   4.502   2.557  1.00  0.00    -0.381 OA
ENDBRANCH  74  76
ENDBRANCH  70  74
BRANCH  71  82
ATOM     82  C   UNL     1       5.389   8.769  -3.806  1.00  0.00     0.225 A 
ATOM     83  N   UNL     1       5.126   9.677  -4.758  1.00  0.00    -0.221 NA
ATOM     84  N   UNL     1       6.542   8.743  -3.114  1.00  0.00    -0.221 NA
ATOM     85  C   UNL     1       6.040  10.648  -4.959  1.00  0.00     0.117 A 
ATOM     86  C   UNL     1       7.441   9.715  -3.377  1.00  0.00     0.117 A 
ATOM     87  C   UNL     1       7.229  10.724  -4.281  1.00  0.00     0.040 A 
ENDBRANCH  71  82
ENDBRANCH  66  68
ENDBRANCH  65  66
ENDBRANCH  64  65
ENDBRANCH  63  64
ENDBRANCH  62  63
ENDBRANCH  61  62
ENDBRANCH  60  61
ENDBRANCH   1  60
TORSDOF 23
