REMARK SMILES O=C(Cn1c(SCCOc2ccccc2Cl)nc2ccccc21)OCCOCCOCCOCCOC(=O)c1ccc(-c2c3nc(c(-c4ccccc4)c4ccc([nH]4)c(-c4ccccc4)c4nc(c(-c5ccccc5)c5ccc2[nH]5)C=C4)C=C3)cc1
REMARK SMILES IDX 28 1 27 2 26 3 25 4 24 5 2 6 1 7 3 8 4 9 5 10 23 11 17 12
REMARK SMILES IDX 18 13 22 14 19 15 21 16 20 17 6 18 7 19 8 20 9 21 10 22
REMARK SMILES IDX 11 23 15 24 12 25 14 26 16 27 13 28 29 29 30 30 31 31 32 32
REMARK SMILES IDX 33 33 34 34 35 35 36 36 37 37 38 38 39 39 40 40 86 41 41 42
REMARK SMILES IDX 85 43 42 44 43 45 44 46 79 47 45 48 84 49 78 50 80 51 46 52
REMARK SMILES IDX 83 53 77 54 76 55 47 57 69 58 54 59 68 60 55 61 58 62 67 63
REMARK SMILES IDX 81 64 56 65 57 66 66 68 82 69 59 70 48 71 49 72 53 73 50 74
REMARK SMILES IDX 52 75 51 76 70 77 71 78 75 79 72 80 74 81 73 82 60 83 61 84
REMARK SMILES IDX 65 85 62 86 64 87 63 88
REMARK H PARENT 80 56 58 67
REMARK Flexibility Score: inf
ROOT
ATOM      1  C   UNL     1       2.215   1.072   2.616  1.00  0.00     0.188 C 
ENDROOT
BRANCH   1   2
ATOM      2  O   UNL     1       2.676   0.159   1.621  1.00  0.00    -0.376 OA
BRANCH   2   3
ATOM      3  C   UNL     1       4.073   0.119   1.027  1.00  0.00     0.202 C 
BRANCH   3   4
ATOM      4  C   UNL     1       4.446  -0.398  -1.054  1.00  0.00     0.261 C 
BRANCH   4   5
ATOM      5  O   UNL     1       2.657  -0.581  -1.772  1.00  0.00    -0.462 OA
BRANCH   5   6
ATOM      6  C   UNL     1       1.388  -0.787  -0.587  1.00  0.00     0.326 C 
ATOM      7  O   UNL     1       0.325  -0.194  -0.766  1.00  0.00    -0.250 OA
BRANCH   6   8
ATOM      8  C   UNL     1       1.818  -1.869   0.965  1.00  0.00     0.247 C 
BRANCH   8   9
ATOM      9  N   UNL     1       3.455  -2.399   1.539  1.00  0.00    -0.308 N 
ATOM     10  C   UNL     1       5.004  -2.071   1.347  1.00  0.00     0.169 A 
ATOM     11  C   UNL     1       3.512  -3.798   1.795  1.00  0.00     0.069 A 
ATOM     12  N   UNL     1       5.706  -3.177   1.500  1.00  0.00    -0.222 NA
ATOM     13  C   UNL     1       4.811  -4.199   1.494  1.00  0.00     0.090 A 
ATOM     14  C   UNL     1       2.481  -4.726   1.967  1.00  0.00     0.028 A 
ATOM     15  C   UNL     1       5.049  -5.516   1.077  1.00  0.00     0.030 A 
ATOM     16  C   UNL     1       2.723  -6.020   1.500  1.00  0.00     0.002 A 
ATOM     17  C   UNL     1       3.970  -6.395   1.004  1.00  0.00     0.002 A 
BRANCH  10  18
ATOM     18  S   UNL     1       6.354  -0.545   0.700  1.00  0.00    -0.084 SA
BRANCH  18  19
ATOM     19  C   UNL     1       5.257   1.264  -0.241  1.00  0.00     0.119 C 
BRANCH  19  20
ATOM     20  C   UNL     1       3.293   0.916  -0.550  1.00  0.00     0.241 C 
BRANCH  20  21
ATOM     21  O   UNL     1       3.171  -1.067  -0.151  1.00  0.00    -0.491 OA
BRANCH  21  22
ATOM     22  C   UNL     1       3.368  -2.524  -1.120  1.00  0.00     0.137 A 
ATOM     23  C   UNL     1       4.687  -3.056  -1.344  1.00  0.00     0.048 A 
ATOM     24  C   UNL     1       2.289  -3.337  -1.623  1.00  0.00     0.083 A 
ATOM     25  C   UNL     1       4.946  -4.167  -2.144  1.00  0.00     0.004 A 
ATOM     26  C   UNL     1       2.597  -4.515  -2.341  1.00  0.00     0.024 A 
ATOM     27  Cl  UNL     1       0.560  -3.162  -1.574  1.00  0.00    -0.080 Cl
ATOM     28  C   UNL     1       3.898  -4.905  -2.634  1.00  0.00     0.002 A 
ENDBRANCH  21  22
ENDBRANCH  20  21
ENDBRANCH  19  20
ENDBRANCH  18  19
ENDBRANCH  10  18
ENDBRANCH   8   9
ENDBRANCH   6   8
ENDBRANCH   5   6
ENDBRANCH   4   5
ENDBRANCH   3   4
ENDBRANCH   2   3
ENDBRANCH   1   2
BRANCH   1  29
ATOM     29  C   UNL     1       1.563   2.328   2.025  1.00  0.00     0.188 C 
BRANCH  29  30
ATOM     30  O   UNL     1       2.350   3.496   2.000  1.00  0.00    -0.377 OA
BRANCH  30  31
ATOM     31  C   UNL     1       3.671   3.434   1.539  1.00  0.00     0.188 C 
BRANCH  31  32
ATOM     32  C   UNL     1       4.820   3.273   2.585  1.00  0.00     0.188 C 
BRANCH  32  33
ATOM     33  O   UNL     1       4.547   3.505   3.951  1.00  0.00    -0.376 OA
BRANCH  33  34
ATOM     34  C   UNL     1       3.504   4.415   4.238  1.00  0.00     0.202 C 
BRANCH  34  35
ATOM     35  C   UNL     1       3.509   5.827   3.562  1.00  0.00     0.261 C 
BRANCH  35  36
ATOM     36  O   UNL     1       4.012   5.954   2.184  1.00  0.00    -0.460 OA
BRANCH  36  37
ATOM     37  C   UNL     1       5.267   6.407   1.890  1.00  0.00     0.338 C 
ATOM     38  O   UNL     1       5.952   7.052   2.667  1.00  0.00    -0.246 OA
BRANCH  37  39
ATOM     39  C   UNL     1       5.870   5.736   0.626  1.00  0.00     0.060 A 
ATOM     40  C   UNL     1       5.191   5.392  -0.552  1.00  0.00     0.016 A 
ATOM     41  C   UNL     1       7.179   5.225   0.750  1.00  0.00     0.016 A 
ATOM     42  C   UNL     1       5.761   4.457  -1.475  1.00  0.00     0.010 A 
ATOM     43  C   UNL     1       7.745   4.293  -0.168  1.00  0.00     0.010 A 
ATOM     44  C   UNL     1       7.031   3.839  -1.276  1.00  0.00    -0.014 A 
BRANCH  44  45
ATOM     45  C   UNL     1       7.631   2.958  -2.371  1.00  0.00     0.031 A 
ATOM     46  C   UNL     1       7.704   3.741  -3.619  1.00  0.00     0.074 A 
ATOM     47  C   UNL     1       8.171   1.696  -2.416  1.00  0.00     0.049 A 
ATOM     48  N   UNL     1       6.946   3.619  -4.653  1.00  0.00    -0.248 NA
ATOM     49  C   UNL     1       8.566   4.933  -3.614  1.00  0.00     0.031 C 
ATOM     50  C   UNL     1       8.422   0.853  -1.264  1.00  0.00     0.029 A 
ATOM     51  N   UNL     1       8.598   0.845  -3.446  1.00  0.00    -0.354 N 
ATOM     52  C   UNL     1       7.425   4.567  -5.545  1.00  0.00     0.074 A 
ATOM     53  C   UNL     1       8.235   5.481  -4.782  1.00  0.00     0.031 C 
ATOM     54  C   UNL     1       9.083  -0.279  -1.581  1.00  0.00     0.029 A 
ATOM     55  C   UNL     1       9.259  -0.335  -3.011  1.00  0.00     0.049 A 
ATOM     56  H   UNL     1       8.450   1.050  -4.397  1.00  0.00     0.167 HD
ATOM     57  C   UNL     1       7.411   4.315  -6.879  1.00  0.00     0.031 A 
ATOM     58  C   UNL     1       9.836  -1.392  -3.670  1.00  0.00     0.031 A 
ATOM     59  C   UNL     1       6.474   3.276  -7.209  1.00  0.00     0.049 A 
ATOM     60  C   UNL     1       9.386  -1.363  -5.072  1.00  0.00     0.074 A 
ATOM     61  C   UNL     1       5.114   3.108  -7.060  1.00  0.00     0.029 A 
ATOM     62  N   UNL     1       7.007   2.035  -7.442  1.00  0.00    -0.354 N 
ATOM     63  N   UNL     1       8.179  -1.653  -5.462  1.00  0.00    -0.248 NA
ATOM     64  C   UNL     1      10.155  -0.482  -5.926  1.00  0.00     0.031 C 
ATOM     65  C   UNL     1       4.933   1.721  -6.824  1.00  0.00     0.029 A 
ATOM     66  C   UNL     1       6.167   1.080  -6.950  1.00  0.00     0.049 A 
ATOM     67  H   UNL     1       7.863   1.860  -7.895  1.00  0.00     0.167 HD
ATOM     68  C   UNL     1       7.869  -0.627  -6.343  1.00  0.00     0.074 A 
ATOM     69  C   UNL     1       9.132   0.073  -6.573  1.00  0.00     0.031 C 
ATOM     70  C   UNL     1       6.581  -0.254  -6.576  1.00  0.00     0.031 A 
BRANCH  57  71
ATOM     71  C   UNL     1       8.576   4.662  -7.769  1.00  0.00    -0.014 A 
ATOM     72  C   UNL     1       9.858   4.987  -7.280  1.00  0.00     0.009 A 
ATOM     73  C   UNL     1       8.476   4.395  -9.144  1.00  0.00     0.009 A 
ATOM     74  C   UNL     1      10.974   5.073  -8.113  1.00  0.00     0.001 A 
ATOM     75  C   UNL     1       9.601   4.435  -9.975  1.00  0.00     0.001 A 
ATOM     76  C   UNL     1      10.847   4.782  -9.461  1.00  0.00     0.000 A 
ENDBRANCH  57  71
BRANCH  58  77
ATOM     77  C   UNL     1      11.070  -2.165  -3.275  1.00  0.00    -0.014 A 
ATOM     78  C   UNL     1      11.956  -1.623  -2.325  1.00  0.00     0.009 A 
ATOM     79  C   UNL     1      11.549  -3.270  -4.016  1.00  0.00     0.009 A 
ATOM     80  C   UNL     1      13.268  -2.093  -2.169  1.00  0.00     0.001 A 
ATOM     81  C   UNL     1      12.869  -3.745  -3.860  1.00  0.00     0.001 A 
ATOM     82  C   UNL     1      13.735  -3.136  -2.955  1.00  0.00     0.000 A 
ENDBRANCH  58  77
BRANCH  70  83
ATOM     83  C   UNL     1       5.444  -1.176  -6.239  1.00  0.00    -0.014 A 
ATOM     84  C   UNL     1       4.564  -1.500  -7.290  1.00  0.00     0.009 A 
ATOM     85  C   UNL     1       5.034  -1.409  -4.925  1.00  0.00     0.009 A 
ATOM     86  C   UNL     1       3.280  -1.983  -7.039  1.00  0.00     0.001 A 
ATOM     87  C   UNL     1       3.742  -1.883  -4.689  1.00  0.00     0.001 A 
ATOM     88  C   UNL     1       2.862  -2.165  -5.731  1.00  0.00     0.000 A 
ENDBRANCH  70  83
ENDBRANCH  44  45
ENDBRANCH  37  39
ENDBRANCH  36  37
ENDBRANCH  35  36
ENDBRANCH  34  35
ENDBRANCH  33  34
ENDBRANCH  32  33
ENDBRANCH  31  32
ENDBRANCH  30  31
ENDBRANCH  29  30
ENDBRANCH   1  29
TORSDOF 26
