REMARK SMILES O=C(OCCOCCOCCOCCOC(=O)c1ccncc1-c1ccc(F)cc1F)c1ccc(-c2c3nc(c(-c4ccccc4)c4ccc([nH]4)c(-c4ccccc4)c4nc(c(-c5ccccc5)c5ccc2[nH]5)C=C4)C=C3)cc1
REMARK SMILES IDX 8 1 7 2 6 3 5 4 4 5 3 6 2 7 1 8 32 9 33 10 79 11 34 12 78 13
REMARK SMILES IDX 35 14 36 15 37 16 72 17 38 18 77 19 71 20 73 21 39 22 76 23
REMARK SMILES IDX 70 24 69 25 40 27 62 28 47 29 61 30 48 31 51 32 60 33 74 34
REMARK SMILES IDX 49 35 50 36 59 38 75 39 52 40 41 41 42 42 46 43 43 44 45 45
REMARK SMILES IDX 44 46 63 47 64 48 68 49 65 50 67 51 66 52 53 53 54 54 58 55
REMARK SMILES IDX 55 56 57 57 56 58 9 59 10 60 11 61 12 62 13 63 14 64 15 65
REMARK SMILES IDX 16 66 17 67 18 68 19 69 23 70 20 71 22 72 21 73 24 74 25 75
REMARK SMILES IDX 30 76 26 77 29 78 31 79 27 80 28 81
REMARK H PARENT 73 26 51 37
REMARK Flexibility Score: inf
ROOT
ATOM      1  C   UNL     1       1.473   2.448   0.985  1.00  0.00     0.188 C 
ENDROOT
BRANCH   1   2
ATOM      2  C   UNL     1       1.829   1.460  -0.124  1.00  0.00     0.188 C 
BRANCH   2   3
ATOM      3  O   UNL     1       3.175   1.015   0.037  1.00  0.00    -0.376 OA
BRANCH   3   4
ATOM      4  C   UNL     1       3.904   0.770  -1.162  1.00  0.00     0.202 C 
BRANCH   4   5
ATOM      5  C   UNL     1       3.667  -0.618  -1.760  1.00  0.00     0.261 C 
BRANCH   5   6
ATOM      6  O   UNL     1       2.321  -1.073  -1.552  1.00  0.00    -0.460 OA
BRANCH   6   7
ATOM      7  C   UNL     1       1.873  -1.867  -0.544  1.00  0.00     0.338 C 
ATOM      8  O   UNL     1       0.691  -2.203  -0.526  1.00  0.00    -0.246 OA
BRANCH   7   9
ATOM      9  C   UNL     1       2.769  -2.406   0.520  1.00  0.00     0.060 A 
ATOM     10  C   UNL     1       3.855  -1.717   1.057  1.00  0.00     0.016 A 
ATOM     11  C   UNL     1       2.462  -3.666   1.054  1.00  0.00     0.016 A 
ATOM     12  C   UNL     1       4.702  -2.300   1.980  1.00  0.00     0.010 A 
ATOM     13  C   UNL     1       3.266  -4.234   2.049  1.00  0.00     0.010 A 
ATOM     14  C   UNL     1       4.416  -3.562   2.485  1.00  0.00    -0.014 A 
BRANCH  14  15
ATOM     15  C   UNL     1       5.428  -4.187   3.355  1.00  0.00     0.031 A 
ATOM     16  C   UNL     1       6.217  -5.337   2.808  1.00  0.00     0.074 A 
ATOM     17  C   UNL     1       5.747  -3.611   4.529  1.00  0.00     0.049 A 
ATOM     18  N   UNL     1       7.112  -6.081   3.398  1.00  0.00    -0.248 NA
ATOM     19  C   UNL     1       5.973  -5.692   1.397  1.00  0.00     0.031 C 
ATOM     20  C   UNL     1       5.134  -2.392   5.071  1.00  0.00     0.029 A 
ATOM     21  N   UNL     1       6.697  -3.942   5.457  1.00  0.00    -0.354 N 
ATOM     22  C   UNL     1       7.506  -7.013   2.447  1.00  0.00     0.074 A 
ATOM     23  C   UNL     1       6.751  -6.751   1.244  1.00  0.00     0.031 C 
ATOM     24  C   UNL     1       5.754  -2.058   6.213  1.00  0.00     0.029 A 
ATOM     25  C   UNL     1       6.735  -3.086   6.531  1.00  0.00     0.049 A 
ATOM     26  H   UNL     1       7.295  -4.718   5.363  1.00  0.00     0.167 HD
ATOM     27  C   UNL     1       8.416  -8.004   2.577  1.00  0.00     0.031 A 
ATOM     28  C   UNL     1       7.452  -3.161   7.667  1.00  0.00     0.031 A 
ATOM     29  C   UNL     1       9.150  -8.238   3.789  1.00  0.00     0.049 A 
ATOM     30  C   UNL     1       8.374  -4.338   7.830  1.00  0.00     0.074 A 
ATOM     31  C   UNL     1      10.024  -9.263   4.093  1.00  0.00     0.029 A 
ATOM     32  N   UNL     1       9.096  -7.407   4.901  1.00  0.00    -0.354 N 
ATOM     33  N   UNL     1       8.655  -5.292   6.973  1.00  0.00    -0.248 NA
ATOM     34  C   UNL     1       9.061  -4.463   9.121  1.00  0.00     0.031 C 
ATOM     35  C   UNL     1      10.469  -9.073   5.407  1.00  0.00     0.029 A 
ATOM     36  C   UNL     1       9.915  -7.899   5.898  1.00  0.00     0.049 A 
ATOM     37  H   UNL     1       8.553  -6.589   4.968  1.00  0.00     0.167 HD
ATOM     38  C   UNL     1       9.556  -6.127   7.616  1.00  0.00     0.074 A 
ATOM     39  C   UNL     1       9.801  -5.544   8.922  1.00  0.00     0.031 C 
ATOM     40  C   UNL     1      10.124  -7.280   7.182  1.00  0.00     0.031 A 
BRANCH  27  41
ATOM     41  C   UNL     1       8.585  -8.930   1.407  1.00  0.00    -0.014 A 
ATOM     42  C   UNL     1       9.232  -8.519   0.231  1.00  0.00     0.009 A 
ATOM     43  C   UNL     1       8.042 -10.223   1.467  1.00  0.00     0.009 A 
ATOM     44  C   UNL     1       9.297  -9.372  -0.875  1.00  0.00     0.001 A 
ATOM     45  C   UNL     1       8.131 -11.082   0.370  1.00  0.00     0.001 A 
ATOM     46  C   UNL     1       8.748 -10.652  -0.803  1.00  0.00     0.000 A 
ENDBRANCH  27  41
BRANCH  28  47
ATOM     47  C   UNL     1       7.256  -2.170   8.760  1.00  0.00    -0.014 A 
ATOM     48  C   UNL     1       8.301  -1.339   9.189  1.00  0.00     0.009 A 
ATOM     49  C   UNL     1       6.013  -2.075   9.411  1.00  0.00     0.009 A 
ATOM     50  C   UNL     1       8.117  -0.463  10.265  1.00  0.00     0.001 A 
ATOM     51  C   UNL     1       5.820  -1.175  10.461  1.00  0.00     0.001 A 
ATOM     52  C   UNL     1       6.876  -0.379  10.896  1.00  0.00     0.000 A 
ENDBRANCH  28  47
BRANCH  40  53
ATOM     53  C   UNL     1      11.080  -7.948   8.124  1.00  0.00    -0.014 A 
ATOM     54  C   UNL     1      10.623  -8.612   9.273  1.00  0.00     0.009 A 
ATOM     55  C   UNL     1      12.454  -7.933   7.839  1.00  0.00     0.009 A 
ATOM     56  C   UNL     1      11.532  -9.215  10.142  1.00  0.00     0.001 A 
ATOM     57  C   UNL     1      13.356  -8.564   8.693  1.00  0.00     0.001 A 
ATOM     58  C   UNL     1      12.896  -9.194   9.849  1.00  0.00     0.000 A 
ENDBRANCH  40  53
ENDBRANCH  14  15
ENDBRANCH   7   9
ENDBRANCH   6   7
ENDBRANCH   5   6
ENDBRANCH   4   5
ENDBRANCH   3   4
ENDBRANCH   2   3
ENDBRANCH   1   2
BRANCH   1  59
ATOM     59  O   UNL     1       2.194   3.678   0.933  1.00  0.00    -0.377 OA
BRANCH  59  60
ATOM     60  C   UNL     1       3.615   3.585   0.912  1.00  0.00     0.188 C 
BRANCH  60  61
ATOM     61  C   UNL     1       4.314   2.778   2.030  1.00  0.00     0.188 C 
BRANCH  61  62
ATOM     62  O   UNL     1       3.483   2.488   3.145  1.00  0.00    -0.376 OA
BRANCH  62  63
ATOM     63  C   UNL     1       3.721   3.282   4.301  1.00  0.00     0.202 C 
BRANCH  63  64
ATOM     64  C   UNL     1       3.305   4.750   4.167  1.00  0.00     0.261 C 
BRANCH  64  65
ATOM     65  O   UNL     1       3.963   5.506   3.132  1.00  0.00    -0.460 OA
BRANCH  65  66
ATOM     66  C   UNL     1       5.309   5.658   3.145  1.00  0.00     0.338 C 
ATOM     67  O   UNL     1       6.074   5.234   3.990  1.00  0.00    -0.246 OA
BRANCH  66  68
ATOM     68  C   UNL     1       5.677   6.361   1.882  1.00  0.00     0.071 A 
ATOM     69  C   UNL     1       4.936   7.519   1.588  1.00  0.00     0.036 A 
ATOM     70  C   UNL     1       6.603   5.860   0.941  1.00  0.00     0.017 A 
ATOM     71  C   UNL     1       5.142   8.155   0.381  1.00  0.00     0.112 A 
ATOM     72  C   UNL     1       6.752   6.632  -0.218  1.00  0.00     0.120 A 
ATOM     73  N   UNL     1       6.048   7.747  -0.522  1.00  0.00    -0.264 NA
BRANCH  70  74
ATOM     74  C   UNL     1       7.294   4.556   0.985  1.00  0.00     0.020 A 
ATOM     75  C   UNL     1       7.034   3.599  -0.025  1.00  0.00     0.015 A 
ATOM     76  C   UNL     1       8.259   4.228   1.945  1.00  0.00     0.134 A 
ATOM     77  C   UNL     1       7.689   2.366  -0.047  1.00  0.00     0.040 A 
ATOM     78  C   UNL     1       8.911   2.993   1.937  1.00  0.00     0.079 A 
ATOM     79  F   UNL     1       8.614   5.126   2.874  1.00  0.00    -0.206 F 
ATOM     80  C   UNL     1       8.617   2.073   0.942  1.00  0.00     0.126 A 
ATOM     81  F   UNL     1       9.247   0.891   0.917  1.00  0.00    -0.207 F 
ENDBRANCH  70  74
ENDBRANCH  66  68
ENDBRANCH  65  66
ENDBRANCH  64  65
ENDBRANCH  63  64
ENDBRANCH  62  63
ENDBRANCH  61  62
ENDBRANCH  60  61
ENDBRANCH  59  60
ENDBRANCH   1  59
TORSDOF 21
