REMARK SMILES COc1ccc(/C=C2/C(=O)N(c3ccccc3)C(=O)N=C2OCCOCCOCCOCCOC(=O)c2ccc(-c3c4nc(c(-c5ccccc5)c5ccc([nH]5)c(-c5ccccc5)c5nc(c(-c6ccccc6)c6ccc3[nH]6)C=C5)C=C4)cc2)cc1C(=O)[O-]
REMARK SMILES IDX 29 1 28 2 27 3 26 4 25 5 24 6 23 7 22 8 21 9 7 10 8 11 9 12
REMARK SMILES IDX 10 13 11 14 20 15 18 16 19 17 6 18 3 19 4 20 86 21 5 22
REMARK SMILES IDX 85 23 2 24 1 25 87 26 88 27 89 28 12 29 13 30 17 31 14 32
REMARK SMILES IDX 16 33 15 34 30 35 31 36 32 37 33 38 34 39 35 40 36 41 37 42
REMARK SMILES IDX 38 43 84 44 39 45 83 46 40 47 41 48 42 49 77 50 43 51 82 52
REMARK SMILES IDX 76 53 78 54 44 55 81 56 75 57 74 58 45 60 67 61 52 62 66 63
REMARK SMILES IDX 53 64 56 65 65 66 79 67 54 68 55 69 64 71 80 72 57 73 46 74
REMARK SMILES IDX 47 75 51 76 48 77 50 78 49 79 68 80 69 81 73 82 70 83 72 84
REMARK SMILES IDX 71 85 58 86 59 87 63 88 60 89 62 90 61 91
REMARK H PARENT 78 59 56 70
REMARK Flexibility Score: inf
ROOT
ATOM      1  C   UNL     1      -2.476   4.650   3.167  1.00  0.00     0.188 C 
ENDROOT
BRANCH   1   2
ATOM      2  O   UNL     1      -1.326   5.203   3.786  1.00  0.00    -0.377 OA
BRANCH   2   3
ATOM      3  C   UNL     1      -0.754   6.291   3.080  1.00  0.00     0.188 C 
BRANCH   3   4
ATOM      4  C   UNL     1      -1.546   7.607   2.951  1.00  0.00     0.188 C 
BRANCH   4   5
ATOM      5  O   UNL     1      -2.641   7.799   2.063  1.00  0.00    -0.376 OA
BRANCH   5   6
ATOM      6  C   UNL     1      -2.853   7.129   0.835  1.00  0.00     0.201 C 
BRANCH   6   7
ATOM      7  C   UNL     1      -1.855   7.213  -0.318  1.00  0.00     0.260 C 
BRANCH   7   8
ATOM      8  O   UNL     1      -0.504   6.930   0.063  1.00  0.00    -0.475 OA
BRANCH   8   9
ATOM      9  C   UNL     1       0.271   7.972   0.410  1.00  0.00     0.231 C 
ATOM     10  C   UNL     1       2.224   6.396   0.999  1.00  0.00     0.027 C 
ATOM     11  C   UNL     1       1.581   7.596   0.976  1.00  0.00     0.103 C 
ATOM     12  C   UNL     1       2.228   8.740   1.735  1.00  0.00     0.272 C 
ATOM     13  O   UNL     1       3.323   8.594   2.278  1.00  0.00    -0.268 OA
ATOM     14  N   UNL     1       1.460   9.901   1.815  1.00  0.00    -0.226 N 
ATOM     15  N   UNL     1      -0.220   9.143   0.342  1.00  0.00    -0.156 NA
ATOM     16  C   UNL     1       0.387  10.187   0.955  1.00  0.00     0.358 C 
ATOM     17  O   UNL     1      -0.029  11.315   0.768  1.00  0.00    -0.245 OA
BRANCH  10  18
ATOM     18  C   UNL     1       1.944   4.995   0.539  1.00  0.00    -0.024 A 
ATOM     19  C   UNL     1       1.490   2.220  -0.150  1.00  0.00     0.127 A 
ATOM     20  C   UNL     1       0.696   3.260  -0.645  1.00  0.00     0.048 A 
ATOM     21  C   UNL     1       2.583   2.580   0.641  1.00  0.00     0.040 A 
ATOM     22  C   UNL     1       0.962   4.609  -0.364  1.00  0.00     0.012 A 
ATOM     23  C   UNL     1       2.767   3.949   1.008  1.00  0.00     0.022 A 
BRANCH  19  24
ATOM     24  O   UNL     1       1.103   1.027  -0.684  1.00  0.00    -0.496 OA
ATOM     25  C   UNL     1       1.335  -0.181   0.015  1.00  0.00     0.278 C 
ENDBRANCH  19  24
BRANCH  21  26
ATOM     26  C   UNL     1       3.739   1.716   0.972  1.00  0.00     0.075 C 
ATOM     27  O   UNL     1       4.903   2.053   0.841  1.00  0.00    -0.545 OA
ATOM     28  O   UNL     1       3.438   0.538   1.532  1.00  0.00    -0.545 OA
ENDBRANCH  21  26
ENDBRANCH  10  18
BRANCH  14  29
ATOM     29  C   UNL     1       1.829  10.962   2.692  1.00  0.00     0.054 A 
ATOM     30  C   UNL     1       0.894  11.421   3.638  1.00  0.00     0.027 A 
ATOM     31  C   UNL     1       3.027  11.652   2.515  1.00  0.00     0.027 A 
ATOM     32  C   UNL     1       1.151  12.570   4.386  1.00  0.00     0.002 A 
ATOM     33  C   UNL     1       3.264  12.822   3.241  1.00  0.00     0.002 A 
ATOM     34  C   UNL     1       2.329  13.281   4.171  1.00  0.00     0.000 A 
ENDBRANCH  14  29
ENDBRANCH   8   9
ENDBRANCH   7   8
ENDBRANCH   6   7
ENDBRANCH   5   6
ENDBRANCH   4   5
ENDBRANCH   3   4
ENDBRANCH   2   3
ENDBRANCH   1   2
BRANCH   1  35
ATOM     35  C   UNL     1      -3.768   5.265   3.720  1.00  0.00     0.188 C 
BRANCH  35  36
ATOM     36  O   UNL     1      -3.518   6.339   4.611  1.00  0.00    -0.376 OA
BRANCH  36  37
ATOM     37  C   UNL     1      -3.396   6.063   6.001  1.00  0.00     0.202 C 
BRANCH  37  38
ATOM     38  C   UNL     1      -2.454   4.960   6.523  1.00  0.00     0.261 C 
BRANCH  38  39
ATOM     39  O   UNL     1      -2.548   3.662   5.918  1.00  0.00    -0.460 OA
BRANCH  39  40
ATOM     40  C   UNL     1      -3.709   2.985   6.015  1.00  0.00     0.338 C 
ATOM     41  O   UNL     1      -4.722   3.326   6.593  1.00  0.00    -0.246 OA
BRANCH  40  42
ATOM     42  C   UNL     1      -3.597   1.823   5.105  1.00  0.00     0.060 A 
ATOM     43  C   UNL     1      -4.532   1.675   4.071  1.00  0.00     0.016 A 
ATOM     44  C   UNL     1      -2.545   0.913   5.245  1.00  0.00     0.016 A 
ATOM     45  C   UNL     1      -4.439   0.593   3.196  1.00  0.00     0.010 A 
ATOM     46  C   UNL     1      -2.469  -0.184   4.387  1.00  0.00     0.010 A 
ATOM     47  C   UNL     1      -3.438  -0.367   3.384  1.00  0.00    -0.014 A 
BRANCH  47  48
ATOM     48  C   UNL     1      -3.545  -1.683   2.715  1.00  0.00     0.031 A 
ATOM     49  C   UNL     1      -4.206  -2.799   3.475  1.00  0.00     0.074 A 
ATOM     50  C   UNL     1      -3.081  -1.892   1.472  1.00  0.00     0.049 A 
ATOM     51  N   UNL     1      -4.340  -4.059   3.153  1.00  0.00    -0.248 NA
ATOM     52  C   UNL     1      -4.800  -2.440   4.774  1.00  0.00     0.031 C 
ATOM     53  C   UNL     1      -2.491  -0.879   0.600  1.00  0.00     0.029 A 
ATOM     54  N   UNL     1      -3.019  -3.051   0.738  1.00  0.00    -0.354 N 
ATOM     55  C   UNL     1      -5.038  -4.639   4.205  1.00  0.00     0.074 A 
ATOM     56  C   UNL     1      -5.264  -3.606   5.191  1.00  0.00     0.031 C 
ATOM     57  C   UNL     1      -2.094  -1.471  -0.542  1.00  0.00     0.029 A 
ATOM     58  C   UNL     1      -2.355  -2.906  -0.454  1.00  0.00     0.049 A 
ATOM     59  H   UNL     1      -3.413  -3.902   1.038  1.00  0.00     0.167 HD
ATOM     60  C   UNL     1      -5.463  -5.916   4.335  1.00  0.00     0.031 A 
ATOM     61  C   UNL     1      -1.960  -3.835  -1.345  1.00  0.00     0.031 A 
ATOM     62  C   UNL     1      -5.211  -6.949   3.369  1.00  0.00     0.049 A 
ATOM     63  C   UNL     1      -2.307  -5.279  -1.112  1.00  0.00     0.074 A 
ATOM     64  C   UNL     1      -5.612  -8.273   3.396  1.00  0.00     0.029 A 
ATOM     65  N   UNL     1      -4.476  -6.774   2.208  1.00  0.00    -0.354 N 
ATOM     66  N   UNL     1      -2.975  -5.819  -0.122  1.00  0.00    -0.248 NA
ATOM     67  C   UNL     1      -1.858  -6.239  -2.131  1.00  0.00     0.031 C 
ATOM     68  C   UNL     1      -5.067  -8.914   2.278  1.00  0.00     0.029 A 
ATOM     69  C   UNL     1      -4.381  -7.974   1.525  1.00  0.00     0.049 A 
ATOM     70  H   UNL     1      -4.079  -5.923   1.913  1.00  0.00     0.167 HD
ATOM     71  C   UNL     1      -3.066  -7.173  -0.419  1.00  0.00     0.074 A 
ATOM     72  C   UNL     1      -2.374  -7.372  -1.676  1.00  0.00     0.031 C 
ATOM     73  C   UNL     1      -3.684  -8.158   0.278  1.00  0.00     0.031 A 
BRANCH  60  74
ATOM     74  C   UNL     1      -6.208  -6.263   5.592  1.00  0.00    -0.014 A 
ATOM     75  C   UNL     1      -7.509  -5.788   5.825  1.00  0.00     0.009 A 
ATOM     76  C   UNL     1      -5.598  -7.076   6.559  1.00  0.00     0.009 A 
ATOM     77  C   UNL     1      -8.168  -6.090   7.018  1.00  0.00     0.001 A 
ATOM     78  C   UNL     1      -6.270  -7.399   7.739  1.00  0.00     0.001 A 
ATOM     79  C   UNL     1      -7.550  -6.898   7.972  1.00  0.00     0.000 A 
ENDBRANCH  60  74
BRANCH  61  80
ATOM     80  C   UNL     1      -1.137  -3.437  -2.514  1.00  0.00    -0.014 A 
ATOM     81  C   UNL     1      -1.687  -3.381  -3.802  1.00  0.00     0.009 A 
ATOM     82  C   UNL     1       0.221  -3.123  -2.340  1.00  0.00     0.009 A 
ATOM     83  C   UNL     1      -0.890  -3.024  -4.893  1.00  0.00     0.001 A 
ATOM     84  C   UNL     1       1.007  -2.740  -3.427  1.00  0.00     0.001 A 
ATOM     85  C   UNL     1       0.452  -2.697  -4.704  1.00  0.00     0.000 A 
ENDBRANCH  61  80
BRANCH  73  86
ATOM     86  C   UNL     1      -3.692  -9.530  -0.332  1.00  0.00    -0.014 A 
ATOM     87  C   UNL     1      -2.541 -10.330  -0.358  1.00  0.00     0.009 A 
ATOM     88  C   UNL     1      -4.892 -10.044  -0.851  1.00  0.00     0.009 A 
ATOM     89  C   UNL     1      -2.584 -11.607  -0.922  1.00  0.00     0.001 A 
ATOM     90  C   UNL     1      -4.939 -11.331  -1.386  1.00  0.00     0.001 A 
ATOM     91  C   UNL     1      -3.783 -12.108  -1.430  1.00  0.00     0.000 A 
ENDBRANCH  73  86
ENDBRANCH  47  48
ENDBRANCH  40  42
ENDBRANCH  39  40
ENDBRANCH  38  39
ENDBRANCH  37  38
ENDBRANCH  36  37
ENDBRANCH  35  36
ENDBRANCH   1  35
TORSDOF 23
