REMARK SMILES Cc1ccc(CSc2nnc(CCC(=O)OCCOCCOCCOCCOC(=O)c3ccc(-c4c5nc(c(-c6ccccc6)c6ccc([nH]6)c(-c6ccccc6)c6nc(c(-c7ccccc7)c7ccc4[nH]7)C=C6)C=C5)cc3)c(O)n2)cc1
REMARK SMILES IDX 20 1 19 2 18 3 17 4 16 5 14 6 15 7 13 8 12 9 11 10 8 11 9 12
REMARK SMILES IDX 81 13 10 14 79 15 7 16 6 17 5 18 1 19 2 20 3 21 83 22 4 23
REMARK SMILES IDX 82 24 80 25 21 27 22 28 23 29 24 30 25 31 26 32 27 33 28 34
REMARK SMILES IDX 29 35 30 36 31 37 32 38 78 39 33 40 77 41 34 42 35 43 36 44
REMARK SMILES IDX 71 45 37 46 76 47 70 48 72 49 38 50 75 51 69 52 68 53 39 55
REMARK SMILES IDX 61 56 46 57 60 58 47 59 50 60 59 61 73 62 48 63 49 64 58 66
REMARK SMILES IDX 74 67 51 68 40 69 41 70 45 71 42 72 44 73 43 74 62 75 63 76
REMARK SMILES IDX 67 77 64 78 66 79 65 80 52 81 53 82 57 83 54 84 56 85 55 86
REMARK H PARENT 80 26 72 54 50 65
REMARK Flexibility Score: inf
ROOT
ATOM      1  C   UNL     1      -1.443   4.971  -7.247  1.00  0.00     0.188 C 
ENDROOT
BRANCH   1   2
ATOM      2  O   UNL     1      -2.309   5.969  -6.732  1.00  0.00    -0.376 OA
BRANCH   2   3
ATOM      3  C   UNL     1      -3.603   5.506  -6.354  1.00  0.00     0.202 C 
BRANCH   3   4
ATOM      4  C   UNL     1      -4.419   4.778  -7.422  1.00  0.00     0.261 C 
BRANCH   4   5
ATOM      5  O   UNL     1      -4.220   3.351  -7.270  1.00  0.00    -0.463 OA
BRANCH   5   6
ATOM      6  C   UNL     1      -3.887   2.642  -8.378  1.00  0.00     0.306 C 
ATOM      7  O   UNL     1      -3.743   3.103  -9.486  1.00  0.00    -0.252 OA
BRANCH   6   8
ATOM      8  C   UNL     1      -3.708   1.168  -8.043  1.00  0.00     0.129 C 
BRANCH   8   9
ATOM      9  C   UNL     1      -2.425   0.881  -7.255  1.00  0.00     0.076 C 
BRANCH   9  10
ATOM     10  C   UNL     1      -2.542   0.078  -5.977  1.00  0.00     0.126 A 
ATOM     11  C   UNL     1      -2.549  -1.420  -3.629  1.00  0.00     0.212 A 
ATOM     12  N   UNL     1      -2.774  -0.101  -3.604  1.00  0.00    -0.123 NA
ATOM     13  N   UNL     1      -2.317  -2.047  -4.799  1.00  0.00    -0.184 NA
ATOM     14  N   UNL     1      -2.757   0.673  -4.794  1.00  0.00    -0.147 NA
ATOM     15  C   UNL     1      -2.323  -1.281  -5.915  1.00  0.00     0.237 A 
BRANCH  11  16
ATOM     16  S   UNL     1      -2.839  -2.546  -2.261  1.00  0.00    -0.080 SA
BRANCH  16  17
ATOM     17  C   UNL     1      -2.664  -1.742  -0.602  1.00  0.00     0.113 C 
BRANCH  17  18
ATOM     18  C   UNL     1      -1.263  -1.415  -0.133  1.00  0.00    -0.038 A 
ATOM     19  C   UNL     1       2.776  -0.026   0.343  1.00  0.00     0.044 C 
ATOM     20  C   UNL     1       1.380  -0.569   0.352  1.00  0.00    -0.051 A 
ATOM     21  C   UNL     1       1.123  -1.847  -0.148  1.00  0.00     0.004 A 
ATOM     22  C   UNL     1       0.310   0.178   0.838  1.00  0.00     0.004 A 
ATOM     23  C   UNL     1      -0.188  -2.266  -0.386  1.00  0.00     0.005 A 
ATOM     24  C   UNL     1      -1.000  -0.276   0.641  1.00  0.00     0.005 A 
ENDBRANCH  17  18
ENDBRANCH  16  17
ENDBRANCH  11  16
BRANCH  15  25
ATOM     25  O   UNL     1      -2.066  -2.007  -7.035  1.00  0.00    -0.492 OA
ATOM     26  H   UNL     1      -2.043  -1.585  -7.871  1.00  0.00     0.295 HD
ENDBRANCH  15  25
ENDBRANCH   9  10
ENDBRANCH   8   9
ENDBRANCH   6   8
ENDBRANCH   5   6
ENDBRANCH   4   5
ENDBRANCH   3   4
ENDBRANCH   2   3
ENDBRANCH   1   2
BRANCH   1  27
ATOM     27  C   UNL     1      -0.652   4.106  -6.258  1.00  0.00     0.188 C 
BRANCH  27  28
ATOM     28  O   UNL     1      -1.357   3.496  -5.190  1.00  0.00    -0.377 OA
BRANCH  28  29
ATOM     29  C   UNL     1      -1.319   4.152  -3.923  1.00  0.00     0.188 C 
BRANCH  29  30
ATOM     30  C   UNL     1      -0.032   4.831  -3.505  1.00  0.00     0.188 C 
BRANCH  30  31
ATOM     31  O   UNL     1       0.004   6.098  -4.159  1.00  0.00    -0.376 OA
BRANCH  31  32
ATOM     32  C   UNL     1       1.252   6.773  -4.087  1.00  0.00     0.202 C 
BRANCH  32  33
ATOM     33  C   UNL     1       1.665   7.110  -2.650  1.00  0.00     0.261 C 
BRANCH  33  34
ATOM     34  O   UNL     1       0.643   7.945  -2.067  1.00  0.00    -0.460 OA
BRANCH  34  35
ATOM     35  C   UNL     1      -0.090   7.371  -1.077  1.00  0.00     0.338 C 
ATOM     36  O   UNL     1       0.360   6.703  -0.159  1.00  0.00    -0.246 OA
BRANCH  35  37
ATOM     37  C   UNL     1      -1.543   7.429  -1.418  1.00  0.00     0.060 A 
ATOM     38  C   UNL     1      -2.479   6.790  -0.594  1.00  0.00     0.016 A 
ATOM     39  C   UNL     1      -1.930   7.835  -2.693  1.00  0.00     0.016 A 
ATOM     40  C   UNL     1      -3.728   6.402  -1.110  1.00  0.00     0.010 A 
ATOM     41  C   UNL     1      -3.128   7.378  -3.218  1.00  0.00     0.010 A 
ATOM     42  C   UNL     1      -4.013   6.600  -2.458  1.00  0.00    -0.014 A 
BRANCH  42  43
ATOM     43  C   UNL     1      -5.110   5.940  -3.196  1.00  0.00     0.031 A 
ATOM     44  C   UNL     1      -6.084   6.747  -3.968  1.00  0.00     0.074 A 
ATOM     45  C   UNL     1      -5.037   4.614  -3.481  1.00  0.00     0.049 A 
ATOM     46  N   UNL     1      -7.062   6.253  -4.647  1.00  0.00    -0.248 NA
ATOM     47  C   UNL     1      -6.000   8.194  -4.099  1.00  0.00     0.031 C 
ATOM     48  C   UNL     1      -5.716   3.856  -4.537  1.00  0.00     0.029 A 
ATOM     49  N   UNL     1      -4.299   3.621  -2.854  1.00  0.00    -0.354 N 
ATOM     50  C   UNL     1      -7.419   7.176  -5.598  1.00  0.00     0.074 A 
ATOM     51  C   UNL     1      -6.829   8.407  -5.127  1.00  0.00     0.031 C 
ATOM     52  C   UNL     1      -5.586   2.537  -4.337  1.00  0.00     0.029 A 
ATOM     53  C   UNL     1      -5.013   2.417  -3.023  1.00  0.00     0.049 A 
ATOM     54  H   UNL     1      -3.443   3.734  -2.383  1.00  0.00     0.167 HD
ATOM     55  C   UNL     1      -8.029   6.736  -6.742  1.00  0.00     0.031 A 
ATOM     56  C   UNL     1      -5.572   1.799  -1.948  1.00  0.00     0.031 A 
ATOM     57  C   UNL     1      -8.381   5.295  -6.674  1.00  0.00     0.049 A 
ATOM     58  C   UNL     1      -7.056   1.744  -2.195  1.00  0.00     0.074 A 
ATOM     59  C   UNL     1      -8.093   4.174  -7.442  1.00  0.00     0.029 A 
ATOM     60  N   UNL     1      -8.999   4.798  -5.517  1.00  0.00    -0.354 N 
ATOM     61  N   UNL     1      -7.707   2.702  -2.815  1.00  0.00    -0.248 NA
ATOM     62  C   UNL     1      -7.847   0.520  -2.060  1.00  0.00     0.031 C 
ATOM     63  C   UNL     1      -8.416   3.013  -6.675  1.00  0.00     0.029 A 
ATOM     64  C   UNL     1      -8.944   3.420  -5.457  1.00  0.00     0.049 A 
ATOM     65  H   UNL     1      -9.421   5.364  -4.831  1.00  0.00     0.167 HD
ATOM     66  C   UNL     1      -8.854   2.173  -3.339  1.00  0.00     0.074 A 
ATOM     67  C   UNL     1      -8.954   0.841  -2.755  1.00  0.00     0.031 C 
ATOM     68  C   UNL     1      -9.586   2.693  -4.368  1.00  0.00     0.031 A 
BRANCH  55  69
ATOM     69  C   UNL     1      -8.125   7.564  -8.022  1.00  0.00    -0.014 A 
ATOM     70  C   UNL     1      -8.544   6.972  -9.229  1.00  0.00     0.009 A 
ATOM     71  C   UNL     1      -7.782   8.925  -8.125  1.00  0.00     0.009 A 
ATOM     72  C   UNL     1      -8.591   7.680 -10.445  1.00  0.00     0.001 A 
ATOM     73  C   UNL     1      -7.832   9.645  -9.330  1.00  0.00     0.001 A 
ATOM     74  C   UNL     1      -8.235   9.020 -10.495  1.00  0.00     0.000 A 
ENDBRANCH  55  69
BRANCH  56  75
ATOM     75  C   UNL     1      -4.697   2.022  -0.750  1.00  0.00    -0.014 A 
ATOM     76  C   UNL     1      -3.371   1.585  -0.970  1.00  0.00     0.009 A 
ATOM     77  C   UNL     1      -4.860   3.026   0.201  1.00  0.00     0.009 A 
ATOM     78  C   UNL     1      -2.252   2.277  -0.518  1.00  0.00     0.001 A 
ATOM     79  C   UNL     1      -3.720   3.632   0.784  1.00  0.00     0.001 A 
ATOM     80  C   UNL     1      -2.423   3.308   0.374  1.00  0.00     0.000 A 
ENDBRANCH  56  75
BRANCH  68  81
ATOM     81  C   UNL     1     -11.083   2.572  -4.380  1.00  0.00    -0.014 A 
ATOM     82  C   UNL     1     -11.812   2.252  -3.226  1.00  0.00     0.009 A 
ATOM     83  C   UNL     1     -11.807   3.044  -5.495  1.00  0.00     0.009 A 
ATOM     84  C   UNL     1     -13.201   2.389  -3.189  1.00  0.00     0.001 A 
ATOM     85  C   UNL     1     -13.189   3.221  -5.446  1.00  0.00     0.001 A 
ATOM     86  C   UNL     1     -13.885   2.888  -4.292  1.00  0.00     0.000 A 
ENDBRANCH  68  81
ENDBRANCH  42  43
ENDBRANCH  35  37
ENDBRANCH  34  35
ENDBRANCH  33  34
ENDBRANCH  32  33
ENDBRANCH  31  32
ENDBRANCH  30  31
ENDBRANCH  29  30
ENDBRANCH  28  29
ENDBRANCH  27  28
ENDBRANCH   1  27
TORSDOF 26
