REMARK SMILES Cc1ccccc1[C@@H]1[NH2+][C@H](C(=O)OCCOCCOCCOCCOC(=O)c2ccc(-c3c4nc(c(-c5ccccc5)c5ccc([nH]5)c(-c5ccccc5)c5nc(c(-c6ccccc6)c6ccc3[nH]6)C=C5)C=C4)cc2)CC2=c3ccccc3=N[C@@H]21
REMARK SMILES IDX 20 1 19 2 18 3 17 4 16 5 15 6 14 7 13 8 11 9 12 10 10 11
REMARK SMILES IDX 8 12 9 13 85 14 77 17 84 18 76 19 78 20 83 21 79 22 82 23
REMARK SMILES IDX 80 24 81 25 7 26 1 27 2 28 3 29 4 30 6 31 5 32 21 33 22 34
REMARK SMILES IDX 23 35 24 36 25 37 26 38 27 39 28 40 29 41 75 42 30 43 74 44
REMARK SMILES IDX 31 45 32 46 33 47 68 48 34 49 73 50 67 51 69 52 35 53 72 54
REMARK SMILES IDX 66 55 65 56 36 58 58 59 43 60 57 61 44 62 47 63 56 64 70 65
REMARK SMILES IDX 45 66 46 67 55 69 71 70 48 71 37 72 38 73 42 74 39 75 41 76
REMARK SMILES IDX 40 77 59 78 60 79 64 80 61 81 63 82 62 83 49 84 50 85 54 86
REMARK SMILES IDX 51 87 53 88 52 89
REMARK H PARENT 9 15 9 16 69 57 47 68
REMARK Flexibility Score: inf
ROOT
ATOM      1  C   UNL     1       0.221   0.266   1.878  1.00  0.00     0.188 C 
ENDROOT
BRANCH   1   2
ATOM      2  O   UNL     1      -0.449   1.311   2.647  1.00  0.00    -0.377 OA
BRANCH   2   3
ATOM      3  C   UNL     1      -0.812   2.727   2.167  1.00  0.00     0.188 C 
BRANCH   3   4
ATOM      4  C   UNL     1      -0.885   3.609   0.477  1.00  0.00     0.188 C 
BRANCH   4   5
ATOM      5  O   UNL     1       0.319   3.595  -0.999  1.00  0.00    -0.376 OA
BRANCH   5   6
ATOM      6  C   UNL     1       0.620   4.752  -2.546  1.00  0.00     0.202 C 
BRANCH   6   7
ATOM      7  C   UNL     1       0.351   6.577  -2.202  1.00  0.00     0.261 C 
BRANCH   7   8
ATOM      8  O   UNL     1      -0.132   7.072  -0.459  1.00  0.00    -0.459 OA
BRANCH   8   9
ATOM      9  C   UNL     1      -0.168   6.653   1.079  1.00  0.00     0.365 C 
ATOM     10  O   UNL     1      -0.971   7.284   1.786  1.00  0.00    -0.245 OA
BRANCH   9  11
ATOM     11  C   UNL     1       0.795   5.269   1.969  1.00  0.00     0.298 C 
ATOM     12  C   UNL     1       1.460   2.602   0.734  1.00  0.00     0.243 C 
ATOM     13  N   UNL     1       0.994   3.966   1.243  1.00  0.00    -0.326 N 
ATOM     14  C   UNL     1       2.877   2.804   1.868  1.00  0.00     0.196 C 
ATOM     15  H   UNL     1       0.032   3.659   1.391  1.00  0.00     0.347 HD
ATOM     16  H   UNL     1       1.878   4.344   0.903  1.00  0.00     0.347 HD
ATOM     17  C   UNL     1       3.080   4.272   2.583  1.00  0.00    -0.024 C 
ATOM     18  N   UNL     1       4.242   2.565   1.381  1.00  0.00    -0.270 NA
ATOM     19  C   UNL     1       1.916   5.184   3.020  1.00  0.00     0.111 C 
ATOM     20  C   UNL     1       4.334   4.701   2.450  1.00  0.00     0.002 A 
ATOM     21  C   UNL     1       4.936   3.638   1.643  1.00  0.00     0.066 A 
ATOM     22  C   UNL     1       4.954   5.987   2.617  1.00  0.00     0.010 A 
ATOM     23  C   UNL     1       6.260   3.977   1.038  1.00  0.00     0.028 A 
ATOM     24  C   UNL     1       6.071   6.259   1.919  1.00  0.00     0.001 A 
ATOM     25  C   UNL     1       6.713   5.241   1.109  1.00  0.00     0.002 A 
BRANCH  12  26
ATOM     26  C   UNL     1       0.401   1.727  -0.749  1.00  0.00     0.015 A 
ATOM     27  C   UNL     1      -2.325   1.587   0.446  1.00  0.00     0.045 C 
ATOM     28  C   UNL     1      -1.504   1.516  -0.893  1.00  0.00    -0.042 A 
ATOM     29  C   UNL     1      -2.444   1.689  -2.721  1.00  0.00     0.004 A 
ATOM     30  C   UNL     1      -1.533   2.339  -4.128  1.00  0.00     0.000 A 
ATOM     31  C   UNL     1       1.088   2.255  -2.393  1.00  0.00     0.010 A 
ATOM     32  C   UNL     1       0.180   2.608  -3.943  1.00  0.00     0.001 A 
ENDBRANCH  12  26
ENDBRANCH   9  11
ENDBRANCH   8   9
ENDBRANCH   7   8
ENDBRANCH   6   7
ENDBRANCH   5   6
ENDBRANCH   4   5
ENDBRANCH   3   4
ENDBRANCH   2   3
ENDBRANCH   1   2
BRANCH   1  33
ATOM     33  C   UNL     1      -0.434  -0.870   1.146  1.00  0.00     0.188 C 
BRANCH  33  34
ATOM     34  O   UNL     1      -1.783  -0.601   1.050  1.00  0.00    -0.376 OA
BRANCH  34  35
ATOM     35  C   UNL     1      -2.601  -0.760   2.178  1.00  0.00     0.202 C 
BRANCH  35  36
ATOM     36  C   UNL     1      -2.900  -2.167   1.866  1.00  0.00     0.261 C 
BRANCH  36  37
ATOM     37  O   UNL     1      -3.602  -2.112   0.467  1.00  0.00    -0.460 OA
BRANCH  37  38
ATOM     38  C   UNL     1      -3.138  -1.712  -0.802  1.00  0.00     0.338 C 
ATOM     39  O   UNL     1      -2.758  -2.611  -1.566  1.00  0.00    -0.246 OA
BRANCH  38  40
ATOM     40  C   UNL     1      -3.043  -0.231  -1.470  1.00  0.00     0.060 A 
ATOM     41  C   UNL     1      -1.552  -0.213  -2.263  1.00  0.00     0.016 A 
ATOM     42  C   UNL     1      -3.906   1.297  -1.155  1.00  0.00     0.016 A 
ATOM     43  C   UNL     1      -0.682   1.321  -2.523  1.00  0.00     0.010 A 
ATOM     44  C   UNL     1      -3.153   2.959  -1.337  1.00  0.00     0.010 A 
ATOM     45  C   UNL     1      -1.413   3.159  -1.965  1.00  0.00    -0.014 A 
BRANCH  45  46
ATOM     46  C   UNL     1      -0.859   4.942  -1.250  1.00  0.00     0.031 A 
ATOM     47  C   UNL     1      -2.081   5.871  -1.657  1.00  0.00     0.074 A 
ATOM     48  C   UNL     1       0.815   5.338  -0.621  1.00  0.00     0.049 A 
ATOM     49  N   UNL     1      -1.949   7.140  -1.632  1.00  0.00    -0.248 NA
ATOM     50  C   UNL     1      -3.353   5.601  -2.333  1.00  0.00     0.031 C 
ATOM     51  C   UNL     1       1.966   6.498  -0.035  1.00  0.00     0.029 A 
ATOM     52  N   UNL     1       2.158   4.446  -0.767  1.00  0.00    -0.354 N 
ATOM     53  C   UNL     1      -3.073   7.806  -1.803  1.00  0.00     0.074 A 
ATOM     54  C   UNL     1      -3.959   6.804  -2.325  1.00  0.00     0.031 C 
ATOM     55  C   UNL     1       3.269   6.140  -0.095  1.00  0.00     0.029 A 
ATOM     56  C   UNL     1       3.433   4.904  -0.804  1.00  0.00     0.049 A 
ATOM     57  H   UNL     1       2.035   3.471  -0.836  1.00  0.00     0.167 HD
ATOM     58  C   UNL     1      -2.993   9.042  -1.263  1.00  0.00     0.031 A 
ATOM     59  C   UNL     1       4.254   4.602  -1.860  1.00  0.00     0.031 A 
ATOM     60  C   UNL     1      -1.543   9.489  -0.958  1.00  0.00     0.049 A 
ATOM     61  C   UNL     1       4.044   6.059  -2.594  1.00  0.00     0.074 A 
ATOM     62  C   UNL     1      -0.855   9.806   0.205  1.00  0.00     0.029 A 
ATOM     63  N   UNL     1      -0.488   9.291  -1.906  1.00  0.00    -0.354 N 
ATOM     64  N   UNL     1       2.929   6.786  -2.489  1.00  0.00    -0.248 NA
ATOM     65  C   UNL     1       5.115   6.962  -3.000  1.00  0.00     0.031 C 
ATOM     66  C   UNL     1       0.589   9.728  -0.043  1.00  0.00     0.029 A 
ATOM     67  C   UNL     1       0.853   9.320  -1.368  1.00  0.00     0.049 A 
ATOM     68  H   UNL     1      -0.665   9.144  -2.864  1.00  0.00     0.167 HD
ATOM     69  C   UNL     1       3.102   8.187  -2.527  1.00  0.00     0.074 A 
ATOM     70  C   UNL     1       4.531   8.188  -2.925  1.00  0.00     0.031 C 
ATOM     71  C   UNL     1       2.147   9.249  -2.289  1.00  0.00     0.031 A 
BRANCH  58  72
ATOM     72  C   UNL     1      -4.270   9.658  -0.757  1.00  0.00    -0.014 A 
ATOM     73  C   UNL     1      -4.191  10.888  -0.106  1.00  0.00     0.009 A 
ATOM     74  C   UNL     1      -5.560   9.069  -0.825  1.00  0.00     0.009 A 
ATOM     75  C   UNL     1      -5.332  11.534   0.380  1.00  0.00     0.001 A 
ATOM     76  C   UNL     1      -6.710   9.721  -0.363  1.00  0.00     0.001 A 
ATOM     77  C   UNL     1      -6.594  10.967   0.227  1.00  0.00     0.000 A 
ENDBRANCH  58  72
BRANCH  59  78
ATOM     78  C   UNL     1       4.290   2.984  -2.280  1.00  0.00    -0.014 A 
ATOM     79  C   UNL     1       4.399   1.995  -1.246  1.00  0.00     0.009 A 
ATOM     80  C   UNL     1       3.966   2.313  -3.474  1.00  0.00     0.009 A 
ATOM     81  C   UNL     1       3.792   0.695  -1.185  1.00  0.00     0.001 A 
ATOM     82  C   UNL     1       3.441   0.931  -3.485  1.00  0.00     0.001 A 
ATOM     83  C   UNL     1       3.235   0.177  -2.321  1.00  0.00     0.000 A 
ENDBRANCH  59  78
BRANCH  71  84
ATOM     84  C   UNL     1       2.180  10.489  -3.188  1.00  0.00    -0.014 A 
ATOM     85  C   UNL     1       3.129  10.700  -4.178  1.00  0.00     0.009 A 
ATOM     86  C   UNL     1       1.098  11.413  -3.176  1.00  0.00     0.009 A 
ATOM     87  C   UNL     1       3.059  11.796  -5.038  1.00  0.00     0.001 A 
ATOM     88  C   UNL     1       0.961  12.445  -4.097  1.00  0.00     0.001 A 
ATOM     89  C   UNL     1       1.971  12.659  -5.009  1.00  0.00     0.000 A 
ENDBRANCH  71  84
ENDBRANCH  45  46
ENDBRANCH  38  40
ENDBRANCH  37  38
ENDBRANCH  36  37
ENDBRANCH  35  36
ENDBRANCH  34  35
ENDBRANCH  33  34
ENDBRANCH   1  33
TORSDOF 21
