REMARK SMILES Cc1ccc(Oc2ccc(NC(=O)CCCC(=O)OCCOCCOCCOCCOC(=O)c3ccc(-c4c5nc(c(-c6ccccc6)c6ccc([nH]6)c(-c6ccccc6)c6nc(c(-c7ccccc7)c7ccc4[nH]7)C=C6)C=C5)cc3)cc2)cc1C
REMARK SMILES IDX 23 1 22 2 21 3 20 4 19 5 17 6 18 7 16 8 15 9 14 10 12 11
REMARK SMILES IDX 11 12 13 14 10 15 7 16 8 17 83 18 9 19 82 20 6 21 5 22 1 23
REMARK SMILES IDX 2 24 3 25 85 26 4 27 84 28 86 29 24 30 25 31 26 32 27 33
REMARK SMILES IDX 28 34 29 35 30 36 31 37 32 38 33 39 34 40 35 41 81 42 36 43
REMARK SMILES IDX 80 44 37 45 38 46 39 47 74 48 40 49 79 50 73 51 75 52 41 53
REMARK SMILES IDX 78 54 72 55 71 56 42 58 64 59 49 60 63 61 50 62 53 63 62 64
REMARK SMILES IDX 76 65 51 66 52 67 61 69 77 70 54 71 43 72 44 73 48 74 45 75
REMARK SMILES IDX 47 76 46 77 65 78 66 79 70 80 67 81 69 82 68 83 55 84 56 85
REMARK SMILES IDX 60 86 57 87 59 88 58 89
REMARK H PARENT 11 13 75 57 53 68
REMARK Flexibility Score: inf
ROOT
ATOM      1  C   UNL     1      -4.986  -3.047   3.085  1.00  0.00     0.188 C 
ENDROOT
BRANCH   1   2
ATOM      2  O   UNL     1      -4.145  -2.020   3.587  1.00  0.00    -0.376 OA
BRANCH   2   3
ATOM      3  C   UNL     1      -3.912  -0.915   2.730  1.00  0.00     0.202 C 
BRANCH   3   4
ATOM      4  C   UNL     1      -5.114  -0.023   2.459  1.00  0.00     0.261 C 
BRANCH   4   5
ATOM      5  O   UNL     1      -6.224  -0.546   1.706  1.00  0.00    -0.463 OA
BRANCH   5   6
ATOM      6  C   UNL     1      -6.134  -1.325   0.609  1.00  0.00     0.305 C 
ATOM      7  O   UNL     1      -5.109  -1.824   0.170  1.00  0.00    -0.252 OA
BRANCH   6   8
ATOM      8  C   UNL     1      -7.493  -1.524  -0.038  1.00  0.00     0.123 C 
BRANCH   8   9
ATOM      9  C   UNL     1      -8.693  -0.862   0.649  1.00  0.00     0.022 C 
BRANCH   9  10
ATOM     10  C   UNL     1      -8.665   0.663   0.846  1.00  0.00     0.101 C 
BRANCH  10  11
ATOM     11  C   UNL     1      -8.939   1.486  -0.401  1.00  0.00     0.224 C 
ATOM     12  N   UNL     1      -8.026   1.665  -1.401  1.00  0.00    -0.326 N 
ATOM     13  H   UNL     1      -8.411   2.057  -2.219  1.00  0.00     0.169 HD
ATOM     14  O   UNL     1     -10.070   1.955  -0.575  1.00  0.00    -0.275 OA
BRANCH  12  15
ATOM     15  C   UNL     1      -6.652   1.404  -1.498  1.00  0.00     0.041 A 
ATOM     16  C   UNL     1      -3.998   0.469  -1.726  1.00  0.00     0.127 A 
ATOM     17  C   UNL     1      -4.459   1.051  -0.552  1.00  0.00     0.049 A 
ATOM     18  C   UNL     1      -4.837   0.477  -2.836  1.00  0.00     0.049 A 
ATOM     19  C   UNL     1      -5.773   1.530  -0.436  1.00  0.00     0.030 A 
ATOM     20  C   UNL     1      -6.147   0.977  -2.731  1.00  0.00     0.030 A 
BRANCH  16  21
ATOM     21  O   UNL     1      -2.815  -0.233  -1.814  1.00  0.00    -0.457 OA
BRANCH  21  22
ATOM     22  C   UNL     1      -1.694   0.171  -1.117  1.00  0.00     0.127 A 
ATOM     23  C   UNL     1       2.174   1.416   0.318  1.00  0.00     0.044 C 
ATOM     24  C   UNL     1       0.807   0.915  -0.058  1.00  0.00    -0.048 A 
ATOM     25  C   UNL     1      -0.217   1.857  -0.215  1.00  0.00     0.007 A 
ATOM     26  C   UNL     1       0.551  -0.440  -0.350  1.00  0.00    -0.045 A 
ATOM     27  C   UNL     1      -1.440   1.495  -0.771  1.00  0.00     0.047 A 
ATOM     28  C   UNL     1      -0.713  -0.799  -0.864  1.00  0.00     0.050 A 
ATOM     29  C   UNL     1       1.581  -1.517  -0.121  1.00  0.00     0.045 C 
ENDBRANCH  21  22
ENDBRANCH  16  21
ENDBRANCH  12  15
ENDBRANCH  10  11
ENDBRANCH   9  10
ENDBRANCH   8   9
ENDBRANCH   6   8
ENDBRANCH   5   6
ENDBRANCH   4   5
ENDBRANCH   3   4
ENDBRANCH   2   3
ENDBRANCH   1   2
BRANCH   1  30
ATOM     30  C   UNL     1      -6.482  -2.887   3.412  1.00  0.00     0.188 C 
BRANCH  30  31
ATOM     31  O   UNL     1      -6.914  -1.729   4.115  1.00  0.00    -0.377 OA
BRANCH  31  32
ATOM     32  C   UNL     1      -6.266  -1.312   5.312  1.00  0.00     0.188 C 
BRANCH  32  33
ATOM     33  C   UNL     1      -5.397  -2.277   6.129  1.00  0.00     0.188 C 
BRANCH  33  34
ATOM     34  O   UNL     1      -5.600  -3.640   5.827  1.00  0.00    -0.376 OA
BRANCH  34  35
ATOM     35  C   UNL     1      -6.570  -4.353   6.571  1.00  0.00     0.202 C 
BRANCH  35  36
ATOM     36  C   UNL     1      -8.011  -3.815   6.642  1.00  0.00     0.261 C 
BRANCH  36  37
ATOM     37  O   UNL     1      -8.210  -2.473   7.121  1.00  0.00    -0.460 OA
BRANCH  37  38
ATOM     38  C   UNL     1      -7.705  -2.126   8.320  1.00  0.00     0.338 C 
ATOM     39  O   UNL     1      -7.130  -2.852   9.116  1.00  0.00    -0.246 OA
BRANCH  38  40
ATOM     40  C   UNL     1      -7.771  -0.650   8.437  1.00  0.00     0.060 A 
ATOM     41  C   UNL     1      -6.584   0.069   8.639  1.00  0.00     0.016 A 
ATOM     42  C   UNL     1      -8.994   0.021   8.351  1.00  0.00     0.016 A 
ATOM     43  C   UNL     1      -6.624   1.448   8.833  1.00  0.00     0.010 A 
ATOM     44  C   UNL     1      -9.038   1.401   8.575  1.00  0.00     0.010 A 
ATOM     45  C   UNL     1      -7.858   2.106   8.877  1.00  0.00    -0.014 A 
BRANCH  45  46
ATOM     46  C   UNL     1      -7.921   3.441   9.520  1.00  0.00     0.031 A 
ATOM     47  C   UNL     1      -8.277   3.498  10.982  1.00  0.00     0.074 A 
ATOM     48  C   UNL     1      -7.595   4.564   8.860  1.00  0.00     0.049 A 
ATOM     49  N   UNL     1      -8.353   4.530  11.783  1.00  0.00    -0.248 NA
ATOM     50  C   UNL     1      -8.590   2.212  11.627  1.00  0.00     0.031 C 
ATOM     51  C   UNL     1      -7.183   4.634   7.461  1.00  0.00     0.029 A 
ATOM     52  N   UNL     1      -7.557   5.865   9.293  1.00  0.00    -0.354 N 
ATOM     53  C   UNL     1      -8.730   4.018  13.018  1.00  0.00     0.074 A 
ATOM     54  C   UNL     1      -8.907   2.593  12.853  1.00  0.00     0.031 C 
ATOM     55  C   UNL     1      -6.936   5.918   7.147  1.00  0.00     0.029 A 
ATOM     56  C   UNL     1      -7.201   6.758   8.314  1.00  0.00     0.049 A 
ATOM     57  H   UNL     1      -7.766   6.133  10.217  1.00  0.00     0.167 HD
ATOM     58  C   UNL     1      -8.909   4.670  14.191  1.00  0.00     0.031 A 
ATOM     59  C   UNL     1      -7.114   8.102   8.353  1.00  0.00     0.031 A 
ATOM     60  C   UNL     1      -8.759   6.092  14.347  1.00  0.00     0.049 A 
ATOM     61  C   UNL     1      -7.391   8.824   9.645  1.00  0.00     0.074 A 
ATOM     62  C   UNL     1      -8.904   6.855  15.491  1.00  0.00     0.029 A 
ATOM     63  N   UNL     1      -8.445   6.968  13.317  1.00  0.00    -0.354 N 
ATOM     64  N   UNL     1      -7.716   8.328  10.816  1.00  0.00    -0.248 NA
ATOM     65  C   UNL     1      -7.271  10.288   9.626  1.00  0.00     0.031 C 
ATOM     66  C   UNL     1      -8.751   8.200  15.139  1.00  0.00     0.029 A 
ATOM     67  C   UNL     1      -8.429   8.268  13.792  1.00  0.00     0.049 A 
ATOM     68  H   UNL     1      -8.262   6.703  12.387  1.00  0.00     0.167 HD
ATOM     69  C   UNL     1      -7.814   9.415  11.678  1.00  0.00     0.074 A 
ATOM     70  C   UNL     1      -7.500  10.594  10.896  1.00  0.00     0.031 C 
ATOM     71  C   UNL     1      -8.127   9.434  12.998  1.00  0.00     0.031 A 
BRANCH  58  72
ATOM     72  C   UNL     1      -9.350   3.847  15.372  1.00  0.00    -0.014 A 
ATOM     73  C   UNL     1      -8.512   2.882  15.956  1.00  0.00     0.009 A 
ATOM     74  C   UNL     1     -10.640   4.027  15.895  1.00  0.00     0.009 A 
ATOM     75  C   UNL     1      -8.978   2.077  16.999  1.00  0.00     0.001 A 
ATOM     76  C   UNL     1     -11.089   3.248  16.962  1.00  0.00     0.001 A 
ATOM     77  C   UNL     1     -10.265   2.263  17.503  1.00  0.00     0.000 A 
ENDBRANCH  58  72
BRANCH  59  78
ATOM     78  C   UNL     1      -6.761   8.848   7.115  1.00  0.00    -0.014 A 
ATOM     79  C   UNL     1      -5.521   9.489   6.986  1.00  0.00     0.009 A 
ATOM     80  C   UNL     1      -7.663   8.893   6.039  1.00  0.00     0.009 A 
ATOM     81  C   UNL     1      -5.195  10.167   5.808  1.00  0.00     0.001 A 
ATOM     82  C   UNL     1      -7.323   9.546   4.853  1.00  0.00     0.001 A 
ATOM     83  C   UNL     1      -6.091  10.187   4.740  1.00  0.00     0.000 A 
ENDBRANCH  59  78
BRANCH  71  84
ATOM     84  C   UNL     1      -8.111  10.768  13.695  1.00  0.00    -0.014 A 
ATOM     85  C   UNL     1      -9.084  11.746  13.438  1.00  0.00     0.009 A 
ATOM     86  C   UNL     1      -7.128  11.028  14.665  1.00  0.00     0.009 A 
ATOM     87  C   UNL     1      -9.049  12.970  14.110  1.00  0.00     0.001 A 
ATOM     88  C   UNL     1      -7.117  12.238  15.360  1.00  0.00     0.001 A 
ATOM     89  C   UNL     1      -8.070  13.213  15.073  1.00  0.00     0.000 A 
ENDBRANCH  71  84
ENDBRANCH  45  46
ENDBRANCH  38  40
ENDBRANCH  37  38
ENDBRANCH  36  37
ENDBRANCH  35  36
ENDBRANCH  34  35
ENDBRANCH  33  34
ENDBRANCH  32  33
ENDBRANCH  31  32
ENDBRANCH  30  31
ENDBRANCH   1  30
TORSDOF 26
