REMARK SMILES CC(=O)Nc1cc(NC(C)=O)cc(C(=O)Nc2ccc(Br)cc2C(=O)OCCOCCOCCOCCOC(=O)c2ccc(-c3c4nc(c(-c5ccccc5)c5ccc([nH]5)c(-c5ccccc5)c5nc(c(-c6ccccc6)c6ccc3[nH]6)C=C5)C=C4)cc2)c1
REMARK SMILES IDX 31 1 30 2 29 3 28 4 27 5 26 6 24 7 25 8 23 9 17 10 18 11
REMARK SMILES IDX 19 12 22 13 20 14 21 15 16 16 14 17 15 18 13 20 5 21 6 22
REMARK SMILES IDX 89 23 7 24 12 25 4 26 1 27 2 28 3 29 8 31 9 32 10 34 11 35
REMARK SMILES IDX 32 36 33 37 34 38 35 39 36 40 37 41 38 42 39 43 40 44 41 45
REMARK SMILES IDX 42 46 88 47 43 48 87 49 44 50 45 51 46 52 81 53 47 54 86 55
REMARK SMILES IDX 80 56 82 57 48 58 85 59 79 60 78 61 49 63 71 64 56 65 70 66
REMARK SMILES IDX 57 67 60 68 69 69 83 70 58 71 59 72 68 74 84 75 61 76 50 77
REMARK SMILES IDX 51 78 55 79 52 80 54 81 53 82 72 83 73 84 77 85 74 86 76 87
REMARK SMILES IDX 75 88 62 89 63 90 67 91 64 92 66 93 65 94
REMARK H PARENT 16 19 4 30 8 33 82 62 60 73
REMARK Flexibility Score: inf
ROOT
ATOM      1  C   UNL     1       5.864  -2.635   2.730  1.00  0.00     0.188 C 
ENDROOT
BRANCH   1   2
ATOM      2  C   UNL     1       4.735  -3.379   3.474  1.00  0.00     0.188 C 
BRANCH   2   3
ATOM      3  O   UNL     1       4.552  -4.771   3.307  1.00  0.00    -0.376 OA
BRANCH   3   4
ATOM      4  C   UNL     1       4.221  -5.385   2.078  1.00  0.00     0.202 C 
BRANCH   4   5
ATOM      5  C   UNL     1       3.620  -4.691   0.858  1.00  0.00     0.261 C 
BRANCH   5   6
ATOM      6  O   UNL     1       3.937  -3.323   0.618  1.00  0.00    -0.460 OA
BRANCH   6   7
ATOM      7  C   UNL     1       3.014  -2.460   1.085  1.00  0.00     0.340 C 
ATOM      8  O   UNL     1       2.032  -2.767   1.746  1.00  0.00    -0.246 OA
BRANCH   7   9
ATOM      9  C   UNL     1       3.392  -1.047   0.843  1.00  0.00     0.084 A 
ATOM     10  C   UNL     1       4.100  -0.523  -0.258  1.00  0.00     0.056 A 
ATOM     11  C   UNL     1       4.477   0.837  -0.199  1.00  0.00     0.028 A 
ATOM     12  C   UNL     1       4.092   1.669   0.860  1.00  0.00     0.018 A 
ATOM     13  C   UNL     1       3.013  -0.197   1.909  1.00  0.00     0.033 A 
ATOM     14  C   UNL     1       3.350   1.149   1.907  1.00  0.00     0.018 A 
ATOM     15  Br  UNL     1       2.796   2.260   3.328  1.00  0.00    -0.051 Br
BRANCH  10  16
ATOM     16  N   UNL     1       4.477  -1.157  -1.470  1.00  0.00    -0.321 N 
ATOM     17  C   UNL     1       3.969  -2.188  -2.235  1.00  0.00     0.255 C 
ATOM     18  O   UNL     1       4.650  -2.635  -3.159  1.00  0.00    -0.269 OA
ATOM     19  H   UNL     1       5.295  -0.770  -1.857  1.00  0.00     0.170 HD
BRANCH  17  20
ATOM     20  C   UNL     1       2.612  -2.748  -2.029  1.00  0.00     0.044 A 
ATOM     21  C   UNL     1       0.521  -2.575  -0.865  1.00  0.00     0.044 A 
ATOM     22  C   UNL     1       0.395  -3.974  -0.944  1.00  0.00     0.052 A 
ATOM     23  C   UNL     1       1.580  -1.958  -1.518  1.00  0.00     0.040 A 
ATOM     24  C   UNL     1       1.341  -4.762  -1.611  1.00  0.00     0.044 A 
ATOM     25  C   UNL     1       2.449  -4.132  -2.181  1.00  0.00     0.040 A 
BRANCH  21  26
ATOM     26  N   UNL     1      -0.262  -1.935   0.122  1.00  0.00    -0.326 N 
ATOM     27  C   UNL     1       0.067   0.504  -0.296  1.00  0.00     0.114 C 
ATOM     28  C   UNL     1      -0.329  -0.650   0.576  1.00  0.00     0.221 C 
ATOM     29  O   UNL     1      -0.752  -0.440   1.716  1.00  0.00    -0.275 OA
ATOM     30  H   UNL     1      -0.889  -2.542   0.577  1.00  0.00     0.169 HD
ENDBRANCH  21  26
BRANCH  24  31
ATOM     31  N   UNL     1       1.331  -6.177  -1.612  1.00  0.00    -0.326 N 
ATOM     32  C   UNL     1       0.540  -6.998  -0.826  1.00  0.00     0.221 C 
ATOM     33  H   UNL     1       1.949  -6.623  -2.235  1.00  0.00     0.169 HD
ATOM     34  C   UNL     1       0.763  -8.469  -1.075  1.00  0.00     0.114 C 
ATOM     35  O   UNL     1      -0.271  -6.636   0.020  1.00  0.00    -0.275 OA
ENDBRANCH  24  31
ENDBRANCH  17  20
ENDBRANCH  10  16
ENDBRANCH   7   9
ENDBRANCH   6   7
ENDBRANCH   5   6
ENDBRANCH   4   5
ENDBRANCH   3   4
ENDBRANCH   2   3
ENDBRANCH   1   2
BRANCH   1  36
ATOM     36  O   UNL     1       6.357  -3.250   1.557  1.00  0.00    -0.377 OA
BRANCH  36  37
ATOM     37  C   UNL     1       7.278  -4.328   1.670  1.00  0.00     0.188 C 
BRANCH  37  38
ATOM     38  C   UNL     1       7.480  -5.081   3.005  1.00  0.00     0.188 C 
BRANCH  38  39
ATOM     39  O   UNL     1       7.320  -4.287   4.164  1.00  0.00    -0.376 OA
BRANCH  39  40
ATOM     40  C   UNL     1       8.460  -3.803   4.845  1.00  0.00     0.202 C 
BRANCH  40  41
ATOM     41  C   UNL     1       9.430  -2.897   4.074  1.00  0.00     0.261 C 
BRANCH  41  42
ATOM     42  O   UNL     1       9.922  -3.401   2.826  1.00  0.00    -0.460 OA
BRANCH  42  43
ATOM     43  C   UNL     1      10.656  -4.538   2.851  1.00  0.00     0.338 C 
ATOM     44  O   UNL     1      10.978  -5.189   3.818  1.00  0.00    -0.246 OA
BRANCH  43  45
ATOM     45  C   UNL     1      10.838  -4.955   1.442  1.00  0.00     0.060 A 
ATOM     46  C   UNL     1      10.304  -6.178   1.009  1.00  0.00     0.016 A 
ATOM     47  C   UNL     1      11.508  -4.117   0.550  1.00  0.00     0.016 A 
ATOM     48  C   UNL     1      10.460  -6.575  -0.319  1.00  0.00     0.010 A 
ATOM     49  C   UNL     1      11.691  -4.529  -0.769  1.00  0.00     0.010 A 
ATOM     50  C   UNL     1      11.193  -5.772  -1.201  1.00  0.00    -0.014 A 
BRANCH  50  51
ATOM     51  C   UNL     1      11.632  -6.307  -2.509  1.00  0.00     0.031 A 
ATOM     52  C   UNL     1      13.011  -6.898  -2.600  1.00  0.00     0.074 A 
ATOM     53  C   UNL     1      10.842  -6.250  -3.595  1.00  0.00     0.049 A 
ATOM     54  N   UNL     1      13.669  -7.316  -3.649  1.00  0.00    -0.248 NA
ATOM     55  C   UNL     1      13.747  -7.027  -1.331  1.00  0.00     0.031 C 
ATOM     56  C   UNL     1       9.467  -5.756  -3.621  1.00  0.00     0.029 A 
ATOM     57  N   UNL     1      11.102  -6.602  -4.896  1.00  0.00    -0.354 N 
ATOM     58  C   UNL     1      14.902  -7.741  -3.170  1.00  0.00     0.074 A 
ATOM     59  C   UNL     1      14.909  -7.511  -1.742  1.00  0.00     0.031 C 
ATOM     60  C   UNL     1       9.009  -5.818  -4.884  1.00  0.00     0.029 A 
ATOM     61  C   UNL     1      10.073  -6.312  -5.757  1.00  0.00     0.049 A 
ATOM     62  H   UNL     1      11.945  -7.021  -5.183  1.00  0.00     0.167 HD
ATOM     63  C   UNL     1      15.937  -8.275  -3.858  1.00  0.00     0.031 A 
ATOM     64  C   UNL     1      10.015  -6.402  -7.100  1.00  0.00     0.031 A 
ATOM     65  C   UNL     1      15.936  -8.476  -5.282  1.00  0.00     0.049 A 
ATOM     66  C   UNL     1      11.220  -6.896  -7.859  1.00  0.00     0.074 A 
ATOM     67  C   UNL     1      16.931  -9.015  -6.077  1.00  0.00     0.029 A 
ATOM     68  N   UNL     1      14.890  -8.131  -6.124  1.00  0.00    -0.354 N 
ATOM     69  N   UNL     1      12.375  -7.316  -7.399  1.00  0.00    -0.248 NA
ATOM     70  C   UNL     1      11.113  -6.928  -9.326  1.00  0.00     0.031 C 
ATOM     71  C   UNL     1      16.514  -8.934  -7.409  1.00  0.00     0.029 A 
ATOM     72  C   UNL     1      15.230  -8.413  -7.436  1.00  0.00     0.049 A 
ATOM     73  H   UNL     1      14.033  -7.744  -5.832  1.00  0.00     0.167 HD
ATOM     74  C   UNL     1      13.117  -7.689  -8.514  1.00  0.00     0.074 A 
ATOM     75  C   UNL     1      12.277  -7.460  -9.671  1.00  0.00     0.031 C 
ATOM     76  C   UNL     1      14.380  -8.180  -8.575  1.00  0.00     0.031 A 
BRANCH  63  77
ATOM     77  C   UNL     1      17.175  -8.627  -3.081  1.00  0.00    -0.014 A 
ATOM     78  C   UNL     1      17.191  -9.697  -2.172  1.00  0.00     0.009 A 
ATOM     79  C   UNL     1      18.350  -7.884  -3.276  1.00  0.00     0.009 A 
ATOM     80  C   UNL     1      18.349  -9.991  -1.448  1.00  0.00     0.001 A 
ATOM     81  C   UNL     1      19.514  -8.201  -2.576  1.00  0.00     0.001 A 
ATOM     82  C   UNL     1      19.510  -9.247  -1.655  1.00  0.00     0.000 A 
ENDBRANCH  63  77
BRANCH  64  83
ATOM     83  C   UNL     1       8.786  -5.982  -7.826  1.00  0.00    -0.014 A 
ATOM     84  C   UNL     1       8.001  -6.924  -8.509  1.00  0.00     0.009 A 
ATOM     85  C   UNL     1       8.404  -4.631  -7.862  1.00  0.00     0.009 A 
ATOM     86  C   UNL     1       6.875  -6.519  -9.230  1.00  0.00     0.001 A 
ATOM     87  C   UNL     1       7.259  -4.234  -8.556  1.00  0.00     0.001 A 
ATOM     88  C   UNL     1       6.502  -5.176  -9.249  1.00  0.00     0.000 A 
ENDBRANCH  64  83
BRANCH  76  89
ATOM     89  C   UNL     1      14.920  -8.544  -9.932  1.00  0.00    -0.014 A 
ATOM     90  C   UNL     1      15.269  -7.561 -10.870  1.00  0.00     0.009 A 
ATOM     91  C   UNL     1      15.141  -9.894 -10.249  1.00  0.00     0.009 A 
ATOM     92  C   UNL     1      15.800  -7.925 -12.110  1.00  0.00     0.001 A 
ATOM     93  C   UNL     1      15.703 -10.253 -11.475  1.00  0.00     0.001 A 
ATOM     94  C   UNL     1      16.023  -9.269 -12.408  1.00  0.00     0.000 A 
ENDBRANCH  76  89
ENDBRANCH  50  51
ENDBRANCH  43  45
ENDBRANCH  42  43
ENDBRANCH  41  42
ENDBRANCH  40  41
ENDBRANCH  39  40
ENDBRANCH  38  39
ENDBRANCH  37  38
ENDBRANCH  36  37
ENDBRANCH   1  36
TORSDOF 24
