REMARK SMILES O=C(OCCOCCOCCOCCOC(=O)[C@@H]1C=C[C@@H](NC(=O)[C@@H]2CCS(=O)(=O)C2)C1)c1ccc(-c2c3nc(c(-c4ccccc4)c4ccc([nH]4)c(-c4ccccc4)c4nc(c(-c5ccccc5)c5ccc2[nH]5)C=C4)C=C3)cc1
REMARK SMILES IDX 9 1 8 2 7 3 6 4 5 5 4 6 3 7 2 8 1 9 33 10 34 11 80 12 35 13
REMARK SMILES IDX 79 14 36 15 37 16 38 17 73 18 39 19 78 20 72 21 74 22 40 23
REMARK SMILES IDX 77 24 71 25 70 26 41 28 63 29 48 30 62 31 49 32 52 33 61 34
REMARK SMILES IDX 75 35 50 36 51 37 60 39 76 40 53 41 42 42 43 43 47 44 44 45
REMARK SMILES IDX 46 46 45 47 64 48 65 49 69 50 66 51 68 52 67 53 54 54 55 55
REMARK SMILES IDX 59 56 56 57 58 58 57 59 10 60 11 61 12 62 13 63 14 64 15 65
REMARK SMILES IDX 16 66 17 67 18 68 19 69 32 70 20 71 21 72 22 73 23 74 24 76
REMARK SMILES IDX 25 77 26 78 31 79 27 80 28 81 29 82 30 83
REMARK H PARENT 74 27 52 38 22 75
REMARK Flexibility Score: inf
ROOT
ATOM      1  O   UNL     1       6.537   3.815   0.669  1.00  0.00    -0.377 OA
ENDROOT
BRANCH   1   2
ATOM      2  C   UNL     1       7.130   2.925  -0.272  1.00  0.00     0.188 C 
BRANCH   2   3
ATOM      3  C   UNL     1       7.212   1.484   0.214  1.00  0.00     0.188 C 
BRANCH   3   4
ATOM      4  O   UNL     1       5.921   1.039   0.593  1.00  0.00    -0.376 OA
BRANCH   4   5
ATOM      5  C   UNL     1       5.721   0.107   1.635  1.00  0.00     0.202 C 
BRANCH   5   6
ATOM      6  C   UNL     1       6.762  -0.979   1.840  1.00  0.00     0.261 C 
BRANCH   6   7
ATOM      7  O   UNL     1       7.748  -1.176   0.797  1.00  0.00    -0.460 OA
BRANCH   7   8
ATOM      8  C   UNL     1       7.686  -1.670  -0.461  1.00  0.00     0.338 C 
ATOM      9  O   UNL     1       8.717  -1.833  -1.106  1.00  0.00    -0.246 OA
BRANCH   8  10
ATOM     10  C   UNL     1       6.404  -2.062  -1.080  1.00  0.00     0.060 A 
ATOM     11  C   UNL     1       5.277  -1.271  -0.998  1.00  0.00     0.016 A 
ATOM     12  C   UNL     1       6.333  -3.198  -1.885  1.00  0.00     0.016 A 
ATOM     13  C   UNL     1       4.035  -1.738  -1.329  1.00  0.00     0.010 A 
ATOM     14  C   UNL     1       5.109  -3.572  -2.451  1.00  0.00     0.010 A 
ATOM     15  C   UNL     1       3.940  -2.879  -2.101  1.00  0.00    -0.014 A 
BRANCH  15  16
ATOM     16  C   UNL     1       2.578  -3.344  -2.401  1.00  0.00     0.031 A 
ATOM     17  C   UNL     1       2.142  -4.639  -1.794  1.00  0.00     0.074 A 
ATOM     18  C   UNL     1       1.708  -2.510  -3.006  1.00  0.00     0.049 A 
ATOM     19  N   UNL     1       1.016  -5.279  -1.940  1.00  0.00    -0.248 NA
ATOM     20  C   UNL     1       3.098  -5.301  -0.885  1.00  0.00     0.031 C 
ATOM     21  C   UNL     1       2.010  -1.143  -3.462  1.00  0.00     0.029 A 
ATOM     22  N   UNL     1       0.378  -2.656  -3.284  1.00  0.00    -0.354 N 
ATOM     23  C   UNL     1       1.148  -6.433  -1.181  1.00  0.00     0.074 A 
ATOM     24  C   UNL     1       2.461  -6.419  -0.585  1.00  0.00     0.031 C 
ATOM     25  C   UNL     1       0.885  -0.566  -3.910  1.00  0.00     0.029 A 
ATOM     26  C   UNL     1      -0.179  -1.555  -3.891  1.00  0.00     0.049 A 
ATOM     27  H   UNL     1      -0.132  -3.471  -3.071  1.00  0.00     0.167 HD
ATOM     28  C   UNL     1       0.240  -7.418  -1.009  1.00  0.00     0.031 A 
ATOM     29  C   UNL     1      -1.401  -1.397  -4.428  1.00  0.00     0.031 A 
ATOM     30  C   UNL     1      -1.056  -7.392  -1.624  1.00  0.00     0.049 A 
ATOM     31  C   UNL     1      -2.335  -2.571  -4.351  1.00  0.00     0.074 A 
ATOM     32  C   UNL     1      -2.035  -8.365  -1.627  1.00  0.00     0.029 A 
ATOM     33  N   UNL     1      -1.550  -6.313  -2.346  1.00  0.00    -0.354 N 
ATOM     34  N   UNL     1      -2.167  -3.720  -3.739  1.00  0.00    -0.248 NA
ATOM     35  C   UNL     1      -3.616  -2.438  -5.051  1.00  0.00     0.031 C 
ATOM     36  C   UNL     1      -3.102  -7.894  -2.398  1.00  0.00     0.029 A 
ATOM     37  C   UNL     1      -2.817  -6.601  -2.815  1.00  0.00     0.049 A 
ATOM     38  H   UNL     1      -1.068  -5.469  -2.501  1.00  0.00     0.167 HD
ATOM     39  C   UNL     1      -3.327  -4.444  -3.965  1.00  0.00     0.074 A 
ATOM     40  C   UNL     1      -4.203  -3.584  -4.739  1.00  0.00     0.031 C 
ATOM     41  C   UNL     1      -3.645  -5.705  -3.583  1.00  0.00     0.031 A 
BRANCH  28  42
ATOM     42  C   UNL     1       0.675  -8.610  -0.209  1.00  0.00    -0.014 A 
ATOM     43  C   UNL     1       0.861  -8.541   1.181  1.00  0.00     0.009 A 
ATOM     44  C   UNL     1       0.955  -9.814  -0.872  1.00  0.00     0.009 A 
ATOM     45  C   UNL     1       1.351  -9.645   1.884  1.00  0.00     0.001 A 
ATOM     46  C   UNL     1       1.416 -10.924  -0.164  1.00  0.00     0.001 A 
ATOM     47  C   UNL     1       1.623 -10.836   1.212  1.00  0.00     0.000 A 
ENDBRANCH  28  42
BRANCH  29  48
ATOM     48  C   UNL     1      -1.757  -0.158  -5.175  1.00  0.00    -0.014 A 
ATOM     49  C   UNL     1      -2.835   0.649  -4.783  1.00  0.00     0.009 A 
ATOM     50  C   UNL     1      -1.041   0.198  -6.332  1.00  0.00     0.009 A 
ATOM     51  C   UNL     1      -3.214   1.752  -5.555  1.00  0.00     0.001 A 
ATOM     52  C   UNL     1      -1.395   1.322  -7.080  1.00  0.00     0.001 A 
ATOM     53  C   UNL     1      -2.493   2.089  -6.700  1.00  0.00     0.000 A 
ENDBRANCH  29  48
BRANCH  41  54
ATOM     54  C   UNL     1      -5.011  -6.192  -3.967  1.00  0.00    -0.014 A 
ATOM     55  C   UNL     1      -5.334  -6.480  -5.302  1.00  0.00     0.009 A 
ATOM     56  C   UNL     1      -5.976  -6.386  -2.968  1.00  0.00     0.009 A 
ATOM     57  C   UNL     1      -6.619  -6.909  -5.633  1.00  0.00     0.001 A 
ATOM     58  C   UNL     1      -7.246  -6.854  -3.298  1.00  0.00     0.001 A 
ATOM     59  C   UNL     1      -7.570  -7.101  -4.631  1.00  0.00     0.000 A 
ENDBRANCH  41  54
ENDBRANCH  15  16
ENDBRANCH   8  10
ENDBRANCH   7   8
ENDBRANCH   6   7
ENDBRANCH   5   6
ENDBRANCH   4   5
ENDBRANCH   3   4
ENDBRANCH   2   3
ENDBRANCH   1   2
BRANCH   1  60
ATOM     60  C   UNL     1       5.280   3.451   1.237  1.00  0.00     0.188 C 
BRANCH  60  61
ATOM     61  C   UNL     1       4.050   3.213   0.323  1.00  0.00     0.188 C 
BRANCH  61  62
ATOM     62  O   UNL     1       4.363   2.776  -0.990  1.00  0.00    -0.376 OA
BRANCH  62  63
ATOM     63  C   UNL     1       4.210   3.706  -2.060  1.00  0.00     0.202 C 
BRANCH  63  64
ATOM     64  C   UNL     1       4.700   5.167  -1.932  1.00  0.00     0.261 C 
BRANCH  64  65
ATOM     65  O   UNL     1       4.890   5.605  -0.580  1.00  0.00    -0.463 OA
BRANCH  65  66
ATOM     66  C   UNL     1       4.135   6.597  -0.056  1.00  0.00     0.312 C 
ATOM     67  O   UNL     1       3.309   7.243  -0.685  1.00  0.00    -0.252 OA
BRANCH  66  68
ATOM     68  C   UNL     1       4.347   6.684   1.472  1.00  0.00     0.124 C 
ATOM     69  C   UNL     1       3.967   8.033   2.026  1.00  0.00    -0.014 C 
ATOM     70  C   UNL     1       5.811   6.615   1.942  1.00  0.00     0.048 C 
ATOM     71  C   UNL     1       5.054   8.782   2.268  1.00  0.00    -0.006 C 
ATOM     72  C   UNL     1       6.267   8.049   1.822  1.00  0.00     0.106 C 
BRANCH  72  73
ATOM     73  N   UNL     1       7.439   8.381   2.560  1.00  0.00    -0.350 N 
ATOM     74  C   UNL     1       8.619   8.877   2.116  1.00  0.00     0.224 C 
ATOM     75  H   UNL     1       7.383   8.229   3.531  1.00  0.00     0.164 HD
ATOM     76  O   UNL     1       9.526   8.975   2.950  1.00  0.00    -0.275 OA
BRANCH  74  77
ATOM     77  C   UNL     1       8.915   9.274   0.661  1.00  0.00     0.094 C 
ATOM     78  C   UNL     1       7.860   9.988  -0.196  1.00  0.00     0.030 C 
ATOM     79  C   UNL     1       9.554   8.151  -0.145  1.00  0.00     0.150 C 
ATOM     80  C   UNL     1       7.311   9.066  -1.288  1.00  0.00     0.138 C 
ATOM     81  S   UNL     1       8.367   7.637  -1.356  1.00  0.00     0.151 S 
ATOM     82  O   UNL     1       7.648   6.506  -0.829  1.00  0.00    -0.229 OA
ATOM     83  O   UNL     1       9.004   7.597  -2.660  1.00  0.00    -0.229 OA
ENDBRANCH  74  77
ENDBRANCH  72  73
ENDBRANCH  66  68
ENDBRANCH  65  66
ENDBRANCH  64  65
ENDBRANCH  63  64
ENDBRANCH  62  63
ENDBRANCH  61  62
ENDBRANCH  60  61
ENDBRANCH   1  60
TORSDOF 22
