REMARK SMILES COCCCOc1cccc(F)c1C(=O)OCCOCCOCCOCCOC(=O)c1ccc(-c2c3nc(c(-c4ccccc4)c4ccc([nH]4)c(-c4ccccc4)c4nc(c(-c5ccccc5)c5ccc2[nH]5)C=C4)C=C3)cc1
REMARK SMILES IDX 20 1 19 2 18 3 17 4 16 5 14 6 15 7 13 8 7 9 8 10 9 11 11 12
REMARK SMILES IDX 10 13 12 14 6 15 5 16 4 17 3 18 2 19 1 20 21 21 22 22 23 23
REMARK SMILES IDX 24 24 25 25 26 26 27 27 28 28 29 29 30 30 31 31 32 32 78 33
REMARK SMILES IDX 33 34 77 35 34 36 35 37 36 38 71 39 37 40 76 41 70 42 72 43
REMARK SMILES IDX 38 44 75 45 69 46 68 47 39 49 61 50 46 51 60 52 47 53 50 54
REMARK SMILES IDX 59 55 73 56 48 57 49 58 58 60 74 61 51 62 40 63 41 64 45 65
REMARK SMILES IDX 42 66 44 67 43 68 62 69 63 70 67 71 64 72 66 73 65 74 52 75
REMARK SMILES IDX 53 76 57 77 54 78 56 79 55 80
REMARK H PARENT 72 48 50 59
REMARK Flexibility Score: inf
ROOT
ATOM      1  C   UNL     1       4.897   2.769   2.526  1.00  0.00     0.188 C 
ENDROOT
BRANCH   1   2
ATOM      2  O   UNL     1       5.366   2.485   3.834  1.00  0.00    -0.376 OA
BRANCH   2   3
ATOM      3  C   UNL     1       4.761   1.421   4.542  1.00  0.00     0.202 C 
BRANCH   3   4
ATOM      4  C   UNL     1       4.806   0.014   3.928  1.00  0.00     0.261 C 
BRANCH   4   5
ATOM      5  O   UNL     1       4.656  -0.045   2.503  1.00  0.00    -0.459 OA
BRANCH   5   6
ATOM      6  C   UNL     1       3.406  -0.067   1.987  1.00  0.00     0.345 C 
ATOM      7  O   UNL     1       2.359  -0.043   2.606  1.00  0.00    -0.246 OA
BRANCH   6   8
ATOM      8  C   UNL     1       3.540  -0.011   0.519  1.00  0.00     0.137 A 
ATOM      9  C   UNL     1       3.128   1.090  -0.250  1.00  0.00     0.136 A 
ATOM     10  C   UNL     1       3.478   1.156  -1.607  1.00  0.00     0.047 A 
ATOM     11  C   UNL     1       4.160   0.107  -2.220  1.00  0.00     0.007 A 
ATOM     12  C   UNL     1       4.239  -1.048  -0.105  1.00  0.00     0.141 A 
ATOM     13  C   UNL     1       4.540  -0.999  -1.465  1.00  0.00     0.040 A 
ATOM     14  F   UNL     1       4.663  -2.107   0.601  1.00  0.00    -0.206 F 
BRANCH   9  15
ATOM     15  O   UNL     1       2.605   2.247   0.256  1.00  0.00    -0.492 OA
BRANCH  15  16
ATOM     16  C   UNL     1       1.215   2.207   0.594  1.00  0.00     0.232 C 
BRANCH  16  17
ATOM     17  C   UNL     1       0.287   2.400  -0.605  1.00  0.00     0.070 C 
BRANCH  17  18
ATOM     18  C   UNL     1       0.033   1.172  -1.481  1.00  0.00     0.163 C 
BRANCH  18  19
ATOM     19  O   UNL     1      -0.742   0.163  -0.840  1.00  0.00    -0.385 OA
ATOM     20  C   UNL     1       0.010  -0.793  -0.108  1.00  0.00     0.194 C 
ENDBRANCH  18  19
ENDBRANCH  17  18
ENDBRANCH  16  17
ENDBRANCH  15  16
ENDBRANCH   9  15
ENDBRANCH   6   8
ENDBRANCH   5   6
ENDBRANCH   4   5
ENDBRANCH   3   4
ENDBRANCH   2   3
ENDBRANCH   1   2
BRANCH   1  21
ATOM     21  C   UNL     1       5.915   2.435   1.408  1.00  0.00     0.188 C 
BRANCH  21  22
ATOM     22  O   UNL     1       7.162   1.827   1.721  1.00  0.00    -0.377 OA
BRANCH  22  23
ATOM     23  C   UNL     1       7.856   2.219   2.897  1.00  0.00     0.188 C 
BRANCH  23  24
ATOM     24  C   UNL     1       7.812   3.692   3.364  1.00  0.00     0.188 C 
BRANCH  24  25
ATOM     25  O   UNL     1       7.069   4.559   2.524  1.00  0.00    -0.376 OA
BRANCH  25  26
ATOM     26  C   UNL     1       7.785   5.442   1.679  1.00  0.00     0.202 C 
BRANCH  26  27
ATOM     27  C   UNL     1       8.719   4.826   0.627  1.00  0.00     0.261 C 
BRANCH  27  28
ATOM     28  O   UNL     1       9.685   3.880   1.110  1.00  0.00    -0.460 OA
BRANCH  28  29
ATOM     29  C   UNL     1      10.641   4.337   1.944  1.00  0.00     0.338 C 
ATOM     30  O   UNL     1      10.796   5.482   2.336  1.00  0.00    -0.246 OA
BRANCH  29  31
ATOM     31  C   UNL     1      11.370   3.164   2.466  1.00  0.00     0.060 A 
ATOM     32  C   UNL     1      11.339   2.896   3.841  1.00  0.00     0.016 A 
ATOM     33  C   UNL     1      12.060   2.319   1.594  1.00  0.00     0.016 A 
ATOM     34  C   UNL     1      12.019   1.791   4.351  1.00  0.00     0.010 A 
ATOM     35  C   UNL     1      12.764   1.229   2.110  1.00  0.00     0.010 A 
ATOM     36  C   UNL     1      12.771   0.978   3.493  1.00  0.00    -0.014 A 
BRANCH  36  37
ATOM     37  C   UNL     1      13.713  -0.013   4.064  1.00  0.00     0.031 A 
ATOM     38  C   UNL     1      15.160   0.373   4.200  1.00  0.00     0.074 A 
ATOM     39  C   UNL     1      13.292  -1.219   4.482  1.00  0.00     0.049 A 
ATOM     40  N   UNL     1      16.169  -0.329   4.647  1.00  0.00    -0.248 NA
ATOM     41  C   UNL     1      15.515   1.736   3.771  1.00  0.00     0.031 C 
ATOM     42  C   UNL     1      11.910  -1.695   4.450  1.00  0.00     0.029 A 
ATOM     43  N   UNL     1      13.998  -2.268   5.016  1.00  0.00    -0.354 N 
ATOM     44  C   UNL     1      17.277   0.504   4.547  1.00  0.00     0.074 A 
ATOM     45  C   UNL     1      16.824   1.749   3.967  1.00  0.00     0.031 C 
ATOM     46  C   UNL     1      11.870  -2.946   4.940  1.00  0.00     0.029 A 
ATOM     47  C   UNL     1      13.226  -3.371   5.285  1.00  0.00     0.049 A 
ATOM     48  H   UNL     1      14.967  -2.232   5.191  1.00  0.00     0.167 HD
ATOM     49  C   UNL     1      18.557   0.256   4.910  1.00  0.00     0.031 A 
ATOM     50  C   UNL     1      13.579  -4.590   5.738  1.00  0.00     0.031 A 
ATOM     51  C   UNL     1      19.012  -0.990   5.467  1.00  0.00     0.049 A 
ATOM     52  C   UNL     1      15.027  -4.871   6.049  1.00  0.00     0.074 A 
ATOM     53  C   UNL     1      20.287  -1.335   5.878  1.00  0.00     0.029 A 
ATOM     54  N   UNL     1      18.208  -2.100   5.677  1.00  0.00    -0.354 N 
ATOM     55  N   UNL     1      16.062  -4.068   5.980  1.00  0.00    -0.248 NA
ATOM     56  C   UNL     1      15.351  -6.229   6.510  1.00  0.00     0.031 C 
ATOM     57  C   UNL     1      20.269  -2.677   6.273  1.00  0.00     0.029 A 
ATOM     58  C   UNL     1      18.967  -3.143   6.179  1.00  0.00     0.049 A 
ATOM     59  H   UNL     1      17.241  -2.140   5.496  1.00  0.00     0.167 HD
ATOM     60  C   UNL     1      17.152  -4.814   6.415  1.00  0.00     0.074 A 
ATOM     61  C   UNL     1      16.647  -6.125   6.766  1.00  0.00     0.031 C 
ATOM     62  C   UNL     1      18.453  -4.446   6.517  1.00  0.00     0.031 A 
BRANCH  49  63
ATOM     63  C   UNL     1      19.566   1.347   4.673  1.00  0.00    -0.014 A 
ATOM     64  C   UNL     1      19.554   2.533   5.424  1.00  0.00     0.009 A 
ATOM     65  C   UNL     1      20.560   1.171   3.698  1.00  0.00     0.009 A 
ATOM     66  C   UNL     1      20.496   3.535   5.178  1.00  0.00     0.001 A 
ATOM     67  C   UNL     1      21.520   2.159   3.477  1.00  0.00     0.001 A 
ATOM     68  C   UNL     1      21.481   3.345   4.209  1.00  0.00     0.000 A 
ENDBRANCH  49  63
BRANCH  50  69
ATOM     69  C   UNL     1      12.552  -5.654   5.904  1.00  0.00    -0.014 A 
ATOM     70  C   UNL     1      12.219  -6.140   7.177  1.00  0.00     0.009 A 
ATOM     71  C   UNL     1      11.920  -6.212   4.781  1.00  0.00     0.009 A 
ATOM     72  C   UNL     1      11.298  -7.181   7.320  1.00  0.00     0.001 A 
ATOM     73  C   UNL     1      10.976  -7.230   4.928  1.00  0.00     0.001 A 
ATOM     74  C   UNL     1      10.674  -7.721   6.197  1.00  0.00     0.000 A 
ENDBRANCH  50  69
BRANCH  62  75
ATOM     75  C   UNL     1      19.418  -5.465   7.063  1.00  0.00    -0.014 A 
ATOM     76  C   UNL     1      19.770  -6.609   6.330  1.00  0.00     0.009 A 
ATOM     77  C   UNL     1      20.008  -5.258   8.320  1.00  0.00     0.009 A 
ATOM     78  C   UNL     1      20.658  -7.546   6.864  1.00  0.00     0.001 A 
ATOM     79  C   UNL     1      20.923  -6.177   8.836  1.00  0.00     0.001 A 
ATOM     80  C   UNL     1      21.237  -7.326   8.114  1.00  0.00     0.000 A 
ENDBRANCH  62  75
ENDBRANCH  36  37
ENDBRANCH  29  31
ENDBRANCH  28  29
ENDBRANCH  27  28
ENDBRANCH  26  27
ENDBRANCH  25  26
ENDBRANCH  24  25
ENDBRANCH  23  24
ENDBRANCH  22  23
ENDBRANCH  21  22
ENDBRANCH   1  21
TORSDOF 25
