REMARK SMILES Cc1ccc(CNc2ccc(C(=O)OCCOCCOCCOCCOC(=O)c3ccc(-c4c5nc(c(-c6ccccc6)c6ccc([nH]6)c(-c6ccccc6)c6nc(c(-c7ccccc7)c7ccc4[nH]7)C=C6)C=C5)cc3)cc2Br)cc1
REMARK SMILES IDX 19 1 18 2 17 3 16 4 15 5 14 6 12 7 13 8 11 9 8 10 9 11 78 12
REMARK SMILES IDX 10 13 77 14 79 15 7 16 6 18 5 19 1 20 2 21 3 22 81 23 4 24
REMARK SMILES IDX 80 25 20 26 21 27 22 28 23 29 24 30 25 31 26 32 27 33 28 34
REMARK SMILES IDX 29 35 30 36 76 37 31 38 75 39 32 40 33 41 34 42 69 43 35 44
REMARK SMILES IDX 74 45 68 46 70 47 36 48 73 49 67 50 66 51 37 53 59 54 44 55
REMARK SMILES IDX 58 56 45 57 48 58 57 59 71 60 46 61 47 62 56 64 72 65 49 66
REMARK SMILES IDX 38 67 39 68 43 69 40 70 42 71 41 72 60 73 61 74 65 75 62 76
REMARK SMILES IDX 64 77 63 78 50 79 51 80 55 81 52 82 54 83 53 84
REMARK H PARENT 7 17 70 52 48 63
REMARK Flexibility Score: inf
ROOT
ATOM      1  C   UNL     1      -9.803  -3.082  -1.954  1.00  0.00     0.188 C 
ENDROOT
BRANCH   1   2
ATOM      2  C   UNL     1     -10.087  -4.642  -1.866  1.00  0.00     0.188 C 
BRANCH   2   3
ATOM      3  O   UNL     1     -10.421  -5.325  -0.539  1.00  0.00    -0.376 OA
BRANCH   3   4
ATOM      4  C   UNL     1      -9.788  -6.545   0.279  1.00  0.00     0.202 C 
BRANCH   4   5
ATOM      5  C   UNL     1      -8.169  -7.273   0.768  1.00  0.00     0.261 C 
BRANCH   5   6
ATOM      6  O   UNL     1      -6.443  -7.136   0.183  1.00  0.00    -0.460 OA
BRANCH   6   7
ATOM      7  C   UNL     1      -5.387  -6.621  -0.851  1.00  0.00     0.338 C 
ATOM      8  O   UNL     1      -4.589  -7.462  -1.292  1.00  0.00    -0.246 OA
BRANCH   7   9
ATOM      9  C   UNL     1      -4.957  -5.099  -1.421  1.00  0.00     0.061 A 
ATOM     10  C   UNL     1      -3.728  -2.469  -1.874  1.00  0.00     0.049 A 
ATOM     11  C   UNL     1      -5.048  -2.591  -1.526  1.00  0.00     0.028 A 
ATOM     12  C   UNL     1      -3.065  -3.677  -2.160  1.00  0.00     0.042 A 
ATOM     13  C   UNL     1      -5.648  -3.859  -1.452  1.00  0.00     0.018 A 
ATOM     14  C   UNL     1      -3.643  -4.955  -1.892  1.00  0.00     0.033 A 
ATOM     15  Br  UNL     1      -1.332  -3.637  -2.943  1.00  0.00    -0.049 Br
BRANCH  10  16
ATOM     16  N   UNL     1      -3.135  -1.212  -1.890  1.00  0.00    -0.380 N 
ATOM     17  H   UNL     1      -2.730  -0.873  -2.721  1.00  0.00     0.160 HD
BRANCH  16  18
ATOM     18  C   UNL     1      -3.111  -0.387  -0.674  1.00  0.00     0.148 C 
BRANCH  18  19
ATOM     19  C   UNL     1      -1.665  -0.197  -0.268  1.00  0.00    -0.029 A 
ATOM     20  C   UNL     1       2.613   0.112   0.138  1.00  0.00     0.044 C 
ATOM     21  C   UNL     1       1.117   0.032   0.094  1.00  0.00    -0.051 A 
ATOM     22  C   UNL     1       0.497  -1.218   0.163  1.00  0.00     0.004 A 
ATOM     23  C   UNL     1       0.328   1.176  -0.081  1.00  0.00     0.004 A 
ATOM     24  C   UNL     1      -0.882  -1.326   0.011  1.00  0.00     0.006 A 
ATOM     25  C   UNL     1      -1.055   1.064  -0.261  1.00  0.00     0.006 A 
ENDBRANCH  18  19
ENDBRANCH  16  18
ENDBRANCH  10  16
ENDBRANCH   7   9
ENDBRANCH   6   7
ENDBRANCH   5   6
ENDBRANCH   4   5
ENDBRANCH   3   4
ENDBRANCH   2   3
ENDBRANCH   1   2
BRANCH   1  26
ATOM     26  O   UNL     1     -10.554  -2.305  -2.878  1.00  0.00    -0.377 OA
BRANCH  26  27
ATOM     27  C   UNL     1     -11.934  -2.607  -2.882  1.00  0.00     0.188 C 
BRANCH  27  28
ATOM     28  C   UNL     1     -12.287  -3.678  -3.920  1.00  0.00     0.188 C 
BRANCH  28  29
ATOM     29  O   UNL     1     -11.150  -4.066  -4.696  1.00  0.00    -0.376 OA
BRANCH  29  30
ATOM     30  C   UNL     1     -11.300  -3.983  -6.108  1.00  0.00     0.202 C 
BRANCH  30  31
ATOM     31  C   UNL     1     -12.380  -4.925  -6.661  1.00  0.00     0.261 C 
BRANCH  31  32
ATOM     32  O   UNL     1     -11.992  -6.292  -6.419  1.00  0.00    -0.460 OA
BRANCH  32  33
ATOM     33  C   UNL     1     -12.396  -6.803  -5.238  1.00  0.00     0.338 C 
ATOM     34  O   UNL     1     -13.542  -6.713  -4.773  1.00  0.00    -0.246 OA
BRANCH  33  35
ATOM     35  C   UNL     1     -11.214  -7.243  -4.450  1.00  0.00     0.060 A 
ATOM     36  C   UNL     1     -11.382  -7.723  -3.159  1.00  0.00     0.016 A 
ATOM     37  C   UNL     1      -9.919  -6.924  -4.881  1.00  0.00     0.016 A 
ATOM     38  C   UNL     1     -10.284  -7.711  -2.287  1.00  0.00     0.010 A 
ATOM     39  C   UNL     1      -8.888  -6.740  -3.952  1.00  0.00     0.010 A 
ATOM     40  C   UNL     1      -9.096  -6.997  -2.594  1.00  0.00    -0.014 A 
BRANCH  40  41
ATOM     41  C   UNL     1      -7.944  -6.597  -1.546  1.00  0.00     0.031 A 
ATOM     42  C   UNL     1      -7.261  -8.236  -1.634  1.00  0.00     0.074 A 
ATOM     43  C   UNL     1      -7.720  -5.372  -0.466  1.00  0.00     0.049 A 
ATOM     44  N   UNL     1      -7.179  -9.100  -0.642  1.00  0.00    -0.248 NA
ATOM     45  C   UNL     1      -6.863  -8.928  -2.880  1.00  0.00     0.031 C 
ATOM     46  C   UNL     1      -6.567  -5.002   0.710  1.00  0.00     0.029 A 
ATOM     47  N   UNL     1      -8.553  -4.287   0.146  1.00  0.00    -0.354 N 
ATOM     48  C   UNL     1      -6.192  -9.985  -0.957  1.00  0.00     0.074 A 
ATOM     49  C   UNL     1      -6.293 -10.051  -2.403  1.00  0.00     0.031 C 
ATOM     50  C   UNL     1      -6.884  -4.072   1.607  1.00  0.00     0.029 A 
ATOM     51  C   UNL     1      -8.275  -3.939   1.499  1.00  0.00     0.049 A 
ATOM     52  H   UNL     1      -9.262  -3.834  -0.364  1.00  0.00     0.167 HD
ATOM     53  C   UNL     1      -5.157 -10.298  -0.101  1.00  0.00     0.031 A 
ATOM     54  C   UNL     1      -9.092  -4.078   2.596  1.00  0.00     0.031 A 
ATOM     55  C   UNL     1      -5.035  -9.444   1.134  1.00  0.00     0.049 A 
ATOM     56  C   UNL     1      -8.469  -5.072   3.622  1.00  0.00     0.074 A 
ATOM     57  C   UNL     1      -4.097  -8.464   1.461  1.00  0.00     0.029 A 
ATOM     58  N   UNL     1      -6.027  -9.310   2.124  1.00  0.00    -0.354 N 
ATOM     59  N   UNL     1      -7.551  -5.957   3.309  1.00  0.00    -0.248 NA
ATOM     60  C   UNL     1      -8.817  -5.172   5.034  1.00  0.00     0.031 C 
ATOM     61  C   UNL     1      -4.556  -7.697   2.564  1.00  0.00     0.029 A 
ATOM     62  C   UNL     1      -5.760  -8.225   2.992  1.00  0.00     0.049 A 
ATOM     63  H   UNL     1      -6.812  -9.899   2.203  1.00  0.00     0.167 HD
ATOM     64  C   UNL     1      -7.287  -6.810   4.348  1.00  0.00     0.074 A 
ATOM     65  C   UNL     1      -8.039  -6.199   5.439  1.00  0.00     0.031 C 
ATOM     66  C   UNL     1      -6.521  -7.952   4.233  1.00  0.00     0.031 A 
BRANCH  53  67
ATOM     67  C   UNL     1      -3.979 -11.081  -0.691  1.00  0.00    -0.014 A 
ATOM     68  C   UNL     1      -2.641 -10.771  -0.389  1.00  0.00     0.009 A 
ATOM     69  C   UNL     1      -4.164 -12.124  -1.621  1.00  0.00     0.009 A 
ATOM     70  C   UNL     1      -1.563 -11.346  -1.079  1.00  0.00     0.001 A 
ATOM     71  C   UNL     1      -3.095 -12.677  -2.346  1.00  0.00     0.001 A 
ATOM     72  C   UNL     1      -1.792 -12.271  -2.088  1.00  0.00     0.000 A 
ENDBRANCH  53  67
BRANCH  54  73
ATOM     73  C   UNL     1     -10.564  -3.860   2.380  1.00  0.00    -0.014 A 
ATOM     74  C   UNL     1     -10.964  -2.694   1.689  1.00  0.00     0.009 A 
ATOM     75  C   UNL     1     -11.537  -4.851   2.580  1.00  0.00     0.009 A 
ATOM     76  C   UNL     1     -12.216  -2.602   1.068  1.00  0.00     0.001 A 
ATOM     77  C   UNL     1     -12.782  -4.771   1.931  1.00  0.00     0.001 A 
ATOM     78  C   UNL     1     -13.107  -3.664   1.148  1.00  0.00     0.000 A 
ENDBRANCH  54  73
BRANCH  66  79
ATOM     79  C   UNL     1      -6.251  -8.904   5.380  1.00  0.00    -0.014 A 
ATOM     80  C   UNL     1      -7.133  -9.141   6.439  1.00  0.00     0.009 A 
ATOM     81  C   UNL     1      -5.070  -9.686   5.352  1.00  0.00     0.009 A 
ATOM     82  C   UNL     1      -6.827 -10.070   7.443  1.00  0.00     0.001 A 
ATOM     83  C   UNL     1      -4.785 -10.647   6.322  1.00  0.00     0.001 A 
ATOM     84  C   UNL     1      -5.661 -10.829   7.379  1.00  0.00     0.000 A 
ENDBRANCH  66  79
ENDBRANCH  40  41
ENDBRANCH  33  35
ENDBRANCH  32  33
ENDBRANCH  31  32
ENDBRANCH  30  31
ENDBRANCH  29  30
ENDBRANCH  28  29
ENDBRANCH  27  28
ENDBRANCH  26  27
ENDBRANCH   1  26
TORSDOF 23
