REMARK SMILES CS(=O)(=O)c1ccc(/C=C(/C(=O)OCCOCCOCCOCCOC(=O)c2ccc(-c3c4nc(c(-c5ccccc5)c5ccc([nH]5)c(-c5ccccc5)c5nc(c(-c6ccccc6)c6ccc3[nH]6)C=C5)C=C4)cc2)c2ccc(O)cc2)cc1
REMARK SMILES IDX 19 1 18 2 17 3 16 4 15 5 14 6 13 7 11 8 12 9 10 10 9 11 8 12
REMARK SMILES IDX 5 13 6 14 84 15 7 16 83 17 2 18 1 19 3 20 4 21 76 22 77 23
REMARK SMILES IDX 82 24 78 25 81 26 79 27 80 28 20 30 21 31 22 32 23 33 24 34
REMARK SMILES IDX 25 35 26 36 27 37 28 38 29 39 75 40 30 41 74 42 31 43 32 44
REMARK SMILES IDX 33 45 68 46 34 47 73 48 67 49 69 50 35 51 72 52 66 53 65 54
REMARK SMILES IDX 36 56 58 57 43 58 57 59 44 60 47 61 56 62 70 63 45 64 46 65
REMARK SMILES IDX 55 67 71 68 48 69 37 70 38 71 42 72 39 73 41 74 40 75 59 76
REMARK SMILES IDX 60 77 64 78 61 79 63 80 62 81 49 82 50 83 54 84 51 85 53 86
REMARK SMILES IDX 52 87
REMARK H PARENT 80 29 69 55 47 66
REMARK Flexibility Score: inf
ROOT
ATOM      1  O   UNL     1       0.462   3.881   9.485  1.00  0.00    -0.377 OA
ENDROOT
BRANCH   1   2
ATOM      2  C   UNL     1       0.793   2.519   9.269  1.00  0.00     0.188 C 
BRANCH   2   3
ATOM      3  C   UNL     1       1.940   1.884  10.089  1.00  0.00     0.188 C 
BRANCH   3   4
ATOM      4  O   UNL     1       2.523   2.764  11.036  1.00  0.00    -0.376 OA
BRANCH   4   5
ATOM      5  C   UNL     1       3.823   3.247  10.751  1.00  0.00     0.202 C 
BRANCH   5   6
ATOM      6  C   UNL     1       3.992   4.119   9.497  1.00  0.00     0.261 C 
BRANCH   6   7
ATOM      7  O   UNL     1       3.373   3.624   8.297  1.00  0.00    -0.460 OA
BRANCH   7   8
ATOM      8  C   UNL     1       3.969   2.580   7.670  1.00  0.00     0.338 C 
ATOM      9  O   UNL     1       5.019   2.062   8.015  1.00  0.00    -0.246 OA
BRANCH   8  10
ATOM     10  C   UNL     1       3.087   2.049   6.572  1.00  0.00     0.067 C 
ATOM     11  C   UNL     1       2.388   2.923   5.806  1.00  0.00     0.024 C 
BRANCH  11  12
ATOM     12  C   UNL     1       1.611   2.664   4.568  1.00  0.00    -0.025 A 
ATOM     13  C   UNL     1       0.609   2.144   1.994  1.00  0.00     0.067 A 
ATOM     14  C   UNL     1       0.491   1.178   2.988  1.00  0.00     0.021 A 
ATOM     15  C   UNL     1       1.095   3.414   2.305  1.00  0.00     0.021 A 
ATOM     16  C   UNL     1       0.959   1.458   4.274  1.00  0.00     0.009 A 
ATOM     17  C   UNL     1       1.589   3.670   3.589  1.00  0.00     0.009 A 
BRANCH  13  18
ATOM     18  S   UNL     1       0.215   1.738   0.311  1.00  0.00     0.175 S 
ATOM     19  C   UNL     1       0.990   0.164   0.022  1.00  0.00     0.163 C 
ATOM     20  O   UNL     1       0.897   2.701  -0.534  1.00  0.00    -0.224 OA
ATOM     21  O   UNL     1      -1.221   1.561   0.245  1.00  0.00    -0.224 OA
ENDBRANCH  13  18
ENDBRANCH  11  12
BRANCH  10  22
ATOM     22  C   UNL     1       3.041   0.585   6.370  1.00  0.00    -0.011 A 
ATOM     23  C   UNL     1       2.161  -0.204   7.134  1.00  0.00     0.013 A 
ATOM     24  C   UNL     1       3.762  -0.019   5.335  1.00  0.00     0.013 A 
ATOM     25  C   UNL     1       1.979  -1.556   6.852  1.00  0.00     0.047 A 
ATOM     26  C   UNL     1       3.571  -1.374   5.043  1.00  0.00     0.047 A 
ATOM     27  C   UNL     1       2.673  -2.126   5.796  1.00  0.00     0.115 A 
BRANCH  27  28
ATOM     28  O   UNL     1       2.418  -3.434   5.513  1.00  0.00    -0.508 OA
ATOM     29  H   UNL     1       1.809  -3.917   6.037  1.00  0.00     0.293 HD
ENDBRANCH  27  28
ENDBRANCH  10  22
ENDBRANCH   8  10
ENDBRANCH   7   8
ENDBRANCH   6   7
ENDBRANCH   5   6
ENDBRANCH   4   5
ENDBRANCH   3   4
ENDBRANCH   2   3
ENDBRANCH   1   2
BRANCH   1  30
ATOM     30  C   UNL     1       0.364   4.370  10.817  1.00  0.00     0.188 C 
BRANCH  30  31
ATOM     31  C   UNL     1      -0.035   3.429  11.979  1.00  0.00     0.188 C 
BRANCH  31  32
ATOM     32  O   UNL     1      -0.461   2.137  11.579  1.00  0.00    -0.376 OA
BRANCH  32  33
ATOM     33  C   UNL     1      -1.845   1.845  11.651  1.00  0.00     0.202 C 
BRANCH  33  34
ATOM     34  C   UNL     1      -2.773   2.649  10.731  1.00  0.00     0.261 C 
BRANCH  34  35
ATOM     35  O   UNL     1      -2.676   4.078  10.831  1.00  0.00    -0.460 OA
BRANCH  35  36
ATOM     36  C   UNL     1      -3.026   4.646  12.003  1.00  0.00     0.338 C 
ATOM     37  O   UNL     1      -3.435   4.085  13.007  1.00  0.00    -0.246 OA
BRANCH  36  38
ATOM     38  C   UNL     1      -2.644   6.071  11.933  1.00  0.00     0.060 A 
ATOM     39  C   UNL     1      -1.698   6.573  12.838  1.00  0.00     0.016 A 
ATOM     40  C   UNL     1      -3.197   6.897  10.953  1.00  0.00     0.016 A 
ATOM     41  C   UNL     1      -1.323   7.915  12.782  1.00  0.00     0.010 A 
ATOM     42  C   UNL     1      -2.842   8.247  10.916  1.00  0.00     0.010 A 
ATOM     43  C   UNL     1      -1.929   8.768  11.851  1.00  0.00    -0.014 A 
BRANCH  43  44
ATOM     44  C   UNL     1      -1.778  10.235  11.989  1.00  0.00     0.031 A 
ATOM     45  C   UNL     1      -2.863  10.992  12.704  1.00  0.00     0.074 A 
ATOM     46  C   UNL     1      -0.703  10.883  11.508  1.00  0.00     0.049 A 
ATOM     47  N   UNL     1      -2.986  12.278  12.905  1.00  0.00    -0.248 NA
ATOM     48  C   UNL     1      -3.961  10.185  13.264  1.00  0.00     0.031 C 
ATOM     49  C   UNL     1       0.439  10.258  10.844  1.00  0.00     0.029 A 
ATOM     50  N   UNL     1      -0.406  12.223  11.505  1.00  0.00    -0.354 N 
ATOM     51  C   UNL     1      -4.176  12.435  13.604  1.00  0.00     0.074 A 
ATOM     52  C   UNL     1      -4.754  11.119  13.765  1.00  0.00     0.031 C 
ATOM     53  C   UNL     1       1.311  11.219  10.487  1.00  0.00     0.029 A 
ATOM     54  C   UNL     1       0.770  12.524  10.864  1.00  0.00     0.049 A 
ATOM     55  H   UNL     1      -0.983  12.904  11.922  1.00  0.00     0.167 HD
ATOM     56  C   UNL     1      -4.739  13.573  14.074  1.00  0.00     0.031 A 
ATOM     57  C   UNL     1       1.331  13.719  10.593  1.00  0.00     0.031 A 
ATOM     58  C   UNL     1      -4.175  14.883  13.896  1.00  0.00     0.049 A 
ATOM     59  C   UNL     1       0.639  14.980  11.046  1.00  0.00     0.074 A 
ATOM     60  C   UNL     1      -4.662  16.099  14.343  1.00  0.00     0.029 A 
ATOM     61  N   UNL     1      -3.004  15.149  13.203  1.00  0.00    -0.354 N 
ATOM     62  N   UNL     1      -0.472  15.116  11.729  1.00  0.00    -0.248 NA
ATOM     63  C   UNL     1       1.286  16.253  10.694  1.00  0.00     0.031 C 
ATOM     64  C   UNL     1      -3.820  17.107  13.864  1.00  0.00     0.029 A 
ATOM     65  C   UNL     1      -2.769  16.513  13.183  1.00  0.00     0.049 A 
ATOM     66  H   UNL     1      -2.426  14.470  12.788  1.00  0.00     0.167 HD
ATOM     67  C   UNL     1      -0.638  16.484  11.917  1.00  0.00     0.074 A 
ATOM     68  C   UNL     1       0.494  17.133  11.289  1.00  0.00     0.031 C 
ATOM     69  C   UNL     1      -1.636  17.144  12.555  1.00  0.00     0.031 A 
BRANCH  56  70
ATOM     70  C   UNL     1      -6.056  13.448  14.789  1.00  0.00    -0.014 A 
ATOM     71  C   UNL     1      -6.150  12.847  16.054  1.00  0.00     0.009 A 
ATOM     72  C   UNL     1      -7.218  13.963  14.194  1.00  0.00     0.009 A 
ATOM     73  C   UNL     1      -7.388  12.732  16.692  1.00  0.00     0.001 A 
ATOM     74  C   UNL     1      -8.448  13.876  14.848  1.00  0.00     0.001 A 
ATOM     75  C   UNL     1      -8.534  13.252  16.091  1.00  0.00     0.000 A 
ENDBRANCH  56  70
BRANCH  57  76
ATOM     76  C   UNL     1       2.608  13.792   9.832  1.00  0.00    -0.014 A 
ATOM     77  C   UNL     1       3.783  14.255  10.444  1.00  0.00     0.009 A 
ATOM     78  C   UNL     1       2.650  13.429   8.477  1.00  0.00     0.009 A 
ATOM     79  C   UNL     1       4.964  14.380   9.708  1.00  0.00     0.001 A 
ATOM     80  C   UNL     1       3.840  13.523   7.752  1.00  0.00     0.001 A 
ATOM     81  C   UNL     1       4.993  14.009   8.364  1.00  0.00     0.000 A 
ENDBRANCH  57  76
BRANCH  69  82
ATOM     82  C   UNL     1      -1.528  18.642  12.651  1.00  0.00    -0.014 A 
ATOM     83  C   UNL     1      -1.694  19.466  11.527  1.00  0.00     0.009 A 
ATOM     84  C   UNL     1      -1.303  19.240  13.902  1.00  0.00     0.009 A 
ATOM     85  C   UNL     1      -1.600  20.854  11.648  1.00  0.00     0.001 A 
ATOM     86  C   UNL     1      -1.244  20.629  14.026  1.00  0.00     0.001 A 
ATOM     87  C   UNL     1      -1.382  21.434  12.897  1.00  0.00     0.000 A 
ENDBRANCH  69  82
ENDBRANCH  43  44
ENDBRANCH  36  38
ENDBRANCH  35  36
ENDBRANCH  34  35
ENDBRANCH  33  34
ENDBRANCH  32  33
ENDBRANCH  31  32
ENDBRANCH  30  31
ENDBRANCH   1  30
TORSDOF 24
