REMARK SMILES NC(=O)c1c(-c2ccc(Cl)cc2)csc1NC(=O)[C@H]1[C@@H](C(=O)OCCOCCOCCOCCOC(=O)c2ccc(-c3c4nc(c(-c5ccccc5)c5ccc([nH]5)c(-c5ccccc5)c5nc(c(-c6ccccc6)c6ccc3[nH]6)C=C5)C=C4)cc2)[C@@H]2CC[C@H]1O2
REMARK SMILES IDX 28 1 27 2 26 3 25 4 24 5 23 6 21 7 22 8 20 9 19 10 89 11
REMARK SMILES IDX 86 12 88 13 90 14 87 15 17 16 16 17 18 19 15 20 4 21 5 22
REMARK SMILES IDX 13 23 14 24 2 25 1 26 3 29 6 30 7 31 12 32 8 33 11 34 9 35
REMARK SMILES IDX 10 36 29 37 30 38 31 39 32 40 33 41 34 42 35 43 36 44 37 45
REMARK SMILES IDX 38 46 39 47 85 48 40 49 84 50 41 51 42 52 43 53 78 54 44 55
REMARK SMILES IDX 83 56 77 57 79 58 45 59 82 60 76 61 75 62 46 64 68 65 53 66
REMARK SMILES IDX 67 67 54 68 57 69 66 70 80 71 55 72 56 73 65 75 81 76 58 77
REMARK SMILES IDX 47 78 48 79 52 80 49 81 51 82 50 83 69 84 70 85 74 86 71 87
REMARK SMILES IDX 73 88 72 89 59 90 60 91 64 92 61 93 63 94 62 95
REMARK H PARENT 16 18 1 27 1 28 79 63 57 74
REMARK Flexibility Score: inf
ROOT
ATOM      1  C   UNL     1       1.522  -9.239  -1.552  1.00  0.00     0.188 C 
ENDROOT
BRANCH   1   2
ATOM      2  C   UNL     1       2.890  -9.312  -0.853  1.00  0.00     0.188 C 
BRANCH   2   3
ATOM      3  O   UNL     1       2.714  -9.191   0.563  1.00  0.00    -0.376 OA
BRANCH   3   4
ATOM      4  C   UNL     1       3.894  -9.442   1.328  1.00  0.00     0.202 C 
BRANCH   4   5
ATOM      5  C   UNL     1       3.560  -9.896   2.763  1.00  0.00     0.261 C 
BRANCH   5   6
ATOM      6  O   UNL     1       2.430  -9.204   3.321  1.00  0.00    -0.463 OA
BRANCH   6   7
ATOM      7  C   UNL     1       2.677  -7.980   3.837  1.00  0.00     0.312 C 
ATOM      8  O   UNL     1       3.806  -7.546   4.020  1.00  0.00    -0.252 OA
BRANCH   7   9
ATOM      9  C   UNL     1       1.375  -7.295   4.255  1.00  0.00     0.143 C 
ATOM     10  C   UNL     1       0.447  -6.813   3.120  1.00  0.00     0.124 C 
ATOM     11  C   UNL     1       0.825  -5.300   3.052  1.00  0.00     0.132 C 
ATOM     12  C   UNL     1       1.748  -5.959   4.903  1.00  0.00     0.133 C 
ATOM     13  C   UNL     1       0.019  -4.522   4.089  1.00  0.00     0.035 C 
ATOM     14  O   UNL     1       2.109  -5.218   3.716  1.00  0.00    -0.373 OA
ATOM     15  C   UNL     1       0.517  -5.172   5.386  1.00  0.00     0.036 C 
BRANCH  10  16
ATOM     16  C   UNL     1       0.525  -7.503   1.769  1.00  0.00     0.231 C 
ATOM     17  N   UNL     1       0.280  -8.840   1.600  1.00  0.00    -0.317 N 
ATOM     18  H   UNL     1       0.565  -9.167   0.717  1.00  0.00     0.170 HD
ATOM     19  O   UNL     1       0.800  -6.842   0.760  1.00  0.00    -0.274 OA
BRANCH  17  20
ATOM     20  C   UNL     1      -0.274  -9.837   2.380  1.00  0.00     0.108 A 
ATOM     21  C   UNL     1      -0.121 -11.212   2.230  1.00  0.00     0.082 A 
ATOM     22  C   UNL     1      -0.869 -11.920   3.240  1.00  0.00     0.007 A 
ATOM     23  C   UNL     1      -1.627 -11.086   4.027  1.00  0.00     0.076 A 
ATOM     24  S   UNL     1      -1.406  -9.451   3.590  1.00  0.00    -0.125 S 
BRANCH  21  25
ATOM     25  C   UNL     1       0.730 -11.923   1.270  1.00  0.00     0.252 C 
ATOM     26  N   UNL     1       0.109 -12.876   0.512  1.00  0.00    -0.365 N 
ATOM     27  H   UNL     1       0.623 -13.389  -0.151  1.00  0.00     0.159 HD
ATOM     28  H   UNL     1      -0.853 -13.048   0.630  1.00  0.00     0.159 HD
ATOM     29  O   UNL     1       1.951 -11.810   1.185  1.00  0.00    -0.269 OA
ENDBRANCH  21  25
BRANCH  22  30
ATOM     30  C   UNL     1      -0.852 -13.363   3.387  1.00  0.00    -0.017 A 
ATOM     31  C   UNL     1      -1.859 -14.111   2.776  1.00  0.00     0.010 A 
ATOM     32  C   UNL     1       0.296 -14.003   3.866  1.00  0.00     0.010 A 
ATOM     33  C   UNL     1      -1.728 -15.492   2.640  1.00  0.00     0.021 A 
ATOM     34  C   UNL     1       0.434 -15.385   3.720  1.00  0.00     0.021 A 
ATOM     35  C   UNL     1      -0.577 -16.123   3.106  1.00  0.00     0.041 A 
ATOM     36  Cl  UNL     1      -0.382 -17.813   2.862  1.00  0.00    -0.084 Cl
ENDBRANCH  22  30
ENDBRANCH  17  20
ENDBRANCH  10  16
ENDBRANCH   7   9
ENDBRANCH   6   7
ENDBRANCH   5   6
ENDBRANCH   4   5
ENDBRANCH   3   4
ENDBRANCH   2   3
ENDBRANCH   1   2
BRANCH   1  37
ATOM     37  O   UNL     1       0.667 -10.203  -0.928  1.00  0.00    -0.377 OA
BRANCH  37  38
ATOM     38  C   UNL     1      -0.621 -10.353  -1.512  1.00  0.00     0.188 C 
BRANCH  38  39
ATOM     39  C   UNL     1      -0.536 -11.096  -2.840  1.00  0.00     0.188 C 
BRANCH  39  40
ATOM     40  O   UNL     1      -0.686 -10.153  -3.900  1.00  0.00    -0.376 OA
BRANCH  40  41
ATOM     41  C   UNL     1      -1.986 -10.144  -4.497  1.00  0.00     0.202 C 
BRANCH  41  42
ATOM     42  C   UNL     1      -3.137  -9.717  -3.566  1.00  0.00     0.261 C 
BRANCH  42  43
ATOM     43  O   UNL     1      -3.482 -10.663  -2.526  1.00  0.00    -0.460 OA
BRANCH  43  44
ATOM     44  C   UNL     1      -3.986 -11.846  -2.935  1.00  0.00     0.338 C 
ATOM     45  O   UNL     1      -4.108 -12.236  -4.090  1.00  0.00    -0.246 OA
BRANCH  44  46
ATOM     46  C   UNL     1      -4.339 -12.677  -1.772  1.00  0.00     0.060 A 
ATOM     47  C   UNL     1      -3.662 -13.883  -1.564  1.00  0.00     0.016 A 
ATOM     48  C   UNL     1      -5.450 -12.346  -0.989  1.00  0.00     0.016 A 
ATOM     49  C   UNL     1      -4.131 -14.783  -0.601  1.00  0.00     0.010 A 
ATOM     50  C   UNL     1      -5.930 -13.259  -0.040  1.00  0.00     0.010 A 
ATOM     51  C   UNL     1      -5.300 -14.500   0.131  1.00  0.00    -0.014 A 
BRANCH  51  52
ATOM     52  C   UNL     1      -5.958 -15.594   0.898  1.00  0.00     0.031 A 
ATOM     53  C   UNL     1      -6.782 -16.602   0.146  1.00  0.00     0.074 A 
ATOM     54  C   UNL     1      -5.802 -15.732   2.227  1.00  0.00     0.049 A 
ATOM     55  N   UNL     1      -7.377 -17.679   0.591  1.00  0.00    -0.248 NA
ATOM     56  C   UNL     1      -6.989 -16.343  -1.288  1.00  0.00     0.031 C 
ATOM     57  C   UNL     1      -5.092 -14.801   3.089  1.00  0.00     0.029 A 
ATOM     58  N   UNL     1      -6.180 -16.745   3.075  1.00  0.00    -0.354 N 
ATOM     59  C   UNL     1      -8.063 -18.203  -0.496  1.00  0.00     0.074 A 
ATOM     60  C   UNL     1      -7.784 -17.347  -1.629  1.00  0.00     0.031 C 
ATOM     61  C   UNL     1      -4.938 -15.354   4.305  1.00  0.00     0.029 A 
ATOM     62  C   UNL     1      -5.638 -16.634   4.336  1.00  0.00     0.049 A 
ATOM     63  H   UNL     1      -6.780 -17.478   2.807  1.00  0.00     0.167 HD
ATOM     64  C   UNL     1      -8.890 -19.273  -0.539  1.00  0.00     0.031 A 
ATOM     65  C   UNL     1      -5.706 -17.468   5.393  1.00  0.00     0.031 A 
ATOM     66  C   UNL     1      -9.215 -20.099   0.590  1.00  0.00     0.049 A 
ATOM     67  C   UNL     1      -6.590 -18.684   5.305  1.00  0.00     0.074 A 
ATOM     68  C   UNL     1     -10.096 -21.165   0.656  1.00  0.00     0.029 A 
ATOM     69  N   UNL     1      -8.674 -19.948   1.856  1.00  0.00    -0.354 N 
ATOM     70  N   UNL     1      -7.250 -19.154   4.276  1.00  0.00    -0.248 NA
ATOM     71  C   UNL     1      -6.782 -19.453   6.546  1.00  0.00     0.031 C 
ATOM     72  C   UNL     1     -10.114 -21.635   1.974  1.00  0.00     0.029 A 
ATOM     73  C   UNL     1      -9.210 -20.892   2.714  1.00  0.00     0.049 A 
ATOM     74  H   UNL     1      -8.007 -19.269   2.108  1.00  0.00     0.167 HD
ATOM     75  C   UNL     1      -7.959 -20.251   4.751  1.00  0.00     0.074 A 
ATOM     76  C   UNL     1      -7.601 -20.414   6.144  1.00  0.00     0.031 C 
ATOM     77  C   UNL     1      -8.855 -21.031   4.100  1.00  0.00     0.031 A 
BRANCH  64  78
ATOM     78  C   UNL     1      -9.569 -19.548  -1.847  1.00  0.00    -0.014 A 
ATOM     79  C   UNL     1      -8.882 -20.145  -2.915  1.00  0.00     0.009 A 
ATOM     80  C   UNL     1     -10.917 -19.194  -2.011  1.00  0.00     0.009 A 
ATOM     81  C   UNL     1      -9.529 -20.357  -4.134  1.00  0.00     0.001 A 
ATOM     82  C   UNL     1     -11.566 -19.426  -3.224  1.00  0.00     0.001 A 
ATOM     83  C   UNL     1     -10.869 -19.999  -4.287  1.00  0.00     0.000 A 
ENDBRANCH  64  78
BRANCH  65  84
ATOM     84  C   UNL     1      -4.960 -17.186   6.649  1.00  0.00    -0.014 A 
ATOM     85  C   UNL     1      -3.932 -18.049   7.066  1.00  0.00     0.009 A 
ATOM     86  C   UNL     1      -5.303 -16.101   7.469  1.00  0.00     0.009 A 
ATOM     87  C   UNL     1      -3.284 -17.845   8.287  1.00  0.00     0.001 A 
ATOM     88  C   UNL     1      -4.630 -15.881   8.674  1.00  0.00     0.001 A 
ATOM     89  C   UNL     1      -3.630 -16.759   9.088  1.00  0.00     0.000 A 
ENDBRANCH  65  84
BRANCH  77  90
ATOM     90  C   UNL     1      -9.524 -22.114   4.895  1.00  0.00    -0.014 A 
ATOM     91  C   UNL     1     -10.529 -21.805   5.826  1.00  0.00     0.009 A 
ATOM     92  C   UNL     1      -9.183 -23.457   4.680  1.00  0.00     0.009 A 
ATOM     93  C   UNL     1     -11.159 -22.819   6.548  1.00  0.00     0.001 A 
ATOM     94  C   UNL     1      -9.830 -24.471   5.388  1.00  0.00     0.001 A 
ATOM     95  C   UNL     1     -10.812 -24.151   6.326  1.00  0.00     0.000 A 
ENDBRANCH  77  90
ENDBRANCH  51  52
ENDBRANCH  44  46
ENDBRANCH  43  44
ENDBRANCH  42  43
ENDBRANCH  41  42
ENDBRANCH  40  41
ENDBRANCH  39  40
ENDBRANCH  38  39
ENDBRANCH  37  38
ENDBRANCH   1  37
TORSDOF 24
