REMARK SMILES CC[C@@H]1CCCN1C(=O)N(CC(=O)OCCOCCOCCOCCOC(=O)c1ccc(-c2c3nc(c(-c4ccccc4)c4ccc([nH]4)c(-c4ccccc4)c4nc(c(-c5ccccc5)c5ccc2[nH]5)C=C4)C=C3)cc1)CC(F)(F)F
REMARK SMILES IDX 19 1 18 2 17 3 16 4 15 5 14 6 12 7 13 8 11 9 10 10 8 11 9 12
REMARK SMILES IDX 7 13 3 14 4 15 5 16 6 17 2 18 1 19 77 20 78 21 79 22 80 23
REMARK SMILES IDX 81 24 20 25 21 26 22 27 23 28 24 29 25 30 26 31 27 32 28 33
REMARK SMILES IDX 29 34 30 35 76 36 31 37 75 38 32 39 33 40 34 41 69 42 35 43
REMARK SMILES IDX 74 44 68 45 70 46 36 47 73 48 67 49 66 50 37 52 59 53 44 54
REMARK SMILES IDX 58 55 45 56 48 57 57 58 71 59 46 60 47 61 56 63 72 64 49 65
REMARK SMILES IDX 38 66 39 67 43 68 40 69 42 70 41 71 60 72 61 73 65 74 62 75
REMARK SMILES IDX 64 76 63 77 50 78 51 79 55 80 52 81 54 82 53 83
REMARK H PARENT 70 51 48 62
REMARK Flexibility Score: inf
ROOT
ATOM      1  C   UNL     1      -2.453   1.482   3.949  1.00  0.00     0.188 C 
ENDROOT
BRANCH   1   2
ATOM      2  C   UNL     1      -2.594  -0.050   3.985  1.00  0.00     0.188 C 
BRANCH   2   3
ATOM      3  O   UNL     1      -1.565  -0.870   4.527  1.00  0.00    -0.376 OA
BRANCH   3   4
ATOM      4  C   UNL     1      -0.220  -0.422   4.576  1.00  0.00     0.202 C 
BRANCH   4   5
ATOM      5  C   UNL     1       0.490  -0.038   3.266  1.00  0.00     0.261 C 
BRANCH   5   6
ATOM      6  O   UNL     1      -0.151   0.955   2.433  1.00  0.00    -0.462 OA
BRANCH   6   7
ATOM      7  C   UNL     1      -0.871   0.489   1.379  1.00  0.00     0.325 C 
ATOM      8  O   UNL     1      -1.047  -0.704   1.141  1.00  0.00    -0.250 OA
BRANCH   7   9
ATOM      9  C   UNL     1      -1.484   1.586   0.467  1.00  0.00     0.244 C 
BRANCH   9  10
ATOM     10  N   UNL     1      -1.286   3.027   0.666  1.00  0.00    -0.304 N 
BRANCH  10  11
ATOM     11  C   UNL     1      -0.334   3.850   0.130  1.00  0.00     0.321 C 
ATOM     12  O   UNL     1      -0.555   5.069   0.230  1.00  0.00    -0.248 OA
BRANCH  11  13
ATOM     13  N   UNL     1       0.815   3.472  -0.509  1.00  0.00    -0.322 N 
ATOM     14  C   UNL     1       1.502   2.252  -1.021  1.00  0.00     0.086 C 
ATOM     15  C   UNL     1       2.958   2.729  -1.153  1.00  0.00     0.027 C 
ATOM     16  C   UNL     1       2.816   4.127  -1.694  1.00  0.00     0.024 C 
ATOM     17  C   UNL     1       1.593   4.639  -0.966  1.00  0.00     0.122 C 
BRANCH  14  18
ATOM     18  C   UNL     1       1.484   0.957  -0.231  1.00  0.00     0.022 C 
ATOM     19  C   UNL     1       2.434  -0.149  -0.664  1.00  0.00     0.006 C 
ENDBRANCH  14  18
ENDBRANCH  11  13
ENDBRANCH  10  11
BRANCH  10  20
ATOM     20  C   UNL     1      -2.461   3.771   1.230  1.00  0.00     0.237 C 
BRANCH  20  21
ATOM     21  C   UNL     1      -2.226   4.831   2.333  1.00  0.00     0.406 C 
ATOM     22  F   UNL     1      -2.254   6.099   1.865  1.00  0.00    -0.169 F 
ATOM     23  F   UNL     1      -3.246   4.753   3.235  1.00  0.00    -0.169 F 
ATOM     24  F   UNL     1      -1.085   4.648   3.026  1.00  0.00    -0.169 F 
ENDBRANCH  20  21
ENDBRANCH  10  20
ENDBRANCH   9  10
ENDBRANCH   7   9
ENDBRANCH   6   7
ENDBRANCH   5   6
ENDBRANCH   4   5
ENDBRANCH   3   4
ENDBRANCH   2   3
ENDBRANCH   1   2
BRANCH   1  25
ATOM     25  O   UNL     1      -1.378   2.001   4.697  1.00  0.00    -0.377 OA
BRANCH  25  26
ATOM     26  C   UNL     1      -1.667   2.472   6.000  1.00  0.00     0.188 C 
BRANCH  26  27
ATOM     27  C   UNL     1      -2.724   1.704   6.811  1.00  0.00     0.188 C 
BRANCH  27  28
ATOM     28  O   UNL     1      -3.936   1.481   6.103  1.00  0.00    -0.376 OA
BRANCH  28  29
ATOM     29  C   UNL     1      -5.034   2.364   6.254  1.00  0.00     0.202 C 
BRANCH  29  30
ATOM     30  C   UNL     1      -4.907   3.843   5.849  1.00  0.00     0.261 C 
BRANCH  30  31
ATOM     31  O   UNL     1      -3.764   4.565   6.320  1.00  0.00    -0.460 OA
BRANCH  31  32
ATOM     32  C   UNL     1      -3.633   4.731   7.649  1.00  0.00     0.338 C 
ATOM     33  O   UNL     1      -4.412   4.361   8.514  1.00  0.00    -0.246 OA
BRANCH  32  34
ATOM     34  C   UNL     1      -2.279   5.263   7.919  1.00  0.00     0.060 A 
ATOM     35  C   UNL     1      -1.428   4.525   8.752  1.00  0.00     0.016 A 
ATOM     36  C   UNL     1      -1.852   6.477   7.373  1.00  0.00     0.016 A 
ATOM     37  C   UNL     1      -0.176   5.030   9.100  1.00  0.00     0.010 A 
ATOM     38  C   UNL     1      -0.608   6.998   7.746  1.00  0.00     0.010 A 
ATOM     39  C   UNL     1       0.209   6.300   8.654  1.00  0.00    -0.014 A 
BRANCH  39  40
ATOM     40  C   UNL     1       1.316   6.992   9.357  1.00  0.00     0.031 A 
ATOM     41  C   UNL     1       0.958   7.924  10.485  1.00  0.00     0.074 A 
ATOM     42  C   UNL     1       2.605   6.754   9.063  1.00  0.00     0.049 A 
ATOM     43  N   UNL     1       1.737   8.630  11.264  1.00  0.00    -0.248 NA
ATOM     44  C   UNL     1      -0.479   8.072  10.776  1.00  0.00     0.031 C 
ATOM     45  C   UNL     1       3.086   5.824   8.044  1.00  0.00     0.029 A 
ATOM     46  N   UNL     1       3.749   7.279   9.612  1.00  0.00    -0.354 N 
ATOM     47  C   UNL     1       0.886   9.308  12.129  1.00  0.00     0.074 A 
ATOM     48  C   UNL     1      -0.467   8.960  11.757  1.00  0.00     0.031 C 
ATOM     49  C   UNL     1       4.431   5.843   8.041  1.00  0.00     0.029 A 
ATOM     50  C   UNL     1       4.902   6.809   9.033  1.00  0.00     0.049 A 
ATOM     51  H   UNL     1       3.743   7.930  10.350  1.00  0.00     0.167 HD
ATOM     52  C   UNL     1       1.198  10.142  13.149  1.00  0.00     0.031 A 
ATOM     53  C   UNL     1       6.187   7.136   9.270  1.00  0.00     0.031 A 
ATOM     54  C   UNL     1       2.541  10.512  13.502  1.00  0.00     0.049 A 
ATOM     55  C   UNL     1       6.508   8.149  10.339  1.00  0.00     0.074 A 
ATOM     56  C   UNL     1       2.966  11.357  14.512  1.00  0.00     0.029 A 
ATOM     57  N   UNL     1       3.679  10.066  12.846  1.00  0.00    -0.354 N 
ATOM     58  N   UNL     1       5.698   8.777  11.159  1.00  0.00    -0.248 NA
ATOM     59  C   UNL     1       7.927   8.488  10.523  1.00  0.00     0.031 C 
ATOM     60  C   UNL     1       4.358  11.472  14.426  1.00  0.00     0.029 A 
ATOM     61  C   UNL     1       4.805  10.639  13.413  1.00  0.00     0.049 A 
ATOM     62  H   UNL     1       3.684   9.436  12.090  1.00  0.00     0.167 HD
ATOM     63  C   UNL     1       6.511   9.551  11.979  1.00  0.00     0.074 A 
ATOM     64  C   UNL     1       7.877   9.306  11.565  1.00  0.00     0.031 C 
ATOM     65  C   UNL     1       6.159  10.384  12.991  1.00  0.00     0.031 A 
BRANCH  52  66
ATOM     66  C   UNL     1       0.053  10.746  13.915  1.00  0.00    -0.014 A 
ATOM     67  C   UNL     1      -0.769   9.965  14.745  1.00  0.00     0.009 A 
ATOM     68  C   UNL     1      -0.208  12.120  13.804  1.00  0.00     0.009 A 
ATOM     69  C   UNL     1      -1.855  10.540  15.409  1.00  0.00     0.001 A 
ATOM     70  C   UNL     1      -1.273  12.699  14.496  1.00  0.00     0.001 A 
ATOM     71  C   UNL     1      -2.103  11.907  15.287  1.00  0.00     0.000 A 
ENDBRANCH  52  66
BRANCH  53  72
ATOM     72  C   UNL     1       7.276   6.508   8.475  1.00  0.00    -0.014 A 
ATOM     73  C   UNL     1       8.190   5.630   9.078  1.00  0.00     0.009 A 
ATOM     74  C   UNL     1       7.424   6.805   7.111  1.00  0.00     0.009 A 
ATOM     75  C   UNL     1       9.242   5.083   8.339  1.00  0.00     0.001 A 
ATOM     76  C   UNL     1       8.457   6.232   6.367  1.00  0.00     0.001 A 
ATOM     77  C   UNL     1       9.371   5.380   6.983  1.00  0.00     0.000 A 
ENDBRANCH  53  72
BRANCH  65  78
ATOM     78  C   UNL     1       7.270  11.046  13.762  1.00  0.00    -0.014 A 
ATOM     79  C   UNL     1       8.069  12.049  13.194  1.00  0.00     0.009 A 
ATOM     80  C   UNL     1       7.492  10.680  15.100  1.00  0.00     0.009 A 
ATOM     81  C   UNL     1       9.095  12.640  13.936  1.00  0.00     0.001 A 
ATOM     82  C   UNL     1       8.493  11.297  15.851  1.00  0.00     0.001 A 
ATOM     83  C   UNL     1       9.302  12.268  15.264  1.00  0.00     0.000 A 
ENDBRANCH  65  78
ENDBRANCH  39  40
ENDBRANCH  32  34
ENDBRANCH  31  32
ENDBRANCH  30  31
ENDBRANCH  29  30
ENDBRANCH  28  29
ENDBRANCH  27  28
ENDBRANCH  26  27
ENDBRANCH  25  26
ENDBRANCH   1  25
TORSDOF 26
