REMARK SMILES C[C@]([NH2+]Cc1noc(C2CC2)n1)(C(=O)OCCOCCOCCOCCOC(=O)c1ccc(-c2c3nc(c(-c4ccccc4)c4ccc([nH]4)c(-c4ccccc4)c4nc(c(-c5ccccc5)c5ccc2[nH]5)C=C4)C=C3)cc1)C(F)(F)F
REMARK SMILES IDX 20 1 19 2 18 3 17 4 16 5 15 6 13 7 14 8 2 9 1 10 78 11 79 12
REMARK SMILES IDX 80 13 81 14 3 15 4 18 5 19 6 20 12 21 7 22 8 23 9 24 10 25
REMARK SMILES IDX 11 26 21 27 22 28 23 29 24 30 25 31 26 32 27 33 28 34 29 35
REMARK SMILES IDX 30 36 31 37 77 38 32 39 76 40 33 41 34 42 35 43 70 44 36 45
REMARK SMILES IDX 75 46 69 47 71 48 37 49 74 50 68 51 67 52 38 54 60 55 45 56
REMARK SMILES IDX 59 57 46 58 49 59 58 60 72 61 47 62 48 63 57 65 73 66 50 67
REMARK SMILES IDX 39 68 40 69 44 70 41 71 43 72 42 73 61 74 62 75 66 76 63 77
REMARK SMILES IDX 65 78 64 79 51 80 52 81 56 82 53 83 55 84 54 85
REMARK H PARENT 3 16 3 17 71 53 49 64
REMARK Flexibility Score: inf
ROOT
ATOM      1  C   UNL     1      -1.229   0.882  -1.323  1.00  0.00     0.188 C 
ENDROOT
BRANCH   1   2
ATOM      2  C   UNL     1      -2.216  -0.083  -2.011  1.00  0.00     0.188 C 
BRANCH   2   3
ATOM      3  O   UNL     1      -3.430  -0.277  -1.313  1.00  0.00    -0.376 OA
BRANCH   3   4
ATOM      4  C   UNL     1      -3.632  -1.480  -0.604  1.00  0.00     0.202 C 
BRANCH   4   5
ATOM      5  C   UNL     1      -2.734  -1.780   0.608  1.00  0.00     0.261 C 
BRANCH   5   6
ATOM      6  O   UNL     1      -1.344  -1.417   0.501  1.00  0.00    -0.458 OA
BRANCH   6   7
ATOM      7  C   UNL     1      -0.535  -2.301  -0.131  1.00  0.00     0.377 C 
ATOM      8  O   UNL     1      -0.981  -3.327  -0.638  1.00  0.00    -0.244 OA
BRANCH   7   9
ATOM      9  C   UNL     1       0.965  -1.960  -0.104  1.00  0.00     0.287 C 
ATOM     10  C   UNL     1       1.663  -3.028   0.742  1.00  0.00     0.103 C 
BRANCH   9  11
ATOM     11  C   UNL     1       1.386  -2.115  -1.593  1.00  0.00     0.455 C 
ATOM     12  F   UNL     1       0.770  -1.181  -2.365  1.00  0.00    -0.164 F 
ATOM     13  F   UNL     1       2.720  -1.903  -1.743  1.00  0.00    -0.164 F 
ATOM     14  F   UNL     1       1.127  -3.323  -2.127  1.00  0.00    -0.164 F 
ENDBRANCH   9  11
BRANCH   9  15
ATOM     15  N   UNL     1       1.417  -0.620   0.385  1.00  0.00    -0.318 N 
ATOM     16  H   UNL     1       1.186   0.037  -0.360  1.00  0.00     0.347 HD
ATOM     17  H   UNL     1       2.388  -0.822   0.626  1.00  0.00     0.347 HD
BRANCH  15  18
ATOM     18  C   UNL     1       0.953   0.002   1.617  1.00  0.00     0.344 C 
BRANCH  18  19
ATOM     19  C   UNL     1       1.800   1.227   1.900  1.00  0.00     0.226 A 
ATOM     20  N   UNL     1       1.540   2.058   2.920  1.00  0.00    -0.056 NA
ATOM     21  N   UNL     1       2.929   1.555   1.173  1.00  0.00    -0.190 NA
ATOM     22  O   UNL     1       2.618   2.946   2.892  1.00  0.00    -0.339 OA
ATOM     23  C   UNL     1       3.421   2.569   1.849  1.00  0.00     0.229 A 
BRANCH  23  24
ATOM     24  C   UNL     1       4.782   3.207   1.586  1.00  0.00     0.079 C 
ATOM     25  C   UNL     1       5.840   2.334   0.932  1.00  0.00     0.014 C 
ATOM     26  C   UNL     1       5.259   3.477   0.176  1.00  0.00     0.014 C 
ENDBRANCH  23  24
ENDBRANCH  18  19
ENDBRANCH  15  18
ENDBRANCH   9  15
ENDBRANCH   7   9
ENDBRANCH   6   7
ENDBRANCH   5   6
ENDBRANCH   4   5
ENDBRANCH   3   4
ENDBRANCH   2   3
ENDBRANCH   1   2
BRANCH   1  27
ATOM     27  O   UNL     1      -1.584   1.780  -0.277  1.00  0.00    -0.377 OA
BRANCH  27  28
ATOM     28  C   UNL     1      -2.948   1.927   0.086  1.00  0.00     0.188 C 
BRANCH  28  29
ATOM     29  C   UNL     1      -3.871   2.457  -1.025  1.00  0.00     0.188 C 
BRANCH  29  30
ATOM     30  O   UNL     1      -3.203   2.613  -2.267  1.00  0.00    -0.376 OA
BRANCH  30  31
ATOM     31  C   UNL     1      -2.635   3.884  -2.555  1.00  0.00     0.202 C 
BRANCH  31  32
ATOM     32  C   UNL     1      -1.694   4.564  -1.541  1.00  0.00     0.261 C 
BRANCH  32  33
ATOM     33  O   UNL     1      -2.167   4.728  -0.193  1.00  0.00    -0.460 OA
BRANCH  33  34
ATOM     34  C   UNL     1      -3.285   5.446   0.022  1.00  0.00     0.338 C 
ATOM     35  O   UNL     1      -3.962   6.030  -0.809  1.00  0.00    -0.246 OA
BRANCH  34  36
ATOM     36  C   UNL     1      -3.682   5.237   1.433  1.00  0.00     0.060 A 
ATOM     37  C   UNL     1      -4.921   4.646   1.714  1.00  0.00     0.016 A 
ATOM     38  C   UNL     1      -2.825   5.603   2.474  1.00  0.00     0.016 A 
ATOM     39  C   UNL     1      -5.323   4.455   3.037  1.00  0.00     0.010 A 
ATOM     40  C   UNL     1      -3.240   5.437   3.800  1.00  0.00     0.010 A 
ATOM     41  C   UNL     1      -4.507   4.897   4.086  1.00  0.00    -0.014 A 
BRANCH  41  42
ATOM     42  C   UNL     1      -5.074   5.001   5.452  1.00  0.00     0.031 A 
ATOM     43  C   UNL     1      -5.615   6.335   5.895  1.00  0.00     0.074 A 
ATOM     44  C   UNL     1      -5.160   3.936   6.269  1.00  0.00     0.049 A 
ATOM     45  N   UNL     1      -6.153   6.679   7.037  1.00  0.00    -0.248 NA
ATOM     46  C   UNL     1      -5.539   7.429   4.911  1.00  0.00     0.031 C 
ATOM     47  C   UNL     1      -4.725   2.579   5.943  1.00  0.00     0.029 A 
ATOM     48  N   UNL     1      -5.648   3.836   7.548  1.00  0.00    -0.354 N 
ATOM     49  C   UNL     1      -6.479   8.024   6.908  1.00  0.00     0.074 A 
ATOM     50  C   UNL     1      -6.043   8.444   5.595  1.00  0.00     0.031 C 
ATOM     51  C   UNL     1      -4.962   1.782   7.000  1.00  0.00     0.029 A 
ATOM     52  C   UNL     1      -5.533   2.578   8.086  1.00  0.00     0.049 A 
ATOM     53  H   UNL     1      -6.043   4.596   8.035  1.00  0.00     0.167 HD
ATOM     54  C   UNL     1      -7.096   8.837   7.797  1.00  0.00     0.031 A 
ATOM     55  C   UNL     1      -5.835   2.128   9.320  1.00  0.00     0.031 A 
ATOM     56  C   UNL     1      -7.506   8.430   9.114  1.00  0.00     0.049 A 
ATOM     57  C   UNL     1      -6.424   3.081  10.331  1.00  0.00     0.074 A 
ATOM     58  C   UNL     1      -8.131   9.181  10.093  1.00  0.00     0.029 A 
ATOM     59  N   UNL     1      -7.321   7.161   9.639  1.00  0.00    -0.354 N 
ATOM     60  N   UNL     1      -6.748   4.344  10.190  1.00  0.00    -0.248 NA
ATOM     61  C   UNL     1      -6.699   2.538  11.669  1.00  0.00     0.031 C 
ATOM     62  C   UNL     1      -8.269   8.384  11.233  1.00  0.00     0.029 A 
ATOM     63  C   UNL     1      -7.796   7.115  10.938  1.00  0.00     0.049 A 
ATOM     64  H   UNL     1      -6.912   6.404   9.159  1.00  0.00     0.167 HD
ATOM     65  C   UNL     1      -7.297   4.734  11.407  1.00  0.00     0.074 A 
ATOM     66  C   UNL     1      -7.278   3.569  12.267  1.00  0.00     0.031 C 
ATOM     67  C   UNL     1      -7.775   5.947  11.781  1.00  0.00     0.031 A 
BRANCH  54  68
ATOM     68  C   UNL     1      -7.330  10.263   7.380  1.00  0.00    -0.014 A 
ATOM     69  C   UNL     1      -8.268  10.588   6.386  1.00  0.00     0.009 A 
ATOM     70  C   UNL     1      -6.621  11.298   8.007  1.00  0.00     0.009 A 
ATOM     71  C   UNL     1      -8.463  11.917   6.005  1.00  0.00     0.001 A 
ATOM     72  C   UNL     1      -6.841  12.629   7.647  1.00  0.00     0.001 A 
ATOM     73  C   UNL     1      -7.754  12.936   6.640  1.00  0.00     0.000 A 
ENDBRANCH  54  68
BRANCH  55  74
ATOM     74  C   UNL     1      -5.563   0.713   9.695  1.00  0.00    -0.014 A 
ATOM     75  C   UNL     1      -6.614  -0.169   9.993  1.00  0.00     0.009 A 
ATOM     76  C   UNL     1      -4.243   0.249   9.805  1.00  0.00     0.009 A 
ATOM     77  C   UNL     1      -6.348  -1.470  10.428  1.00  0.00     0.001 A 
ATOM     78  C   UNL     1      -3.980  -1.062  10.207  1.00  0.00     0.001 A 
ATOM     79  C   UNL     1      -5.032  -1.916  10.531  1.00  0.00     0.000 A 
ENDBRANCH  55  74
BRANCH  67  80
ATOM     80  C   UNL     1      -8.365   6.064  13.161  1.00  0.00    -0.014 A 
ATOM     81  C   UNL     1      -7.564   6.004  14.312  1.00  0.00     0.009 A 
ATOM     82  C   UNL     1      -9.746   6.275  13.306  1.00  0.00     0.009 A 
ATOM     83  C   UNL     1      -8.141   6.110  15.580  1.00  0.00     0.001 A 
ATOM     84  C   UNL     1     -10.314   6.417  14.573  1.00  0.00     0.001 A 
ATOM     85  C   UNL     1      -9.513   6.321  15.709  1.00  0.00     0.000 A 
ENDBRANCH  67  80
ENDBRANCH  41  42
ENDBRANCH  34  36
ENDBRANCH  33  34
ENDBRANCH  32  33
ENDBRANCH  31  32
ENDBRANCH  30  31
ENDBRANCH  29  30
ENDBRANCH  28  29
ENDBRANCH  27  28
ENDBRANCH   1  27
TORSDOF 25
