REMARK SMILES Cc1oc(-c2ccc(Cl)cc2[N+](=O)[O-])cc1C(=O)Nc1ccc(C(=O)OCCOCCOCCOCCOC(=O)c2ccc(-c3c4nc(c(-c5ccccc5)c5ccc([nH]5)c(-c5ccccc5)c5nc(c(-c6ccccc6)c6ccc3[nH]6)C=C5)C=C4)cc2)cc1
REMARK SMILES IDX 31 1 30 2 29 3 28 4 27 5 26 6 24 7 25 8 23 9 20 10 21 11
REMARK SMILES IDX 90 12 22 13 89 14 19 15 17 16 18 17 16 19 1 20 2 21 3 22
REMARK SMILES IDX 4 23 15 24 5 25 6 26 11 27 7 28 10 29 8 30 9 31 12 32 13 33
REMARK SMILES IDX 14 34 32 35 33 36 34 37 35 38 36 39 37 40 38 41 39 42 40 43
REMARK SMILES IDX 41 44 42 45 88 46 43 47 87 48 44 49 45 50 46 51 81 52 47 53
REMARK SMILES IDX 86 54 80 55 82 56 48 57 85 58 79 59 78 60 49 62 71 63 56 64
REMARK SMILES IDX 70 65 57 66 60 67 69 68 83 69 58 70 59 71 68 73 84 74 61 75
REMARK SMILES IDX 50 76 51 77 55 78 52 79 54 80 53 81 72 82 73 83 77 84 74 85
REMARK SMILES IDX 76 86 75 87 62 88 63 89 67 90 64 91 66 92 65 93
REMARK H PARENT 19 18 82 61 60 72
REMARK Flexibility Score: inf
ROOT
ATOM      1  C   UNL     1       7.139  -0.312   1.702  1.00  0.00     0.188 C 
ENDROOT
BRANCH   1   2
ATOM      2  C   UNL     1       7.817   0.002   0.354  1.00  0.00     0.188 C 
BRANCH   2   3
ATOM      3  O   UNL     1       8.540   1.212   0.261  1.00  0.00    -0.376 OA
BRANCH   3   4
ATOM      4  C   UNL     1       7.947   2.491   0.113  1.00  0.00     0.202 C 
BRANCH   4   5
ATOM      5  C   UNL     1       6.448   2.849   0.140  1.00  0.00     0.261 C 
BRANCH   5   6
ATOM      6  O   UNL     1       5.537   1.811   0.457  1.00  0.00    -0.460 OA
BRANCH   6   7
ATOM      7  C   UNL     1       5.101   1.103  -0.599  1.00  0.00     0.338 C 
ATOM      8  O   UNL     1       5.320   1.326  -1.778  1.00  0.00    -0.246 OA
BRANCH   7   9
ATOM      9  C   UNL     1       4.422  -0.118  -0.118  1.00  0.00     0.060 A 
ATOM     10  C   UNL     1       2.642  -2.162   0.249  1.00  0.00     0.041 A 
ATOM     11  C   UNL     1       3.647  -2.322  -0.704  1.00  0.00     0.027 A 
ATOM     12  C   UNL     1       2.706  -1.146   1.205  1.00  0.00     0.027 A 
ATOM     13  C   UNL     1       4.514  -1.262  -0.923  1.00  0.00     0.018 A 
ATOM     14  C   UNL     1       3.623  -0.116   1.033  1.00  0.00     0.018 A 
BRANCH  10  15
ATOM     15  N   UNL     1       1.498  -2.931   0.076  1.00  0.00    -0.322 N 
ATOM     16  C   UNL     1       0.179  -2.527   0.035  1.00  0.00     0.259 C 
ATOM     17  O   UNL     1      -0.665  -3.426  -0.005  1.00  0.00    -0.269 OA
ATOM     18  H   UNL     1       1.649  -3.898  -0.034  1.00  0.00     0.170 HD
BRANCH  16  19
ATOM     19  C   UNL     1      -0.255  -1.122  -0.017  1.00  0.00     0.081 A 
ATOM     20  C   UNL     1       1.489   0.476  -1.310  1.00  0.00     0.088 C 
ATOM     21  C   UNL     1       0.316   0.042  -0.531  1.00  0.00     0.114 A 
ATOM     22  O   UNL     1      -0.510   1.099  -0.332  1.00  0.00    -0.460 OA
ATOM     23  C   UNL     1      -1.712   0.624   0.043  1.00  0.00     0.142 A 
ATOM     24  C   UNL     1      -1.600  -0.716   0.326  1.00  0.00     0.065 A 
BRANCH  23  25
ATOM     25  C   UNL     1      -2.763   1.619   0.013  1.00  0.00     0.095 A 
ATOM     26  C   UNL     1      -3.679   1.674   1.071  1.00  0.00     0.021 A 
ATOM     27  C   UNL     1      -2.876   2.583  -1.014  1.00  0.00     0.281 A 
ATOM     28  C   UNL     1      -4.658   2.672   1.111  1.00  0.00     0.022 A 
ATOM     29  C   UNL     1      -3.852   3.588  -0.977  1.00  0.00     0.107 A 
ATOM     30  C   UNL     1      -4.735   3.623   0.094  1.00  0.00     0.047 A 
ATOM     31  Cl  UNL     1      -5.937   4.850   0.162  1.00  0.00    -0.084 Cl
BRANCH  27  32
ATOM     32  N   UNL     1      -2.005   2.566  -2.188  1.00  0.00     0.063 N 
ATOM     33  O   UNL     1      -1.505   3.648  -2.530  1.00  0.00    -0.258 OA
ATOM     34  O   UNL     1      -1.890   1.500  -2.809  1.00  0.00    -0.258 OA
ENDBRANCH  27  32
ENDBRANCH  23  25
ENDBRANCH  16  19
ENDBRANCH  10  15
ENDBRANCH   7   9
ENDBRANCH   6   7
ENDBRANCH   5   6
ENDBRANCH   4   5
ENDBRANCH   3   4
ENDBRANCH   2   3
ENDBRANCH   1   2
BRANCH   1  35
ATOM     35  O   UNL     1       6.898   0.814   2.522  1.00  0.00    -0.377 OA
BRANCH  35  36
ATOM     36  C   UNL     1       7.978   1.324   3.295  1.00  0.00     0.188 C 
BRANCH  36  37
ATOM     37  C   UNL     1       9.445   0.921   3.012  1.00  0.00     0.188 C 
BRANCH  37  38
ATOM     38  O   UNL     1       9.639  -0.405   2.546  1.00  0.00    -0.376 OA
BRANCH  38  39
ATOM     39  C   UNL     1      10.053  -1.410   3.456  1.00  0.00     0.202 C 
BRANCH  39  40
ATOM     40  C   UNL     1       9.086  -1.779   4.593  1.00  0.00     0.261 C 
BRANCH  40  41
ATOM     41  O   UNL     1       8.689  -0.695   5.445  1.00  0.00    -0.460 OA
BRANCH  41  42
ATOM     42  C   UNL     1       9.670  -0.079   6.132  1.00  0.00     0.338 C 
ATOM     43  O   UNL     1      10.856  -0.375   6.154  1.00  0.00    -0.246 OA
BRANCH  42  44
ATOM     44  C   UNL     1       9.119   1.156   6.719  1.00  0.00     0.060 A 
ATOM     45  C   UNL     1       9.720   2.377   6.390  1.00  0.00     0.016 A 
ATOM     46  C   UNL     1       8.036   1.110   7.601  1.00  0.00     0.016 A 
ATOM     47  C   UNL     1       9.285   3.550   6.997  1.00  0.00     0.010 A 
ATOM     48  C   UNL     1       7.611   2.286   8.223  1.00  0.00     0.010 A 
ATOM     49  C   UNL     1       8.271   3.501   7.962  1.00  0.00    -0.014 A 
BRANCH  49  50
ATOM     50  C   UNL     1       8.078   4.672   8.849  1.00  0.00     0.031 A 
ATOM     51  C   UNL     1       8.739   4.659  10.201  1.00  0.00     0.074 A 
ATOM     52  C   UNL     1       7.405   5.759   8.435  1.00  0.00     0.049 A 
ATOM     53  N   UNL     1       8.772   5.590  11.119  1.00  0.00    -0.248 NA
ATOM     54  C   UNL     1       9.465   3.430  10.562  1.00  0.00     0.031 C 
ATOM     55  C   UNL     1       6.772   5.916   7.128  1.00  0.00     0.029 A 
ATOM     56  N   UNL     1       7.162   6.947   9.076  1.00  0.00    -0.354 N 
ATOM     57  C   UNL     1       9.520   5.059  12.164  1.00  0.00     0.074 A 
ATOM     58  C   UNL     1       9.880   3.711  11.786  1.00  0.00     0.031 C 
ATOM     59  C   UNL     1       6.224   7.142   7.057  1.00  0.00     0.029 A 
ATOM     60  C   UNL     1       6.443   7.840   8.322  1.00  0.00     0.049 A 
ATOM     61  H   UNL     1       7.474   7.140   9.989  1.00  0.00     0.167 HD
ATOM     62  C   UNL     1       9.886   5.644  13.329  1.00  0.00     0.031 A 
ATOM     63  C   UNL     1       6.008   9.079   8.624  1.00  0.00     0.031 A 
ATOM     64  C   UNL     1       9.504   6.975  13.717  1.00  0.00     0.049 A 
ATOM     65  C   UNL     1       6.340   9.672   9.968  1.00  0.00     0.074 A 
ATOM     66  C   UNL     1       9.820   7.660  14.877  1.00  0.00     0.029 A 
ATOM     67  N   UNL     1       8.707   7.818  12.957  1.00  0.00    -0.354 N 
ATOM     68  N   UNL     1       7.065   9.170  10.940  1.00  0.00    -0.248 NA
ATOM     69  C   UNL     1       5.803  11.011  10.249  1.00  0.00     0.031 C 
ATOM     70  C   UNL     1       9.159   8.893  14.848  1.00  0.00     0.029 A 
ATOM     71  C   UNL     1       8.495   9.006  13.636  1.00  0.00     0.049 A 
ATOM     72  H   UNL     1       8.346   7.604  12.067  1.00  0.00     0.167 HD
ATOM     73  C   UNL     1       7.102  10.146  11.930  1.00  0.00     0.074 A 
ATOM     74  C   UNL     1       6.335  11.271  11.435  1.00  0.00     0.031 C 
ATOM     75  C   UNL     1       7.725  10.117  13.134  1.00  0.00     0.031 A 
BRANCH  62  76
ATOM     76  C   UNL     1      10.704   4.814  14.283  1.00  0.00    -0.014 A 
ATOM     77  C   UNL     1      12.024   4.436  13.984  1.00  0.00     0.009 A 
ATOM     78  C   UNL     1      10.141   4.398  15.499  1.00  0.00     0.009 A 
ATOM     79  C   UNL     1      12.741   3.615  14.857  1.00  0.00     0.001 A 
ATOM     80  C   UNL     1      10.874   3.608  16.388  1.00  0.00     0.001 A 
ATOM     81  C   UNL     1      12.167   3.205  16.060  1.00  0.00     0.000 A 
ENDBRANCH  62  76
BRANCH  63  82
ATOM     82  C   UNL     1       5.217   9.849   7.628  1.00  0.00    -0.014 A 
ATOM     83  C   UNL     1       5.754  10.992   7.017  1.00  0.00     0.009 A 
ATOM     84  C   UNL     1       3.916   9.446   7.286  1.00  0.00     0.009 A 
ATOM     85  C   UNL     1       4.999  11.726   6.099  1.00  0.00     0.001 A 
ATOM     86  C   UNL     1       3.175  10.164   6.345  1.00  0.00     0.001 A 
ATOM     87  C   UNL     1       3.714  11.307   5.758  1.00  0.00     0.000 A 
ENDBRANCH  63  82
BRANCH  75  88
ATOM     88  C   UNL     1       7.645  11.356  13.986  1.00  0.00    -0.014 A 
ATOM     89  C   UNL     1       6.447  11.757  14.596  1.00  0.00     0.009 A 
ATOM     90  C   UNL     1       8.807  12.113  14.212  1.00  0.00     0.009 A 
ATOM     91  C   UNL     1       6.407  12.912  15.382  1.00  0.00     0.001 A 
ATOM     92  C   UNL     1       8.772  13.245  15.026  1.00  0.00     0.001 A 
ATOM     93  C   UNL     1       7.569  13.651  15.600  1.00  0.00     0.000 A 
ENDBRANCH  75  88
ENDBRANCH  49  50
ENDBRANCH  42  44
ENDBRANCH  41  42
ENDBRANCH  40  41
ENDBRANCH  39  40
ENDBRANCH  38  39
ENDBRANCH  37  38
ENDBRANCH  36  37
ENDBRANCH  35  36
ENDBRANCH   1  35
TORSDOF 24
