REMARK SMILES CCc1nnc(/[NH+]=C2/S/C(=C/c3ccccc3OCCC(=O)OCCOCCOCCOCCOC(=O)c3ccc(-c4c5nc(c(-c6ccccc6)c6ccc([nH]6)c(-c6ccccc6)c6nc(c(-c7ccccc7)c7ccc4[nH]7)C=C6)C=C5)cc3)C(=O)N2C)s1
REMARK SMILES IDX 27 1 26 2 25 3 24 4 23 5 21 6 22 7 20 8 19 9 18 10 17 11
REMARK SMILES IDX 12 12 13 13 14 14 16 15 15 16 11 17 7 18 8 19 9 21 88 22
REMARK SMILES IDX 10 23 86 24 89 25 87 26 6 27 3 28 4 29 90 30 5 31 2 32 1 33
REMARK SMILES IDX 28 34 29 35 30 36 31 37 32 38 33 39 34 40 35 41 36 42 37 43
REMARK SMILES IDX 38 44 39 45 85 46 40 47 84 48 41 49 42 50 43 51 78 52 44 53
REMARK SMILES IDX 83 54 77 55 79 56 45 57 82 58 76 59 75 60 46 62 68 63 53 64
REMARK SMILES IDX 67 65 54 66 57 67 66 68 80 69 55 70 56 71 65 73 81 74 58 75
REMARK SMILES IDX 47 76 48 77 52 78 49 79 51 80 50 81 69 82 70 83 74 84 71 85
REMARK SMILES IDX 73 86 72 87 59 88 60 89 64 90 61 91 63 92 62 93
REMARK H PARENT 7 20 79 61 57 72
REMARK Flexibility Score: inf
ROOT
ATOM      1  C   UNL     1       3.550   3.878  -9.041  1.00  0.00     0.188 C 
ENDROOT
BRANCH   1   2
ATOM      2  O   UNL     1       4.294   3.213 -10.056  1.00  0.00    -0.376 OA
BRANCH   2   3
ATOM      3  C   UNL     1       4.105   1.788 -10.110  1.00  0.00     0.202 C 
BRANCH   3   4
ATOM      4  C   UNL     1       4.565   1.003  -8.857  1.00  0.00     0.261 C 
BRANCH   4   5
ATOM      5  O   UNL     1       3.454   0.454  -8.094  1.00  0.00    -0.463 OA
BRANCH   5   6
ATOM      6  C   UNL     1       3.828  -0.359  -7.060  1.00  0.00     0.309 C 
ATOM      7  O   UNL     1       5.001  -0.596  -6.778  1.00  0.00    -0.252 OA
BRANCH   6   8
ATOM      8  C   UNL     1       2.681  -1.110  -6.380  1.00  0.00     0.164 C 
BRANCH   8   9
ATOM      9  C   UNL     1       1.765  -0.398  -5.370  1.00  0.00     0.241 C 
BRANCH   9  10
ATOM     10  O   UNL     1       0.408  -0.059  -5.718  1.00  0.00    -0.492 OA
BRANCH  10  11
ATOM     11  C   UNL     1       0.256   0.217  -7.041  1.00  0.00     0.126 A 
ATOM     12  C   UNL     1       0.704   1.397  -7.627  1.00  0.00     0.018 A 
ATOM     13  C   UNL     1       0.679   1.419  -9.027  1.00  0.00     0.012 A 
ATOM     14  C   UNL     1       0.163   0.387  -9.812  1.00  0.00     0.001 A 
ATOM     15  C   UNL     1      -0.385  -0.781  -7.805  1.00  0.00     0.047 A 
ATOM     16  C   UNL     1      -0.432  -0.696  -9.194  1.00  0.00     0.004 A 
BRANCH  12  17
ATOM     17  C   UNL     1       0.923   2.700  -6.951  1.00  0.00     0.035 C 
ATOM     18  N   UNL     1       1.275   4.775  -2.766  1.00  0.00    -0.226 N 
ATOM     19  C   UNL     1       1.870   4.219  -3.765  1.00  0.00     0.271 C 
ATOM     20  H   UNL     1       0.895   5.680  -2.838  1.00  0.00     0.268 HD
ATOM     21  S   UNL     1       1.447   4.816  -5.370  1.00  0.00    -0.012 SA
ATOM     22  N   UNL     1       2.702   3.133  -3.894  1.00  0.00    -0.222 N 
ATOM     23  C   UNL     1       1.736   3.225  -6.017  1.00  0.00     0.100 C 
ATOM     24  C   UNL     1       2.844   2.682  -5.194  1.00  0.00     0.321 C 
ATOM     25  C   UNL     1       3.484   2.505  -2.838  1.00  0.00     0.252 C 
ATOM     26  O   UNL     1       3.754   1.989  -5.624  1.00  0.00    -0.250 OA
BRANCH  18  27
ATOM     27  C   UNL     1       1.192   4.071  -1.620  1.00  0.00     0.345 A 
ATOM     28  C   UNL     1       0.618   2.434   0.015  1.00  0.00     0.138 A 
ATOM     29  N   UNL     1       1.603   3.209   0.412  1.00  0.00    -0.067 NA
ATOM     30  S   UNL     1      -0.052   2.866  -1.498  1.00  0.00    -0.044 S 
ATOM     31  N   UNL     1       1.915   4.175  -0.526  1.00  0.00     0.023 NA
BRANCH  28  32
ATOM     32  C   UNL     1       0.128   1.230   0.744  1.00  0.00     0.068 C 
ATOM     33  C   UNL     1       0.800  -0.030   0.213  1.00  0.00     0.012 C 
ENDBRANCH  28  32
ENDBRANCH  18  27
ENDBRANCH  12  17
ENDBRANCH  10  11
ENDBRANCH   9  10
ENDBRANCH   8   9
ENDBRANCH   6   8
ENDBRANCH   5   6
ENDBRANCH   4   5
ENDBRANCH   3   4
ENDBRANCH   2   3
ENDBRANCH   1   2
BRANCH   1  34
ATOM     34  C   UNL     1       2.385   4.742  -9.548  1.00  0.00     0.188 C 
BRANCH  34  35
ATOM     35  O   UNL     1       1.502   4.089 -10.458  1.00  0.00    -0.377 OA
BRANCH  35  36
ATOM     36  C   UNL     1       1.833   4.279 -11.828  1.00  0.00     0.188 C 
BRANCH  36  37
ATOM     37  C   UNL     1       1.322   5.607 -12.403  1.00  0.00     0.188 C 
BRANCH  37  38
ATOM     38  O   UNL     1       1.212   6.631 -11.417  1.00  0.00    -0.376 OA
BRANCH  38  39
ATOM     39  C   UNL     1      -0.119   7.101 -11.192  1.00  0.00     0.202 C 
BRANCH  39  40
ATOM     40  C   UNL     1      -1.036   6.149 -10.403  1.00  0.00     0.261 C 
BRANCH  40  41
ATOM     41  O   UNL     1      -1.315   4.885 -11.033  1.00  0.00    -0.460 OA
BRANCH  41  42
ATOM     42  C   UNL     1      -2.057   4.921 -12.158  1.00  0.00     0.338 C 
ATOM     43  O   UNL     1      -2.479   5.902 -12.742  1.00  0.00    -0.246 OA
BRANCH  42  44
ATOM     44  C   UNL     1      -2.234   3.542 -12.638  1.00  0.00     0.060 A 
ATOM     45  C   UNL     1      -1.487   3.095 -13.732  1.00  0.00     0.016 A 
ATOM     46  C   UNL     1      -3.222   2.733 -12.069  1.00  0.00     0.016 A 
ATOM     47  C   UNL     1      -1.758   1.845 -14.290  1.00  0.00     0.010 A 
ATOM     48  C   UNL     1      -3.500   1.486 -12.637  1.00  0.00     0.010 A 
ATOM     49  C   UNL     1      -2.797   1.056 -13.774  1.00  0.00    -0.014 A 
BRANCH  49  50
ATOM     50  C   UNL     1      -3.284  -0.103 -14.562  1.00  0.00     0.031 A 
ATOM     51  C   UNL     1      -4.370   0.132 -15.579  1.00  0.00     0.074 A 
ATOM     52  C   UNL     1      -2.752  -1.328 -14.417  1.00  0.00     0.049 A 
ATOM     53  N   UNL     1      -4.910  -0.707 -16.425  1.00  0.00    -0.248 NA
ATOM     54  C   UNL     1      -4.908   1.501 -15.658  1.00  0.00     0.031 C 
ATOM     55  C   UNL     1      -1.671  -1.683 -13.500  1.00  0.00     0.029 A 
ATOM     56  N   UNL     1      -3.054  -2.506 -15.056  1.00  0.00    -0.354 N 
ATOM     57  C   UNL     1      -5.835   0.035 -17.149  1.00  0.00     0.074 A 
ATOM     58  C   UNL     1      -5.811   1.381 -16.619  1.00  0.00     0.031 C 
ATOM     59  C   UNL     1      -1.399  -2.994 -13.635  1.00  0.00     0.029 A 
ATOM     60  C   UNL     1      -2.299  -3.571 -14.634  1.00  0.00     0.049 A 
ATOM     61  H   UNL     1      -3.747  -2.578 -15.751  1.00  0.00     0.167 HD
ATOM     62  C   UNL     1      -6.629  -0.360 -18.172  1.00  0.00     0.031 A 
ATOM     63  C   UNL     1      -2.334  -4.865 -15.010  1.00  0.00     0.031 A 
ATOM     64  C   UNL     1      -6.696  -1.705 -18.674  1.00  0.00     0.049 A 
ATOM     65  C   UNL     1      -3.299  -5.302 -16.084  1.00  0.00     0.074 A 
ATOM     66  C   UNL     1      -7.487  -2.208 -19.693  1.00  0.00     0.029 A 
ATOM     67  N   UNL     1      -5.952  -2.765 -18.183  1.00  0.00    -0.354 N 
ATOM     68  N   UNL     1      -4.142  -4.582 -16.785  1.00  0.00    -0.248 NA
ATOM     69  C   UNL     1      -3.302  -6.732 -16.427  1.00  0.00     0.031 C 
ATOM     70  C   UNL     1      -7.255  -3.584 -19.786  1.00  0.00     0.029 A 
ATOM     71  C   UNL     1      -6.278  -3.925 -18.864  1.00  0.00     0.049 A 
ATOM     72  H   UNL     1      -5.289  -2.702 -17.458  1.00  0.00     0.167 HD
ATOM     73  C   UNL     1      -4.743  -5.463 -17.677  1.00  0.00     0.074 A 
ATOM     74  C   UNL     1      -4.163  -6.767 -17.434  1.00  0.00     0.031 C 
ATOM     75  C   UNL     1      -5.685  -5.213 -18.619  1.00  0.00     0.031 A 
BRANCH  62  76
ATOM     76  C   UNL     1      -7.514   0.682 -18.793  1.00  0.00    -0.014 A 
ATOM     77  C   UNL     1      -6.980   1.687 -19.616  1.00  0.00     0.009 A 
ATOM     78  C   UNL     1      -8.899   0.649 -18.570  1.00  0.00     0.009 A 
ATOM     79  C   UNL     1      -7.812   2.657 -20.177  1.00  0.00     0.001 A 
ATOM     80  C   UNL     1      -9.731   1.606 -19.153  1.00  0.00     0.001 A 
ATOM     81  C   UNL     1      -9.187   2.613 -19.948  1.00  0.00     0.000 A 
ENDBRANCH  62  76
BRANCH  63  82
ATOM     82  C   UNL     1      -1.432  -5.859 -14.371  1.00  0.00    -0.014 A 
ATOM     83  C   UNL     1      -0.394  -6.459 -15.101  1.00  0.00     0.009 A 
ATOM     84  C   UNL     1      -1.640  -6.253 -13.040  1.00  0.00     0.009 A 
ATOM     85  C   UNL     1       0.395  -7.456 -14.522  1.00  0.00     0.001 A 
ATOM     86  C   UNL     1      -0.832  -7.230 -12.455  1.00  0.00     0.001 A 
ATOM     87  C   UNL     1       0.177  -7.839 -13.199  1.00  0.00     0.000 A 
ENDBRANCH  63  82
BRANCH  75  88
ATOM     88  C   UNL     1      -6.109  -6.359 -19.496  1.00  0.00    -0.014 A 
ATOM     89  C   UNL     1      -6.905  -7.405 -19.006  1.00  0.00     0.009 A 
ATOM     90  C   UNL     1      -5.733  -6.367 -20.849  1.00  0.00     0.009 A 
ATOM     91  C   UNL     1      -7.285  -8.455 -19.846  1.00  0.00     0.001 A 
ATOM     92  C   UNL     1      -6.138  -7.402 -21.693  1.00  0.00     0.001 A 
ATOM     93  C   UNL     1      -6.905  -8.451 -21.188  1.00  0.00     0.000 A 
ENDBRANCH  75  88
ENDBRANCH  49  50
ENDBRANCH  42  44
ENDBRANCH  41  42
ENDBRANCH  40  41
ENDBRANCH  39  40
ENDBRANCH  38  39
ENDBRANCH  37  38
ENDBRANCH  36  37
ENDBRANCH  35  36
ENDBRANCH  34  35
ENDBRANCH   1  34
TORSDOF 26
