REMARK SMILES CC[C@@H](C)[C@@H](NC(=O)C(F)(F)F)C(=O)OCCOCCOCCOCCOC(=O)c1ccc(-c2c3nc(c(-c4ccccc4)c4ccc([nH]4)c(-c4ccccc4)c4nc(c(-c5ccccc5)c5ccc2[nH]5)C=C4)C=C3)cc1
REMARK SMILES IDX 21 1 20 2 19 3 18 4 17 5 16 6 15 7 13 8 14 9 5 10 3 11 4 12
REMARK SMILES IDX 2 13 1 14 6 15 7 16 8 18 9 19 10 20 11 21 12 22 22 23 23 24
REMARK SMILES IDX 24 25 25 26 26 27 27 28 28 29 29 30 30 31 31 32 77 33 32 34
REMARK SMILES IDX 76 35 33 36 34 37 35 38 70 39 36 40 75 41 69 42 71 43 37 44
REMARK SMILES IDX 74 45 68 46 67 47 38 49 60 50 45 51 59 52 46 53 49 54 58 55
REMARK SMILES IDX 72 56 47 57 48 58 57 60 73 61 50 62 39 63 40 64 44 65 41 66
REMARK SMILES IDX 43 67 42 68 61 69 62 70 66 71 63 72 65 73 64 74 51 75 52 76
REMARK SMILES IDX 56 77 53 78 55 79 54 80
REMARK H PARENT 6 17 71 48 49 59
REMARK Flexibility Score: inf
ROOT
ATOM      1  O   UNL     1       1.123  -3.946   3.820  1.00  0.00    -0.377 OA
ENDROOT
BRANCH   1   2
ATOM      2  C   UNL     1      -0.115  -4.558   4.133  1.00  0.00     0.188 C 
BRANCH   2   3
ATOM      3  C   UNL     1      -0.102  -6.083   4.099  1.00  0.00     0.188 C 
BRANCH   3   4
ATOM      4  O   UNL     1       1.096  -6.693   4.545  1.00  0.00    -0.376 OA
BRANCH   4   5
ATOM      5  C   UNL     1       2.207  -6.745   3.647  1.00  0.00     0.202 C 
BRANCH   5   6
ATOM      6  C   UNL     1       2.008  -6.656   2.127  1.00  0.00     0.261 C 
BRANCH   6   7
ATOM      7  O   UNL     1       1.807  -5.315   1.592  1.00  0.00    -0.462 OA
BRANCH   7   8
ATOM      8  C   UNL     1       0.675  -5.131   0.862  1.00  0.00     0.329 C 
ATOM      9  O   UNL     1      -0.238  -5.953   0.800  1.00  0.00    -0.250 OA
BRANCH   8  10
ATOM     10  C   UNL     1       0.697  -3.929  -0.111  1.00  0.00     0.195 C 
BRANCH  10  11
ATOM     11  C   UNL     1       1.288  -2.520   0.226  1.00  0.00     0.019 C 
ATOM     12  C   UNL     1       0.782  -1.998   1.576  1.00  0.00     0.010 C 
BRANCH  11  13
ATOM     13  C   UNL     1       0.886  -1.510  -0.897  1.00  0.00     0.002 C 
ATOM     14  C   UNL     1       1.269  -0.049  -0.679  1.00  0.00     0.004 C 
ENDBRANCH  11  13
ENDBRANCH  10  11
BRANCH  10  15
ATOM     15  N   UNL     1       0.949  -4.345  -1.511  1.00  0.00    -0.335 N 
ATOM     16  C   UNL     1       1.930  -5.097  -2.107  1.00  0.00     0.326 C 
ATOM     17  H   UNL     1       0.273  -4.013  -2.145  1.00  0.00     0.164 HD
ATOM     18  O   UNL     1       2.014  -4.980  -3.338  1.00  0.00    -0.265 OA
BRANCH  16  19
ATOM     19  C   UNL     1       2.818  -6.083  -1.322  1.00  0.00     0.471 C 
ATOM     20  F   UNL     1       3.582  -5.465  -0.381  1.00  0.00    -0.162 F 
ATOM     21  F   UNL     1       2.086  -7.032  -0.675  1.00  0.00    -0.162 F 
ATOM     22  F   UNL     1       3.684  -6.772  -2.118  1.00  0.00    -0.162 F 
ENDBRANCH  16  19
ENDBRANCH  10  15
ENDBRANCH   8  10
ENDBRANCH   7   8
ENDBRANCH   6   7
ENDBRANCH   5   6
ENDBRANCH   4   5
ENDBRANCH   3   4
ENDBRANCH   2   3
ENDBRANCH   1   2
BRANCH   1  23
ATOM     23  C   UNL     1       2.038  -3.609   4.861  1.00  0.00     0.188 C 
BRANCH  23  24
ATOM     24  C   UNL     1       1.546  -3.653   6.306  1.00  0.00     0.188 C 
BRANCH  24  25
ATOM     25  O   UNL     1       0.476  -2.774   6.661  1.00  0.00    -0.376 OA
BRANCH  25  26
ATOM     26  C   UNL     1       0.334  -1.546   5.953  1.00  0.00     0.202 C 
BRANCH  26  27
ATOM     27  C   UNL     1       1.242  -0.410   6.426  1.00  0.00     0.261 C 
BRANCH  27  28
ATOM     28  O   UNL     1       2.624  -0.646   6.112  1.00  0.00    -0.460 OA
BRANCH  28  29
ATOM     29  C   UNL     1       3.379  -1.083   7.148  1.00  0.00     0.338 C 
ATOM     30  O   UNL     1       3.023  -1.290   8.293  1.00  0.00    -0.246 OA
BRANCH  29  31
ATOM     31  C   UNL     1       4.735  -1.403   6.668  1.00  0.00     0.060 A 
ATOM     32  C   UNL     1       5.294  -2.634   7.033  1.00  0.00     0.016 A 
ATOM     33  C   UNL     1       5.488  -0.456   5.970  1.00  0.00     0.016 A 
ATOM     34  C   UNL     1       6.632  -2.900   6.753  1.00  0.00     0.010 A 
ATOM     35  C   UNL     1       6.832  -0.718   5.701  1.00  0.00     0.010 A 
ATOM     36  C   UNL     1       7.418  -1.921   6.133  1.00  0.00    -0.014 A 
BRANCH  36  37
ATOM     37  C   UNL     1       8.890  -2.067   6.112  1.00  0.00     0.031 A 
ATOM     38  C   UNL     1       9.693  -1.383   7.183  1.00  0.00     0.074 A 
ATOM     39  C   UNL     1       9.498  -2.800   5.165  1.00  0.00     0.049 A 
ATOM     40  N   UNL     1      10.990  -1.314   7.332  1.00  0.00    -0.248 NA
ATOM     41  C   UNL     1       8.928  -0.676   8.225  1.00  0.00     0.031 C 
ATOM     42  C   UNL     1       8.821  -3.547   4.107  1.00  0.00     0.029 A 
ATOM     43  N   UNL     1      10.832  -3.025   4.941  1.00  0.00    -0.354 N 
ATOM     44  C   UNL     1      11.197  -0.554   8.476  1.00  0.00     0.074 A 
ATOM     45  C   UNL     1       9.895  -0.160   8.967  1.00  0.00     0.031 C 
ATOM     46  C   UNL     1       9.748  -4.137   3.332  1.00  0.00     0.029 A 
ATOM     47  C   UNL     1      11.078  -3.780   3.822  1.00  0.00     0.049 A 
ATOM     48  H   UNL     1      11.544  -2.677   5.525  1.00  0.00     0.167 HD
ATOM     49  C   UNL     1      12.367  -0.217   9.068  1.00  0.00     0.031 A 
ATOM     50  C   UNL     1      12.247  -4.121   3.248  1.00  0.00     0.031 A 
ATOM     51  C   UNL     1      13.660  -0.593   8.565  1.00  0.00     0.049 A 
ATOM     52  C   UNL     1      13.536  -3.667   3.878  1.00  0.00     0.074 A 
ATOM     53  C   UNL     1      14.908  -0.305   9.089  1.00  0.00     0.029 A 
ATOM     54  N   UNL     1      13.868  -1.333   7.412  1.00  0.00    -0.354 N 
ATOM     55  N   UNL     1      13.721  -2.962   4.968  1.00  0.00    -0.248 NA
ATOM     56  C   UNL     1      14.779  -4.062   3.199  1.00  0.00     0.031 C 
ATOM     57  C   UNL     1      15.873  -0.829   8.223  1.00  0.00     0.029 A 
ATOM     58  C   UNL     1      15.225  -1.492   7.193  1.00  0.00     0.049 A 
ATOM     59  H   UNL     1      13.156  -1.693   6.834  1.00  0.00     0.167 HD
ATOM     60  C   UNL     1      15.098  -2.852   5.121  1.00  0.00     0.074 A 
ATOM     61  C   UNL     1      15.700  -3.575   4.019  1.00  0.00     0.031 C 
ATOM     62  C   UNL     1      15.802  -2.214   6.088  1.00  0.00     0.031 A 
BRANCH  49  63
ATOM     63  C   UNL     1      12.292   0.632  10.306  1.00  0.00    -0.014 A 
ATOM     64  C   UNL     1      11.823   0.110  11.522  1.00  0.00     0.009 A 
ATOM     65  C   UNL     1      12.711   1.971  10.258  1.00  0.00     0.009 A 
ATOM     66  C   UNL     1      11.742   0.922  12.656  1.00  0.00     0.001 A 
ATOM     67  C   UNL     1      12.655   2.772  11.400  1.00  0.00     0.001 A 
ATOM     68  C   UNL     1      12.161   2.251  12.595  1.00  0.00     0.000 A 
ENDBRANCH  49  63
BRANCH  50  69
ATOM     69  C   UNL     1      12.253  -4.916   1.992  1.00  0.00    -0.014 A 
ATOM     70  C   UNL     1      12.700  -6.245   1.987  1.00  0.00     0.009 A 
ATOM     71  C   UNL     1      11.817  -4.342   0.787  1.00  0.00     0.009 A 
ATOM     72  C   UNL     1      12.733  -6.975   0.796  1.00  0.00     0.001 A 
ATOM     73  C   UNL     1      11.824  -5.083  -0.396  1.00  0.00     0.001 A 
ATOM     74  C   UNL     1      12.290  -6.396  -0.392  1.00  0.00     0.000 A 
ENDBRANCH  50  69
BRANCH  62  75
ATOM     75  C   UNL     1      17.301  -2.299   6.016  1.00  0.00    -0.014 A 
ATOM     76  C   UNL     1      18.028  -1.584   5.053  1.00  0.00     0.009 A 
ATOM     77  C   UNL     1      17.996  -3.073   6.959  1.00  0.00     0.009 A 
ATOM     78  C   UNL     1      19.421  -1.668   5.015  1.00  0.00     0.001 A 
ATOM     79  C   UNL     1      19.390  -3.132   6.937  1.00  0.00     0.001 A 
ATOM     80  C   UNL     1      20.101  -2.437   5.960  1.00  0.00     0.000 A 
ENDBRANCH  62  75
ENDBRANCH  36  37
ENDBRANCH  29  31
ENDBRANCH  28  29
ENDBRANCH  27  28
ENDBRANCH  26  27
ENDBRANCH  25  26
ENDBRANCH  24  25
ENDBRANCH  23  24
ENDBRANCH   1  23
TORSDOF 24
