REMARK SMILES CCOC(=O)C1CCN(c2cc(NCC(=O)OCCOCCOCCOCCOC(=O)c3ccc(-c4c5nc(c(-c6ccccc6)c6ccc([nH]6)c(-c6ccccc6)c6nc(c(-c7ccccc7)c7ccc4[nH]7)C=C6)C=C5)cc3)c3c4c(onc24)-c2ccccc2C3=O)CC1
REMARK SMILES IDX 21 1 20 2 19 3 18 4 17 5 15 6 16 7 14 8 13 9 12 11 10 12
REMARK SMILES IDX 11 13 85 14 81 15 84 16 80 17 82 18 83 19 92 20 86 21 91 22
REMARK SMILES IDX 93 23 87 24 90 25 88 26 89 27 9 28 6 29 7 30 95 31 8 32
REMARK SMILES IDX 94 33 4 34 5 35 3 36 2 37 1 38 22 39 23 40 24 41 25 42 26 43
REMARK SMILES IDX 27 44 28 45 29 46 30 47 31 48 32 49 33 50 79 51 34 52 78 53
REMARK SMILES IDX 35 54 36 55 37 56 72 57 38 58 77 59 71 60 73 61 39 62 76 63
REMARK SMILES IDX 70 64 69 65 40 67 62 68 47 69 61 70 48 71 51 72 60 73 74 74
REMARK SMILES IDX 49 75 50 76 59 78 75 79 52 80 41 81 42 82 46 83 43 84 45 85
REMARK SMILES IDX 44 86 63 87 64 88 68 89 65 90 67 91 66 92 53 93 54 94 58 95
REMARK SMILES IDX 55 96 57 97 56 98
REMARK H PARENT 13 10 73 66 51 77
REMARK Flexibility Score: inf
ROOT
ATOM      1  C   UNL     1      -1.613 -10.390   0.154  1.00  0.00     0.188 C 
ENDROOT
BRANCH   1   2
ATOM      2  O   UNL     1      -3.004 -10.161  -0.011  1.00  0.00    -0.376 OA
BRANCH   2   3
ATOM      3  C   UNL     1      -3.491  -8.899   0.419  1.00  0.00     0.202 C 
BRANCH   3   4
ATOM      4  C   UNL     1      -2.953  -7.616  -0.247  1.00  0.00     0.261 C 
BRANCH   4   5
ATOM      5  O   UNL     1      -1.666  -7.730  -0.871  1.00  0.00    -0.462 OA
BRANCH   5   6
ATOM      6  C   UNL     1      -0.592  -7.154  -0.274  1.00  0.00     0.325 C 
ATOM      7  O   UNL     1      -0.642  -6.526   0.779  1.00  0.00    -0.250 OA
BRANCH   6   8
ATOM      8  C   UNL     1       0.727  -7.507  -0.964  1.00  0.00     0.236 C 
BRANCH   8   9
ATOM      9  N   UNL     1       0.625  -7.829  -2.386  1.00  0.00    -0.374 N 
ATOM     10  H   UNL     1       0.302  -8.731  -2.609  1.00  0.00     0.161 HD
BRANCH   9  11
ATOM     11  C   UNL     1       0.935  -7.002  -3.455  1.00  0.00     0.049 A 
ATOM     12  C   UNL     1       1.558  -4.621  -4.234  1.00  0.00     0.069 A 
ATOM     13  C   UNL     1       1.186  -5.590  -3.243  1.00  0.00     0.054 A 
ATOM     14  C   UNL     1       1.627  -5.197  -5.527  1.00  0.00     0.138 A 
ATOM     15  C   UNL     1       1.395  -6.583  -5.679  1.00  0.00     0.065 A 
ATOM     16  N   UNL     1       1.943  -4.693  -6.746  1.00  0.00    -0.077 NA
ATOM     17  C   UNL     1       1.086  -7.554  -4.750  1.00  0.00     0.059 A 
ATOM     18  C   UNL     1       1.621  -6.900  -6.974  1.00  0.00     0.176 A 
ATOM     19  O   UNL     1       1.941  -5.771  -7.647  1.00  0.00    -0.355 OA
ATOM     20  C   UNL     1       1.030  -8.975  -5.207  1.00  0.00     0.196 C 
ATOM     21  C   UNL     1       1.581  -8.210  -7.564  1.00  0.00     0.032 A 
ATOM     22  C   UNL     1       1.277  -9.267  -6.673  1.00  0.00     0.034 A 
ATOM     23  O   UNL     1       0.832  -9.893  -4.423  1.00  0.00    -0.288 OA
ATOM     24  C   UNL     1       1.839  -8.474  -8.908  1.00  0.00     0.013 A 
ATOM     25  C   UNL     1       1.232 -10.582  -7.143  1.00  0.00     0.013 A 
ATOM     26  C   UNL     1       1.792  -9.792  -9.369  1.00  0.00     0.001 A 
ATOM     27  C   UNL     1       1.490 -10.840  -8.492  1.00  0.00     0.001 A 
BRANCH  12  28
ATOM     28  N   UNL     1       1.882  -3.320  -3.917  1.00  0.00    -0.370 N 
ATOM     29  C   UNL     1       2.994  -0.700  -3.705  1.00  0.00     0.103 C 
ATOM     30  C   UNL     1       1.951  -1.039  -4.781  1.00  0.00     0.037 C 
ATOM     31  C   UNL     1       3.713  -1.941  -3.169  1.00  0.00     0.037 C 
ATOM     32  C   UNL     1       1.064  -2.238  -4.445  1.00  0.00     0.117 C 
ATOM     33  C   UNL     1       2.731  -3.038  -2.771  1.00  0.00     0.117 C 
BRANCH  29  34
ATOM     34  C   UNL     1       2.476   0.124  -2.541  1.00  0.00     0.309 C 
ATOM     35  O   UNL     1       3.206   0.834  -1.858  1.00  0.00    -0.252 OA
BRANCH  34  36
ATOM     36  O   UNL     1       1.156  -0.074  -2.306  1.00  0.00    -0.466 OA
BRANCH  36  37
ATOM     37  C   UNL     1       0.598   0.651  -1.201  1.00  0.00     0.229 C 
ATOM     38  C   UNL     1       0.871  -0.070   0.107  1.00  0.00     0.049 C 
ENDBRANCH  36  37
ENDBRANCH  34  36
ENDBRANCH  29  34
ENDBRANCH  12  28
ENDBRANCH   9  11
ENDBRANCH   8   9
ENDBRANCH   6   8
ENDBRANCH   5   6
ENDBRANCH   4   5
ENDBRANCH   3   4
ENDBRANCH   2   3
ENDBRANCH   1   2
BRANCH   1  39
ATOM     39  C   UNL     1      -0.921 -10.713  -1.175  1.00  0.00     0.188 C 
BRANCH  39  40
ATOM     40  O   UNL     1      -1.413 -10.051  -2.330  1.00  0.00    -0.377 OA
BRANCH  40  41
ATOM     41  C   UNL     1      -2.755 -10.295  -2.754  1.00  0.00     0.188 C 
BRANCH  41  42
ATOM     42  C   UNL     1      -3.422 -11.662  -2.494  1.00  0.00     0.188 C 
BRANCH  42  43
ATOM     43  O   UNL     1      -2.502 -12.736  -2.377  1.00  0.00    -0.376 OA
BRANCH  43  44
ATOM     44  C   UNL     1      -2.465 -13.664  -3.447  1.00  0.00     0.202 C 
BRANCH  44  45
ATOM     45  C   UNL     1      -1.771 -13.169  -4.718  1.00  0.00     0.261 C 
BRANCH  45  46
ATOM     46  O   UNL     1      -2.326 -11.990  -5.316  1.00  0.00    -0.460 OA
BRANCH  46  47
ATOM     47  C   UNL     1      -3.562 -12.053  -5.849  1.00  0.00     0.338 C 
ATOM     48  O   UNL     1      -4.309 -13.015  -5.897  1.00  0.00    -0.246 OA
BRANCH  47  49
ATOM     49  C   UNL     1      -3.919 -10.666  -6.204  1.00  0.00     0.060 A 
ATOM     50  C   UNL     1      -3.113  -9.930  -7.078  1.00  0.00     0.016 A 
ATOM     51  C   UNL     1      -4.990 -10.059  -5.547  1.00  0.00     0.016 A 
ATOM     52  C   UNL     1      -3.391  -8.580  -7.307  1.00  0.00     0.010 A 
ATOM     53  C   UNL     1      -5.234  -8.700  -5.748  1.00  0.00     0.010 A 
ATOM     54  C   UNL     1      -4.454  -7.948  -6.645  1.00  0.00    -0.014 A 
BRANCH  54  55
ATOM     55  C   UNL     1      -4.810  -6.550  -7.000  1.00  0.00     0.031 A 
ATOM     56  C   UNL     1      -6.238  -6.171  -6.807  1.00  0.00     0.074 A 
ATOM     57  C   UNL     1      -3.956  -5.505  -6.917  1.00  0.00     0.049 A 
ATOM     58  N   UNL     1      -6.662  -5.739  -5.657  1.00  0.00    -0.248 NA
ATOM     59  C   UNL     1      -7.307  -6.482  -7.751  1.00  0.00     0.031 C 
ATOM     60  C   UNL     1      -2.812  -5.443  -5.998  1.00  0.00     0.029 A 
ATOM     61  N   UNL     1      -4.056  -4.226  -7.424  1.00  0.00    -0.354 N 
ATOM     62  C   UNL     1      -8.042  -5.780  -5.682  1.00  0.00     0.074 A 
ATOM     63  C   UNL     1      -8.399  -6.224  -7.011  1.00  0.00     0.031 C 
ATOM     64  C   UNL     1      -2.419  -4.156  -5.889  1.00  0.00     0.029 A 
ATOM     65  C   UNL     1      -3.158  -3.343  -6.847  1.00  0.00     0.049 A 
ATOM     66  H   UNL     1      -4.699  -3.968  -8.123  1.00  0.00     0.167 HD
ATOM     67  C   UNL     1      -8.789  -5.435  -4.599  1.00  0.00     0.031 A 
ATOM     68  C   UNL     1      -3.232  -1.988  -6.844  1.00  0.00     0.031 A 
ATOM     69  C   UNL     1      -8.087  -4.944  -3.434  1.00  0.00     0.049 A 
ATOM     70  C   UNL     1      -4.227  -1.714  -5.752  1.00  0.00     0.074 A 
ATOM     71  C   UNL     1      -8.179  -5.026  -2.059  1.00  0.00     0.029 A 
ATOM     72  N   UNL     1      -6.998  -4.154  -3.677  1.00  0.00    -0.354 N 
ATOM     73  N   UNL     1      -3.987  -1.722  -4.469  1.00  0.00    -0.248 NA
ATOM     74  C   UNL     1      -5.656  -1.635  -6.106  1.00  0.00     0.031 C 
ATOM     75  C   UNL     1      -7.172  -4.163  -1.508  1.00  0.00     0.029 A 
ATOM     76  C   UNL     1      -6.513  -3.542  -2.557  1.00  0.00     0.049 A 
ATOM     77  H   UNL     1      -6.604  -4.037  -4.571  1.00  0.00     0.167 HD
ATOM     78  C   UNL     1      -5.224  -1.966  -3.888  1.00  0.00     0.074 A 
ATOM     79  C   UNL     1      -6.223  -1.726  -4.908  1.00  0.00     0.031 C 
ATOM     80  C   UNL     1      -5.381  -2.663  -2.728  1.00  0.00     0.031 A 
BRANCH  67  81
ATOM     81  C   UNL     1     -10.264  -5.310  -4.667  1.00  0.00    -0.014 A 
ATOM     82  C   UNL     1     -11.134  -6.400  -4.576  1.00  0.00     0.009 A 
ATOM     83  C   UNL     1     -10.799  -4.011  -4.722  1.00  0.00     0.009 A 
ATOM     84  C   UNL     1     -12.518  -6.185  -4.532  1.00  0.00     0.001 A 
ATOM     85  C   UNL     1     -12.175  -3.800  -4.678  1.00  0.00     0.001 A 
ATOM     86  C   UNL     1     -13.036  -4.889  -4.580  1.00  0.00     0.000 A 
ENDBRANCH  67  81
BRANCH  68  87
ATOM     87  C   UNL     1      -3.276  -1.283  -8.163  1.00  0.00    -0.014 A 
ATOM     88  C   UNL     1      -4.121  -0.203  -8.459  1.00  0.00     0.009 A 
ATOM     89  C   UNL     1      -2.352  -1.662  -9.159  1.00  0.00     0.009 A 
ATOM     90  C   UNL     1      -4.141   0.379  -9.733  1.00  0.00     0.001 A 
ATOM     91  C   UNL     1      -2.345  -1.060 -10.422  1.00  0.00     0.001 A 
ATOM     92  C   UNL     1      -3.261  -0.057 -10.718  1.00  0.00     0.000 A 
ENDBRANCH  68  87
BRANCH  80  93
ATOM     93  C   UNL     1      -4.247  -2.659  -1.771  1.00  0.00    -0.014 A 
ATOM     94  C   UNL     1      -3.683  -3.852  -1.309  1.00  0.00     0.009 A 
ATOM     95  C   UNL     1      -3.771  -1.438  -1.266  1.00  0.00     0.009 A 
ATOM     96  C   UNL     1      -2.672  -3.818  -0.348  1.00  0.00     0.001 A 
ATOM     97  C   UNL     1      -2.761  -1.411  -0.307  1.00  0.00     0.001 A 
ATOM     98  C   UNL     1      -2.216  -2.604   0.157  1.00  0.00     0.000 A 
ENDBRANCH  80  93
ENDBRANCH  54  55
ENDBRANCH  47  49
ENDBRANCH  46  47
ENDBRANCH  45  46
ENDBRANCH  44  45
ENDBRANCH  43  44
ENDBRANCH  42  43
ENDBRANCH  41  42
ENDBRANCH  40  41
ENDBRANCH  39  40
ENDBRANCH   1  39
TORSDOF 26
