REMARK SMILES Cc1cccc(-c2ncc(C[NH+]3CCC4(CC3)NC(=O)C[C@H]4C(=O)OCCOCCOCCOCCOC(=O)c3ccc(-c4c5nc(c(-c6ccccc6)c6ccc([nH]6)c(-c6ccccc6)c6nc(c(-c7ccccc7)c7ccc4[nH]7)C=C6)C=C5)cc3)cn2)c1
REMARK SMILES IDX 30 1 29 2 28 3 27 4 26 5 25 6 23 7 24 8 22 9 12 10 13 11
REMARK SMILES IDX 17 12 14 14 16 15 15 16 18 17 19 18 21 20 20 21 11 22 10 23
REMARK SMILES IDX 7 24 8 25 89 26 9 27 88 28 6 29 1 30 2 31 3 32 90 33 4 34
REMARK SMILES IDX 5 35 31 36 32 37 33 38 34 39 35 40 36 41 37 42 38 43 39 44
REMARK SMILES IDX 40 45 41 46 87 47 42 48 86 49 43 50 44 51 45 52 80 53 46 54
REMARK SMILES IDX 85 55 79 56 81 57 47 58 84 59 78 60 77 61 48 63 70 64 55 65
REMARK SMILES IDX 69 66 56 67 59 68 68 69 82 70 57 71 58 72 67 74 83 75 60 76
REMARK SMILES IDX 49 77 50 78 54 79 51 80 53 81 52 82 71 83 72 84 76 85 73 86
REMARK SMILES IDX 75 87 74 88 61 89 62 90 66 91 63 92 65 93 64 94
REMARK H PARENT 12 13 18 19 81 62 59 73
REMARK Flexibility Score: inf
ROOT
ATOM      1  C   UNL     1      -2.464   7.910  -2.140  1.00  0.00     0.188 C 
ENDROOT
BRANCH   1   2
ATOM      2  C   UNL     1      -2.207   9.409  -2.194  1.00  0.00     0.188 C 
BRANCH   2   3
ATOM      3  O   UNL     1      -1.268   9.895  -3.120  1.00  0.00    -0.376 OA
BRANCH   3   4
ATOM      4  C   UNL     1      -0.206   9.016  -3.422  1.00  0.00     0.202 C 
BRANCH   4   5
ATOM      5  C   UNL     1       0.864   8.776  -2.353  1.00  0.00     0.261 C 
BRANCH   5   6
ATOM      6  O   UNL     1       0.565   7.820  -1.310  1.00  0.00    -0.463 OA
BRANCH   6   7
ATOM      7  C   UNL     1       0.986   8.161  -0.068  1.00  0.00     0.311 C 
ATOM      8  O   UNL     1       1.273   9.308   0.260  1.00  0.00    -0.252 OA
BRANCH   7   9
ATOM      9  C   UNL     1       1.250   6.990   0.873  1.00  0.00     0.134 C 
ATOM     10  N   UNL     1      -2.729   6.669   1.762  1.00  0.00    -0.331 N 
ATOM     11  C   UNL     1      -1.740   7.001   2.764  1.00  0.00     0.264 C 
ATOM     12  C   UNL     1      -2.133   6.603   0.454  1.00  0.00     0.264 C 
ATOM     13  H   UNL     1      -3.350   7.475   1.829  1.00  0.00     0.348 HD
ATOM     14  C   UNL     1      -0.450   6.178   2.694  1.00  0.00     0.091 C 
ATOM     15  C   UNL     1      -0.931   5.685   0.266  1.00  0.00     0.091 C 
ATOM     16  C   UNL     1       0.167   5.950   1.284  1.00  0.00     0.064 C 
ATOM     17  N   UNL     1       0.954   4.724   1.371  1.00  0.00    -0.349 N 
ATOM     18  C   UNL     1       2.191   4.766   0.780  1.00  0.00     0.221 C 
ATOM     19  H   UNL     1       0.618   3.918   1.826  1.00  0.00     0.164 HD
ATOM     20  C   UNL     1       2.459   6.181   0.353  1.00  0.00     0.117 C 
ATOM     21  O   UNL     1       2.922   3.820   0.649  1.00  0.00    -0.275 OA
BRANCH  10  22
ATOM     22  C   UNL     1      -3.825   5.731   2.025  1.00  0.00     0.302 C 
BRANCH  22  23
ATOM     23  C   UNL     1      -3.521   4.297   1.716  1.00  0.00     0.043 A 
ATOM     24  C   UNL     1      -2.413   1.952   0.956  1.00  0.00     0.159 A 
ATOM     25  N   UNL     1      -2.253   2.341   2.237  1.00  0.00    -0.236 NA
ATOM     26  N   UNL     1      -3.186   2.577   0.051  1.00  0.00    -0.236 NA
ATOM     27  C   UNL     1      -2.841   3.494   2.595  1.00  0.00     0.124 A 
ATOM     28  C   UNL     1      -3.729   3.737   0.469  1.00  0.00     0.124 A 
BRANCH  24  29
ATOM     29  C   UNL     1      -1.584   0.835   0.512  1.00  0.00     0.019 A 
ATOM     30  C   UNL     1       2.136   0.023   0.106  1.00  0.00     0.044 C 
ATOM     31  C   UNL     1       0.641  -0.121   0.122  1.00  0.00    -0.050 A 
ATOM     32  C   UNL     1       0.051  -1.366  -0.108  1.00  0.00     0.003 A 
ATOM     33  C   UNL     1      -0.183   0.969   0.431  1.00  0.00     0.015 A 
ATOM     34  C   UNL     1      -1.337  -1.509  -0.070  1.00  0.00     0.001 A 
ATOM     35  C   UNL     1      -2.150  -0.413   0.228  1.00  0.00     0.012 A 
ENDBRANCH  24  29
ENDBRANCH  22  23
ENDBRANCH  10  22
ENDBRANCH   7   9
ENDBRANCH   6   7
ENDBRANCH   5   6
ENDBRANCH   4   5
ENDBRANCH   3   4
ENDBRANCH   2   3
ENDBRANCH   1   2
BRANCH   1  36
ATOM     36  O   UNL     1      -2.714   7.162  -3.312  1.00  0.00    -0.377 OA
BRANCH  36  37
ATOM     37  C   UNL     1      -3.035   5.795  -2.975  1.00  0.00     0.188 C 
BRANCH  37  38
ATOM     38  C   UNL     1      -4.529   5.597  -2.821  1.00  0.00     0.188 C 
BRANCH  38  39
ATOM     39  O   UNL     1      -5.105   6.819  -2.412  1.00  0.00    -0.376 OA
BRANCH  39  40
ATOM     40  C   UNL     1      -6.499   6.841  -2.206  1.00  0.00     0.202 C 
BRANCH  40  41
ATOM     41  C   UNL     1      -7.337   6.265  -3.354  1.00  0.00     0.261 C 
BRANCH  41  42
ATOM     42  O   UNL     1      -6.838   6.737  -4.624  1.00  0.00    -0.460 OA
BRANCH  42  43
ATOM     43  C   UNL     1      -6.548   5.773  -5.548  1.00  0.00     0.338 C 
ATOM     44  O   UNL     1      -7.099   4.687  -5.631  1.00  0.00    -0.246 OA
BRANCH  43  45
ATOM     45  C   UNL     1      -5.229   6.072  -6.201  1.00  0.00     0.060 A 
ATOM     46  C   UNL     1      -4.500   5.013  -6.778  1.00  0.00     0.016 A 
ATOM     47  C   UNL     1      -4.577   7.271  -5.930  1.00  0.00     0.016 A 
ATOM     48  C   UNL     1      -3.098   5.090  -6.909  1.00  0.00     0.010 A 
ATOM     49  C   UNL     1      -3.191   7.327  -6.039  1.00  0.00     0.010 A 
ATOM     50  C   UNL     1      -2.420   6.216  -6.441  1.00  0.00    -0.014 A 
BRANCH  50  51
ATOM     51  C   UNL     1      -0.973   6.269  -6.083  1.00  0.00     0.031 A 
ATOM     52  C   UNL     1      -0.146   7.468  -6.470  1.00  0.00     0.074 A 
ATOM     53  C   UNL     1      -0.519   5.456  -5.087  1.00  0.00     0.049 A 
ATOM     54  N   UNL     1       1.087   7.674  -6.131  1.00  0.00    -0.248 NA
ATOM     55  C   UNL     1      -0.655   8.556  -7.308  1.00  0.00     0.031 C 
ATOM     56  C   UNL     1       0.522   5.766  -4.100  1.00  0.00     0.029 A 
ATOM     57  N   UNL     1      -0.915   4.195  -4.664  1.00  0.00    -0.354 N 
ATOM     58  C   UNL     1       1.391   9.007  -6.363  1.00  0.00     0.074 A 
ATOM     59  C   UNL     1       0.317   9.472  -7.206  1.00  0.00     0.031 C 
ATOM     60  C   UNL     1       0.757   4.711  -3.308  1.00  0.00     0.029 A 
ATOM     61  C   UNL     1       0.125   3.594  -3.947  1.00  0.00     0.049 A 
ATOM     62  H   UNL     1      -1.793   3.786  -4.841  1.00  0.00     0.167 HD
ATOM     63  C   UNL     1       2.403   9.611  -5.655  1.00  0.00     0.031 A 
ATOM     64  C   UNL     1       0.821   2.526  -4.439  1.00  0.00     0.031 A 
ATOM     65  C   UNL     1       3.258   8.638  -4.934  1.00  0.00     0.049 A 
ATOM     66  C   UNL     1       2.265   2.891  -4.823  1.00  0.00     0.074 A 
ATOM     67  C   UNL     1       3.887   8.559  -3.697  1.00  0.00     0.029 A 
ATOM     68  N   UNL     1       3.481   7.394  -5.519  1.00  0.00    -0.354 N 
ATOM     69  N   UNL     1       2.753   4.113  -4.763  1.00  0.00    -0.248 NA
ATOM     70  C   UNL     1       3.283   1.956  -5.291  1.00  0.00     0.031 C 
ATOM     71  C   UNL     1       4.391   7.231  -3.523  1.00  0.00     0.029 A 
ATOM     72  C   UNL     1       4.182   6.541  -4.702  1.00  0.00     0.049 A 
ATOM     73  H   UNL     1       3.169   7.152  -6.421  1.00  0.00     0.167 HD
ATOM     74  C   UNL     1       4.052   4.162  -5.196  1.00  0.00     0.074 A 
ATOM     75  C   UNL     1       4.338   2.770  -5.500  1.00  0.00     0.031 C 
ATOM     76  C   UNL     1       4.756   5.339  -5.301  1.00  0.00     0.031 A 
BRANCH  63  77
ATOM     77  C   UNL     1       2.501  11.131  -5.423  1.00  0.00    -0.014 A 
ATOM     78  C   UNL     1       3.576  11.671  -4.684  1.00  0.00     0.009 A 
ATOM     79  C   UNL     1       1.513  12.072  -5.784  1.00  0.00     0.009 A 
ATOM     80  C   UNL     1       3.647  13.028  -4.311  1.00  0.00     0.001 A 
ATOM     81  C   UNL     1       1.601  13.441  -5.460  1.00  0.00     0.001 A 
ATOM     82  C   UNL     1       2.662  13.918  -4.710  1.00  0.00     0.000 A 
ENDBRANCH  63  77
BRANCH  64  83
ATOM     83  C   UNL     1      -0.130   1.448  -4.889  1.00  0.00    -0.014 A 
ATOM     84  C   UNL     1      -0.834   0.859  -3.808  1.00  0.00     0.009 A 
ATOM     85  C   UNL     1      -0.829   1.602  -6.104  1.00  0.00     0.009 A 
ATOM     86  C   UNL     1      -2.233   0.773  -3.826  1.00  0.00     0.001 A 
ATOM     87  C   UNL     1      -2.234   1.475  -6.126  1.00  0.00     0.001 A 
ATOM     88  C   UNL     1      -2.937   1.141  -4.967  1.00  0.00     0.000 A 
ENDBRANCH  64  83
BRANCH  76  89
ATOM     89  C   UNL     1       6.038   5.590  -6.095  1.00  0.00    -0.014 A 
ATOM     90  C   UNL     1       6.867   4.613  -6.638  1.00  0.00     0.009 A 
ATOM     91  C   UNL     1       6.401   6.934  -6.402  1.00  0.00     0.009 A 
ATOM     92  C   UNL     1       7.917   4.946  -7.510  1.00  0.00     0.001 A 
ATOM     93  C   UNL     1       7.430   7.275  -7.279  1.00  0.00     0.001 A 
ATOM     94  C   UNL     1       8.180   6.270  -7.854  1.00  0.00     0.000 A 
ENDBRANCH  76  89
ENDBRANCH  50  51
ENDBRANCH  43  45
ENDBRANCH  42  43
ENDBRANCH  41  42
ENDBRANCH  40  41
ENDBRANCH  39  40
ENDBRANCH  38  39
ENDBRANCH  37  38
ENDBRANCH  36  37
ENDBRANCH   1  36
TORSDOF 23
