REMARK SMILES CS(=O)(=O)c1ccc(N2N=C(C(=O)OCCOCCOCCOCCOC(=O)c3ccc(-c4c5nc(c(-c6ccccc6)c6ccc([nH]6)c(-c6ccccc6)c6nc(c(-c7ccccc7)c7ccc4[nH]7)C=C6)C=C5)cc3)C[C@H]2c2cccs2)cc1
REMARK SMILES IDX 20 1 19 2 18 3 17 4 16 5 15 6 14 7 12 8 13 9 11 10 9 11
REMARK SMILES IDX 10 12 78 13 77 14 8 15 5 16 6 17 85 18 7 19 84 20 2 21 1 22
REMARK SMILES IDX 3 23 4 24 79 25 80 26 83 27 81 28 82 29 21 30 22 31 23 32
REMARK SMILES IDX 24 33 25 34 26 35 27 36 28 37 29 38 30 39 76 40 31 41 75 42
REMARK SMILES IDX 32 43 33 44 34 45 69 46 35 47 74 48 68 49 70 50 36 51 73 52
REMARK SMILES IDX 67 53 66 54 37 56 59 57 44 58 58 59 45 60 48 61 57 62 71 63
REMARK SMILES IDX 46 64 47 65 56 67 72 68 49 69 38 70 39 71 43 72 40 73 42 74
REMARK SMILES IDX 41 75 60 76 61 77 65 78 62 79 64 80 63 81 50 82 51 83 55 84
REMARK SMILES IDX 52 85 54 86 53 87
REMARK H PARENT 70 55 48 66
REMARK Flexibility Score: inf
ROOT
ATOM      1  O   UNL     1       3.039   6.922   8.246  1.00  0.00    -0.377 OA
ENDROOT
BRANCH   1   2
ATOM      2  C   UNL     1       3.339   5.888   7.317  1.00  0.00     0.188 C 
BRANCH   2   3
ATOM      3  C   UNL     1       4.813   5.899   6.875  1.00  0.00     0.188 C 
BRANCH   3   4
ATOM      4  O   UNL     1       5.629   6.683   7.742  1.00  0.00    -0.376 OA
BRANCH   4   5
ATOM      5  C   UNL     1       6.011   7.979   7.299  1.00  0.00     0.202 C 
BRANCH   5   6
ATOM      6  C   UNL     1       4.917   9.022   7.011  1.00  0.00     0.261 C 
BRANCH   6   7
ATOM      7  O   UNL     1       3.832   8.559   6.199  1.00  0.00    -0.459 OA
BRANCH   7   8
ATOM      8  C   UNL     1       4.045   8.450   4.875  1.00  0.00     0.354 C 
ATOM      9  O   UNL     1       5.006   8.803   4.243  1.00  0.00    -0.245 OA
BRANCH   8  10
ATOM     10  C   UNL     1       2.882   7.668   4.305  1.00  0.00     0.148 C 
ATOM     11  N   UNL     1       1.758   6.270   3.192  1.00  0.00    -0.256 N 
ATOM     12  N   UNL     1       3.029   6.613   3.558  1.00  0.00    -0.169 NA
ATOM     13  C   UNL     1       0.778   7.329   3.492  1.00  0.00     0.154 C 
ATOM     14  C   UNL     1       1.469   8.013   4.678  1.00  0.00     0.099 C 
BRANCH  11  15
ATOM     15  C   UNL     1       1.534   5.187   2.357  1.00  0.00     0.060 A 
ATOM     16  C   UNL     1       0.940   2.973   0.714  1.00  0.00     0.067 A 
ATOM     17  C   UNL     1       1.232   2.773   2.063  1.00  0.00     0.022 A 
ATOM     18  C   UNL     1       0.989   4.258   0.171  1.00  0.00     0.022 A 
ATOM     19  C   UNL     1       1.534   3.880   2.871  1.00  0.00     0.029 A 
ATOM     20  C   UNL     1       1.289   5.349   0.990  1.00  0.00     0.029 A 
BRANCH  16  21
ATOM     21  S   UNL     1       0.482   1.637  -0.365  1.00  0.00     0.175 S 
ATOM     22  C   UNL     1       1.233   0.166   0.267  1.00  0.00     0.163 C 
ATOM     23  O   UNL     1       1.099   1.904  -1.651  1.00  0.00    -0.224 OA
ATOM     24  O   UNL     1      -0.956   1.492  -0.243  1.00  0.00    -0.224 OA
ENDBRANCH  16  21
ENDBRANCH  11  15
BRANCH  13  25
ATOM     25  C   UNL     1       0.449   8.299   2.364  1.00  0.00     0.030 A 
ATOM     26  C   UNL     1      -0.574   8.187   1.438  1.00  0.00     0.017 A 
ATOM     27  S   UNL     1       1.379   9.717   2.066  1.00  0.00    -0.147 S 
ATOM     28  C   UNL     1      -0.589   9.259   0.499  1.00  0.00     0.012 A 
ATOM     29  C   UNL     1       0.401  10.179   0.752  1.00  0.00     0.065 A 
ENDBRANCH  13  25
ENDBRANCH   8  10
ENDBRANCH   7   8
ENDBRANCH   6   7
ENDBRANCH   5   6
ENDBRANCH   4   5
ENDBRANCH   3   4
ENDBRANCH   2   3
ENDBRANCH   1   2
BRANCH   1  30
ATOM     30  C   UNL     1       3.245   6.638   9.630  1.00  0.00     0.188 C 
BRANCH  30  31
ATOM     31  C   UNL     1       4.303   5.609  10.086  1.00  0.00     0.188 C 
BRANCH  31  32
ATOM     32  O   UNL     1       4.207   4.346   9.431  1.00  0.00    -0.376 OA
BRANCH  32  33
ATOM     33  C   UNL     1       3.606   3.284  10.165  1.00  0.00     0.202 C 
BRANCH  33  34
ATOM     34  C   UNL     1       2.080   3.392  10.293  1.00  0.00     0.261 C 
BRANCH  34  35
ATOM     35  O   UNL     1       1.626   4.485  11.111  1.00  0.00    -0.460 OA
BRANCH  35  36
ATOM     36  C   UNL     1       2.047   4.495  12.393  1.00  0.00     0.338 C 
ATOM     37  O   UNL     1       2.676   3.628  12.970  1.00  0.00    -0.246 OA
BRANCH  36  38
ATOM     38  C   UNL     1       1.788   5.834  12.954  1.00  0.00     0.060 A 
ATOM     39  C   UNL     1       2.856   6.519  13.545  1.00  0.00     0.016 A 
ATOM     40  C   UNL     1       0.506   6.391  12.934  1.00  0.00     0.016 A 
ATOM     41  C   UNL     1       2.628   7.737  14.181  1.00  0.00     0.010 A 
ATOM     42  C   UNL     1       0.278   7.608  13.581  1.00  0.00     0.010 A 
ATOM     43  C   UNL     1       1.330   8.259  14.248  1.00  0.00    -0.014 A 
BRANCH  43  44
ATOM     44  C   UNL     1       1.060   9.378  15.180  1.00  0.00     0.031 A 
ATOM     45  C   UNL     1       0.552   9.061  16.559  1.00  0.00     0.074 A 
ATOM     46  C   UNL     1       1.316  10.649  14.832  1.00  0.00     0.049 A 
ATOM     47  N   UNL     1       0.362   9.861  17.577  1.00  0.00    -0.248 NA
ATOM     48  C   UNL     1       0.215   7.653  16.825  1.00  0.00     0.031 C 
ATOM     49  C   UNL     1       1.813  11.088  13.530  1.00  0.00     0.029 A 
ATOM     50  N   UNL     1       1.198  11.806  15.560  1.00  0.00    -0.354 N 
ATOM     51  C   UNL     1      -0.107   9.053  18.605  1.00  0.00     0.074 A 
ATOM     52  C   UNL     1      -0.217   7.712  18.075  1.00  0.00     0.031 C 
ATOM     53  C   UNL     1       1.958  12.424  13.551  1.00  0.00     0.029 A 
ATOM     54  C   UNL     1       1.559  12.931  14.863  1.00  0.00     0.049 A 
ATOM     55  H   UNL     1       0.883  11.827  16.493  1.00  0.00     0.167 HD
ATOM     56  C   UNL     1      -0.410   9.392  19.881  1.00  0.00     0.031 A 
ATOM     57  C   UNL     1       1.572  14.223  15.243  1.00  0.00     0.031 A 
ATOM     58  C   UNL     1      -0.332  10.729  20.403  1.00  0.00     0.049 A 
ATOM     59  C   UNL     1       1.198  14.587  16.654  1.00  0.00     0.074 A 
ATOM     60  C   UNL     1      -0.592  11.171  21.688  1.00  0.00     0.029 A 
ATOM     61  N   UNL     1       0.017  11.845  19.658  1.00  0.00    -0.354 N 
ATOM     62  N   UNL     1       0.825  13.805  17.638  1.00  0.00    -0.248 NA
ATOM     63  C   UNL     1       1.274  16.010  17.011  1.00  0.00     0.031 C 
ATOM     64  C   UNL     1      -0.454  12.564  21.706  1.00  0.00     0.029 A 
ATOM     65  C   UNL     1      -0.049  12.981  20.448  1.00  0.00     0.049 A 
ATOM     66  H   UNL     1       0.275  11.832  18.708  1.00  0.00     0.167 HD
ATOM     67  C   UNL     1       0.644  14.636  18.737  1.00  0.00     0.074 A 
ATOM     68  C   UNL     1       0.963  15.981  18.300  1.00  0.00     0.031 C 
ATOM     69  C   UNL     1       0.256  14.315  19.997  1.00  0.00     0.031 A 
BRANCH  56  70
ATOM     70  C   UNL     1      -0.891   8.288  20.780  1.00  0.00    -0.014 A 
ATOM     71  C   UNL     1      -0.022   7.277  21.223  1.00  0.00     0.009 A 
ATOM     72  C   UNL     1      -2.235   8.252  21.180  1.00  0.00     0.009 A 
ATOM     73  C   UNL     1      -0.502   6.226  22.008  1.00  0.00     0.001 A 
ATOM     74  C   UNL     1      -2.705   7.216  21.988  1.00  0.00     0.001 A 
ATOM     75  C   UNL     1      -1.843   6.198  22.391  1.00  0.00     0.000 A 
ENDBRANCH  56  70
BRANCH  57  76
ATOM     76  C   UNL     1       1.968  15.267  14.264  1.00  0.00    -0.014 A 
ATOM     77  C   UNL     1       3.208  15.915  14.364  1.00  0.00     0.009 A 
ATOM     78  C   UNL     1       1.108  15.602  13.206  1.00  0.00     0.009 A 
ATOM     79  C   UNL     1       3.572  16.889  13.432  1.00  0.00     0.001 A 
ATOM     80  C   UNL     1       1.486  16.558  12.262  1.00  0.00     0.001 A 
ATOM     81  C   UNL     1       2.715  17.204  12.378  1.00  0.00     0.000 A 
ENDBRANCH  57  76
BRANCH  69  82
ATOM     82  C   UNL     1       0.177  15.432  21.000  1.00  0.00    -0.014 A 
ATOM     83  C   UNL     1      -0.842  16.396  20.942  1.00  0.00     0.009 A 
ATOM     84  C   UNL     1       1.117  15.499  22.040  1.00  0.00     0.009 A 
ATOM     85  C   UNL     1      -0.894  17.426  21.884  1.00  0.00     0.001 A 
ATOM     86  C   UNL     1       1.046  16.513  22.997  1.00  0.00     0.001 A 
ATOM     87  C   UNL     1       0.047  17.481  22.912  1.00  0.00     0.000 A 
ENDBRANCH  69  82
ENDBRANCH  43  44
ENDBRANCH  36  38
ENDBRANCH  35  36
ENDBRANCH  34  35
ENDBRANCH  33  34
ENDBRANCH  32  33
ENDBRANCH  31  32
ENDBRANCH  30  31
ENDBRANCH   1  30
TORSDOF 23
