REMARK SMILES Cc1ncccc1C(=O)N1CC[C@@H](C(=O)OCCOCCOCCOCCOC(=O)c2ccc(-c3c4nc(c(-c5ccccc5)c5ccc([nH]5)c(-c5ccccc5)c5nc(c(-c6ccccc6)c6ccc3[nH]6)C=C5)C=C4)cc2)C1
REMARK SMILES IDX 22 1 21 2 20 3 19 4 18 5 17 6 16 7 14 8 15 9 13 10 10 11
REMARK SMILES IDX 11 12 79 13 12 14 8 15 9 16 7 17 1 18 2 19 3 20 4 21 6 22
REMARK SMILES IDX 5 23 23 24 24 25 25 26 26 27 27 28 28 29 29 30 30 31 31 32
REMARK SMILES IDX 32 33 78 34 33 35 77 36 34 37 35 38 36 39 71 40 37 41 76 42
REMARK SMILES IDX 70 43 72 44 38 45 75 46 69 47 68 48 39 50 61 51 46 52 60 53
REMARK SMILES IDX 47 54 50 55 59 56 73 57 48 58 49 59 58 61 74 62 51 63 40 64
REMARK SMILES IDX 41 65 45 66 42 67 44 68 43 69 62 70 63 71 67 72 64 73 66 74
REMARK SMILES IDX 65 75 52 76 53 77 57 78 54 79 56 80 55 81
REMARK H PARENT 72 49 50 60
REMARK Flexibility Score: inf
ROOT
ATOM      1  O   UNL     1       5.211  -5.105   2.167  1.00  0.00    -0.377 OA
ENDROOT
BRANCH   1   2
ATOM      2  C   UNL     1       4.393  -5.343   1.036  1.00  0.00     0.188 C 
BRANCH   2   3
ATOM      3  C   UNL     1       5.149  -5.898  -0.187  1.00  0.00     0.188 C 
BRANCH   3   4
ATOM      4  O   UNL     1       6.472  -6.394  -0.051  1.00  0.00    -0.376 OA
BRANCH   4   5
ATOM      5  C   UNL     1       7.472  -5.664   0.640  1.00  0.00     0.202 C 
BRANCH   5   6
ATOM      6  C   UNL     1       7.613  -4.135   0.573  1.00  0.00     0.261 C 
BRANCH   6   7
ATOM      7  O   UNL     1       6.419  -3.358   0.457  1.00  0.00    -0.463 OA
BRANCH   7   8
ATOM      8  C   UNL     1       6.130  -2.867  -0.771  1.00  0.00     0.310 C 
ATOM      9  O   UNL     1       6.722  -3.163  -1.801  1.00  0.00    -0.252 OA
BRANCH   8  10
ATOM     10  C   UNL     1       4.965  -1.907  -0.744  1.00  0.00     0.120 C 
ATOM     11  N   UNL     1       2.674  -2.049  -0.210  1.00  0.00    -0.338 N 
ATOM     12  C   UNL     1       3.307  -1.661   1.034  1.00  0.00     0.121 C 
ATOM     13  C   UNL     1       3.647  -2.550  -1.163  1.00  0.00     0.135 C 
ATOM     14  C   UNL     1       4.698  -1.217   0.610  1.00  0.00     0.039 C 
BRANCH  11  15
ATOM     15  C   UNL     1       1.324  -2.158  -0.453  1.00  0.00     0.255 C 
ATOM     16  O   UNL     1       0.849  -3.135  -1.028  1.00  0.00    -0.269 OA
BRANCH  15  17
ATOM     17  C   UNL     1       0.434  -1.003  -0.142  1.00  0.00     0.061 A 
ATOM     18  C   UNL     1       2.166   0.823  -0.670  1.00  0.00     0.067 C 
ATOM     19  C   UNL     1       0.800   0.344  -0.287  1.00  0.00     0.050 A 
ATOM     20  N   UNL     1      -0.087   1.364  -0.113  1.00  0.00    -0.261 NA
ATOM     21  C   UNL     1      -1.376   1.053   0.127  1.00  0.00     0.111 A 
ATOM     22  C   UNL     1      -0.918  -1.281   0.109  1.00  0.00     0.017 A 
ATOM     23  C   UNL     1      -1.838  -0.242   0.238  1.00  0.00     0.021 A 
ENDBRANCH  15  17
ENDBRANCH  11  15
ENDBRANCH   8  10
ENDBRANCH   7   8
ENDBRANCH   6   7
ENDBRANCH   5   6
ENDBRANCH   4   5
ENDBRANCH   3   4
ENDBRANCH   2   3
ENDBRANCH   1   2
BRANCH   1  24
ATOM     24  C   UNL     1       5.232  -6.134   3.147  1.00  0.00     0.188 C 
BRANCH  24  25
ATOM     25  C   UNL     1       5.228  -7.606   2.678  1.00  0.00     0.188 C 
BRANCH  25  26
ATOM     26  O   UNL     1       4.252  -7.902   1.688  1.00  0.00    -0.376 OA
BRANCH  26  27
ATOM     27  C   UNL     1       3.072  -8.589   2.074  1.00  0.00     0.202 C 
BRANCH  27  28
ATOM     28  C   UNL     1       2.058  -7.806   2.922  1.00  0.00     0.261 C 
BRANCH  28  29
ATOM     29  O   UNL     1       2.566  -7.241   4.139  1.00  0.00    -0.460 OA
BRANCH  29  30
ATOM     30  C   UNL     1       2.997  -8.102   5.090  1.00  0.00     0.338 C 
ATOM     31  O   UNL     1       2.977  -9.311   5.053  1.00  0.00    -0.246 OA
BRANCH  30  32
ATOM     32  C   UNL     1       3.690  -7.297   6.122  1.00  0.00     0.060 A 
ATOM     33  C   UNL     1       5.058  -7.506   6.338  1.00  0.00     0.016 A 
ATOM     34  C   UNL     1       3.003  -6.314   6.838  1.00  0.00     0.016 A 
ATOM     35  C   UNL     1       5.744  -6.733   7.275  1.00  0.00     0.010 A 
ATOM     36  C   UNL     1       3.684  -5.562   7.798  1.00  0.00     0.010 A 
ATOM     37  C   UNL     1       5.054  -5.779   8.033  1.00  0.00    -0.014 A 
BRANCH  37  38
ATOM     38  C   UNL     1       5.721  -5.111   9.175  1.00  0.00     0.031 A 
ATOM     39  C   UNL     1       5.511  -5.666  10.555  1.00  0.00     0.074 A 
ATOM     40  C   UNL     1       6.497  -4.028   8.993  1.00  0.00     0.049 A 
ATOM     41  N   UNL     1       5.929  -5.208  11.706  1.00  0.00    -0.248 NA
ATOM     42  C   UNL     1       4.721  -6.905  10.646  1.00  0.00     0.031 C 
ATOM     43  C   UNL     1       6.821  -3.423   7.702  1.00  0.00     0.029 A 
ATOM     44  N   UNL     1       7.143  -3.235   9.909  1.00  0.00    -0.354 N 
ATOM     45  C   UNL     1       5.445  -6.094  12.660  1.00  0.00     0.074 A 
ATOM     46  C   UNL     1       4.684  -7.103  11.955  1.00  0.00     0.031 C 
ATOM     47  C   UNL     1       7.593  -2.342   7.911  1.00  0.00     0.029 A 
ATOM     48  C   UNL     1       7.781  -2.156   9.349  1.00  0.00     0.049 A 
ATOM     49  H   UNL     1       7.148  -3.423  10.876  1.00  0.00     0.167 HD
ATOM     50  C   UNL     1       5.617  -6.069  14.002  1.00  0.00     0.031 A 
ATOM     51  C   UNL     1       8.415  -1.119   9.932  1.00  0.00     0.031 A 
ATOM     52  C   UNL     1       6.352  -5.051  14.704  1.00  0.00     0.049 A 
ATOM     53  C   UNL     1       8.506  -1.059  11.436  1.00  0.00     0.074 A 
ATOM     54  C   UNL     1       6.598  -4.949  16.062  1.00  0.00     0.029 A 
ATOM     55  N   UNL     1       6.944  -3.950  14.105  1.00  0.00    -0.354 N 
ATOM     56  N   UNL     1       8.075  -1.919  12.327  1.00  0.00    -0.248 NA
ATOM     57  C   UNL     1       9.172   0.118  12.013  1.00  0.00     0.031 C 
ATOM     58  C   UNL     1       7.276  -3.747  16.292  1.00  0.00     0.029 A 
ATOM     59  C   UNL     1       7.516  -3.139  15.070  1.00  0.00     0.049 A 
ATOM     60  H   UNL     1       6.955  -3.771  13.137  1.00  0.00     0.167 HD
ATOM     61  C   UNL     1       8.438  -1.401  13.564  1.00  0.00     0.074 A 
ATOM     62  C   UNL     1       9.143  -0.162  13.308  1.00  0.00     0.031 C 
ATOM     63  C   UNL     1       8.207  -1.904  14.802  1.00  0.00     0.031 A 
BRANCH  50  64
ATOM     64  C   UNL     1       4.951  -7.152  14.806  1.00  0.00    -0.014 A 
ATOM     65  C   UNL     1       5.396  -8.483  14.756  1.00  0.00     0.009 A 
ATOM     66  C   UNL     1       3.879  -6.827  15.651  1.00  0.00     0.009 A 
ATOM     67  C   UNL     1       4.757  -9.470  15.510  1.00  0.00     0.001 A 
ATOM     68  C   UNL     1       3.263  -7.809  16.427  1.00  0.00     0.001 A 
ATOM     69  C   UNL     1       3.696  -9.131  16.349  1.00  0.00     0.000 A 
ENDBRANCH  50  64
BRANCH  51  70
ATOM     70  C   UNL     1       8.979  -0.024   9.098  1.00  0.00    -0.014 A 
ATOM     71  C   UNL     1      10.364   0.184   9.025  1.00  0.00     0.009 A 
ATOM     72  C   UNL     1       8.127   0.839   8.389  1.00  0.00     0.009 A 
ATOM     73  C   UNL     1      10.883   1.247   8.280  1.00  0.00     0.001 A 
ATOM     74  C   UNL     1       8.650   1.880   7.619  1.00  0.00     0.001 A 
ATOM     75  C   UNL     1      10.026   2.090   7.573  1.00  0.00     0.000 A 
ENDBRANCH  51  70
BRANCH  63  76
ATOM     76  C   UNL     1       8.742  -1.129  15.977  1.00  0.00    -0.014 A 
ATOM     77  C   UNL     1       8.176   0.095  16.364  1.00  0.00     0.009 A 
ATOM     78  C   UNL     1       9.796  -1.660  16.739  1.00  0.00     0.009 A 
ATOM     79  C   UNL     1       8.675   0.787  17.470  1.00  0.00     0.001 A 
ATOM     80  C   UNL     1      10.271  -0.983  17.863  1.00  0.00     0.001 A 
ATOM     81  C   UNL     1       9.717   0.245  18.222  1.00  0.00     0.000 A 
ENDBRANCH  63  76
ENDBRANCH  37  38
ENDBRANCH  30  32
ENDBRANCH  29  30
ENDBRANCH  28  29
ENDBRANCH  27  28
ENDBRANCH  26  27
ENDBRANCH  25  26
ENDBRANCH  24  25
ENDBRANCH   1  24
TORSDOF 22
