REMARK SMILES Cc1ccc(NC(=O)C[N@H+]2CCC[C@@H](C(=O)OCCOCCOCCOCCOC(=O)c3ccc(-c4c5nc(c(-c6ccccc6)c6ccc([nH]6)c(-c6ccccc6)c6nc(c(-c7ccccc7)c7ccc4[nH]7)C=C6)C=C5)cc3)C2)cc1F
REMARK SMILES IDX 22 1 21 2 20 3 19 4 18 5 17 6 15 7 16 8 14 9 10 10 11 11
REMARK SMILES IDX 80 12 12 14 13 15 9 16 7 17 6 18 8 20 5 21 1 22 2 23 3 24
REMARK SMILES IDX 82 25 4 26 81 27 83 28 23 29 24 30 25 31 26 32 27 33 28 34
REMARK SMILES IDX 29 35 30 36 31 37 32 38 33 39 79 40 34 41 78 42 35 43 36 44
REMARK SMILES IDX 37 45 72 46 38 47 77 48 71 49 73 50 39 51 76 52 70 53 69 54
REMARK SMILES IDX 40 56 62 57 47 58 61 59 48 60 51 61 60 62 74 63 49 64 50 65
REMARK SMILES IDX 59 67 75 68 52 69 41 70 42 71 46 72 43 73 45 74 44 75 63 76
REMARK SMILES IDX 64 77 68 78 65 79 67 80 66 81 53 82 54 83 58 84 55 85 57 86
REMARK SMILES IDX 56 87
REMARK H PARENT 10 13 6 19 73 55 51 66
REMARK Flexibility Score: inf
ROOT
ATOM      1  C   UNL     1       0.540   0.538  -4.482  1.00  0.00     0.188 C 
ENDROOT
BRANCH   1   2
ATOM      2  C   UNL     1      -0.727   0.534  -5.363  1.00  0.00     0.188 C 
BRANCH   2   3
ATOM      3  O   UNL     1      -1.497   1.721  -5.389  1.00  0.00    -0.376 OA
BRANCH   3   4
ATOM      4  C   UNL     1      -2.255   2.205  -4.293  1.00  0.00     0.202 C 
BRANCH   4   5
ATOM      5  C   UNL     1      -2.283   1.635  -2.867  1.00  0.00     0.261 C 
BRANCH   5   6
ATOM      6  O   UNL     1      -1.658   0.384  -2.649  1.00  0.00    -0.463 OA
BRANCH   6   7
ATOM      7  C   UNL     1      -2.287  -0.720  -3.115  1.00  0.00     0.314 C 
ATOM      8  O   UNL     1      -3.384  -0.746  -3.649  1.00  0.00    -0.252 OA
BRANCH   7   9
ATOM      9  C   UNL     1      -1.411  -1.911  -2.819  1.00  0.00     0.154 C 
ATOM     10  N   UNL     1      -1.215  -3.588  -1.097  1.00  0.00    -0.326 N 
ATOM     11  C   UNL     1      -1.088  -4.668  -2.097  1.00  0.00     0.262 C 
ATOM     12  C   UNL     1      -2.095  -2.567  -1.649  1.00  0.00     0.278 C 
ATOM     13  H   UNL     1      -0.300  -3.174  -0.918  1.00  0.00     0.348 HD
ATOM     14  C   UNL     1      -0.489  -4.150  -3.420  1.00  0.00     0.062 C 
ATOM     15  C   UNL     1      -1.198  -2.900  -3.954  1.00  0.00     0.027 C 
BRANCH  10  16
ATOM     16  C   UNL     1      -1.637  -4.084   0.237  1.00  0.00     0.363 C 
BRANCH  16  17
ATOM     17  C   UNL     1      -2.730  -3.264   0.953  1.00  0.00     0.279 C 
ATOM     18  N   UNL     1      -2.592  -1.960   1.359  1.00  0.00    -0.321 N 
ATOM     19  H   UNL     1      -3.381  -1.607   1.830  1.00  0.00     0.170 HD
ATOM     20  O   UNL     1      -3.852  -3.768   1.111  1.00  0.00    -0.268 OA
BRANCH  18  21
ATOM     21  C   UNL     1      -1.542  -1.028   1.235  1.00  0.00     0.044 A 
ATOM     22  C   UNL     1       1.435   1.929   0.207  1.00  0.00     0.047 C 
ATOM     23  C   UNL     1       0.394   0.938   0.629  1.00  0.00    -0.015 A 
ATOM     24  C   UNL     1      -0.953   1.289   0.732  1.00  0.00     0.008 A 
ATOM     25  C   UNL     1       0.754  -0.385   0.890  1.00  0.00     0.128 A 
ATOM     26  C   UNL     1      -1.910   0.317   1.052  1.00  0.00     0.026 A 
ATOM     27  C   UNL     1      -0.195  -1.363   1.189  1.00  0.00     0.065 A 
ATOM     28  F   UNL     1       2.046  -0.742   0.836  1.00  0.00    -0.207 F 
ENDBRANCH  18  21
ENDBRANCH  16  17
ENDBRANCH  10  16
ENDBRANCH   7   9
ENDBRANCH   6   7
ENDBRANCH   5   6
ENDBRANCH   4   5
ENDBRANCH   3   4
ENDBRANCH   2   3
ENDBRANCH   1   2
BRANCH   1  29
ATOM     29  O   UNL     1       0.588   1.635  -3.583  1.00  0.00    -0.377 OA
BRANCH  29  30
ATOM     30  C   UNL     1       1.180   2.834  -4.073  1.00  0.00     0.188 C 
BRANCH  30  31
ATOM     31  C   UNL     1       1.009   3.220  -5.561  1.00  0.00     0.188 C 
BRANCH  31  32
ATOM     32  O   UNL     1       1.200   2.149  -6.472  1.00  0.00    -0.376 OA
BRANCH  32  33
ATOM     33  C   UNL     1       2.413   2.023  -7.189  1.00  0.00     0.202 C 
BRANCH  33  34
ATOM     34  C   UNL     1       3.683   1.728  -6.380  1.00  0.00     0.261 C 
BRANCH  34  35
ATOM     35  O   UNL     1       3.973   2.649  -5.320  1.00  0.00    -0.460 OA
BRANCH  35  36
ATOM     36  C   UNL     1       4.188   3.934  -5.667  1.00  0.00     0.338 C 
ATOM     37  O   UNL     1       4.210   4.403  -6.794  1.00  0.00    -0.246 OA
BRANCH  36  38
ATOM     38  C   UNL     1       4.195   4.736  -4.429  1.00  0.00     0.060 A 
ATOM     39  C   UNL     1       3.255   5.764  -4.283  1.00  0.00     0.016 A 
ATOM     40  C   UNL     1       5.120   4.469  -3.417  1.00  0.00     0.016 A 
ATOM     41  C   UNL     1       3.261   6.554  -3.136  1.00  0.00     0.010 A 
ATOM     42  C   UNL     1       5.143   5.279  -2.281  1.00  0.00     0.010 A 
ATOM     43  C   UNL     1       4.237   6.346  -2.153  1.00  0.00    -0.014 A 
BRANCH  43  44
ATOM     44  C   UNL     1       4.426   7.364  -1.096  1.00  0.00     0.031 A 
ATOM     45  C   UNL     1       5.502   8.398  -1.284  1.00  0.00     0.074 A 
ATOM     46  C   UNL     1       3.633   7.398  -0.012  1.00  0.00     0.049 A 
ATOM     47  N   UNL     1       5.860   9.377  -0.493  1.00  0.00    -0.248 NA
ATOM     48  C   UNL     1       6.278   8.317  -2.534  1.00  0.00     0.031 C 
ATOM     49  C   UNL     1       2.524   6.484   0.257  1.00  0.00     0.029 A 
ATOM     50  N   UNL     1       3.645   8.243   1.068  1.00  0.00    -0.354 N 
ATOM     51  C   UNL     1       6.903  10.023  -1.146  1.00  0.00     0.074 A 
ATOM     52  C   UNL     1       7.143   9.308  -2.380  1.00  0.00     0.031 C 
ATOM     53  C   UNL     1       1.962   6.817   1.433  1.00  0.00     0.029 A 
ATOM     54  C   UNL     1       2.695   7.942   2.012  1.00  0.00     0.049 A 
ATOM     55  H   UNL     1       4.274   8.995   1.157  1.00  0.00     0.167 HD
ATOM     56  C   UNL     1       7.597  11.118  -0.755  1.00  0.00     0.031 A 
ATOM     57  C   UNL     1       2.461   8.499   3.216  1.00  0.00     0.031 A 
ATOM     58  C   UNL     1       7.372  11.816   0.482  1.00  0.00     0.049 A 
ATOM     59  C   UNL     1       3.310   9.659   3.669  1.00  0.00     0.074 A 
ATOM     60  C   UNL     1       8.017  12.940   0.967  1.00  0.00     0.029 A 
ATOM     61  N   UNL     1       6.437  11.447   1.437  1.00  0.00    -0.354 N 
ATOM     62  N   UNL     1       4.275  10.279   3.033  1.00  0.00    -0.248 NA
ATOM     63  C   UNL     1       3.028  10.200   5.006  1.00  0.00     0.031 C 
ATOM     64  C   UNL     1       7.517  13.212   2.244  1.00  0.00     0.029 A 
ATOM     65  C   UNL     1       6.510  12.302   2.524  1.00  0.00     0.049 A 
ATOM     66  H   UNL     1       5.813  10.690   1.354  1.00  0.00     0.167 HD
ATOM     67  C   UNL     1       4.694  11.300   3.879  1.00  0.00     0.074 A 
ATOM     68  C   UNL     1       3.861  11.229   5.062  1.00  0.00     0.031 C 
ATOM     69  C   UNL     1       5.678  12.215   3.696  1.00  0.00     0.031 A 
BRANCH  56  70
ATOM     70  C   UNL     1       8.696  11.602  -1.660  1.00  0.00    -0.014 A 
ATOM     71  C   UNL     1       8.416  12.200  -2.899  1.00  0.00     0.009 A 
ATOM     72  C   UNL     1      10.034  11.488  -1.250  1.00  0.00     0.009 A 
ATOM     73  C   UNL     1       9.454  12.645  -3.721  1.00  0.00     0.001 A 
ATOM     74  C   UNL     1      11.067  11.962  -2.059  1.00  0.00     0.001 A 
ATOM     75  C   UNL     1      10.778  12.532  -3.297  1.00  0.00     0.000 A 
ENDBRANCH  56  70
BRANCH  57  76
ATOM     76  C   UNL     1       1.395   7.955   4.100  1.00  0.00    -0.014 A 
ATOM     77  C   UNL     1       0.261   8.720   4.414  1.00  0.00     0.009 A 
ATOM     78  C   UNL     1       1.526   6.678   4.668  1.00  0.00     0.009 A 
ATOM     79  C   UNL     1      -0.700   8.232   5.303  1.00  0.00     0.001 A 
ATOM     80  C   UNL     1       0.547   6.178   5.528  1.00  0.00     0.001 A 
ATOM     81  C   UNL     1      -0.558   6.960   5.855  1.00  0.00     0.000 A 
ENDBRANCH  57  76
BRANCH  69  82
ATOM     82  C   UNL     1       5.882  13.235   4.785  1.00  0.00    -0.014 A 
ATOM     83  C   UNL     1       6.401  12.877   6.039  1.00  0.00     0.009 A 
ATOM     84  C   UNL     1       5.573  14.582   4.539  1.00  0.00     0.009 A 
ATOM     85  C   UNL     1       6.560  13.839   7.039  1.00  0.00     0.001 A 
ATOM     86  C   UNL     1       5.768  15.548   5.528  1.00  0.00     0.001 A 
ATOM     87  C   UNL     1       6.248  15.173   6.781  1.00  0.00     0.000 A 
ENDBRANCH  69  82
ENDBRANCH  43  44
ENDBRANCH  36  38
ENDBRANCH  35  36
ENDBRANCH  34  35
ENDBRANCH  33  34
ENDBRANCH  32  33
ENDBRANCH  31  32
ENDBRANCH  30  31
ENDBRANCH  29  30
ENDBRANCH   1  29
TORSDOF 23
