REMARK SMILES O=C(OCCOCCOCCOCCOC(=O)[C@H](c1c[nH]c2ccc(Cl)cc12)[NH+]1CCN(c2cccc(Cl)c2)CC1)c1ccc(-c2c3nc(c(-c4ccccc4)c4ccc([nH]4)c(-c4ccccc4)c4nc(c(-c5ccccc5)c5ccc2[nH]5)C=C4)C=C3)cc1
REMARK SMILES IDX 9 1 8 2 7 3 6 4 5 5 4 6 3 7 2 8 1 9 42 10 43 11 89 12 44 13
REMARK SMILES IDX 88 14 45 15 46 16 47 17 82 18 48 19 87 20 81 21 83 22 49 23
REMARK SMILES IDX 86 24 80 25 79 26 50 28 72 29 57 30 71 31 58 32 61 33 70 34
REMARK SMILES IDX 84 35 59 36 60 37 69 39 85 40 62 41 51 42 52 43 56 44 53 45
REMARK SMILES IDX 55 46 54 47 73 48 74 49 78 50 75 51 77 52 76 53 63 54 64 55
REMARK SMILES IDX 68 56 65 57 67 58 66 59 10 60 11 61 12 62 13 63 14 64 15 65
REMARK SMILES IDX 16 66 17 67 18 68 29 69 30 70 41 71 31 73 40 74 32 75 33 76
REMARK SMILES IDX 34 77 39 78 35 79 37 80 36 81 38 82 19 83 20 84 28 85 21 86
REMARK SMILES IDX 22 87 27 88 23 90 25 91 24 92 26 93
REMARK H PARENT 83 27 61 38 29 72 21 89
REMARK Flexibility Score: inf
ROOT
ATOM      1  O   UNL     1       6.579   4.114   3.833  1.00  0.00    -0.377 OA
ENDROOT
BRANCH   1   2
ATOM      2  C   UNL     1       7.360   4.974   3.002  1.00  0.00     0.188 C 
BRANCH   2   3
ATOM      3  C   UNL     1       8.623   4.309   2.450  1.00  0.00     0.188 C 
BRANCH   3   4
ATOM      4  O   UNL     1       8.244   3.267   1.550  1.00  0.00    -0.376 OA
BRANCH   4   5
ATOM      5  C   UNL     1       8.990   2.053   1.656  1.00  0.00     0.202 C 
BRANCH   5   6
ATOM      6  C   UNL     1      10.123   1.978   0.643  1.00  0.00     0.261 C 
BRANCH   6   7
ATOM      7  O   UNL     1      10.677   3.274   0.382  1.00  0.00    -0.460 OA
BRANCH   7   8
ATOM      8  C   UNL     1      10.200   4.201  -0.486  1.00  0.00     0.338 C 
ATOM      9  O   UNL     1      10.729   5.313  -0.501  1.00  0.00    -0.246 OA
BRANCH   8  10
ATOM     10  C   UNL     1       9.120   3.940  -1.490  1.00  0.00     0.060 A 
ATOM     11  C   UNL     1       8.005   3.115  -1.310  1.00  0.00     0.016 A 
ATOM     12  C   UNL     1       9.207   4.663  -2.692  1.00  0.00     0.016 A 
ATOM     13  C   UNL     1       7.032   2.973  -2.288  1.00  0.00     0.010 A 
ATOM     14  C   UNL     1       8.232   4.533  -3.685  1.00  0.00     0.010 A 
ATOM     15  C   UNL     1       7.154   3.665  -3.486  1.00  0.00    -0.014 A 
BRANCH  15  16
ATOM     16  C   UNL     1       6.251   3.286  -4.583  1.00  0.00     0.031 A 
ATOM     17  C   UNL     1       6.791   2.355  -5.624  1.00  0.00     0.074 A 
ATOM     18  C   UNL     1       4.954   3.638  -4.547  1.00  0.00     0.049 A 
ATOM     19  N   UNL     1       6.236   1.930  -6.724  1.00  0.00    -0.248 NA
ATOM     20  C   UNL     1       8.141   1.813  -5.379  1.00  0.00     0.031 C 
ATOM     21  C   UNL     1       4.312   4.397  -3.471  1.00  0.00     0.029 A 
ATOM     22  N   UNL     1       3.938   3.372  -5.422  1.00  0.00    -0.354 N 
ATOM     23  C   UNL     1       7.185   1.111  -7.323  1.00  0.00     0.074 A 
ATOM     24  C   UNL     1       8.344   1.083  -6.463  1.00  0.00     0.031 C 
ATOM     25  C   UNL     1       3.002   4.521  -3.746  1.00  0.00     0.029 A 
ATOM     26  C   UNL     1       2.735   3.918  -5.047  1.00  0.00     0.049 A 
ATOM     27  H   UNL     1       4.056   2.840  -6.242  1.00  0.00     0.167 HD
ATOM     28  C   UNL     1       7.093   0.459  -8.503  1.00  0.00     0.031 A 
ATOM     29  C   UNL     1       1.568   3.958  -5.716  1.00  0.00     0.031 A 
ATOM     30  C   UNL     1       5.926   0.520  -9.336  1.00  0.00     0.049 A 
ATOM     31  C   UNL     1       1.526   3.322  -7.080  1.00  0.00     0.074 A 
ATOM     32  C   UNL     1       5.726  -0.009 -10.595  1.00  0.00     0.029 A 
ATOM     33  N   UNL     1       4.749   1.160  -8.970  1.00  0.00    -0.354 N 
ATOM     34  N   UNL     1       2.459   2.636  -7.700  1.00  0.00    -0.248 NA
ATOM     35  C   UNL     1       0.286   3.485  -7.848  1.00  0.00     0.031 C 
ATOM     36  C   UNL     1       4.438   0.348 -11.008  1.00  0.00     0.029 A 
ATOM     37  C   UNL     1       3.819   1.052  -9.984  1.00  0.00     0.049 A 
ATOM     38  H   UNL     1       4.599   1.622  -8.113  1.00  0.00     0.167 HD
ATOM     39  C   UNL     1       1.917   2.274  -8.924  1.00  0.00     0.074 A 
ATOM     40  C   UNL     1       0.564   2.797  -8.947  1.00  0.00     0.031 C 
ATOM     41  C   UNL     1       2.481   1.584  -9.947  1.00  0.00     0.031 A 
BRANCH  28  42
ATOM     42  C   UNL     1       8.319  -0.267  -8.976  1.00  0.00    -0.014 A 
ATOM     43  C   UNL     1       8.738  -1.471  -8.389  1.00  0.00     0.009 A 
ATOM     44  C   UNL     1       9.100   0.301  -9.994  1.00  0.00     0.009 A 
ATOM     45  C   UNL     1       9.935  -2.071  -8.789  1.00  0.00     0.001 A 
ATOM     46  C   UNL     1      10.283  -0.313 -10.408  1.00  0.00     0.001 A 
ATOM     47  C   UNL     1      10.705  -1.493  -9.798  1.00  0.00     0.000 A 
ENDBRANCH  28  42
BRANCH  29  48
ATOM     48  C   UNL     1       0.394   4.686  -5.160  1.00  0.00    -0.014 A 
ATOM     49  C   UNL     1      -0.796   4.013  -4.843  1.00  0.00     0.009 A 
ATOM     50  C   UNL     1       0.450   6.077  -4.966  1.00  0.00     0.009 A 
ATOM     51  C   UNL     1      -1.908   4.719  -4.371  1.00  0.00     0.001 A 
ATOM     52  C   UNL     1      -0.651   6.775  -4.463  1.00  0.00     0.001 A 
ATOM     53  C   UNL     1      -1.833   6.098  -4.177  1.00  0.00     0.000 A 
ENDBRANCH  29  48
BRANCH  41  54
ATOM     54  C   UNL     1       1.616   1.329 -11.144  1.00  0.00    -0.014 A 
ATOM     55  C   UNL     1       1.329   2.350 -12.061  1.00  0.00     0.009 A 
ATOM     56  C   UNL     1       1.134   0.033 -11.380  1.00  0.00     0.009 A 
ATOM     57  C   UNL     1       0.548   2.081 -13.185  1.00  0.00     0.001 A 
ATOM     58  C   UNL     1       0.378  -0.238 -12.519  1.00  0.00     0.001 A 
ATOM     59  C   UNL     1       0.080   0.787 -13.415  1.00  0.00     0.000 A 
ENDBRANCH  41  54
ENDBRANCH  15  16
ENDBRANCH   8  10
ENDBRANCH   7   8
ENDBRANCH   6   7
ENDBRANCH   5   6
ENDBRANCH   4   5
ENDBRANCH   3   4
ENDBRANCH   2   3
ENDBRANCH   1   2
BRANCH   1  60
ATOM     60  C   UNL     1       6.213   2.874   3.250  1.00  0.00     0.188 C 
BRANCH  60  61
ATOM     61  C   UNL     1       5.201   2.810   2.099  1.00  0.00     0.188 C 
BRANCH  61  62
ATOM     62  O   UNL     1       4.920   4.056   1.472  1.00  0.00    -0.376 OA
BRANCH  62  63
ATOM     63  C   UNL     1       3.572   4.497   1.656  1.00  0.00     0.202 C 
BRANCH  63  64
ATOM     64  C   UNL     1       3.321   5.146   3.020  1.00  0.00     0.261 C 
BRANCH  64  65
ATOM     65  O   UNL     1       3.817   4.333   4.094  1.00  0.00    -0.459 OA
BRANCH  65  66
ATOM     66  C   UNL     1       2.986   3.488   4.760  1.00  0.00     0.370 C 
ATOM     67  O   UNL     1       1.776   3.439   4.566  1.00  0.00    -0.245 OA
BRANCH  66  68
ATOM     68  C   UNL     1       3.836   2.627   5.769  1.00  0.00     0.328 C 
BRANCH  68  69
ATOM     69  N   UNL     1       3.714   3.019   7.202  1.00  0.00    -0.316 N 
ATOM     70  C   UNL     1       5.045   2.877   7.890  1.00  0.00     0.284 C 
ATOM     71  C   UNL     1       3.283   4.429   7.394  1.00  0.00     0.284 C 
ATOM     72  H   UNL     1       3.006   2.399   7.595  1.00  0.00     0.349 HD
ATOM     73  C   UNL     1       6.133   3.984   7.626  1.00  0.00     0.178 C 
ATOM     74  C   UNL     1       4.311   5.521   7.019  1.00  0.00     0.178 C 
ATOM     75  N   UNL     1       5.546   5.322   7.785  1.00  0.00    -0.360 N 
BRANCH  75  76
ATOM     76  C   UNL     1       6.293   6.468   8.024  1.00  0.00     0.038 A 
ATOM     77  C   UNL     1       5.697   7.529   8.734  1.00  0.00     0.026 A 
ATOM     78  C   UNL     1       7.603   6.656   7.573  1.00  0.00     0.046 A 
ATOM     79  C   UNL     1       6.354   8.739   8.961  1.00  0.00     0.004 A 
ATOM     80  C   UNL     1       8.264   7.872   7.795  1.00  0.00     0.043 A 
ATOM     81  C   UNL     1       7.645   8.915   8.482  1.00  0.00     0.020 A 
ATOM     82  Cl  UNL     1       9.863   8.102   7.193  1.00  0.00    -0.084 Cl
ENDBRANCH  75  76
ENDBRANCH  68  69
BRANCH  68  83
ATOM     83  C   UNL     1       3.485   1.158   5.510  1.00  0.00     0.046 A 
ATOM     84  C   UNL     1       2.208   0.625   5.598  1.00  0.00     0.094 A 
ATOM     85  C   UNL     1       4.289   0.122   4.884  1.00  0.00     0.011 A 
ATOM     86  N   UNL     1       2.159  -0.527   4.865  1.00  0.00    -0.361 N 
ATOM     87  C   UNL     1       3.397  -0.811   4.344  1.00  0.00     0.046 A 
ATOM     88  C   UNL     1       5.663  -0.075   4.609  1.00  0.00     0.031 A 
ATOM     89  H   UNL     1       1.352  -1.075   4.730  1.00  0.00     0.166 HD
ATOM     90  C   UNL     1       3.779  -1.809   3.434  1.00  0.00     0.028 A 
ATOM     91  C   UNL     1       6.061  -1.072   3.705  1.00  0.00     0.041 A 
ATOM     92  C   UNL     1       5.130  -1.905   3.098  1.00  0.00     0.022 A 
ATOM     93  Cl  UNL     1       7.729  -1.234   3.300  1.00  0.00    -0.084 Cl
ENDBRANCH  68  83
ENDBRANCH  66  68
ENDBRANCH  65  66
ENDBRANCH  64  65
ENDBRANCH  63  64
ENDBRANCH  62  63
ENDBRANCH  61  62
ENDBRANCH  60  61
ENDBRANCH   1  60
TORSDOF 23
