REMARK SMILES COc1cccc(C(=O)N2[C@@H](C(=O)OCCOCCOCCOCCOC(=O)c3ccc(-c4c5nc(c(-c6ccccc6)c6ccc([nH]6)c(-c6ccccc6)c6nc(c(-c7ccccc7)c7ccc4[nH]7)C=C6)C=C5)cc3)CS[C@@H]2c2ccccc2Cl)c1
REMARK SMILES IDX 19 1 18 2 17 3 16 4 15 5 14 6 12 7 13 8 11 9 10 10 79 11
REMARK SMILES IDX 77 12 78 13 8 14 9 15 7 16 3 17 4 18 87 19 5 20 6 21 2 22
REMARK SMILES IDX 1 23 80 24 81 25 85 26 82 27 84 28 86 29 83 30 20 31 21 32
REMARK SMILES IDX 22 33 23 34 24 35 25 36 26 37 27 38 28 39 29 40 30 41 76 42
REMARK SMILES IDX 31 43 75 44 32 45 33 46 34 47 69 48 35 49 74 50 68 51 70 52
REMARK SMILES IDX 36 53 73 54 67 55 66 56 37 58 59 59 44 60 58 61 45 62 48 63
REMARK SMILES IDX 57 64 71 65 46 66 47 67 56 69 72 70 49 71 38 72 39 73 43 74
REMARK SMILES IDX 40 75 42 76 41 77 60 78 61 79 65 80 62 81 64 82 63 83 50 84
REMARK SMILES IDX 51 85 55 86 52 87 54 88 53 89
REMARK H PARENT 70 57 48 68
REMARK Flexibility Score: inf
ROOT
ATOM      1  C   UNL     1       3.150  -2.895  -1.446  1.00  0.00     0.188 C 
ENDROOT
BRANCH   1   2
ATOM      2  C   UNL     1       3.596  -3.491  -2.793  1.00  0.00     0.188 C 
BRANCH   2   3
ATOM      3  O   UNL     1       2.994  -4.721  -3.124  1.00  0.00    -0.376 OA
BRANCH   3   4
ATOM      4  C   UNL     1       3.668  -5.948  -2.957  1.00  0.00     0.202 C 
BRANCH   4   5
ATOM      5  C   UNL     1       4.378  -6.312  -1.643  1.00  0.00     0.261 C 
BRANCH   5   6
ATOM      6  O   UNL     1       4.646  -5.229  -0.748  1.00  0.00    -0.462 OA
BRANCH   6   7
ATOM      7  C   UNL     1       5.935  -4.853  -0.606  1.00  0.00     0.329 C 
ATOM      8  O   UNL     1       6.849  -5.292  -1.303  1.00  0.00    -0.250 OA
BRANCH   7   9
ATOM      9  C   UNL     1       6.189  -3.739   0.437  1.00  0.00     0.206 C 
ATOM     10  N   UNL     1       5.210  -3.134   1.390  1.00  0.00    -0.308 N 
ATOM     11  C   UNL     1       5.627  -1.822   1.870  1.00  0.00     0.176 C 
ATOM     12  C   UNL     1       6.734  -2.557  -0.411  1.00  0.00     0.109 C 
ATOM     13  S   UNL     1       5.980  -1.034   0.236  1.00  0.00    -0.129 SA
BRANCH  10  14
ATOM     14  C   UNL     1       4.121  -3.844   1.886  1.00  0.00     0.255 C 
ATOM     15  O   UNL     1       4.134  -5.075   1.916  1.00  0.00    -0.269 OA
BRANCH  14  16
ATOM     16  C   UNL     1       2.845  -3.134   2.304  1.00  0.00     0.043 A 
ATOM     17  C   UNL     1       1.228  -1.291   2.221  1.00  0.00     0.119 A 
ATOM     18  C   UNL     1       0.336  -2.050   2.978  1.00  0.00     0.046 A 
ATOM     19  C   UNL     1       2.461  -1.849   1.859  1.00  0.00     0.060 A 
ATOM     20  C   UNL     1       0.668  -3.342   3.379  1.00  0.00     0.005 A 
ATOM     21  C   UNL     1       1.918  -3.875   3.054  1.00  0.00     0.014 A 
BRANCH  17  22
ATOM     22  O   UNL     1       0.755  -0.050   1.892  1.00  0.00    -0.497 OA
ATOM     23  C   UNL     1       1.560   0.819   1.107  1.00  0.00     0.278 C 
ENDBRANCH  17  22
ENDBRANCH  14  16
ENDBRANCH  10  14
BRANCH  11  24
ATOM     24  C   UNL     1       6.884  -1.714   2.749  1.00  0.00     0.003 A 
ATOM     25  C   UNL     1       7.451  -0.417   2.879  1.00  0.00     0.008 A 
ATOM     26  C   UNL     1       7.547  -2.749   3.428  1.00  0.00     0.047 A 
ATOM     27  C   UNL     1       8.692  -0.200   3.478  1.00  0.00     0.001 A 
ATOM     28  C   UNL     1       8.816  -2.536   3.992  1.00  0.00     0.021 A 
ATOM     29  Cl  UNL     1       6.877  -4.314   3.714  1.00  0.00    -0.084 Cl
ATOM     30  C   UNL     1       9.399  -1.272   3.994  1.00  0.00     0.002 A 
ENDBRANCH  11  24
ENDBRANCH   7   9
ENDBRANCH   6   7
ENDBRANCH   5   6
ENDBRANCH   4   5
ENDBRANCH   3   4
ENDBRANCH   2   3
ENDBRANCH   1   2
BRANCH   1  31
ATOM     31  O   UNL     1       1.918  -3.186  -0.809  1.00  0.00    -0.377 OA
BRANCH  31  32
ATOM     32  C   UNL     1       1.209  -4.364  -1.144  1.00  0.00     0.188 C 
BRANCH  32  33
ATOM     33  C   UNL     1       0.383  -4.197  -2.428  1.00  0.00     0.188 C 
BRANCH  33  34
ATOM     34  O   UNL     1       0.655  -2.993  -3.129  1.00  0.00    -0.376 OA
BRANCH  34  35
ATOM     35  C   UNL     1       0.083  -1.770  -2.681  1.00  0.00     0.202 C 
BRANCH  35  36
ATOM     36  C   UNL     1      -0.314  -1.479  -1.221  1.00  0.00     0.261 C 
BRANCH  36  37
ATOM     37  O   UNL     1      -0.922  -2.517  -0.453  1.00  0.00    -0.460 OA
BRANCH  37  38
ATOM     38  C   UNL     1      -2.151  -2.926  -0.792  1.00  0.00     0.338 C 
ATOM     39  O   UNL     1      -2.860  -2.509  -1.696  1.00  0.00    -0.246 OA
BRANCH  38  40
ATOM     40  C   UNL     1      -2.422  -4.116   0.032  1.00  0.00     0.060 A 
ATOM     41  C   UNL     1      -2.579  -5.354  -0.599  1.00  0.00     0.016 A 
ATOM     42  C   UNL     1      -2.504  -4.007   1.424  1.00  0.00     0.016 A 
ATOM     43  C   UNL     1      -2.892  -6.477   0.155  1.00  0.00     0.010 A 
ATOM     44  C   UNL     1      -2.821  -5.134   2.182  1.00  0.00     0.010 A 
ATOM     45  C   UNL     1      -3.082  -6.356   1.538  1.00  0.00    -0.014 A 
BRANCH  45  46
ATOM     46  C   UNL     1      -3.829  -7.428   2.232  1.00  0.00     0.031 A 
ATOM     47  C   UNL     1      -5.295  -7.204   2.492  1.00  0.00     0.074 A 
ATOM     48  C   UNL     1      -3.249  -8.602   2.529  1.00  0.00     0.049 A 
ATOM     49  N   UNL     1      -6.181  -8.011   3.014  1.00  0.00    -0.248 NA
ATOM     50  C   UNL     1      -5.834  -5.885   2.116  1.00  0.00     0.031 C 
ATOM     51  C   UNL     1      -1.849  -8.940   2.283  1.00  0.00     0.029 A 
ATOM     52  N   UNL     1      -3.781  -9.735   3.087  1.00  0.00    -0.354 N 
ATOM     53  C   UNL     1      -7.370  -7.291   3.045  1.00  0.00     0.074 A 
ATOM     54  C   UNL     1      -7.084  -5.971   2.536  1.00  0.00     0.031 C 
ATOM     55  C   UNL     1      -1.633 -10.207   2.678  1.00  0.00     0.029 A 
ATOM     56  C   UNL     1      -2.872 -10.753   3.229  1.00  0.00     0.049 A 
ATOM     57  H   UNL     1      -4.723  -9.811   3.360  1.00  0.00     0.167 HD
ATOM     58  C   UNL     1      -8.597  -7.697   3.447  1.00  0.00     0.031 A 
ATOM     59  C   UNL     1      -3.027 -11.985   3.751  1.00  0.00     0.031 A 
ATOM     60  C   UNL     1      -8.870  -9.013   3.954  1.00  0.00     0.049 A 
ATOM     61  C   UNL     1      -4.389 -12.404   4.236  1.00  0.00     0.074 A 
ATOM     62  C   UNL     1     -10.076  -9.545   4.370  1.00  0.00     0.029 A 
ATOM     63  N   UNL     1      -7.913 -10.004   4.120  1.00  0.00    -0.354 N 
ATOM     64  N   UNL     1      -5.514 -11.728   4.231  1.00  0.00    -0.248 NA
ATOM     65  C   UNL     1      -4.506 -13.763   4.780  1.00  0.00     0.031 C 
ATOM     66  C   UNL     1      -9.835 -10.835   4.855  1.00  0.00     0.029 A 
ATOM     67  C   UNL     1      -8.495 -11.135   4.665  1.00  0.00     0.049 A 
ATOM     68  H   UNL     1      -6.961  -9.915   3.886  1.00  0.00     0.167 HD
ATOM     69  C   UNL     1      -6.478 -12.586   4.745  1.00  0.00     0.074 A 
ATOM     70  C   UNL     1      -5.805 -13.838   5.033  1.00  0.00     0.031 C 
ATOM     71  C   UNL     1      -7.800 -12.365   4.955  1.00  0.00     0.031 A 
BRANCH  58  72
ATOM     72  C   UNL     1      -9.706  -6.679   3.405  1.00  0.00    -0.014 A 
ATOM     73  C   UNL     1     -10.195  -6.163   2.194  1.00  0.00     0.009 A 
ATOM     74  C   UNL     1     -10.255  -6.210   4.609  1.00  0.00     0.009 A 
ATOM     75  C   UNL     1     -11.169  -5.160   2.192  1.00  0.00     0.001 A 
ATOM     76  C   UNL     1     -11.255  -5.236   4.603  1.00  0.00     0.001 A 
ATOM     77  C   UNL     1     -11.700  -4.701   3.396  1.00  0.00     0.000 A 
ENDBRANCH  58  72
BRANCH  59  78
ATOM     78  C   UNL     1      -1.857 -12.899   3.841  1.00  0.00    -0.014 A 
ATOM     79  C   UNL     1      -1.774 -14.051   3.045  1.00  0.00     0.009 A 
ATOM     80  C   UNL     1      -0.801 -12.606   4.719  1.00  0.00     0.009 A 
ATOM     81  C   UNL     1      -0.665 -14.897   3.139  1.00  0.00     0.001 A 
ATOM     82  C   UNL     1       0.320 -13.436   4.787  1.00  0.00     0.001 A 
ATOM     83  C   UNL     1       0.384 -14.585   4.003  1.00  0.00     0.000 A 
ENDBRANCH  59  78
BRANCH  71  84
ATOM     84  C   UNL     1      -8.613 -13.515   5.486  1.00  0.00    -0.014 A 
ATOM     85  C   UNL     1      -8.454 -13.985   6.799  1.00  0.00     0.009 A 
ATOM     86  C   UNL     1      -9.582 -14.112   4.664  1.00  0.00     0.009 A 
ATOM     87  C   UNL     1      -9.217 -15.059   7.260  1.00  0.00     0.001 A 
ATOM     88  C   UNL     1     -10.369 -15.160   5.140  1.00  0.00     0.001 A 
ATOM     89  C   UNL     1     -10.177 -15.642   6.433  1.00  0.00     0.000 A 
ENDBRANCH  71  84
ENDBRANCH  45  46
ENDBRANCH  38  40
ENDBRANCH  37  38
ENDBRANCH  36  37
ENDBRANCH  35  36
ENDBRANCH  34  35
ENDBRANCH  33  34
ENDBRANCH  32  33
ENDBRANCH  31  32
ENDBRANCH   1  31
TORSDOF 24
