REMARK SMILES C[C@H](C(=O)OCCOCCOCCOCCOC(=O)c1ccc(-c2c3nc(c(-c4ccccc4)c4ccc([nH]4)c(-c4ccccc4)c4nc(c(-c5ccccc5)c5ccc2[nH]5)C=C4)C=C3)cc1)[C@H](C)S(C)(=O)=O
REMARK SMILES IDX 11 1 10 2 9 3 8 4 7 5 6 6 5 7 3 8 4 9 2 10 1 11 68 12 69 13
REMARK SMILES IDX 70 14 71 15 72 16 73 17 12 18 13 19 14 20 15 21 16 22 17 23
REMARK SMILES IDX 18 24 19 25 20 26 21 27 67 28 22 29 66 30 23 31 24 32 25 33
REMARK SMILES IDX 60 34 26 35 65 36 59 37 61 38 27 39 64 40 58 41 57 42 28 44
REMARK SMILES IDX 50 45 35 46 49 47 36 48 39 49 48 50 62 51 37 52 38 53 47 55
REMARK SMILES IDX 63 56 40 57 29 58 30 59 34 60 31 61 33 62 32 63 51 64 52 65
REMARK SMILES IDX 56 66 53 67 55 68 54 69 41 70 42 71 46 72 43 73 45 74 44 75
REMARK H PARENT 61 43 39 54
REMARK Flexibility Score: inf
ROOT
ATOM      1  O   UNL     1      -2.652  -1.034  -3.413  1.00  0.00    -0.377 OA
ENDROOT
BRANCH   1   2
ATOM      2  C   UNL     1      -1.369  -0.881  -3.997  1.00  0.00     0.188 C 
BRANCH   2   3
ATOM      3  C   UNL     1      -0.551  -2.157  -4.198  1.00  0.00     0.188 C 
BRANCH   3   4
ATOM      4  O   UNL     1      -1.116  -3.191  -4.981  1.00  0.00    -0.376 OA
BRANCH   4   5
ATOM      5  C   UNL     1      -2.132  -4.035  -4.447  1.00  0.00     0.202 C 
BRANCH   5   6
ATOM      6  C   UNL     1      -2.180  -4.437  -2.962  1.00  0.00     0.261 C 
BRANCH   6   7
ATOM      7  O   UNL     1      -2.467  -3.356  -2.053  1.00  0.00    -0.463 OA
BRANCH   7   8
ATOM      8  C   UNL     1      -1.455  -3.019  -1.217  1.00  0.00     0.310 C 
ATOM      9  O   UNL     1      -0.354  -3.562  -1.228  1.00  0.00    -0.252 OA
BRANCH   8  10
ATOM     10  C   UNL     1      -1.703  -1.778  -0.368  1.00  0.00     0.114 C 
ATOM     11  C   UNL     1      -3.132  -1.234  -0.286  1.00  0.00     0.021 C 
BRANCH  10  12
ATOM     12  C   UNL     1      -1.071  -1.941   1.037  1.00  0.00     0.119 C 
ATOM     13  C   UNL     1       0.459  -1.845   1.003  1.00  0.00     0.026 C 
BRANCH  12  14
ATOM     14  S   UNL     1      -1.635  -3.458   1.869  1.00  0.00     0.150 S 
ATOM     15  C   UNL     1      -0.891  -3.379   3.474  1.00  0.00     0.158 C 
ATOM     16  O   UNL     1      -3.066  -3.351   2.079  1.00  0.00    -0.229 OA
ATOM     17  O   UNL     1      -1.089  -4.630   1.218  1.00  0.00    -0.229 OA
ENDBRANCH  12  14
ENDBRANCH  10  12
ENDBRANCH   8  10
ENDBRANCH   7   8
ENDBRANCH   6   7
ENDBRANCH   5   6
ENDBRANCH   4   5
ENDBRANCH   3   4
ENDBRANCH   2   3
ENDBRANCH   1   2
BRANCH   1  18
ATOM     18  C   UNL     1      -3.802  -1.133  -4.254  1.00  0.00     0.188 C 
BRANCH  18  19
ATOM     19  C   UNL     1      -3.652  -0.683  -5.709  1.00  0.00     0.188 C 
BRANCH  19  20
ATOM     20  O   UNL     1      -3.256   0.672  -5.946  1.00  0.00    -0.376 OA
BRANCH  20  21
ATOM     21  C   UNL     1      -3.485   1.646  -4.931  1.00  0.00     0.202 C 
BRANCH  21  22
ATOM     22  C   UNL     1      -4.848   2.329  -5.001  1.00  0.00     0.261 C 
BRANCH  22  23
ATOM     23  O   UNL     1      -5.918   1.411  -4.740  1.00  0.00    -0.460 OA
BRANCH  23  24
ATOM     24  C   UNL     1      -6.487   0.878  -5.846  1.00  0.00     0.338 C 
ATOM     25  O   UNL     1      -6.223   1.113  -7.010  1.00  0.00    -0.246 OA
BRANCH  24  26
ATOM     26  C   UNL     1      -7.441  -0.167  -5.437  1.00  0.00     0.060 A 
ATOM     27  C   UNL     1      -7.410  -1.394  -6.111  1.00  0.00     0.016 A 
ATOM     28  C   UNL     1      -8.411   0.096  -4.468  1.00  0.00     0.016 A 
ATOM     29  C   UNL     1      -8.391  -2.346  -5.860  1.00  0.00     0.010 A 
ATOM     30  C   UNL     1      -9.402  -0.852  -4.226  1.00  0.00     0.010 A 
ATOM     31  C   UNL     1      -9.419  -2.053  -4.957  1.00  0.00    -0.014 A 
BRANCH  31  32
ATOM     32  C   UNL     1     -10.625  -2.905  -4.924  1.00  0.00     0.031 A 
ATOM     33  C   UNL     1     -11.837  -2.451  -5.686  1.00  0.00     0.074 A 
ATOM     34  C   UNL     1     -10.631  -4.058  -4.237  1.00  0.00     0.049 A 
ATOM     35  N   UNL     1     -13.029  -2.985  -5.743  1.00  0.00    -0.248 NA
ATOM     36  C   UNL     1     -11.687  -1.223  -6.486  1.00  0.00     0.031 C 
ATOM     37  C   UNL     1      -9.493  -4.615  -3.508  1.00  0.00     0.029 A 
ATOM     38  N   UNL     1     -11.641  -4.961  -4.036  1.00  0.00    -0.354 N 
ATOM     39  C   UNL     1     -13.771  -2.153  -6.573  1.00  0.00     0.074 A 
ATOM     40  C   UNL     1     -12.909  -1.063  -6.969  1.00  0.00     0.031 C 
ATOM     41  C   UNL     1      -9.875  -5.763  -2.922  1.00  0.00     0.029 A 
ATOM     42  C   UNL     1     -11.289  -5.995  -3.205  1.00  0.00     0.049 A 
ATOM     43  H   UNL     1     -12.531  -4.877  -4.447  1.00  0.00     0.167 HD
ATOM     44  C   UNL     1     -15.057  -2.291  -6.971  1.00  0.00     0.031 A 
ATOM     45  C   UNL     1     -12.040  -6.995  -2.707  1.00  0.00     0.031 A 
ATOM     46  C   UNL     1     -15.911  -3.369  -6.552  1.00  0.00     0.049 A 
ATOM     47  C   UNL     1     -13.492  -7.079  -3.095  1.00  0.00     0.074 A 
ATOM     48  C   UNL     1     -17.229  -3.612  -6.897  1.00  0.00     0.029 A 
ATOM     49  N   UNL     1     -15.530  -4.382  -5.684  1.00  0.00    -0.354 N 
ATOM     50  N   UNL     1     -14.183  -6.300  -3.893  1.00  0.00    -0.248 NA
ATOM     51  C   UNL     1     -14.266  -8.186  -2.517  1.00  0.00     0.031 C 
ATOM     52  C   UNL     1     -17.663  -4.736  -6.187  1.00  0.00     0.029 A 
ATOM     53  C   UNL     1     -16.595  -5.236  -5.458  1.00  0.00     0.049 A 
ATOM     54  H   UNL     1     -14.634  -4.479  -5.287  1.00  0.00     0.167 HD
ATOM     55  C   UNL     1     -15.462  -6.841  -3.940  1.00  0.00     0.074 A 
ATOM     56  C   UNL     1     -15.445  -8.023  -3.100  1.00  0.00     0.031 C 
ATOM     57  C   UNL     1     -16.553  -6.405  -4.617  1.00  0.00     0.031 A 
BRANCH  44  58
ATOM     58  C   UNL     1     -15.622  -1.226  -7.870  1.00  0.00    -0.014 A 
ATOM     59  C   UNL     1     -15.188  -1.079  -9.197  1.00  0.00     0.009 A 
ATOM     60  C   UNL     1     -16.619  -0.364  -7.385  1.00  0.00     0.009 A 
ATOM     61  C   UNL     1     -15.713  -0.069 -10.007  1.00  0.00     0.001 A 
ATOM     62  C   UNL     1     -17.165   0.624  -8.206  1.00  0.00     0.001 A 
ATOM     63  C   UNL     1     -16.705   0.777  -9.513  1.00  0.00     0.000 A 
ENDBRANCH  44  58
BRANCH  45  64
ATOM     64  C   UNL     1     -11.439  -7.979  -1.770  1.00  0.00    -0.014 A 
ATOM     65  C   UNL     1     -11.269  -9.319  -2.148  1.00  0.00     0.009 A 
ATOM     66  C   UNL     1     -11.038  -7.582  -0.483  1.00  0.00     0.009 A 
ATOM     67  C   UNL     1     -10.736 -10.246  -1.248  1.00  0.00     0.001 A 
ATOM     68  C   UNL     1     -10.475  -8.504   0.402  1.00  0.00     0.001 A 
ATOM     69  C   UNL     1     -10.335  -9.837   0.022  1.00  0.00     0.000 A 
ENDBRANCH  45  64
BRANCH  57  70
ATOM     70  C   UNL     1     -17.805  -7.233  -4.512  1.00  0.00    -0.014 A 
ATOM     71  C   UNL     1     -18.552  -7.287  -3.326  1.00  0.00     0.009 A 
ATOM     72  C   UNL     1     -18.264  -7.935  -5.638  1.00  0.00     0.009 A 
ATOM     73  C   UNL     1     -19.714  -8.059  -3.260  1.00  0.00     0.001 A 
ATOM     74  C   UNL     1     -19.444  -8.676  -5.580  1.00  0.00     0.001 A 
ATOM     75  C   UNL     1     -20.162  -8.747  -4.387  1.00  0.00     0.000 A 
ENDBRANCH  57  70
ENDBRANCH  31  32
ENDBRANCH  24  26
ENDBRANCH  23  24
ENDBRANCH  22  23
ENDBRANCH  21  22
ENDBRANCH  20  21
ENDBRANCH  19  20
ENDBRANCH  18  19
ENDBRANCH   1  18
TORSDOF 22
