REMARK SMILES COCCN1C(=O)C[C@H](C(=O)OCCOCCOCCOCCOC(=O)c2ccc(-c3c4nc(c(-c5ccccc5)c5ccc([nH]5)c(-c5ccccc5)c5nc(c(-c6ccccc6)c6ccc3[nH]6)C=C5)C=C4)cc2)[C@@H]1c1ccccc1N1CCOCC1
REMARK SMILES IDX 17 1 16 2 15 3 14 4 13 5 12 6 10 7 11 8 9 9 5 10 6 11 75 12
REMARK SMILES IDX 7 13 8 14 4 15 3 16 2 17 1 18 76 19 77 20 81 21 78 22 80 23
REMARK SMILES IDX 79 24 82 25 83 26 87 27 84 28 86 29 85 30 18 31 19 32 20 33
REMARK SMILES IDX 21 34 22 35 23 36 24 37 25 38 26 39 27 40 28 41 74 42 29 43
REMARK SMILES IDX 73 44 30 45 31 46 32 47 67 48 33 49 72 50 66 51 68 52 34 53
REMARK SMILES IDX 71 54 65 55 64 56 35 58 57 59 42 60 56 61 43 62 46 63 55 64
REMARK SMILES IDX 69 65 44 66 45 67 54 69 70 70 47 71 36 72 37 73 41 74 38 75
REMARK SMILES IDX 40 76 39 77 58 78 59 79 63 80 60 81 62 82 61 83 48 84 49 85
REMARK SMILES IDX 53 86 50 87 52 88 51 89
REMARK H PARENT 68 57 46 68
REMARK Flexibility Score: inf
ROOT
ATOM      1  C   UNL     1       2.218  -2.229   5.431  1.00  0.00     0.188 C 
ENDROOT
BRANCH   1   2
ATOM      2  C   UNL     1       2.934  -1.705   6.687  1.00  0.00     0.188 C 
BRANCH   2   3
ATOM      3  O   UNL     1       2.083  -1.179   7.703  1.00  0.00    -0.376 OA
BRANCH   3   4
ATOM      4  C   UNL     1       1.919   0.218   7.824  1.00  0.00     0.202 C 
BRANCH   4   5
ATOM      5  C   UNL     1       0.668   0.791   7.149  1.00  0.00     0.261 C 
BRANCH   5   6
ATOM      6  O   UNL     1       0.515   0.683   5.725  1.00  0.00    -0.463 OA
BRANCH   6   7
ATOM      7  C   UNL     1       1.580   0.786   4.909  1.00  0.00     0.312 C 
ATOM      8  O   UNL     1       2.752   0.760   5.256  1.00  0.00    -0.252 OA
BRANCH   7   9
ATOM      9  C   UNL     1       1.217   0.856   3.463  1.00  0.00     0.136 C 
ATOM     10  N   UNL     1       0.381   2.099   1.726  1.00  0.00    -0.332 N 
ATOM     11  C   UNL     1      -0.495   1.029   1.848  1.00  0.00     0.224 C 
ATOM     12  C   UNL     1       1.254   2.273   2.896  1.00  0.00     0.132 C 
ATOM     13  O   UNL     1      -1.403   0.728   1.092  1.00  0.00    -0.275 OA
ATOM     14  C   UNL     1      -0.150   0.283   3.100  1.00  0.00     0.118 C 
BRANCH  10  15
ATOM     15  C   UNL     1       0.434   2.934   0.531  1.00  0.00     0.148 C 
BRANCH  15  16
ATOM     16  C   UNL     1       1.341   2.363  -0.571  1.00  0.00     0.181 C 
BRANCH  16  17
ATOM     17  O   UNL     1       0.808   1.159  -1.125  1.00  0.00    -0.383 OA
ATOM     18  C   UNL     1       1.529  -0.005  -0.748  1.00  0.00     0.194 C 
ENDBRANCH  16  17
ENDBRANCH  15  16
ENDBRANCH  10  15
BRANCH  12  19
ATOM     19  C   UNL     1       0.804   3.381   3.868  1.00  0.00    -0.001 A 
ATOM     20  C   UNL     1      -0.536   3.842   3.748  1.00  0.00     0.008 A 
ATOM     21  C   UNL     1       1.598   3.869   4.957  1.00  0.00     0.042 A 
ATOM     22  C   UNL     1      -1.114   4.711   4.667  1.00  0.00     0.001 A 
ATOM     23  C   UNL     1       0.962   4.753   5.865  1.00  0.00     0.026 A 
ATOM     24  C   UNL     1      -0.367   5.158   5.735  1.00  0.00     0.002 A 
BRANCH  21  25
ATOM     25  N   UNL     1       2.909   3.457   5.237  1.00  0.00    -0.367 N 
ATOM     26  C   UNL     1       4.007   3.697   4.280  1.00  0.00     0.145 C 
ATOM     27  C   UNL     1       3.399   3.470   6.648  1.00  0.00     0.145 C 
ATOM     28  C   UNL     1       5.189   2.749   4.572  1.00  0.00     0.181 C 
ATOM     29  C   UNL     1       4.668   2.614   6.844  1.00  0.00     0.181 C 
ATOM     30  O   UNL     1       5.692   2.953   5.903  1.00  0.00    -0.378 OA
ENDBRANCH  21  25
ENDBRANCH  12  19
ENDBRANCH   7   9
ENDBRANCH   6   7
ENDBRANCH   5   6
ENDBRANCH   4   5
ENDBRANCH   3   4
ENDBRANCH   2   3
ENDBRANCH   1   2
BRANCH   1  31
ATOM     31  O   UNL     1       0.949  -2.857   5.512  1.00  0.00    -0.377 OA
BRANCH  31  32
ATOM     32  C   UNL     1       0.264  -2.902   6.749  1.00  0.00     0.188 C 
BRANCH  32  33
ATOM     33  C   UNL     1       0.897  -3.760   7.866  1.00  0.00     0.188 C 
BRANCH  33  34
ATOM     34  O   UNL     1       1.530  -5.005   7.593  1.00  0.00    -0.376 OA
BRANCH  34  35
ATOM     35  C   UNL     1       1.423  -5.591   6.311  1.00  0.00     0.202 C 
BRANCH  35  36
ATOM     36  C   UNL     1       0.080  -6.240   5.955  1.00  0.00     0.261 C 
BRANCH  36  37
ATOM     37  O   UNL     1      -1.087  -5.512   6.363  1.00  0.00    -0.460 OA
BRANCH  37  38
ATOM     38  C   UNL     1      -1.524  -5.765   7.620  1.00  0.00     0.338 C 
ATOM     39  O   UNL     1      -1.087  -6.595   8.400  1.00  0.00    -0.246 OA
BRANCH  38  40
ATOM     40  C   UNL     1      -2.550  -4.765   8.000  1.00  0.00     0.060 A 
ATOM     41  C   UNL     1      -2.445  -4.148   9.256  1.00  0.00     0.016 A 
ATOM     42  C   UNL     1      -3.629  -4.470   7.162  1.00  0.00     0.016 A 
ATOM     43  C   UNL     1      -3.438  -3.278   9.700  1.00  0.00     0.010 A 
ATOM     44  C   UNL     1      -4.647  -3.629   7.624  1.00  0.00     0.010 A 
ATOM     45  C   UNL     1      -4.577  -3.073   8.914  1.00  0.00    -0.014 A 
BRANCH  45  46
ATOM     46  C   UNL     1      -5.799  -2.543   9.563  1.00  0.00     0.031 A 
ATOM     47  C   UNL     1      -6.751  -3.541  10.170  1.00  0.00     0.074 A 
ATOM     48  C   UNL     1      -6.045  -1.226   9.661  1.00  0.00     0.049 A 
ATOM     49  N   UNL     1      -7.892  -3.341  10.778  1.00  0.00    -0.248 NA
ATOM     50  C   UNL     1      -6.356  -4.958  10.079  1.00  0.00     0.031 C 
ATOM     51  C   UNL     1      -5.175  -0.160   9.171  1.00  0.00     0.029 A 
ATOM     52  N   UNL     1      -7.115  -0.567  10.211  1.00  0.00    -0.354 N 
ATOM     53  C   UNL     1      -8.351  -4.604  11.132  1.00  0.00     0.074 A 
ATOM     54  C   UNL     1      -7.382  -5.564  10.653  1.00  0.00     0.031 C 
ATOM     55  C   UNL     1      -5.756   1.026   9.429  1.00  0.00     0.029 A 
ATOM     56  C   UNL     1      -7.049   0.798  10.075  1.00  0.00     0.049 A 
ATOM     57  H   UNL     1      -7.860  -1.028  10.661  1.00  0.00     0.167 HD
ATOM     58  C   UNL     1      -9.481  -4.941  11.797  1.00  0.00     0.031 A 
ATOM     59  C   UNL     1      -7.943   1.748  10.413  1.00  0.00     0.031 A 
ATOM     60  C   UNL     1     -10.458  -3.992  12.252  1.00  0.00     0.049 A 
ATOM     61  C   UNL     1      -9.235   1.345  11.075  1.00  0.00     0.074 A 
ATOM     62  C   UNL     1     -11.636  -4.229  12.938  1.00  0.00     0.029 A 
ATOM     63  N   UNL     1     -10.374  -2.623  12.054  1.00  0.00    -0.354 N 
ATOM     64  N   UNL     1      -9.651   0.151  11.424  1.00  0.00    -0.248 NA
ATOM     65  C   UNL     1     -10.180   2.426  11.396  1.00  0.00     0.031 C 
ATOM     66  C   UNL     1     -12.293  -3.005  13.106  1.00  0.00     0.029 A 
ATOM     67  C   UNL     1     -11.494  -2.002  12.578  1.00  0.00     0.049 A 
ATOM     68  H   UNL     1      -9.628  -2.161  11.607  1.00  0.00     0.167 HD
ATOM     69  C   UNL     1     -10.890   0.339  12.025  1.00  0.00     0.074 A 
ATOM     70  C   UNL     1     -11.152   1.763  12.008  1.00  0.00     0.031 C 
ATOM     71  C   UNL     1     -11.737  -0.584  12.547  1.00  0.00     0.031 A 
BRANCH  58  72
ATOM     72  C   UNL     1      -9.734  -6.405  12.018  1.00  0.00    -0.014 A 
ATOM     73  C   UNL     1      -8.973  -7.150  12.932  1.00  0.00     0.009 A 
ATOM     74  C   UNL     1     -10.751  -7.048  11.296  1.00  0.00     0.009 A 
ATOM     75  C   UNL     1      -9.201  -8.519  13.091  1.00  0.00     0.001 A 
ATOM     76  C   UNL     1     -10.996  -8.410  11.477  1.00  0.00     0.001 A 
ATOM     77  C   UNL     1     -10.214  -9.146  12.366  1.00  0.00     0.000 A 
ENDBRANCH  58  72
BRANCH  59  78
ATOM     78  C   UNL     1      -7.667   3.175  10.099  1.00  0.00    -0.014 A 
ATOM     79  C   UNL     1      -7.420   4.104  11.121  1.00  0.00     0.009 A 
ATOM     80  C   UNL     1      -7.673   3.619   8.767  1.00  0.00     0.009 A 
ATOM     81  C   UNL     1      -7.207   5.451  10.817  1.00  0.00     0.001 A 
ATOM     82  C   UNL     1      -7.432   4.961   8.464  1.00  0.00     0.001 A 
ATOM     83  C   UNL     1      -7.208   5.877   9.489  1.00  0.00     0.000 A 
ENDBRANCH  59  78
BRANCH  71  84
ATOM     84  C   UNL     1     -13.008  -0.080  13.170  1.00  0.00    -0.014 A 
ATOM     85  C   UNL     1     -14.064   0.407  12.384  1.00  0.00     0.009 A 
ATOM     86  C   UNL     1     -13.169  -0.141  14.563  1.00  0.00     0.009 A 
ATOM     87  C   UNL     1     -15.243   0.853  12.985  1.00  0.00     0.001 A 
ATOM     88  C   UNL     1     -14.360   0.278  15.159  1.00  0.00     0.001 A 
ATOM     89  C   UNL     1     -15.392   0.783  14.370  1.00  0.00     0.000 A 
ENDBRANCH  71  84
ENDBRANCH  45  46
ENDBRANCH  38  40
ENDBRANCH  37  38
ENDBRANCH  36  37
ENDBRANCH  35  36
ENDBRANCH  34  35
ENDBRANCH  33  34
ENDBRANCH  32  33
ENDBRANCH  31  32
ENDBRANCH   1  31
TORSDOF 25
