REMARK SMILES Cc1ccc(S(=O)(=O)n2cc(C(=O)C(=O)N[C@@H](Cc3cnc[nH]3)C(=O)OCCOCCOCCOCCOC(=O)c3ccc(-c4c5nc(c(-c6ccccc6)c6ccc([nH]6)c(-c6ccccc6)c6nc(c(-c7ccccc7)c7ccc4[nH]7)C=C6)C=C5)cc3)c3ccccc32)cc1
REMARK SMILES IDX 30 1 29 2 28 3 27 4 26 5 24 6 25 7 17 8 16 9 14 10 15 11
REMARK SMILES IDX 12 13 13 14 11 15 9 16 10 17 94 18 89 19 93 20 90 21 92 22
REMARK SMILES IDX 91 23 6 24 7 25 8 26 5 27 1 28 2 29 3 30 96 31 4 32 95 33
REMARK SMILES IDX 18 34 19 35 20 36 23 37 21 38 22 39 31 41 32 42 33 43 34 44
REMARK SMILES IDX 35 45 36 46 37 47 38 48 39 49 40 50 41 51 42 52 88 53 43 54
REMARK SMILES IDX 87 55 44 56 45 57 46 58 81 59 47 60 86 61 80 62 82 63 48 64
REMARK SMILES IDX 85 65 79 66 78 67 49 69 71 70 56 71 70 72 57 73 60 74 69 75
REMARK SMILES IDX 83 76 58 77 59 78 68 80 84 81 61 82 50 83 51 84 55 85 52 86
REMARK SMILES IDX 54 87 53 88 72 89 73 90 77 91 74 92 76 93 75 94 62 95 63 96
REMARK SMILES IDX 67 97 64 98 66 99 65 100
REMARK H PARENT 16 12 23 40 82 68 60 79
REMARK Flexibility Score: inf
ROOT
ATOM      1  C   UNL     1      -4.573   6.443   2.393  1.00  0.00     0.188 C 
ENDROOT
BRANCH   1   2
ATOM      2  O   UNL     1      -4.357   7.637   3.129  1.00  0.00    -0.376 OA
BRANCH   2   3
ATOM      3  C   UNL     1      -5.543   8.226   3.660  1.00  0.00     0.202 C 
BRANCH   3   4
ATOM      4  C   UNL     1      -6.648   8.556   2.658  1.00  0.00     0.261 C 
BRANCH   4   5
ATOM      5  O   UNL     1      -7.452   7.373   2.453  1.00  0.00    -0.462 OA
BRANCH   5   6
ATOM      6  C   UNL     1      -8.184   7.368   1.313  1.00  0.00     0.329 C 
ATOM      7  O   UNL     1      -8.251   8.314   0.532  1.00  0.00    -0.250 OA
BRANCH   6   8
ATOM      8  C   UNL     1      -9.031   6.093   1.158  1.00  0.00     0.198 C 
BRANCH   8   9
ATOM      9  N   UNL     1      -8.627   4.899   1.927  1.00  0.00    -0.335 N 
ATOM     10  C   UNL     1      -7.703   3.927   1.576  1.00  0.00     0.293 C 
ATOM     11  O   UNL     1      -7.620   2.889   2.223  1.00  0.00    -0.265 OA
ATOM     12  H   UNL     1      -9.070   4.779   2.798  1.00  0.00     0.164 HD
BRANCH  10  13
ATOM     13  C   UNL     1      -6.729   4.194   0.400  1.00  0.00     0.252 C 
ATOM     14  O   UNL     1      -6.834   5.273  -0.179  1.00  0.00    -0.283 OA
BRANCH  13  15
ATOM     15  C   UNL     1      -5.644   3.280  -0.001  1.00  0.00     0.054 A 
ATOM     16  N   UNL     1      -4.259   1.540  -0.250  1.00  0.00    -0.240 N 
ATOM     17  C   UNL     1      -5.314   2.029   0.492  1.00  0.00     0.117 A 
ATOM     18  C   UNL     1      -3.922   2.409  -1.263  1.00  0.00     0.065 A 
ATOM     19  C   UNL     1      -4.686   3.561  -1.043  1.00  0.00     0.012 A 
ATOM     20  C   UNL     1      -3.017   2.322  -2.338  1.00  0.00     0.028 A 
ATOM     21  C   UNL     1      -4.446   4.694  -1.852  1.00  0.00     0.011 A 
ATOM     22  C   UNL     1      -2.824   3.454  -3.137  1.00  0.00     0.002 A 
ATOM     23  C   UNL     1      -3.509   4.634  -2.882  1.00  0.00     0.001 A 
BRANCH  16  24
ATOM     24  S   UNL     1      -3.616  -0.026  -0.039  1.00  0.00     0.268 S 
ATOM     25  O   UNL     1      -3.957  -0.719  -1.284  1.00  0.00    -0.201 OA
ATOM     26  O   UNL     1      -4.079  -0.479   1.242  1.00  0.00    -0.201 OA
BRANCH  24  27
ATOM     27  C   UNL     1      -1.843   0.058   0.046  1.00  0.00     0.088 A 
ATOM     28  C   UNL     1       2.465  -0.011   0.038  1.00  0.00     0.044 C 
ATOM     29  C   UNL     1       0.964   0.021   0.057  1.00  0.00    -0.051 A 
ATOM     30  C   UNL     1       0.244  -1.173  -0.062  1.00  0.00     0.005 A 
ATOM     31  C   UNL     1       0.265   1.227   0.203  1.00  0.00     0.005 A 
ATOM     32  C   UNL     1      -1.152  -1.155  -0.075  1.00  0.00     0.022 A 
ATOM     33  C   UNL     1      -1.136   1.249   0.214  1.00  0.00     0.022 A 
ENDBRANCH  24  27
ENDBRANCH  16  24
ENDBRANCH  13  15
ENDBRANCH  10  13
ENDBRANCH   8   9
BRANCH   8  34
ATOM     34  C   UNL     1     -10.516   6.477   1.326  1.00  0.00     0.092 C 
BRANCH  34  35
ATOM     35  C   UNL     1     -11.133   6.247   2.664  1.00  0.00     0.037 A 
ATOM     36  C   UNL     1     -11.687   5.120   3.235  1.00  0.00     0.134 A 
ATOM     37  N   UNL     1     -11.365   7.243   3.579  1.00  0.00    -0.348 N 
ATOM     38  N   UNL     1     -12.264   5.412   4.442  1.00  0.00    -0.245 NA
ATOM     39  C   UNL     1     -12.081   6.701   4.609  1.00  0.00     0.196 A 
ATOM     40  H   UNL     1     -11.070   8.180   3.506  1.00  0.00     0.167 HD
ENDBRANCH  34  35
ENDBRANCH   8  34
ENDBRANCH   6   8
ENDBRANCH   5   6
ENDBRANCH   4   5
ENDBRANCH   3   4
ENDBRANCH   2   3
ENDBRANCH   1   2
BRANCH   1  41
ATOM     41  C   UNL     1      -4.813   5.140   3.166  1.00  0.00     0.188 C 
BRANCH  41  42
ATOM     42  O   UNL     1      -5.642   5.160   4.311  1.00  0.00    -0.377 OA
BRANCH  42  43
ATOM     43  C   UNL     1      -4.957   5.355   5.551  1.00  0.00     0.188 C 
BRANCH  43  44
ATOM     44  C   UNL     1      -3.806   4.390   5.822  1.00  0.00     0.188 C 
BRANCH  44  45
ATOM     45  O   UNL     1      -2.609   4.954   5.275  1.00  0.00    -0.376 OA
BRANCH  45  46
ATOM     46  C   UNL     1      -1.462   4.109   5.343  1.00  0.00     0.202 C 
BRANCH  46  47
ATOM     47  C   UNL     1      -1.020   3.787   6.776  1.00  0.00     0.261 C 
BRANCH  47  48
ATOM     48  O   UNL     1      -0.882   5.024   7.497  1.00  0.00    -0.460 OA
BRANCH  48  49
ATOM     49  C   UNL     1      -1.651   5.137   8.611  1.00  0.00     0.338 C 
ATOM     50  O   UNL     1      -1.882   4.244   9.409  1.00  0.00    -0.246 OA
BRANCH  49  51
ATOM     51  C   UNL     1      -2.409   6.421   8.566  1.00  0.00     0.060 A 
ATOM     52  C   UNL     1      -3.461   6.624   9.472  1.00  0.00     0.016 A 
ATOM     53  C   UNL     1      -2.275   7.273   7.469  1.00  0.00     0.016 A 
ATOM     54  C   UNL     1      -4.453   7.578   9.202  1.00  0.00     0.010 A 
ATOM     55  C   UNL     1      -3.293   8.168   7.170  1.00  0.00     0.010 A 
ATOM     56  C   UNL     1      -4.424   8.285   7.994  1.00  0.00    -0.014 A 
BRANCH  56  57
ATOM     57  C   UNL     1      -5.618   8.907   7.383  1.00  0.00     0.031 A 
ATOM     58  C   UNL     1      -5.603  10.260   6.752  1.00  0.00     0.074 A 
ATOM     59  C   UNL     1      -6.642   8.081   7.043  1.00  0.00     0.049 A 
ATOM     60  N   UNL     1      -6.661  10.840   6.278  1.00  0.00    -0.248 NA
ATOM     61  C   UNL     1      -4.412  11.090   6.594  1.00  0.00     0.031 C 
ATOM     62  C   UNL     1      -7.611   8.292   5.967  1.00  0.00     0.029 A 
ATOM     63  N   UNL     1      -7.027   6.849   7.556  1.00  0.00    -0.354 N 
ATOM     64  C   UNL     1      -6.254  11.849   5.439  1.00  0.00     0.074 A 
ATOM     65  C   UNL     1      -4.872  12.068   5.802  1.00  0.00     0.031 C 
ATOM     66  C   UNL     1      -8.494   7.292   5.941  1.00  0.00     0.029 A 
ATOM     67  C   UNL     1      -8.349   6.590   7.184  1.00  0.00     0.049 A 
ATOM     68  H   UNL     1      -6.460   6.254   8.097  1.00  0.00     0.167 HD
ATOM     69  C   UNL     1      -7.081  12.282   4.438  1.00  0.00     0.031 A 
ATOM     70  C   UNL     1      -9.366   6.434   8.077  1.00  0.00     0.031 A 
ATOM     71  C   UNL     1      -8.447  11.698   4.491  1.00  0.00     0.049 A 
ATOM     72  C   UNL     1     -10.372   7.575   8.002  1.00  0.00     0.074 A 
ATOM     73  C   UNL     1      -9.336  11.198   3.550  1.00  0.00     0.029 A 
ATOM     74  N   UNL     1      -9.071  11.487   5.728  1.00  0.00    -0.354 N 
ATOM     75  N   UNL     1     -10.208   8.619   7.224  1.00  0.00    -0.248 NA
ATOM     76  C   UNL     1     -11.615   7.677   8.758  1.00  0.00     0.031 C 
ATOM     77  C   UNL     1     -10.488  10.709   4.229  1.00  0.00     0.029 A 
ATOM     78  C   UNL     1     -10.297  10.869   5.591  1.00  0.00     0.049 A 
ATOM     79  H   UNL     1      -8.680  11.748   6.593  1.00  0.00     0.167 HD
ATOM     80  C   UNL     1     -11.210   9.526   7.391  1.00  0.00     0.074 A 
ATOM     81  C   UNL     1     -12.087   8.874   8.350  1.00  0.00     0.031 C 
ATOM     82  C   UNL     1     -11.198  10.731   6.741  1.00  0.00     0.031 A 
BRANCH  69  83
ATOM     83  C   UNL     1      -6.617  13.168   3.274  1.00  0.00    -0.014 A 
ATOM     84  C   UNL     1      -7.548  13.668   2.341  1.00  0.00     0.009 A 
ATOM     85  C   UNL     1      -5.274  13.494   2.996  1.00  0.00     0.009 A 
ATOM     86  C   UNL     1      -7.168  14.422   1.215  1.00  0.00     0.001 A 
ATOM     87  C   UNL     1      -4.889  14.294   1.905  1.00  0.00     0.001 A 
ATOM     88  C   UNL     1      -5.836  14.750   1.005  1.00  0.00     0.000 A 
ENDBRANCH  69  83
BRANCH  70  89
ATOM     89  C   UNL     1      -9.001   5.478   9.160  1.00  0.00    -0.014 A 
ATOM     90  C   UNL     1      -8.934   4.135   8.722  1.00  0.00     0.009 A 
ATOM     91  C   UNL     1      -8.155   5.871  10.213  1.00  0.00     0.009 A 
ATOM     92  C   UNL     1      -7.893   3.296   9.134  1.00  0.00     0.001 A 
ATOM     93  C   UNL     1      -7.114   5.019  10.627  1.00  0.00     0.001 A 
ATOM     94  C   UNL     1      -6.951   3.760  10.046  1.00  0.00     0.000 A 
ENDBRANCH  70  89
BRANCH  82  95
ATOM     95  C   UNL     1     -12.047  11.942   7.077  1.00  0.00    -0.014 A 
ATOM     96  C   UNL     1     -12.820  12.079   8.233  1.00  0.00     0.009 A 
ATOM     97  C   UNL     1     -11.950  13.091   6.251  1.00  0.00     0.009 A 
ATOM     98  C   UNL     1     -13.479  13.282   8.532  1.00  0.00     0.001 A 
ATOM     99  C   UNL     1     -12.573  14.300   6.561  1.00  0.00     0.001 A 
ATOM    100  C   UNL     1     -13.346  14.393   7.705  1.00  0.00     0.000 A 
ENDBRANCH  82  95
ENDBRANCH  56  57
ENDBRANCH  49  51
ENDBRANCH  48  49
ENDBRANCH  47  48
ENDBRANCH  46  47
ENDBRANCH  45  46
ENDBRANCH  44  45
ENDBRANCH  43  44
ENDBRANCH  42  43
ENDBRANCH  41  42
ENDBRANCH   1  41
TORSDOF 27
