REMARK SMILES Cc1cccc(CC(=O)N2CCC3(CCC(=O)N([C@H](C)C(=O)OCCOCCOCCOCCOC(=O)c4ccc(-c5c6nc(c(-c7ccccc7)c7ccc([nH]7)c(-c7ccccc7)c7nc(c(-c8ccccc8)c8ccc5[nH]8)C=C7)C=C6)cc4)C3)CC2)c1
REMARK SMILES IDX 28 1 27 2 26 3 25 4 24 5 23 6 21 7 22 8 19 9 20 10 18 11
REMARK SMILES IDX 8 12 9 13 10 14 11 15 88 16 12 17 87 18 13 19 14 20 86 21
REMARK SMILES IDX 15 22 16 23 17 24 7 25 6 26 1 27 2 28 3 29 89 30 4 31 5 32
REMARK SMILES IDX 29 33 30 34 31 35 32 36 33 37 34 38 35 39 36 40 37 41 38 42
REMARK SMILES IDX 39 43 85 44 40 45 84 46 41 47 42 48 43 49 78 50 44 51 83 52
REMARK SMILES IDX 77 53 79 54 45 55 82 56 76 57 75 58 46 60 68 61 53 62 67 63
REMARK SMILES IDX 54 64 57 65 66 66 80 67 55 68 56 69 65 71 81 72 58 73 47 74
REMARK SMILES IDX 48 75 52 76 49 77 51 78 50 79 69 80 70 81 74 82 71 83 73 84
REMARK SMILES IDX 72 85 59 86 60 87 64 88 61 89 63 90 62 91
REMARK H PARENT 79 59 57 70
REMARK Flexibility Score: inf
ROOT
ATOM      1  C   UNL     1      -0.723   4.260  -4.368  1.00  0.00     0.188 C 
ENDROOT
BRANCH   1   2
ATOM      2  C   UNL     1      -0.506   5.623  -3.679  1.00  0.00     0.188 C 
BRANCH   2   3
ATOM      3  O   UNL     1      -1.571   6.550  -3.564  1.00  0.00    -0.376 OA
BRANCH   3   4
ATOM      4  C   UNL     1      -1.740   7.455  -4.648  1.00  0.00     0.202 C 
BRANCH   4   5
ATOM      5  C   UNL     1      -0.691   8.546  -4.849  1.00  0.00     0.261 C 
BRANCH   5   6
ATOM      6  O   UNL     1       0.301   8.088  -5.763  1.00  0.00    -0.462 OA
BRANCH   6   7
ATOM      7  C   UNL     1       1.512   7.784  -5.253  1.00  0.00     0.328 C 
ATOM      8  O   UNL     1       1.918   8.072  -4.146  1.00  0.00    -0.250 OA
BRANCH   7   9
ATOM      9  C   UNL     1       2.237   6.855  -6.221  1.00  0.00     0.192 C 
ATOM     10  C   UNL     1       1.423   5.609  -6.522  1.00  0.00     0.044 C 
BRANCH   9  11
ATOM     11  N   UNL     1       2.687   7.607  -7.390  1.00  0.00    -0.329 N 
ATOM     12  C   UNL     1       8.313   5.150  -6.979  1.00  0.00     0.226 C 
ATOM     13  O   UNL     1       8.447   3.981  -6.596  1.00  0.00    -0.275 OA
ATOM     14  N   UNL     1       7.325   5.470  -7.896  1.00  0.00    -0.342 N 
ATOM     15  C   UNL     1       6.076   4.732  -7.829  1.00  0.00     0.120 C 
ATOM     16  C   UNL     1       7.273   6.628  -8.780  1.00  0.00     0.120 C 
ATOM     17  C   UNL     1       5.006   5.684  -7.292  1.00  0.00     0.030 C 
ATOM     18  C   UNL     1       6.303   7.644  -8.220  1.00  0.00     0.030 C 
ATOM     19  C   UNL     1       4.911   7.019  -8.102  1.00  0.00    -0.008 C 
ATOM     20  C   UNL     1       4.318   6.761  -9.525  1.00  0.00     0.019 C 
ATOM     21  C   UNL     1       4.042   8.063  -7.372  1.00  0.00     0.127 C 
ATOM     22  C   UNL     1       2.839   6.408  -9.474  1.00  0.00     0.101 C 
ATOM     23  C   UNL     1       2.184   7.504  -8.674  1.00  0.00     0.223 C 
ATOM     24  O   UNL     1       1.624   8.424  -9.257  1.00  0.00    -0.275 OA
BRANCH  12  25
ATOM     25  C   UNL     1       9.050   6.250  -6.213  1.00  0.00     0.135 C 
BRANCH  25  26
ATOM     26  C   UNL     1       9.572   7.439  -6.973  1.00  0.00    -0.038 A 
ATOM     27  C   UNL     1       8.766  11.157  -7.252  1.00  0.00     0.044 C 
ATOM     28  C   UNL     1       9.371   9.808  -7.512  1.00  0.00    -0.051 A 
ATOM     29  C   UNL     1      10.186   9.604  -8.630  1.00  0.00     0.003 A 
ATOM     30  C   UNL     1       9.094   8.726  -6.671  1.00  0.00     0.007 A 
ATOM     31  C   UNL     1      10.738   8.347  -8.887  1.00  0.00     0.001 A 
ATOM     32  C   UNL     1      10.452   7.269  -8.049  1.00  0.00     0.004 A 
ENDBRANCH  25  26
ENDBRANCH  12  25
ENDBRANCH   9  11
ENDBRANCH   7   9
ENDBRANCH   6   7
ENDBRANCH   5   6
ENDBRANCH   4   5
ENDBRANCH   3   4
ENDBRANCH   2   3
ENDBRANCH   1   2
BRANCH   1  33
ATOM     33  O   UNL     1      -1.001   4.198  -5.761  1.00  0.00    -0.377 OA
BRANCH  33  34
ATOM     34  C   UNL     1      -2.356   4.219  -6.201  1.00  0.00     0.188 C 
BRANCH  34  35
ATOM     35  C   UNL     1      -3.366   3.557  -5.279  1.00  0.00     0.188 C 
BRANCH  35  36
ATOM     36  O   UNL     1      -3.602   4.438  -4.184  1.00  0.00    -0.376 OA
BRANCH  36  37
ATOM     37  C   UNL     1      -3.880   3.840  -2.922  1.00  0.00     0.202 C 
BRANCH  37  38
ATOM     38  C   UNL     1      -5.067   2.874  -2.942  1.00  0.00     0.261 C 
BRANCH  38  39
ATOM     39  O   UNL     1      -6.274   3.601  -3.249  1.00  0.00    -0.460 OA
BRANCH  39  40
ATOM     40  C   UNL     1      -6.678   3.534  -4.547  1.00  0.00     0.338 C 
ATOM     41  O   UNL     1      -6.820   2.503  -5.186  1.00  0.00    -0.246 OA
BRANCH  40  42
ATOM     42  C   UNL     1      -6.620   4.891  -5.176  1.00  0.00     0.060 A 
ATOM     43  C   UNL     1      -6.758   5.026  -6.569  1.00  0.00     0.016 A 
ATOM     44  C   UNL     1      -6.040   5.919  -4.450  1.00  0.00     0.016 A 
ATOM     45  C   UNL     1      -6.136   6.093  -7.246  1.00  0.00     0.010 A 
ATOM     46  C   UNL     1      -5.324   6.880  -5.135  1.00  0.00     0.010 A 
ATOM     47  C   UNL     1      -5.324   6.976  -6.536  1.00  0.00    -0.014 A 
BRANCH  47  48
ATOM     48  C   UNL     1      -4.314   7.904  -7.104  1.00  0.00     0.031 A 
ATOM     49  C   UNL     1      -4.140   9.272  -6.490  1.00  0.00     0.074 A 
ATOM     50  C   UNL     1      -3.327   7.395  -7.887  1.00  0.00     0.049 A 
ATOM     51  N   UNL     1      -3.178  10.096  -6.736  1.00  0.00    -0.248 NA
ATOM     52  C   UNL     1      -5.059   9.826  -5.491  1.00  0.00     0.031 C 
ATOM     53  C   UNL     1      -1.939   7.861  -7.938  1.00  0.00     0.029 A 
ATOM     54  N   UNL     1      -3.286   6.296  -8.731  1.00  0.00    -0.354 N 
ATOM     55  C   UNL     1      -3.161  11.083  -5.765  1.00  0.00     0.074 A 
ATOM     56  C   UNL     1      -4.390  10.895  -5.043  1.00  0.00     0.031 C 
ATOM     57  C   UNL     1      -1.227   7.097  -8.772  1.00  0.00     0.029 A 
ATOM     58  C   UNL     1      -2.157   6.351  -9.553  1.00  0.00     0.049 A 
ATOM     59  H   UNL     1      -3.958   5.577  -8.748  1.00  0.00     0.167 HD
ATOM     60  C   UNL     1      -2.047  11.866  -5.616  1.00  0.00     0.031 A 
ATOM     61  C   UNL     1      -2.229   6.561 -10.904  1.00  0.00     0.031 A 
ATOM     62  C   UNL     1      -1.074  11.630  -6.692  1.00  0.00     0.049 A 
ATOM     63  C   UNL     1      -1.753   7.969 -11.296  1.00  0.00     0.074 A 
ATOM     64  C   UNL     1       0.264  11.279  -6.729  1.00  0.00     0.029 A 
ATOM     65  N   UNL     1      -1.525  11.575  -8.010  1.00  0.00    -0.354 N 
ATOM     66  N   UNL     1      -1.816   9.001 -10.480  1.00  0.00    -0.248 NA
ATOM     67  C   UNL     1      -1.028   8.300 -12.525  1.00  0.00     0.031 C 
ATOM     68  C   UNL     1       0.586  10.950  -8.071  1.00  0.00     0.029 A 
ATOM     69  C   UNL     1      -0.547  11.114  -8.854  1.00  0.00     0.049 A 
ATOM     70  H   UNL     1      -2.430  11.835  -8.298  1.00  0.00     0.167 HD
ATOM     71  C   UNL     1      -1.066  10.037 -10.978  1.00  0.00     0.074 A 
ATOM     72  C   UNL     1      -0.646   9.572 -12.289  1.00  0.00     0.031 C 
ATOM     73  C   UNL     1      -0.733  11.176 -10.295  1.00  0.00     0.031 A 
BRANCH  60  74
ATOM     74  C   UNL     1      -1.703  12.743  -4.411  1.00  0.00    -0.014 A 
ATOM     75  C   UNL     1      -0.465  13.425  -4.376  1.00  0.00     0.009 A 
ATOM     76  C   UNL     1      -2.490  12.894  -3.256  1.00  0.00     0.009 A 
ATOM     77  C   UNL     1      -0.027  14.168  -3.267  1.00  0.00     0.001 A 
ATOM     78  C   UNL     1      -2.075  13.665  -2.151  1.00  0.00     0.001 A 
ATOM     79  C   UNL     1      -0.838  14.293  -2.151  1.00  0.00     0.000 A 
ENDBRANCH  60  74
BRANCH  61  80
ATOM     80  C   UNL     1      -3.156   5.566 -11.533  1.00  0.00    -0.014 A 
ATOM     81  C   UNL     1      -2.659   4.240 -11.447  1.00  0.00     0.009 A 
ATOM     82  C   UNL     1      -4.537   5.756 -11.352  1.00  0.00     0.009 A 
ATOM     83  C   UNL     1      -3.418   3.241 -10.824  1.00  0.00     0.001 A 
ATOM     84  C   UNL     1      -5.304   4.735 -10.760  1.00  0.00     0.001 A 
ATOM     85  C   UNL     1      -4.721   3.512 -10.421  1.00  0.00     0.000 A 
ENDBRANCH  61  80
BRANCH  73  86
ATOM     86  C   UNL     1      -0.533  12.542 -10.923  1.00  0.00    -0.014 A 
ATOM     87  C   UNL     1      -0.835  12.836 -12.254  1.00  0.00     0.009 A 
ATOM     88  C   UNL     1      -0.255  13.652 -10.081  1.00  0.00     0.009 A 
ATOM     89  C   UNL     1      -0.854  14.159 -12.718  1.00  0.00     0.001 A 
ATOM     90  C   UNL     1      -0.321  14.972 -10.525  1.00  0.00     0.001 A 
ATOM     91  C   UNL     1      -0.618  15.224 -11.852  1.00  0.00     0.000 A 
ENDBRANCH  73  86
ENDBRANCH  47  48
ENDBRANCH  40  42
ENDBRANCH  39  40
ENDBRANCH  38  39
ENDBRANCH  37  38
ENDBRANCH  36  37
ENDBRANCH  35  36
ENDBRANCH  34  35
ENDBRANCH  33  34
ENDBRANCH   1  33
TORSDOF 23
