REMARK SMILES O=C(COC[C@@H]1CCCCO1)OCCOCCOCCOCCOC(=O)c1ccc(-c2c3nc(c(-c4ccccc4)c4ccc([nH]4)c(-c4ccccc4)c4nc(c(-c5ccccc5)c5ccc2[nH]5)C=C4)C=C3)cc1
REMARK SMILES IDX 17 1 16 2 15 3 14 4 13 5 12 6 2 7 1 8 3 9 4 10 5 11 6 12
REMARK SMILES IDX 7 13 11 14 8 15 10 16 9 17 18 18 19 19 20 20 21 21 22 22
REMARK SMILES IDX 23 23 24 24 25 25 26 26 27 27 28 28 74 29 29 30 73 31 30 32
REMARK SMILES IDX 31 33 32 34 67 35 33 36 72 37 66 38 68 39 34 40 71 41 65 42
REMARK SMILES IDX 64 43 35 45 57 46 42 47 56 48 43 49 46 50 55 51 69 52 44 53
REMARK SMILES IDX 45 54 54 56 70 57 47 58 36 59 37 60 41 61 38 62 40 63 39 64
REMARK SMILES IDX 58 65 59 66 63 67 60 68 62 69 61 70 48 71 49 72 53 73 50 74
REMARK SMILES IDX 52 75 51 76
REMARK H PARENT 68 44 46 55
REMARK Flexibility Score: inf
ROOT
ATOM      1  C   UNL     1       2.150   0.828  -2.166  1.00  0.00     0.188 C 
ENDROOT
BRANCH   1   2
ATOM      2  C   UNL     1       2.848   1.306  -0.883  1.00  0.00     0.188 C 
BRANCH   2   3
ATOM      3  O   UNL     1       4.224   1.157  -0.564  1.00  0.00    -0.376 OA
BRANCH   3   4
ATOM      4  C   UNL     1       5.080   0.035  -0.660  1.00  0.00     0.202 C 
BRANCH   4   5
ATOM      5  C   UNL     1       4.637  -1.397  -0.374  1.00  0.00     0.261 C 
BRANCH   5   6
ATOM      6  O   UNL     1       3.235  -1.573  -0.237  1.00  0.00    -0.462 OA
BRANCH   6   7
ATOM      7  C   UNL     1       2.667  -1.461   0.992  1.00  0.00     0.332 C 
ATOM      8  O   UNL     1       1.585  -1.999   1.208  1.00  0.00    -0.250 OA
BRANCH   7   9
ATOM      9  C   UNL     1       3.327  -0.472   1.976  1.00  0.00     0.282 C 
BRANCH   9  10
ATOM     10  O   UNL     1       3.373  -0.716   3.359  1.00  0.00    -0.367 OA
BRANCH  10  11
ATOM     11  C   UNL     1       2.111  -0.755   4.010  1.00  0.00     0.193 C 
BRANCH  11  12
ATOM     12  C   UNL     1       1.503   0.597   4.453  1.00  0.00     0.144 C 
ATOM     13  C   UNL     1       1.233   1.683   3.397  1.00  0.00     0.034 C 
ATOM     14  O   UNL     1       2.184   1.124   5.599  1.00  0.00    -0.376 OA
ATOM     15  C   UNL     1       2.363   2.692   3.179  1.00  0.00     0.005 C 
ATOM     16  C   UNL     1       3.365   1.860   5.297  1.00  0.00     0.160 C 
ATOM     17  C   UNL     1       3.010   3.097   4.492  1.00  0.00     0.029 C 
ENDBRANCH  11  12
ENDBRANCH  10  11
ENDBRANCH   9  10
ENDBRANCH   7   9
ENDBRANCH   6   7
ENDBRANCH   5   6
ENDBRANCH   4   5
ENDBRANCH   3   4
ENDBRANCH   2   3
ENDBRANCH   1   2
BRANCH   1  18
ATOM     18  O   UNL     1       2.686   1.213  -3.416  1.00  0.00    -0.377 OA
BRANCH  18  19
ATOM     19  C   UNL     1       4.036   0.843  -3.592  1.00  0.00     0.188 C 
BRANCH  19  20
ATOM     20  C   UNL     1       5.005   2.024  -3.386  1.00  0.00     0.188 C 
BRANCH  20  21
ATOM     21  O   UNL     1       4.501   3.225  -2.840  1.00  0.00    -0.376 OA
BRANCH  21  22
ATOM     22  C   UNL     1       3.452   3.929  -3.488  1.00  0.00     0.202 C 
BRANCH  22  23
ATOM     23  C   UNL     1       3.094   3.830  -4.992  1.00  0.00     0.261 C 
BRANCH  23  24
ATOM     24  O   UNL     1       3.505   2.672  -5.727  1.00  0.00    -0.460 OA
BRANCH  24  25
ATOM     25  C   UNL     1       4.639   2.775  -6.460  1.00  0.00     0.338 C 
ATOM     26  O   UNL     1       5.356   3.754  -6.582  1.00  0.00    -0.246 OA
BRANCH  25  27
ATOM     27  C   UNL     1       5.012   1.408  -6.894  1.00  0.00     0.060 A 
ATOM     28  C   UNL     1       6.215   0.853  -6.425  1.00  0.00     0.016 A 
ATOM     29  C   UNL     1       4.141   0.643  -7.671  1.00  0.00     0.016 A 
ATOM     30  C   UNL     1       6.538  -0.474  -6.713  1.00  0.00     0.010 A 
ATOM     31  C   UNL     1       4.491  -0.670  -8.002  1.00  0.00     0.010 A 
ATOM     32  C   UNL     1       5.693  -1.231  -7.533  1.00  0.00    -0.014 A 
BRANCH  32  33
ATOM     33  C   UNL     1       6.146  -2.538  -8.064  1.00  0.00     0.031 A 
ATOM     34  C   UNL     1       6.836  -2.552  -9.400  1.00  0.00     0.074 A 
ATOM     35  C   UNL     1       5.931  -3.686  -7.398  1.00  0.00     0.049 A 
ATOM     36  N   UNL     1       7.208  -3.571 -10.129  1.00  0.00    -0.248 NA
ATOM     37  C   UNL     1       7.142  -1.239  -9.993  1.00  0.00     0.031 C 
ATOM     38  C   UNL     1       5.326  -3.802  -6.072  1.00  0.00     0.029 A 
ATOM     39  N   UNL     1       6.183  -4.986  -7.767  1.00  0.00    -0.354 N 
ATOM     40  C   UNL     1       7.772  -3.023 -11.274  1.00  0.00     0.074 A 
ATOM     41  C   UNL     1       7.691  -1.586 -11.148  1.00  0.00     0.031 C 
ATOM     42  C   UNL     1       5.224  -5.105  -5.753  1.00  0.00     0.029 A 
ATOM     43  C   UNL     1       5.715  -5.914  -6.868  1.00  0.00     0.049 A 
ATOM     44  H   UNL     1       6.654  -5.229  -8.597  1.00  0.00     0.167 HD
ATOM     45  C   UNL     1       8.302  -3.664 -12.341  1.00  0.00     0.031 A 
ATOM     46  C   UNL     1       5.649  -7.258  -6.959  1.00  0.00     0.031 A 
ATOM     47  C   UNL     1       8.369  -5.093 -12.473  1.00  0.00     0.049 A 
ATOM     48  C   UNL     1       6.158  -7.941  -8.205  1.00  0.00     0.074 A 
ATOM     49  C   UNL     1       8.918  -5.834 -13.505  1.00  0.00     0.029 A 
ATOM     50  N   UNL     1       7.858  -5.995 -11.556  1.00  0.00    -0.354 N 
ATOM     51  N   UNL     1       6.734  -7.417  -9.261  1.00  0.00    -0.248 NA
ATOM     52  C   UNL     1       6.003  -9.402  -8.274  1.00  0.00     0.031 C 
ATOM     53  C   UNL     1       8.673  -7.185 -13.247  1.00  0.00     0.029 A 
ATOM     54  C   UNL     1       8.034  -7.286 -12.021  1.00  0.00     0.049 A 
ATOM     55  H   UNL     1       7.432  -5.754 -10.701  1.00  0.00     0.167 HD
ATOM     56  C   UNL     1       7.027  -8.484 -10.104  1.00  0.00     0.074 A 
ATOM     57  C   UNL     1       6.591  -9.686  -9.427  1.00  0.00     0.031 C 
ATOM     58  C   UNL     1       7.599  -8.472 -11.332  1.00  0.00     0.031 A 
BRANCH  45  59
ATOM     59  C   UNL     1       8.809  -2.828 -13.480  1.00  0.00    -0.014 A 
ATOM     60  C   UNL     1      10.007  -2.105 -13.380  1.00  0.00     0.009 A 
ATOM     61  C   UNL     1       8.111  -2.828 -14.698  1.00  0.00     0.009 A 
ATOM     62  C   UNL     1      10.489  -1.388 -14.478  1.00  0.00     0.001 A 
ATOM     63  C   UNL     1       8.608  -2.132 -15.800  1.00  0.00     0.001 A 
ATOM     64  C   UNL     1       9.795  -1.410 -15.688  1.00  0.00     0.000 A 
ENDBRANCH  45  59
BRANCH  46  65
ATOM     65  C   UNL     1       5.012  -8.063  -5.879  1.00  0.00    -0.014 A 
ATOM     66  C   UNL     1       5.758  -8.992  -5.136  1.00  0.00     0.009 A 
ATOM     67  C   UNL     1       3.633  -7.959  -5.637  1.00  0.00     0.009 A 
ATOM     68  C   UNL     1       5.130  -9.825  -4.205  1.00  0.00     0.001 A 
ATOM     69  C   UNL     1       3.014  -8.768  -4.681  1.00  0.00     0.001 A 
ATOM     70  C   UNL     1       3.760  -9.710  -3.977  1.00  0.00     0.000 A 
ENDBRANCH  46  65
BRANCH  58  71
ATOM     71  C   UNL     1       7.813  -9.794 -12.015  1.00  0.00    -0.014 A 
ATOM     72  C   UNL     1       6.735 -10.528 -12.535  1.00  0.00     0.009 A 
ATOM     73  C   UNL     1       9.117 -10.283 -12.194  1.00  0.00     0.009 A 
ATOM     74  C   UNL     1       6.958 -11.738 -13.194  1.00  0.00     0.001 A 
ATOM     75  C   UNL     1       9.339 -11.476 -12.883  1.00  0.00     0.001 A 
ATOM     76  C   UNL     1       8.260 -12.207 -13.374  1.00  0.00     0.000 A 
ENDBRANCH  58  71
ENDBRANCH  32  33
ENDBRANCH  25  27
ENDBRANCH  24  25
ENDBRANCH  23  24
ENDBRANCH  22  23
ENDBRANCH  21  22
ENDBRANCH  20  21
ENDBRANCH  19  20
ENDBRANCH  18  19
ENDBRANCH   1  18
TORSDOF 23
