REMARK SMILES C[C@@H]1CN(S(=O)(=O)c2ccc(Cl)c(C(=O)OCCOCCOCCOCCOC(=O)c3ccc(-c4c5nc(c(-c6ccccc6)c6ccc([nH]6)c(-c6ccccc6)c6nc(c(-c7ccccc7)c7ccc4[nH]7)C=C6)C=C5)cc3)c2Cl)C[C@H]1C
REMARK SMILES IDX 22 1 21 2 20 3 19 4 18 5 17 6 16 7 14 8 15 9 13 10 8 11 9 12
REMARK SMILES IDX 79 13 10 14 80 15 11 16 12 17 5 18 6 19 7 20 4 21 1 22 2 23
REMARK SMILES IDX 3 24 82 25 81 26 83 27 23 28 24 29 25 30 26 31 27 32 28 33
REMARK SMILES IDX 29 34 30 35 31 36 32 37 78 38 33 39 77 40 34 41 35 42 36 43
REMARK SMILES IDX 71 44 37 45 76 46 70 47 72 48 38 49 75 50 69 51 68 52 39 54
REMARK SMILES IDX 61 55 46 56 60 57 47 58 50 59 59 60 73 61 48 62 49 63 58 65
REMARK SMILES IDX 74 66 51 67 40 68 41 69 45 70 42 71 44 72 43 73 62 74 63 75
REMARK SMILES IDX 67 76 64 77 66 78 65 79 52 80 53 81 57 82 54 83 56 84 55 85
REMARK H PARENT 72 53 50 64
REMARK Flexibility Score: inf
ROOT
ATOM      1  O   UNL     1       1.000   5.864   9.086  1.00  0.00    -0.377 OA
ENDROOT
BRANCH   1   2
ATOM      2  C   UNL     1       0.953   4.449   9.005  1.00  0.00     0.188 C 
BRANCH   2   3
ATOM      3  C   UNL     1       1.963   3.618   9.822  1.00  0.00     0.188 C 
BRANCH   3   4
ATOM      4  O   UNL     1       2.813   4.390  10.665  1.00  0.00    -0.376 OA
BRANCH   4   5
ATOM      5  C   UNL     1       4.191   4.404  10.316  1.00  0.00     0.202 C 
BRANCH   5   6
ATOM      6  C   UNL     1       4.511   5.213   9.059  1.00  0.00     0.261 C 
BRANCH   6   7
ATOM      7  O   UNL     1       3.732   4.786   7.933  1.00  0.00    -0.460 OA
BRANCH   7   8
ATOM      8  C   UNL     1       4.240   3.860   7.092  1.00  0.00     0.341 C 
ATOM      9  O   UNL     1       5.318   3.304   7.173  1.00  0.00    -0.246 OA
BRANCH   8  10
ATOM     10  C   UNL     1       3.179   3.591   6.092  1.00  0.00     0.098 A 
ATOM     11  C   UNL     1       1.469   2.146   5.146  1.00  0.00     0.102 A 
ATOM     12  C   UNL     1       0.954   3.252   4.446  1.00  0.00     0.025 A 
ATOM     13  C   UNL     1       2.586   2.309   5.986  1.00  0.00     0.077 A 
ATOM     14  C   UNL     1       1.577   4.494   4.513  1.00  0.00     0.023 A 
ATOM     15  Cl  UNL     1       3.250   0.999   6.902  1.00  0.00    -0.082 Cl
ATOM     16  C   UNL     1       2.694   4.666   5.325  1.00  0.00     0.057 A 
ATOM     17  Cl  UNL     1       3.431   6.231   5.311  1.00  0.00    -0.083 Cl
BRANCH  11  18
ATOM     18  S   UNL     1       0.565   0.615   4.951  1.00  0.00     0.244 S 
ATOM     19  O   UNL     1      -0.779   0.958   4.527  1.00  0.00    -0.207 OA
ATOM     20  O   UNL     1       0.752  -0.224   6.111  1.00  0.00    -0.207 OA
BRANCH  18  21
ATOM     21  N   UNL     1       1.332  -0.116   3.617  1.00  0.00    -0.197 NA
ATOM     22  C   UNL     1       1.041  -0.165  -0.107  1.00  0.00     0.009 C 
ATOM     23  C   UNL     1       0.627  -0.429   1.333  1.00  0.00     0.005 C 
ATOM     24  C   UNL     1       1.235   0.582   2.304  1.00  0.00     0.106 C 
ATOM     25  C   UNL     1       1.116  -1.763   1.892  1.00  0.00     0.005 C 
ATOM     26  C   UNL     1       0.963  -1.547   3.400  1.00  0.00     0.106 C 
ATOM     27  C   UNL     1       0.322  -2.958   1.385  1.00  0.00     0.009 C 
ENDBRANCH  18  21
ENDBRANCH  11  18
ENDBRANCH   8  10
ENDBRANCH   7   8
ENDBRANCH   6   7
ENDBRANCH   5   6
ENDBRANCH   4   5
ENDBRANCH   3   4
ENDBRANCH   2   3
ENDBRANCH   1   2
BRANCH   1  28
ATOM     28  C   UNL     1       1.055   6.495  10.363  1.00  0.00     0.188 C 
BRANCH  28  29
ATOM     29  C   UNL     1       0.510   5.796  11.628  1.00  0.00     0.188 C 
BRANCH  29  30
ATOM     30  O   UNL     1      -0.338   4.685  11.377  1.00  0.00    -0.376 OA
BRANCH  30  31
ATOM     31  C   UNL     1      -1.717   4.862  11.665  1.00  0.00     0.202 C 
BRANCH  31  32
ATOM     32  C   UNL     1      -2.455   5.761  10.667  1.00  0.00     0.261 C 
BRANCH  32  33
ATOM     33  O   UNL     1      -1.994   7.121  10.618  1.00  0.00    -0.460 OA
BRANCH  33  34
ATOM     34  C   UNL     1      -2.100   7.849  11.751  1.00  0.00     0.338 C 
ATOM     35  O   UNL     1      -2.575   7.503  12.816  1.00  0.00    -0.246 OA
BRANCH  34  36
ATOM     36  C   UNL     1      -1.369   9.111  11.535  1.00  0.00     0.060 A 
ATOM     37  C   UNL     1      -0.301   9.435  12.381  1.00  0.00     0.016 A 
ATOM     38  C   UNL     1      -1.738   9.965  10.493  1.00  0.00     0.016 A 
ATOM     39  C   UNL     1       0.384  10.637  12.204  1.00  0.00     0.010 A 
ATOM     40  C   UNL     1      -1.065  11.175  10.329  1.00  0.00     0.010 A 
ATOM     41  C   UNL     1      -0.022  11.529  11.203  1.00  0.00    -0.014 A 
BRANCH  41  42
ATOM     42  C   UNL     1       0.501  12.915  11.190  1.00  0.00     0.031 A 
ATOM     43  C   UNL     1      -0.304  13.984  11.874  1.00  0.00     0.074 A 
ATOM     44  C   UNL     1       1.664  13.222  10.589  1.00  0.00     0.049 A 
ATOM     45  N   UNL     1      -0.075  15.269  11.961  1.00  0.00    -0.248 NA
ATOM     46  C   UNL     1      -1.537  13.542  12.548  1.00  0.00     0.031 C 
ATOM     47  C   UNL     1       2.556  12.272   9.929  1.00  0.00     0.029 A 
ATOM     48  N   UNL     1       2.286  14.435  10.437  1.00  0.00    -0.354 N 
ATOM     49  C   UNL     1      -1.134  15.788  12.695  1.00  0.00     0.074 A 
ATOM     50  C   UNL     1      -2.021  14.688  13.002  1.00  0.00     0.031 C 
ATOM     51  C   UNL     1       3.613  12.942   9.434  1.00  0.00     0.029 A 
ATOM     52  C   UNL     1       3.453  14.368   9.716  1.00  0.00     0.049 A 
ATOM     53  H   UNL     1       1.931  15.274  10.809  1.00  0.00     0.167 HD
ATOM     54  C   UNL     1      -1.349  17.066  13.085  1.00  0.00     0.031 A 
ATOM     55  C   UNL     1       4.283  15.350   9.313  1.00  0.00     0.031 A 
ATOM     56  C   UNL     1      -0.483  18.166  12.759  1.00  0.00     0.049 A 
ATOM     57  C   UNL     1       3.974  16.778   9.680  1.00  0.00     0.074 A 
ATOM     58  C   UNL     1      -0.609  19.497  13.116  1.00  0.00     0.029 A 
ATOM     59  N   UNL     1       0.663  18.063  11.988  1.00  0.00    -0.354 N 
ATOM     60  N   UNL     1       2.987  17.254  10.401  1.00  0.00    -0.248 NA
ATOM     61  C   UNL     1       4.899  17.805   9.178  1.00  0.00     0.031 C 
ATOM     62  C   UNL     1       0.431  20.210  12.511  1.00  0.00     0.029 A 
ATOM     63  C   UNL     1       1.238  19.312  11.830  1.00  0.00     0.049 A 
ATOM     64  H   UNL     1       1.017  17.226  11.609  1.00  0.00     0.167 HD
ATOM     65  C   UNL     1       3.189  18.628  10.463  1.00  0.00     0.074 A 
ATOM     66  C   UNL     1       4.399  18.908   9.718  1.00  0.00     0.031 C 
ATOM     67  C   UNL     1       2.441  19.575  11.083  1.00  0.00     0.031 A 
BRANCH  54  68
ATOM     68  C   UNL     1      -2.596  17.341  13.876  1.00  0.00    -0.014 A 
ATOM     69  C   UNL     1      -2.729  16.904  15.203  1.00  0.00     0.009 A 
ATOM     70  C   UNL     1      -3.648  18.058  13.287  1.00  0.00     0.009 A 
ATOM     71  C   UNL     1      -3.907  17.149  15.913  1.00  0.00     0.001 A 
ATOM     72  C   UNL     1      -4.813  18.326  14.008  1.00  0.00     0.001 A 
ATOM     73  C   UNL     1      -4.945  17.863  15.316  1.00  0.00     0.000 A 
ENDBRANCH  54  68
BRANCH  55  74
ATOM     74  C   UNL     1       5.482  15.026   8.496  1.00  0.00    -0.014 A 
ATOM     75  C   UNL     1       6.772  15.176   9.027  1.00  0.00     0.009 A 
ATOM     76  C   UNL     1       5.342  14.593   7.168  1.00  0.00     0.009 A 
ATOM     77  C   UNL     1       7.897  14.922   8.238  1.00  0.00     0.001 A 
ATOM     78  C   UNL     1       6.468  14.313   6.390  1.00  0.00     0.001 A 
ATOM     79  C   UNL     1       7.744  14.487   6.923  1.00  0.00     0.000 A 
ENDBRANCH  55  74
BRANCH  67  80
ATOM     80  C   UNL     1       2.926  20.996  11.011  1.00  0.00    -0.014 A 
ATOM     81  C   UNL     1       2.845  21.738   9.823  1.00  0.00     0.009 A 
ATOM     82  C   UNL     1       3.427  21.617  12.167  1.00  0.00     0.009 A 
ATOM     83  C   UNL     1       3.285  23.062   9.786  1.00  0.00     0.001 A 
ATOM     84  C   UNL     1       3.838  22.950  12.134  1.00  0.00     0.001 A 
ATOM     85  C   UNL     1       3.776  23.669  10.942  1.00  0.00     0.000 A 
ENDBRANCH  67  80
ENDBRANCH  41  42
ENDBRANCH  34  36
ENDBRANCH  33  34
ENDBRANCH  32  33
ENDBRANCH  31  32
ENDBRANCH  30  31
ENDBRANCH  29  30
ENDBRANCH  28  29
ENDBRANCH   1  28
TORSDOF 22
