REMARK SMILES CC[C@@H](C)[C@@H](NC(=O)Cn1nc(-c2ccc3ccccc3c2)ccc1=O)C(=O)OCCOCCOCCOCCOC(=O)c1ccc(-c2c3nc(c(-c4ccccc4)c4ccc([nH]4)c(-c4ccccc4)c4nc(c(-c5ccccc5)c5ccc2[nH]5)C=C4)C=C3)cc1
REMARK SMILES IDX 34 1 33 2 32 3 31 4 30 5 29 6 27 7 28 8 5 9 3 10 4 11 2 12
REMARK SMILES IDX 1 13 6 14 7 15 8 17 9 18 10 19 11 20 25 21 12 22 24 23 26 24
REMARK SMILES IDX 23 25 13 26 14 27 22 28 15 29 21 30 16 31 20 32 17 33 19 34
REMARK SMILES IDX 18 35 35 36 36 37 37 38 38 39 39 40 40 41 41 42 42 43 43 44
REMARK SMILES IDX 44 45 45 46 91 47 46 48 90 49 47 50 48 51 49 52 84 53 50 54
REMARK SMILES IDX 89 55 83 56 85 57 51 58 88 59 82 60 81 61 52 63 74 64 59 65
REMARK SMILES IDX 73 66 60 67 63 68 72 69 86 70 61 71 62 72 71 74 87 75 64 76
REMARK SMILES IDX 53 77 54 78 58 79 55 80 57 81 56 82 75 83 76 84 80 85 77 86
REMARK SMILES IDX 79 87 78 88 65 89 66 90 70 91 67 92 69 93 68 94
REMARK H PARENT 6 16 85 62 63 73
REMARK Flexibility Score: inf
ROOT
ATOM      1  C   UNL     1      -0.544   4.958  -3.934  1.00  0.00     0.188 C 
ENDROOT
BRANCH   1   2
ATOM      2  C   UNL     1      -0.686   6.445  -3.603  1.00  0.00     0.188 C 
BRANCH   2   3
ATOM      3  O   UNL     1       0.442   7.276  -3.829  1.00  0.00    -0.376 OA
BRANCH   3   4
ATOM      4  C   UNL     1       1.531   7.168  -2.906  1.00  0.00     0.202 C 
BRANCH   4   5
ATOM      5  C   UNL     1       1.194   7.042  -1.423  1.00  0.00     0.261 C 
BRANCH   5   6
ATOM      6  O   UNL     1       1.254   5.654  -1.013  1.00  0.00    -0.462 OA
BRANCH   6   7
ATOM      7  C   UNL     1       0.254   5.223  -0.214  1.00  0.00     0.328 C 
ATOM      8  O   UNL     1      -0.797   5.835  -0.040  1.00  0.00    -0.250 OA
BRANCH   7   9
ATOM      9  C   UNL     1       0.641   4.004   0.641  1.00  0.00     0.195 C 
BRANCH   9  10
ATOM     10  C   UNL     1       1.100   2.649   0.044  1.00  0.00     0.019 C 
ATOM     11  C   UNL     1       0.556   2.396  -1.356  1.00  0.00     0.010 C 
BRANCH  10  12
ATOM     12  C   UNL     1       0.693   1.500   1.011  1.00  0.00     0.002 C 
ATOM     13  C   UNL     1       1.206   0.117   0.628  1.00  0.00     0.004 C 
ENDBRANCH  10  12
ENDBRANCH   9  10
BRANCH   9  14
ATOM     14  N   UNL     1       1.363   4.387   1.865  1.00  0.00    -0.341 N 
ATOM     15  C   UNL     1       2.574   4.907   2.174  1.00  0.00     0.242 C 
ATOM     16  H   UNL     1       0.823   4.221   2.671  1.00  0.00     0.164 HD
ATOM     17  O   UNL     1       2.771   5.017   3.396  1.00  0.00    -0.273 OA
BRANCH  15  18
ATOM     18  C   UNL     1       3.562   5.597   1.220  1.00  0.00     0.248 C 
BRANCH  18  19
ATOM     19  N   UNL     1       3.949   5.042  -0.067  1.00  0.00    -0.220 N 
ATOM     20  N   UNL     1       4.332   5.977  -1.034  1.00  0.00    -0.169 NA
ATOM     21  C   UNL     1       4.401   3.730  -0.121  1.00  0.00     0.267 A 
ATOM     22  C   UNL     1       4.800   5.515  -2.152  1.00  0.00     0.091 A 
ATOM     23  C   UNL     1       4.718   3.232  -1.477  1.00  0.00     0.075 A 
ATOM     24  O   UNL     1       4.460   2.960   0.831  1.00  0.00    -0.268 OA
ATOM     25  C   UNL     1       4.866   4.083  -2.493  1.00  0.00     0.036 A 
BRANCH  22  26
ATOM     26  C   UNL     1       5.356   6.446  -3.164  1.00  0.00     0.003 A 
ATOM     27  C   UNL     1       6.496   7.186  -2.847  1.00  0.00     0.011 A 
ATOM     28  C   UNL     1       4.753   6.593  -4.415  1.00  0.00     0.019 A 
ATOM     29  C   UNL     1       7.034   8.069  -3.787  1.00  0.00     0.009 A 
ATOM     30  C   UNL     1       5.246   7.523  -5.344  1.00  0.00    -0.018 A 
ATOM     31  C   UNL     1       6.410   8.264  -5.031  1.00  0.00    -0.018 A 
ATOM     32  C   UNL     1       4.593   7.753  -6.566  1.00  0.00     0.009 A 
ATOM     33  C   UNL     1       6.900   9.195  -5.962  1.00  0.00     0.009 A 
ATOM     34  C   UNL     1       5.080   8.701  -7.468  1.00  0.00     0.001 A 
ATOM     35  C   UNL     1       6.235   9.416  -7.170  1.00  0.00     0.001 A 
ENDBRANCH  22  26
ENDBRANCH  18  19
ENDBRANCH  15  18
ENDBRANCH   9  14
ENDBRANCH   7   9
ENDBRANCH   6   7
ENDBRANCH   5   6
ENDBRANCH   4   5
ENDBRANCH   3   4
ENDBRANCH   2   3
ENDBRANCH   1   2
BRANCH   1  36
ATOM     36  O   UNL     1       0.776   4.441  -3.935  1.00  0.00    -0.377 OA
BRANCH  36  37
ATOM     37  C   UNL     1       1.484   4.511  -5.167  1.00  0.00     0.188 C 
BRANCH  37  38
ATOM     38  C   UNL     1       0.791   3.925  -6.401  1.00  0.00     0.188 C 
BRANCH  38  39
ATOM     39  O   UNL     1      -0.100   2.836  -6.193  1.00  0.00    -0.376 OA
BRANCH  39  40
ATOM     40  C   UNL     1       0.351   1.732  -5.415  1.00  0.00     0.202 C 
BRANCH  40  41
ATOM     41  C   UNL     1       1.388   0.852  -6.105  1.00  0.00     0.261 C 
BRANCH  41  42
ATOM     42  O   UNL     1       2.720   1.223  -5.699  1.00  0.00    -0.460 OA
BRANCH  42  43
ATOM     43  C   UNL     1       3.525   1.728  -6.657  1.00  0.00     0.338 C 
ATOM     44  O   UNL     1       3.231   1.998  -7.812  1.00  0.00    -0.246 OA
BRANCH  43  45
ATOM     45  C   UNL     1       4.856   1.996  -6.084  1.00  0.00     0.060 A 
ATOM     46  C   UNL     1       5.501   1.033  -5.300  1.00  0.00     0.016 A 
ATOM     47  C   UNL     1       5.502   3.193  -6.414  1.00  0.00     0.016 A 
ATOM     48  C   UNL     1       6.814   1.254  -4.882  1.00  0.00     0.010 A 
ATOM     49  C   UNL     1       6.813   3.415  -5.989  1.00  0.00     0.010 A 
ATOM     50  C   UNL     1       7.486   2.434  -5.246  1.00  0.00    -0.014 A 
BRANCH  50  51
ATOM     51  C   UNL     1       8.941   2.550  -4.994  1.00  0.00     0.031 A 
ATOM     52  C   UNL     1       9.485   3.281  -3.810  1.00  0.00     0.074 A 
ATOM     53  C   UNL     1       9.781   1.954  -5.858  1.00  0.00     0.049 A 
ATOM     54  N   UNL     1      10.713   3.337  -3.365  1.00  0.00    -0.248 NA
ATOM     55  C   UNL     1       8.522   4.050  -3.018  1.00  0.00     0.031 C 
ATOM     56  C   UNL     1       9.370   1.226  -7.059  1.00  0.00     0.029 A 
ATOM     57  N   UNL     1      11.147   1.852  -5.850  1.00  0.00    -0.354 N 
ATOM     58  C   UNL     1      10.662   4.115  -2.216  1.00  0.00     0.074 A 
ATOM     59  C   UNL     1       9.290   4.548  -2.059  1.00  0.00     0.031 C 
ATOM     60  C   UNL     1      10.461   0.727  -7.659  1.00  0.00     0.029 A 
ATOM     61  C   UNL     1      11.644   1.111  -6.892  1.00  0.00     0.049 A 
ATOM     62  H   UNL     1      11.717   2.269  -5.163  1.00  0.00     0.167 HD
ATOM     63  C   UNL     1      11.668   4.429  -1.366  1.00  0.00     0.031 A 
ATOM     64  C   UNL     1      12.908   0.761  -7.190  1.00  0.00     0.031 A 
ATOM     65  C   UNL     1      13.041   4.046  -1.566  1.00  0.00     0.049 A 
ATOM     66  C   UNL     1      14.020   1.164  -6.267  1.00  0.00     0.074 A 
ATOM     67  C   UNL     1      14.133   4.303  -0.755  1.00  0.00     0.029 A 
ATOM     68  N   UNL     1      13.513   3.345  -2.665  1.00  0.00    -0.354 N 
ATOM     69  N   UNL     1      13.951   1.834  -5.142  1.00  0.00    -0.248 NA
ATOM     70  C   UNL     1      15.378   0.748  -6.641  1.00  0.00     0.031 C 
ATOM     71  C   UNL     1      15.275   3.811  -1.395  1.00  0.00     0.029 A 
ATOM     72  C   UNL     1      14.886   3.189  -2.571  1.00  0.00     0.049 A 
ATOM     73  H   UNL     1      12.955   3.008  -3.403  1.00  0.00     0.167 HD
ATOM     74  C   UNL     1      15.253   1.909  -4.664  1.00  0.00     0.074 A 
ATOM     75  C   UNL     1      16.088   1.203  -5.615  1.00  0.00     0.031 C 
ATOM     76  C   UNL     1      15.710   2.505  -3.536  1.00  0.00     0.031 A 
BRANCH  63  77
ATOM     77  C   UNL     1      11.323   5.235  -0.145  1.00  0.00    -0.014 A 
ATOM     78  C   UNL     1      11.792   6.551  -0.012  1.00  0.00     0.009 A 
ATOM     79  C   UNL     1      10.588   4.667   0.907  1.00  0.00     0.009 A 
ATOM     80  C   UNL     1      11.536   7.280   1.152  1.00  0.00     0.001 A 
ATOM     81  C   UNL     1      10.310   5.407   2.058  1.00  0.00     0.001 A 
ATOM     82  C   UNL     1      10.791   6.710   2.183  1.00  0.00     0.000 A 
ENDBRANCH  63  77
BRANCH  64  83
ATOM     83  C   UNL     1      13.152  -0.068  -8.396  1.00  0.00    -0.014 A 
ATOM     84  C   UNL     1      13.002   0.483  -9.679  1.00  0.00     0.009 A 
ATOM     85  C   UNL     1      13.432  -1.436  -8.270  1.00  0.00     0.009 A 
ATOM     86  C   UNL     1      13.101  -0.327 -10.812  1.00  0.00     0.001 A 
ATOM     87  C   UNL     1      13.553  -2.238  -9.406  1.00  0.00     0.001 A 
ATOM     88  C   UNL     1      13.376  -1.686 -10.675  1.00  0.00     0.000 A 
ENDBRANCH  64  83
BRANCH  76  89
ATOM     89  C   UNL     1      17.185   2.438  -3.258  1.00  0.00    -0.014 A 
ATOM     90  C   UNL     1      17.659   1.662  -2.188  1.00  0.00     0.009 A 
ATOM     91  C   UNL     1      18.093   3.221  -3.987  1.00  0.00     0.009 A 
ATOM     92  C   UNL     1      19.011   1.683  -1.843  1.00  0.00     0.001 A 
ATOM     93  C   UNL     1      19.450   3.218  -3.655  1.00  0.00     0.001 A 
ATOM     94  C   UNL     1      19.905   2.458  -2.579  1.00  0.00     0.000 A 
ENDBRANCH  76  89
ENDBRANCH  50  51
ENDBRANCH  43  45
ENDBRANCH  42  43
ENDBRANCH  41  42
ENDBRANCH  40  41
ENDBRANCH  39  40
ENDBRANCH  38  39
ENDBRANCH  37  38
ENDBRANCH  36  37
ENDBRANCH   1  36
TORSDOF 26
