REMARK SMILES Cc1ccc(S(=O)(=O)N2C[C@@H](CC(=O)OCCOCCOCCOCCOC(=O)c3ccc(-c4c5nc(c(-c6ccccc6)c6ccc([nH]6)c(-c6ccccc6)c6nc(c(-c7ccccc7)c7ccc4[nH]7)C=C6)C=C5)cc3)c3ccccc32)c(C)c1
REMARK SMILES IDX 20 1 19 2 18 3 17 4 16 5 15 6 13 7 14 8 12 9 11 10 9 11
REMARK SMILES IDX 10 12 83 13 78 14 82 15 79 16 81 17 80 18 6 19 7 20 8 21
REMARK SMILES IDX 5 22 1 23 2 24 3 25 86 26 4 27 84 28 85 29 21 30 22 31 23 32
REMARK SMILES IDX 24 33 25 34 26 35 27 36 28 37 29 38 30 39 31 40 77 41 32 42
REMARK SMILES IDX 76 43 33 44 34 45 35 46 70 47 36 48 75 49 69 50 71 51 37 52
REMARK SMILES IDX 74 53 68 54 67 55 38 57 60 58 45 59 59 60 46 61 49 62 58 63
REMARK SMILES IDX 72 64 47 65 48 66 57 68 73 69 50 70 39 71 40 72 44 73 41 74
REMARK SMILES IDX 43 75 42 76 61 77 62 78 66 79 63 80 65 81 64 82 51 83 52 84
REMARK SMILES IDX 56 85 53 86 55 87 54 88
REMARK H PARENT 71 56 49 67
REMARK Flexibility Score: inf
ROOT
ATOM      1  C   UNL     1      -3.817  -8.750   0.059  1.00  0.00     0.188 C 
ENDROOT
BRANCH   1   2
ATOM      2  C   UNL     1      -3.384  -9.964  -0.771  1.00  0.00     0.188 C 
BRANCH   2   3
ATOM      3  O   UNL     1      -2.745 -11.040  -0.114  1.00  0.00    -0.376 OA
BRANCH   3   4
ATOM      4  C   UNL     1      -1.391 -10.923   0.306  1.00  0.00     0.202 C 
BRANCH   4   5
ATOM      5  C   UNL     1      -0.397  -9.937  -0.328  1.00  0.00     0.261 C 
BRANCH   5   6
ATOM      6  O   UNL     1      -0.834  -8.569  -0.429  1.00  0.00    -0.463 OA
BRANCH   6   7
ATOM      7  C   UNL     1      -0.673  -7.982  -1.635  1.00  0.00     0.306 C 
ATOM      8  O   UNL     1      -0.266  -8.568  -2.634  1.00  0.00    -0.252 OA
BRANCH   7   9
ATOM      9  C   UNL     1      -0.994  -6.505  -1.698  1.00  0.00     0.133 C 
BRANCH   9  10
ATOM     10  C   UNL     1      -1.751  -5.782  -0.591  1.00  0.00     0.053 C 
ATOM     11  N   UNL     1      -2.302  -3.549   0.102  1.00  0.00    -0.265 N 
ATOM     12  C   UNL     1      -2.193  -4.380  -1.111  1.00  0.00     0.144 C 
ATOM     13  C   UNL     1      -1.486  -4.125   1.112  1.00  0.00     0.055 A 
ATOM     14  C   UNL     1      -1.081  -5.406   0.710  1.00  0.00    -0.018 A 
ATOM     15  C   UNL     1      -1.146  -3.607   2.350  1.00  0.00     0.027 A 
ATOM     16  C   UNL     1      -0.308  -6.183   1.558  1.00  0.00     0.006 A 
ATOM     17  C   UNL     1      -0.348  -4.381   3.192  1.00  0.00     0.002 A 
ATOM     18  C   UNL     1       0.066  -5.660   2.800  1.00  0.00     0.000 A 
BRANCH  11  19
ATOM     19  S   UNL     1      -2.681  -1.923  -0.013  1.00  0.00     0.264 S 
ATOM     20  O   UNL     1      -3.266  -1.523   1.253  1.00  0.00    -0.201 OA
ATOM     21  O   UNL     1      -3.400  -1.734  -1.258  1.00  0.00    -0.201 OA
BRANCH  19  22
ATOM     22  C   UNL     1      -1.158  -0.992  -0.171  1.00  0.00     0.090 A 
ATOM     23  C   UNL     1       2.544   1.222  -0.025  1.00  0.00     0.044 C 
ATOM     24  C   UNL     1       1.263   0.446  -0.108  1.00  0.00    -0.051 A 
ATOM     25  C   UNL     1       1.270  -0.939  -0.272  1.00  0.00     0.005 A 
ATOM     26  C   UNL     1       0.035   1.113  -0.031  1.00  0.00     0.008 A 
ATOM     27  C   UNL     1       0.070  -1.652  -0.312  1.00  0.00     0.023 A 
ATOM     28  C   UNL     1      -1.188   0.414  -0.064  1.00  0.00    -0.030 A 
ATOM     29  C   UNL     1      -2.443   1.245   0.001  1.00  0.00     0.046 C 
ENDBRANCH  19  22
ENDBRANCH  11  19
ENDBRANCH   9  10
ENDBRANCH   7   9
ENDBRANCH   6   7
ENDBRANCH   5   6
ENDBRANCH   4   5
ENDBRANCH   3   4
ENDBRANCH   2   3
ENDBRANCH   1   2
BRANCH   1  30
ATOM     30  O   UNL     1      -2.974  -8.403   1.139  1.00  0.00    -0.377 OA
BRANCH  30  31
ATOM     31  C   UNL     1      -3.129  -9.044   2.401  1.00  0.00     0.188 C 
BRANCH  31  32
ATOM     32  C   UNL     1      -4.104 -10.223   2.591  1.00  0.00     0.188 C 
BRANCH  32  33
ATOM     33  O   UNL     1      -5.334 -10.107   1.895  1.00  0.00    -0.376 OA
BRANCH  33  34
ATOM     34  C   UNL     1      -6.449  -9.559   2.584  1.00  0.00     0.202 C 
BRANCH  34  35
ATOM     35  C   UNL     1      -6.322  -8.101   3.050  1.00  0.00     0.261 C 
BRANCH  35  36
ATOM     36  O   UNL     1      -5.345  -7.859   4.076  1.00  0.00    -0.460 OA
BRANCH  36  37
ATOM     37  C   UNL     1      -5.452  -8.564   5.224  1.00  0.00     0.338 C 
ATOM     38  O   UNL     1      -6.320  -9.344   5.539  1.00  0.00    -0.246 OA
BRANCH  37  39
ATOM     39  C   UNL     1      -4.209  -8.352   5.991  1.00  0.00     0.060 A 
ATOM     40  C   UNL     1      -3.400  -9.458   6.280  1.00  0.00     0.016 A 
ATOM     41  C   UNL     1      -3.874  -7.081   6.459  1.00  0.00     0.016 A 
ATOM     42  C   UNL     1      -2.273  -9.301   7.085  1.00  0.00     0.010 A 
ATOM     43  C   UNL     1      -2.754  -6.928   7.279  1.00  0.00     0.010 A 
ATOM     44  C   UNL     1      -1.973  -8.044   7.628  1.00  0.00    -0.014 A 
BRANCH  44  45
ATOM     45  C   UNL     1      -0.971  -7.936   8.714  1.00  0.00     0.031 A 
ATOM     46  C   UNL     1      -1.458  -7.921  10.138  1.00  0.00     0.074 A 
ATOM     47  C   UNL     1       0.345  -7.881   8.449  1.00  0.00     0.049 A 
ATOM     48  N   UNL     1      -0.775  -7.809  11.248  1.00  0.00    -0.248 NA
ATOM     49  C   UNL     1      -2.912  -8.049  10.334  1.00  0.00     0.031 C 
ATOM     50  C   UNL     1       0.946  -7.940   7.118  1.00  0.00     0.029 A 
ATOM     51  N   UNL     1       1.415  -7.761   9.300  1.00  0.00    -0.354 N 
ATOM     52  C   UNL     1      -1.714  -7.846  12.272  1.00  0.00     0.074 A 
ATOM     53  C   UNL     1      -3.016  -7.960  11.651  1.00  0.00     0.031 C 
ATOM     54  C   UNL     1       2.282  -7.850   7.242  1.00  0.00     0.029 A 
ATOM     55  C   UNL     1       2.625  -7.692   8.655  1.00  0.00     0.049 A 
ATOM     56  H   UNL     1       1.324  -7.727  10.280  1.00  0.00     0.167 HD
ATOM     57  C   UNL     1      -1.513  -7.795  13.610  1.00  0.00     0.031 A 
ATOM     58  C   UNL     1       3.864  -7.503   9.149  1.00  0.00     0.031 A 
ATOM     59  C   UNL     1      -0.222  -7.660  14.228  1.00  0.00     0.049 A 
ATOM     60  C   UNL     1       4.054  -7.358  10.637  1.00  0.00     0.074 A 
ATOM     61  C   UNL     1       0.086  -7.607  15.576  1.00  0.00     0.029 A 
ATOM     62  N   UNL     1       0.974  -7.546  13.537  1.00  0.00    -0.354 N 
ATOM     63  N   UNL     1       3.162  -7.420  11.597  1.00  0.00    -0.248 NA
ATOM     64  C   UNL     1       5.427  -7.123  11.110  1.00  0.00     0.031 C 
ATOM     65  C   UNL     1       1.464  -7.397  15.699  1.00  0.00     0.029 A 
ATOM     66  C   UNL     1       2.021  -7.391  14.430  1.00  0.00     0.049 A 
ATOM     67  H   UNL     1       1.065  -7.571  12.558  1.00  0.00     0.167 HD
ATOM     68  C   UNL     1       3.868  -7.265  12.784  1.00  0.00     0.074 A 
ATOM     69  C   UNL     1       5.263  -7.120  12.425  1.00  0.00     0.031 C 
ATOM     70  C   UNL     1       3.405  -7.248  14.058  1.00  0.00     0.031 A 
BRANCH  57  71
ATOM     71  C   UNL     1      -2.729  -7.841  14.493  1.00  0.00    -0.014 A 
ATOM     72  C   UNL     1      -3.485  -9.016  14.638  1.00  0.00     0.009 A 
ATOM     73  C   UNL     1      -3.111  -6.696  15.209  1.00  0.00     0.009 A 
ATOM     74  C   UNL     1      -4.617  -9.031  15.455  1.00  0.00     0.001 A 
ATOM     75  C   UNL     1      -4.225  -6.723  16.049  1.00  0.00     0.001 A 
ATOM     76  C   UNL     1      -4.983  -7.887  16.164  1.00  0.00     0.000 A 
ENDBRANCH  57  71
BRANCH  58  77
ATOM     77  C   UNL     1       5.030  -7.416   8.230  1.00  0.00    -0.014 A 
ATOM     78  C   UNL     1       6.017  -8.413   8.224  1.00  0.00     0.009 A 
ATOM     79  C   UNL     1       5.177  -6.314   7.372  1.00  0.00     0.009 A 
ATOM     80  C   UNL     1       7.139  -8.295   7.399  1.00  0.00     0.001 A 
ATOM     81  C   UNL     1       6.283  -6.213   6.527  1.00  0.00     0.001 A 
ATOM     82  C   UNL     1       7.269  -7.198   6.549  1.00  0.00     0.000 A 
ENDBRANCH  58  77
BRANCH  70  83
ATOM     83  C   UNL     1       4.417  -7.109  15.163  1.00  0.00    -0.014 A 
ATOM     84  C   UNL     1       5.091  -5.900  15.394  1.00  0.00     0.009 A 
ATOM     85  C   UNL     1       4.664  -8.198  16.015  1.00  0.00     0.009 A 
ATOM     86  C   UNL     1       6.018  -5.796  16.433  1.00  0.00     0.001 A 
ATOM     87  C   UNL     1       5.567  -8.081  17.073  1.00  0.00     0.001 A 
ATOM     88  C   UNL     1       6.251  -6.884  17.275  1.00  0.00     0.000 A 
ENDBRANCH  70  83
ENDBRANCH  44  45
ENDBRANCH  37  39
ENDBRANCH  36  37
ENDBRANCH  35  36
ENDBRANCH  34  35
ENDBRANCH  33  34
ENDBRANCH  32  33
ENDBRANCH  31  32
ENDBRANCH  30  31
ENDBRANCH   1  30
TORSDOF 23
