REMARK SMILES NC(=O)[C@H]1CCCN1S(=O)(=O)Cc1ccc(C(=O)OCCOCCOCCOCCOC(=O)c2ccc(-c3c4nc(c(-c5ccccc5)c5ccc([nH]5)c(-c5ccccc5)c5nc(c(-c6ccccc6)c6ccc3[nH]6)C=C5)C=C4)cc2)cc1
REMARK SMILES IDX 24 1 23 2 22 3 21 4 20 5 19 6 17 7 18 8 16 9 13 10 14 11
REMARK SMILES IDX 83 12 15 13 82 14 12 15 9 16 10 17 11 18 8 19 4 20 5 21 6 22
REMARK SMILES IDX 7 23 2 24 1 25 3 28 25 29 26 30 27 31 28 32 29 33 30 34
REMARK SMILES IDX 31 35 32 36 33 37 34 38 35 39 81 40 36 41 80 42 37 43 38 44
REMARK SMILES IDX 39 45 74 46 40 47 79 48 73 49 75 50 41 51 78 52 72 53 71 54
REMARK SMILES IDX 42 56 64 57 49 58 63 59 50 60 53 61 62 62 76 63 51 64 52 65
REMARK SMILES IDX 61 67 77 68 54 69 43 70 44 71 48 72 45 73 47 74 46 75 65 76
REMARK SMILES IDX 66 77 70 78 67 79 69 80 68 81 55 82 56 83 60 84 57 85 59 86
REMARK SMILES IDX 58 87
REMARK H PARENT 1 26 1 27 75 55 53 66
REMARK Flexibility Score: inf
ROOT
ATOM      1  C   UNL     1       5.387   4.998  -1.728  1.00  0.00     0.188 C 
ENDROOT
BRANCH   1   2
ATOM      2  C   UNL     1       5.622   4.774  -3.236  1.00  0.00     0.188 C 
BRANCH   2   3
ATOM      3  O   UNL     1       5.536   5.959  -4.010  1.00  0.00    -0.376 OA
BRANCH   3   4
ATOM      4  C   UNL     1       4.421   6.139  -4.863  1.00  0.00     0.202 C 
BRANCH   4   5
ATOM      5  C   UNL     1       3.020   6.197  -4.235  1.00  0.00     0.261 C 
BRANCH   5   6
ATOM      6  O   UNL     1       2.730   5.188  -3.261  1.00  0.00    -0.460 OA
BRANCH   6   7
ATOM      7  C   UNL     1       2.533   3.940  -3.736  1.00  0.00     0.338 C 
ATOM      8  O   UNL     1       2.530   3.598  -4.905  1.00  0.00    -0.246 OA
BRANCH   7   9
ATOM      9  C   UNL     1       2.511   2.999  -2.594  1.00  0.00     0.060 A 
ATOM     10  C   UNL     1       2.464   1.093  -0.522  1.00  0.00    -0.032 A 
ATOM     11  C   UNL     1       3.268   0.903  -1.652  1.00  0.00     0.006 A 
ATOM     12  C   UNL     1       1.783   2.322  -0.396  1.00  0.00     0.006 A 
ATOM     13  C   UNL     1       3.261   1.826  -2.697  1.00  0.00     0.016 A 
ATOM     14  C   UNL     1       1.812   3.275  -1.418  1.00  0.00     0.016 A 
BRANCH  10  15
ATOM     15  C   UNL     1       2.277   0.087   0.590  1.00  0.00     0.189 C 
BRANCH  15  16
ATOM     16  S   UNL     1       2.842  -1.587   0.263  1.00  0.00     0.219 S 
ATOM     17  O   UNL     1       2.137  -2.473   1.168  1.00  0.00    -0.212 OA
ATOM     18  O   UNL     1       4.291  -1.575   0.247  1.00  0.00    -0.212 OA
BRANCH  16  19
ATOM     19  N   UNL     1       2.322  -1.971  -1.303  1.00  0.00    -0.189 NA
ATOM     20  C   UNL     1       0.854  -2.055  -1.555  1.00  0.00     0.161 C 
ATOM     21  C   UNL     1       0.535  -3.535  -1.400  1.00  0.00     0.032 C 
ATOM     22  C   UNL     1       1.767  -4.247  -1.938  1.00  0.00     0.019 C 
ATOM     23  C   UNL     1       2.910  -3.241  -1.839  1.00  0.00     0.103 C 
BRANCH  20  24
ATOM     24  C   UNL     1       0.542  -1.593  -2.992  1.00  0.00     0.235 C 
ATOM     25  N   UNL     1      -0.261  -0.496  -3.118  1.00  0.00    -0.368 N 
ATOM     26  H   UNL     1      -0.493  -0.157  -4.013  1.00  0.00     0.159 HD
ATOM     27  H   UNL     1      -0.608  -0.044  -2.315  1.00  0.00     0.159 HD
ATOM     28  O   UNL     1       0.958  -2.152  -4.004  1.00  0.00    -0.273 OA
ENDBRANCH  20  24
ENDBRANCH  16  19
ENDBRANCH  15  16
ENDBRANCH  10  15
ENDBRANCH   7   9
ENDBRANCH   6   7
ENDBRANCH   5   6
ENDBRANCH   4   5
ENDBRANCH   3   4
ENDBRANCH   2   3
ENDBRANCH   1   2
BRANCH   1  29
ATOM     29  O   UNL     1       4.866   6.250  -1.301  1.00  0.00    -0.377 OA
BRANCH  29  30
ATOM     30  C   UNL     1       5.477   7.462  -1.740  1.00  0.00     0.188 C 
BRANCH  30  31
ATOM     31  C   UNL     1       6.936   7.513  -2.256  1.00  0.00     0.188 C 
BRANCH  31  32
ATOM     32  O   UNL     1       7.686   6.333  -2.031  1.00  0.00    -0.376 OA
BRANCH  32  33
ATOM     33  C   UNL     1       8.701   6.376  -1.046  1.00  0.00     0.202 C 
BRANCH  33  34
ATOM     34  C   UNL     1       8.246   6.611   0.400  1.00  0.00     0.261 C 
BRANCH  34  35
ATOM     35  O   UNL     1       7.426   7.770   0.623  1.00  0.00    -0.460 OA
BRANCH  35  36
ATOM     36  C   UNL     1       7.998   8.979   0.441  1.00  0.00     0.338 C 
ATOM     37  O   UNL     1       9.150   9.210   0.112  1.00  0.00    -0.246 OA
BRANCH  36  38
ATOM     38  C   UNL     1       6.930   9.995   0.527  1.00  0.00     0.060 A 
ATOM     39  C   UNL     1       6.658  10.798  -0.590  1.00  0.00     0.016 A 
ATOM     40  C   UNL     1       6.190  10.143   1.702  1.00  0.00     0.016 A 
ATOM     41  C   UNL     1       5.661  11.772  -0.522  1.00  0.00     0.010 A 
ATOM     42  C   UNL     1       5.207  11.133   1.775  1.00  0.00     0.010 A 
ATOM     43  C   UNL     1       4.960  11.972   0.674  1.00  0.00    -0.014 A 
BRANCH  43  44
ATOM     44  C   UNL     1       4.098  13.169   0.831  1.00  0.00     0.031 A 
ATOM     45  C   UNL     1       4.657  14.367   1.547  1.00  0.00     0.074 A 
ATOM     46  C   UNL     1       2.849  13.202   0.336  1.00  0.00     0.049 A 
ATOM     47  N   UNL     1       4.085  15.509   1.828  1.00  0.00    -0.248 NA
ATOM     48  C   UNL     1       6.051  14.260   2.009  1.00  0.00     0.031 C 
ATOM     49  C   UNL     1       2.205  12.124  -0.412  1.00  0.00     0.029 A 
ATOM     50  N   UNL     1       1.896  14.188   0.397  1.00  0.00    -0.354 N 
ATOM     51  C   UNL     1       5.042  16.251   2.510  1.00  0.00     0.074 A 
ATOM     52  C   UNL     1       6.220  15.420   2.626  1.00  0.00     0.031 C 
ATOM     53  C   UNL     1       0.957  12.507  -0.736  1.00  0.00     0.029 A 
ATOM     54  C   UNL     1       0.704  13.838  -0.187  1.00  0.00     0.049 A 
ATOM     55  H   UNL     1       2.053  15.064   0.819  1.00  0.00     0.167 HD
ATOM     56  C   UNL     1       4.951  17.512   2.993  1.00  0.00     0.031 A 
ATOM     57  C   UNL     1      -0.465  14.505  -0.249  1.00  0.00     0.031 A 
ATOM     58  C   UNL     1       3.772  18.332   2.896  1.00  0.00     0.049 A 
ATOM     59  C   UNL     1      -0.569  15.877   0.367  1.00  0.00     0.074 A 
ATOM     60  C   UNL     1       3.588  19.631   3.334  1.00  0.00     0.029 A 
ATOM     61  N   UNL     1       2.572  17.925   2.334  1.00  0.00    -0.354 N 
ATOM     62  N   UNL     1       0.353  16.583   0.976  1.00  0.00    -0.248 NA
ATOM     63  C   UNL     1      -1.875  16.545   0.279  1.00  0.00     0.031 C 
ATOM     64  C   UNL     1       2.255  19.985   3.103  1.00  0.00     0.029 A 
ATOM     65  C   UNL     1       1.631  18.934   2.449  1.00  0.00     0.049 A 
ATOM     66  H   UNL     1       2.413  17.048   1.915  1.00  0.00     0.167 HD
ATOM     67  C   UNL     1      -0.252  17.788   1.317  1.00  0.00     0.074 A 
ATOM     68  C   UNL     1      -1.614  17.722   0.830  1.00  0.00     0.031 C 
ATOM     69  C   UNL     1       0.274  18.854   1.970  1.00  0.00     0.031 A 
BRANCH  56  70
ATOM     70  C   UNL     1       6.149  18.062   3.719  1.00  0.00    -0.014 A 
ATOM     71  C   UNL     1       7.341  18.371   3.044  1.00  0.00     0.009 A 
ATOM     72  C   UNL     1       6.074  18.295   5.101  1.00  0.00     0.009 A 
ATOM     73  C   UNL     1       8.444  18.864   3.745  1.00  0.00     0.001 A 
ATOM     74  C   UNL     1       7.166  18.819   5.794  1.00  0.00     0.001 A 
ATOM     75  C   UNL     1       8.354  19.092   5.118  1.00  0.00     0.000 A 
ENDBRANCH  56  70
BRANCH  57  76
ATOM     76  C   UNL     1      -1.646  13.877  -0.901  1.00  0.00    -0.014 A 
ATOM     77  C   UNL     1      -2.166  14.391  -2.098  1.00  0.00     0.009 A 
ATOM     78  C   UNL     1      -2.271  12.764  -0.315  1.00  0.00     0.009 A 
ATOM     79  C   UNL     1      -3.299  13.818  -2.682  1.00  0.00     0.001 A 
ATOM     80  C   UNL     1      -3.383  12.174  -0.917  1.00  0.00     0.001 A 
ATOM     81  C   UNL     1      -3.902  12.706  -2.095  1.00  0.00     0.000 A 
ENDBRANCH  57  76
BRANCH  69  82
ATOM     82  C   UNL     1      -0.614  20.053   2.167  1.00  0.00    -0.014 A 
ATOM     83  C   UNL     1      -1.701  20.024   3.054  1.00  0.00     0.009 A 
ATOM     84  C   UNL     1      -0.330  21.246   1.483  1.00  0.00     0.009 A 
ATOM     85  C   UNL     1      -2.507  21.153   3.222  1.00  0.00     0.001 A 
ATOM     86  C   UNL     1      -1.115  22.383   1.679  1.00  0.00     0.001 A 
ATOM     87  C   UNL     1      -2.210  22.332   2.539  1.00  0.00     0.000 A 
ENDBRANCH  69  82
ENDBRANCH  43  44
ENDBRANCH  36  38
ENDBRANCH  35  36
ENDBRANCH  34  35
ENDBRANCH  33  34
ENDBRANCH  32  33
ENDBRANCH  31  32
ENDBRANCH  30  31
ENDBRANCH  29  30
ENDBRANCH   1  29
TORSDOF 24
