REMARK SMILES CN(CCO)C(=O)N[C@H]1C=C[C@@H](C(=O)OCCOCCOCCOCCOC(=O)c2ccc(-c3c4nc(c(-c5ccccc5)c5ccc([nH]5)c(-c5ccccc5)c5nc(c(-c6ccccc6)c6ccc3[nH]6)C=C5)C=C4)cc2)C1
REMARK SMILES IDX 19 1 18 2 17 3 16 4 15 5 13 6 14 7 12 8 9 9 10 10 78 11
REMARK SMILES IDX 11 12 8 13 6 14 7 15 2 17 1 18 3 19 4 20 5 21 20 23 21 24
REMARK SMILES IDX 22 25 23 26 24 27 25 28 26 29 27 30 28 31 29 32 30 33 31 34
REMARK SMILES IDX 77 35 32 36 76 37 33 38 34 39 35 40 70 41 36 42 75 43 69 44
REMARK SMILES IDX 71 45 37 46 74 47 68 48 67 49 38 51 60 52 45 53 59 54 46 55
REMARK SMILES IDX 49 56 58 57 72 58 47 59 48 60 57 62 73 63 50 64 39 65 40 66
REMARK SMILES IDX 44 67 41 68 43 69 42 70 61 71 62 72 66 73 63 74 65 75 64 76
REMARK SMILES IDX 51 77 52 78 56 79 53 80 55 81 54 82
REMARK H PARENT 8 16 5 22 71 50 49 61
REMARK Flexibility Score: inf
ROOT
ATOM      1  C   UNL     1       0.773   3.169   4.894  1.00  0.00     0.188 C 
ENDROOT
BRANCH   1   2
ATOM      2  O   UNL     1       1.982   3.760   5.349  1.00  0.00    -0.376 OA
BRANCH   2   3
ATOM      3  C   UNL     1       3.168   2.974   5.418  1.00  0.00     0.202 C 
BRANCH   3   4
ATOM      4  C   UNL     1       3.145   1.606   6.120  1.00  0.00     0.261 C 
BRANCH   4   5
ATOM      5  O   UNL     1       2.158   0.686   5.618  1.00  0.00    -0.463 OA
BRANCH   5   6
ATOM      6  C   UNL     1       1.370   0.066   6.533  1.00  0.00     0.312 C 
ATOM      7  O   UNL     1       1.448   0.245   7.745  1.00  0.00    -0.252 OA
BRANCH   6   8
ATOM      8  C   UNL     1       0.333  -0.881   5.926  1.00  0.00     0.124 C 
ATOM      9  C   UNL     1      -0.100  -2.295   3.933  1.00  0.00     0.107 C 
ATOM     10  C   UNL     1       0.376  -3.085   5.121  1.00  0.00    -0.006 C 
ATOM     11  C   UNL     1       0.148  -0.874   4.413  1.00  0.00     0.048 C 
ATOM     12  C   UNL     1       0.626  -2.321   6.192  1.00  0.00    -0.014 C 
BRANCH   9  13
ATOM     13  N   UNL     1       0.685  -2.695   2.777  1.00  0.00    -0.332 N 
ATOM     14  C   UNL     1       0.926  -2.293   1.522  1.00  0.00     0.317 C 
ATOM     15  O   UNL     1       1.737  -3.002   0.912  1.00  0.00    -0.249 OA
ATOM     16  H   UNL     1       1.198  -3.511   2.978  1.00  0.00     0.165 HD
BRANCH  14  17
ATOM     17  N   UNL     1       0.361  -1.208   0.911  1.00  0.00    -0.326 N 
ATOM     18  C   UNL     1       1.028  -0.778  -0.316  1.00  0.00     0.148 C 
BRANCH  17  19
ATOM     19  C   UNL     1      -0.790  -0.396   1.308  1.00  0.00     0.149 C 
BRANCH  19  20
ATOM     20  C   UNL     1      -2.175  -1.045   1.224  1.00  0.00     0.177 C 
BRANCH  20  21
ATOM     21  O   UNL     1      -2.201  -2.408   1.603  1.00  0.00    -0.395 OA
ATOM     22  H   UNL     1      -1.643  -2.922   0.999  1.00  0.00     0.210 HD
ENDBRANCH  20  21
ENDBRANCH  19  20
ENDBRANCH  17  19
ENDBRANCH  14  17
ENDBRANCH   9  13
ENDBRANCH   6   8
ENDBRANCH   5   6
ENDBRANCH   4   5
ENDBRANCH   3   4
ENDBRANCH   2   3
ENDBRANCH   1   2
BRANCH   1  23
ATOM     23  C   UNL     1       0.757   2.343   3.601  1.00  0.00     0.188 C 
BRANCH  23  24
ATOM     24  O   UNL     1       2.019   1.896   3.149  1.00  0.00    -0.377 OA
BRANCH  24  25
ATOM     25  C   UNL     1       2.566   2.567   2.017  1.00  0.00     0.188 C 
BRANCH  25  26
ATOM     26  C   UNL     1       2.355   4.090   1.953  1.00  0.00     0.188 C 
BRANCH  26  27
ATOM     27  O   UNL     1       0.977   4.433   1.911  1.00  0.00    -0.376 OA
BRANCH  27  28
ATOM     28  C   UNL     1       0.338   4.662   0.667  1.00  0.00     0.202 C 
BRANCH  28  29
ATOM     29  C   UNL     1       0.381   3.612  -0.459  1.00  0.00     0.261 C 
BRANCH  29  30
ATOM     30  O   UNL     1       1.644   3.013  -0.776  1.00  0.00    -0.460 OA
BRANCH  30  31
ATOM     31  C   UNL     1       2.611   3.807  -1.284  1.00  0.00     0.338 C 
ATOM     32  O   UNL     1       2.531   4.992  -1.527  1.00  0.00    -0.246 OA
BRANCH  31  33
ATOM     33  C   UNL     1       3.862   3.012  -1.319  1.00  0.00     0.060 A 
ATOM     34  C   UNL     1       4.979   3.481  -0.617  1.00  0.00     0.016 A 
ATOM     35  C   UNL     1       3.938   1.824  -2.052  1.00  0.00     0.016 A 
ATOM     36  C   UNL     1       6.189   2.788  -0.685  1.00  0.00     0.010 A 
ATOM     37  C   UNL     1       5.156   1.140  -2.133  1.00  0.00     0.010 A 
ATOM     38  C   UNL     1       6.297   1.641  -1.482  1.00  0.00    -0.014 A 
BRANCH  38  39
ATOM     39  C   UNL     1       7.637   1.081  -1.789  1.00  0.00     0.031 A 
ATOM     40  C   UNL     1       8.283   1.437  -3.102  1.00  0.00     0.074 A 
ATOM     41  C   UNL     1       8.288   0.295  -0.912  1.00  0.00     0.049 A 
ATOM     42  N   UNL     1       9.423   1.037  -3.604  1.00  0.00    -0.248 NA
ATOM     43  C   UNL     1       7.538   2.370  -3.965  1.00  0.00     0.031 C 
ATOM     44  C   UNL     1       7.798  -0.087   0.410  1.00  0.00     0.029 A 
ATOM     45  N   UNL     1       9.507  -0.329  -1.015  1.00  0.00    -0.354 N 
ATOM     46  C   UNL     1       9.530   1.664  -4.840  1.00  0.00     0.074 A 
ATOM     47  C   UNL     1       8.325   2.442  -5.027  1.00  0.00     0.031 C 
ATOM     48  C   UNL     1       8.704  -0.892   0.993  1.00  0.00     0.029 A 
ATOM     49  C   UNL     1       9.817  -1.111   0.070  1.00  0.00     0.049 A 
ATOM     50  H   UNL     1      10.102  -0.226  -1.793  1.00  0.00     0.167 HD
ATOM     51  C   UNL     1      10.543   1.606  -5.737  1.00  0.00     0.031 A 
ATOM     52  C   UNL     1      10.865  -1.932   0.282  1.00  0.00     0.031 A 
ATOM     53  C   UNL     1      11.732   0.817  -5.563  1.00  0.00     0.049 A 
ATOM     54  C   UNL     1      11.935  -2.055  -0.773  1.00  0.00     0.074 A 
ATOM     55  C   UNL     1      12.817   0.694  -6.414  1.00  0.00     0.029 A 
ATOM     56  N   UNL     1      11.989   0.007  -4.468  1.00  0.00    -0.354 N 
ATOM     57  N   UNL     1      12.037  -1.439  -1.926  1.00  0.00    -0.248 NA
ATOM     58  C   UNL     1      13.040  -2.983  -0.490  1.00  0.00     0.031 C 
ATOM     59  C   UNL     1      13.701  -0.239  -5.862  1.00  0.00     0.029 A 
ATOM     60  C   UNL     1      13.201  -0.641  -4.634  1.00  0.00     0.049 A 
ATOM     61  H   UNL     1      11.397  -0.092  -3.687  1.00  0.00     0.167 HD
ATOM     62  C   UNL     1      13.229  -1.882  -2.490  1.00  0.00     0.074 A 
ATOM     63  C   UNL     1      13.823  -2.803  -1.544  1.00  0.00     0.031 C 
ATOM     64  C   UNL     1      13.782  -1.555  -3.684  1.00  0.00     0.031 A 
BRANCH  51  65
ATOM     65  C   UNL     1      10.388   2.395  -7.008  1.00  0.00    -0.014 A 
ATOM     66  C   UNL     1      10.441   3.798  -7.008  1.00  0.00     0.009 A 
ATOM     67  C   UNL     1      10.219   1.723  -8.228  1.00  0.00     0.009 A 
ATOM     68  C   UNL     1      10.294   4.512  -8.200  1.00  0.00     0.001 A 
ATOM     69  C   UNL     1      10.105   2.437  -9.422  1.00  0.00     0.001 A 
ATOM     70  C   UNL     1      10.132   3.831  -9.405  1.00  0.00     0.000 A 
ENDBRANCH  51  65
BRANCH  52  71
ATOM     71  C   UNL     1      10.943  -2.737   1.531  1.00  0.00    -0.014 A 
ATOM     72  C   UNL     1      11.947  -2.499   2.482  1.00  0.00     0.009 A 
ATOM     73  C   UNL     1      10.027  -3.777   1.761  1.00  0.00     0.009 A 
ATOM     74  C   UNL     1      12.050  -3.303   3.620  1.00  0.00     0.001 A 
ATOM     75  C   UNL     1      10.112  -4.557   2.916  1.00  0.00     0.001 A 
ATOM     76  C   UNL     1      11.131  -4.327   3.838  1.00  0.00     0.000 A 
ENDBRANCH  52  71
BRANCH  64  77
ATOM     77  C   UNL     1      15.117  -2.162  -4.020  1.00  0.00    -0.014 A 
ATOM     78  C   UNL     1      15.249  -3.525  -4.326  1.00  0.00     0.009 A 
ATOM     79  C   UNL     1      16.256  -1.342  -4.076  1.00  0.00     0.009 A 
ATOM     80  C   UNL     1      16.499  -4.061  -4.645  1.00  0.00     0.001 A 
ATOM     81  C   UNL     1      17.498  -1.873  -4.427  1.00  0.00     0.001 A 
ATOM     82  C   UNL     1      17.621  -3.234  -4.701  1.00  0.00     0.000 A 
ENDBRANCH  64  77
ENDBRANCH  38  39
ENDBRANCH  31  33
ENDBRANCH  30  31
ENDBRANCH  29  30
ENDBRANCH  28  29
ENDBRANCH  27  28
ENDBRANCH  26  27
ENDBRANCH  25  26
ENDBRANCH  24  25
ENDBRANCH  23  24
ENDBRANCH   1  23
TORSDOF 25
