REMARK SMILES O=C(OCCOCCOCCOCCOC(=O)[C@H]1Cc2[nH]cnc2CN1C(=O)NCc1nc[nH]n1)c1ccc(-c2c3nc(c(-c4ccccc4)c4ccc([nH]4)c(-c4ccccc4)c4nc(c(-c5ccccc5)c5ccc2[nH]5)C=C4)C=C3)cc1
REMARK SMILES IDX 10 1 9 2 8 3 7 4 6 5 5 6 4 7 3 8 2 9 1 10 36 11 37 12 83 13
REMARK SMILES IDX 38 14 82 15 39 16 40 17 41 18 76 19 42 20 81 21 75 22 77 23
REMARK SMILES IDX 43 24 80 25 74 26 73 27 44 29 66 30 51 31 65 32 52 33 55 34
REMARK SMILES IDX 64 35 78 36 53 37 54 38 63 40 79 41 56 42 45 43 46 44 50 45
REMARK SMILES IDX 47 46 49 47 48 48 67 49 68 50 72 51 69 52 71 53 70 54 57 55
REMARK SMILES IDX 58 56 62 57 59 58 61 59 60 60 11 61 12 62 13 63 14 64 15 65
REMARK SMILES IDX 16 66 17 67 18 68 19 69 26 70 20 71 25 72 21 73 24 74 22 75
REMARK SMILES IDX 23 77 27 78 28 79 29 80 30 82 31 83 32 84 35 85 33 86 34 87
REMARK H PARENT 77 28 55 39 21 76 29 81 34 88
REMARK Flexibility Score: inf
ROOT
ATOM      1  C   UNL     1       3.519  -1.365   2.358  1.00  0.00     0.188 C 
ENDROOT
BRANCH   1   2
ATOM      2  O   UNL     1       2.146  -1.537   2.199  1.00  0.00    -0.377 OA
BRANCH   2   3
ATOM      3  C   UNL     1       1.682  -1.097   0.953  1.00  0.00     0.188 C 
BRANCH   3   4
ATOM      4  C   UNL     1       2.570  -0.811  -0.292  1.00  0.00     0.188 C 
BRANCH   4   5
ATOM      5  O   UNL     1       3.884  -0.280  -0.492  1.00  0.00    -0.376 OA
BRANCH   5   6
ATOM      6  C   UNL     1       4.785   0.461   0.309  1.00  0.00     0.202 C 
BRANCH   6   7
ATOM      7  C   UNL     1       4.387   1.838   0.800  1.00  0.00     0.261 C 
BRANCH   7   8
ATOM      8  O   UNL     1       2.995   1.969   1.047  1.00  0.00    -0.460 OA
BRANCH   8   9
ATOM      9  C   UNL     1       2.023   2.013   0.121  1.00  0.00     0.338 C 
ATOM     10  O   UNL     1       0.852   2.012   0.503  1.00  0.00    -0.246 OA
BRANCH   9  11
ATOM     11  C   UNL     1       2.240   2.066  -1.353  1.00  0.00     0.060 A 
ATOM     12  C   UNL     1       3.418   2.318  -2.042  1.00  0.00     0.016 A 
ATOM     13  C   UNL     1       1.074   1.873  -2.109  1.00  0.00     0.016 A 
ATOM     14  C   UNL     1       3.323   2.921  -3.276  1.00  0.00     0.010 A 
ATOM     15  C   UNL     1       0.990   2.385  -3.372  1.00  0.00     0.010 A 
ATOM     16  C   UNL     1       2.053   3.137  -3.820  1.00  0.00    -0.014 A 
BRANCH  16  17
ATOM     17  C   UNL     1       1.873   3.884  -5.048  1.00  0.00     0.031 A 
ATOM     18  C   UNL     1       2.532   3.102  -6.126  1.00  0.00     0.074 A 
ATOM     19  C   UNL     1       1.206   5.070  -5.120  1.00  0.00     0.049 A 
ATOM     20  N   UNL     1       3.757   3.279  -6.489  1.00  0.00    -0.248 NA
ATOM     21  C   UNL     1       1.999   1.790  -6.556  1.00  0.00     0.031 C 
ATOM     22  C   UNL     1       0.453   5.815  -4.096  1.00  0.00     0.029 A 
ATOM     23  N   UNL     1       1.058   5.901  -6.205  1.00  0.00    -0.354 N 
ATOM     24  C   UNL     1       3.994   2.345  -7.483  1.00  0.00     0.074 A 
ATOM     25  C   UNL     1       3.012   1.316  -7.291  1.00  0.00     0.031 C 
ATOM     26  C   UNL     1      -0.280   6.809  -4.672  1.00  0.00     0.029 A 
ATOM     27  C   UNL     1       0.062   6.900  -6.078  1.00  0.00     0.049 A 
ATOM     28  H   UNL     1       1.607   5.808  -7.017  1.00  0.00     0.167 HD
ATOM     29  C   UNL     1       4.682   2.755  -8.583  1.00  0.00     0.031 A 
ATOM     30  C   UNL     1      -0.364   7.758  -7.064  1.00  0.00     0.031 A 
ATOM     31  C   UNL     1       5.389   3.984  -8.281  1.00  0.00     0.049 A 
ATOM     32  C   UNL     1       0.724   7.809  -8.077  1.00  0.00     0.074 A 
ATOM     33  C   UNL     1       6.356   4.355  -7.367  1.00  0.00     0.029 A 
ATOM     34  N   UNL     1       4.703   5.126  -8.616  1.00  0.00    -0.354 N 
ATOM     35  N   UNL     1       1.884   8.340  -7.809  1.00  0.00    -0.248 NA
ATOM     36  C   UNL     1       0.714   6.746  -9.072  1.00  0.00     0.031 C 
ATOM     37  C   UNL     1       5.943   5.635  -6.886  1.00  0.00     0.029 A 
ATOM     38  C   UNL     1       4.854   6.071  -7.640  1.00  0.00     0.049 A 
ATOM     39  H   UNL     1       4.178   5.247  -9.440  1.00  0.00     0.167 HD
ATOM     40  C   UNL     1       2.789   7.361  -8.184  1.00  0.00     0.074 A 
ATOM     41  C   UNL     1       2.001   6.397  -8.971  1.00  0.00     0.031 C 
ATOM     42  C   UNL     1       3.981   7.217  -7.529  1.00  0.00     0.031 A 
BRANCH  29  43
ATOM     43  C   UNL     1       4.211   2.449  -9.989  1.00  0.00    -0.014 A 
ATOM     44  C   UNL     1       4.904   3.054 -11.054  1.00  0.00     0.009 A 
ATOM     45  C   UNL     1       2.962   1.874 -10.299  1.00  0.00     0.009 A 
ATOM     46  C   UNL     1       4.345   3.147 -12.333  1.00  0.00     0.001 A 
ATOM     47  C   UNL     1       2.414   1.938 -11.584  1.00  0.00     0.001 A 
ATOM     48  C   UNL     1       3.097   2.595 -12.596  1.00  0.00     0.000 A 
ENDBRANCH  29  43
BRANCH  30  49
ATOM     49  C   UNL     1      -1.743   8.210  -7.442  1.00  0.00    -0.014 A 
ATOM     50  C   UNL     1      -1.984   9.211  -8.415  1.00  0.00     0.009 A 
ATOM     51  C   UNL     1      -2.839   7.409  -7.085  1.00  0.00     0.009 A 
ATOM     52  C   UNL     1      -3.252   9.371  -9.015  1.00  0.00     0.001 A 
ATOM     53  C   UNL     1      -4.096   7.559  -7.692  1.00  0.00     0.001 A 
ATOM     54  C   UNL     1      -4.303   8.530  -8.666  1.00  0.00     0.000 A 
ENDBRANCH  30  49
BRANCH  42  55
ATOM     55  C   UNL     1       4.408   8.295  -6.563  1.00  0.00    -0.014 A 
ATOM     56  C   UNL     1       3.765   8.621  -5.352  1.00  0.00     0.009 A 
ATOM     57  C   UNL     1       5.623   8.926  -6.858  1.00  0.00     0.009 A 
ATOM     58  C   UNL     1       4.314   9.592  -4.498  1.00  0.00     0.001 A 
ATOM     59  C   UNL     1       6.177   9.873  -6.002  1.00  0.00     0.001 A 
ATOM     60  C   UNL     1       5.515  10.220  -4.829  1.00  0.00     0.000 A 
ENDBRANCH  42  55
ENDBRANCH  16  17
ENDBRANCH   9  11
ENDBRANCH   8   9
ENDBRANCH   7   8
ENDBRANCH   6   7
ENDBRANCH   5   6
ENDBRANCH   4   5
ENDBRANCH   3   4
ENDBRANCH   2   3
ENDBRANCH   1   2
BRANCH   1  61
ATOM     61  C   UNL     1       4.416  -2.288   1.486  1.00  0.00     0.188 C 
BRANCH  61  62
ATOM     62  O   UNL     1       4.194  -2.776   0.103  1.00  0.00    -0.376 OA
BRANCH  62  63
ATOM     63  C   UNL     1       3.447  -4.232  -0.352  1.00  0.00     0.202 C 
BRANCH  63  64
ATOM     64  C   UNL     1       2.682  -5.817   1.105  1.00  0.00     0.261 C 
BRANCH  64  65
ATOM     65  O   UNL     1       2.973  -5.597   2.807  1.00  0.00    -0.462 OA
BRANCH  65  66
ATOM     66  C   UNL     1       4.138  -5.999   3.370  1.00  0.00     0.329 C 
ATOM     67  O   UNL     1       4.600  -7.106   3.095  1.00  0.00    -0.250 OA
BRANCH  66  68
ATOM     68  C   UNL     1       4.922  -4.951   4.274  1.00  0.00     0.203 C 
ATOM     69  C   UNL     1       6.019  -5.804   4.970  1.00  0.00     0.093 C 
ATOM     70  N   UNL     1       5.645  -3.623   3.981  1.00  0.00    -0.305 N 
ATOM     71  C   UNL     1       6.605  -5.008   6.072  1.00  0.00     0.042 A 
ATOM     72  C   UNL     1       5.842  -2.765   5.202  1.00  0.00     0.180 C 
ATOM     73  N   UNL     1       7.342  -5.454   7.117  1.00  0.00    -0.348 N 
ATOM     74  C   UNL     1       6.530  -3.639   6.206  1.00  0.00     0.081 A 
ATOM     75  C   UNL     1       7.618  -4.358   7.890  1.00  0.00     0.197 A 
ATOM     76  H   UNL     1       7.623  -6.382   7.288  1.00  0.00     0.167 HD
ATOM     77  N   UNL     1       7.145  -3.245   7.363  1.00  0.00    -0.240 NA
BRANCH  70  78
ATOM     78  C   UNL     1       6.591  -3.380   3.012  1.00  0.00     0.318 C 
ATOM     79  O   UNL     1       7.400  -2.448   3.076  1.00  0.00    -0.249 OA
ATOM     80  N   UNL     1       6.567  -4.005   1.825  1.00  0.00    -0.331 N 
ATOM     81  H   UNL     1       7.194  -3.592   1.187  1.00  0.00     0.165 HD
BRANCH  80  82
ATOM     82  C   UNL     1       5.871  -5.116   1.234  1.00  0.00     0.197 C 
BRANCH  82  83
ATOM     83  C   UNL     1       4.384  -5.083   0.975  1.00  0.00     0.169 A 
ATOM     84  N   UNL     1       3.754  -6.134  -0.459  1.00  0.00    -0.218 NA
ATOM     85  N   UNL     1       2.964  -4.052   1.394  1.00  0.00    -0.157 NA
ATOM     86  C   UNL     1       2.273  -5.806  -0.871  1.00  0.00     0.216 A 
ATOM     87  N   UNL     1       1.626  -4.486   0.182  1.00  0.00    -0.266 N 
ATOM     88  H   UNL     1       0.734  -4.075   0.123  1.00  0.00     0.191 HD
ENDBRANCH  82  83
ENDBRANCH  80  82
ENDBRANCH  70  78
ENDBRANCH  66  68
ENDBRANCH  65  66
ENDBRANCH  64  65
ENDBRANCH  63  64
ENDBRANCH  62  63
ENDBRANCH  61  62
ENDBRANCH   1  61
TORSDOF 23
