REMARK SMILES Cc1nn(C)c2c1nc(SCC(=O)OCCOCCOCCOCCOC(=O)c1ccc(-c3c4nc(c(-c5ccccc5)c5ccc([nH]5)c(-c5ccccc5)c5nc(c(-c6ccccc6)c6ccc3[nH]6)C=C5)C=C4)cc1)n2[C@H]1CC[N@@H+](C)C1
REMARK SMILES IDX 19 1 18 2 17 3 16 4 15 5 14 6 12 7 13 8 11 9 10 10 9 11 1 12
REMARK SMILES IDX 2 13 3 14 7 15 4 16 6 17 8 18 5 19 77 20 78 21 79 22 83 23
REMARK SMILES IDX 80 24 81 25 82 26 20 28 21 29 22 30 23 31 24 32 25 33 26 34
REMARK SMILES IDX 27 35 28 36 29 37 30 38 76 39 31 40 75 41 32 42 33 43 34 44
REMARK SMILES IDX 69 45 35 46 74 47 68 48 70 49 36 50 73 51 67 52 66 53 37 55
REMARK SMILES IDX 59 56 44 57 58 58 45 59 48 60 57 61 71 62 46 63 47 64 56 66
REMARK SMILES IDX 72 67 49 68 38 69 39 70 43 71 40 72 42 73 41 74 60 75 61 76
REMARK SMILES IDX 65 77 62 78 64 79 63 80 50 81 51 82 55 83 52 84 54 85 53 86
REMARK H PARENT 81 27 70 54 48 65
REMARK Flexibility Score: inf
ROOT
ATOM      1  C   UNL     1      -0.173   3.841  -2.965  1.00  0.00     0.188 C 
ENDROOT
BRANCH   1   2
ATOM      2  C   UNL     1      -1.222   4.983  -2.908  1.00  0.00     0.188 C 
BRANCH   2   3
ATOM      3  O   UNL     1      -1.407   5.765  -1.729  1.00  0.00    -0.376 OA
BRANCH   3   4
ATOM      4  C   UNL     1      -0.943   5.255  -0.492  1.00  0.00     0.202 C 
BRANCH   4   5
ATOM      5  C   UNL     1      -1.577   3.942   0.006  1.00  0.00     0.261 C 
BRANCH   5   6
ATOM      6  O   UNL     1      -2.055   3.052  -1.029  1.00  0.00    -0.463 OA
BRANCH   6   7
ATOM      7  C   UNL     1      -3.373   3.121  -1.343  1.00  0.00     0.316 C 
ATOM      8  O   UNL     1      -4.189   3.752  -0.672  1.00  0.00    -0.251 OA
BRANCH   7   9
ATOM      9  C   UNL     1      -3.802   2.414  -2.628  1.00  0.00     0.200 C 
BRANCH   9  10
ATOM     10  S   UNL     1      -2.668   1.237  -3.405  1.00  0.00    -0.076 SA
BRANCH  10  11
ATOM     11  C   UNL     1      -2.241   1.891  -4.979  1.00  0.00     0.171 A 
ATOM     12  C   UNL     1      -1.711   5.522  -7.748  1.00  0.00     0.071 C 
ATOM     13  C   UNL     1      -1.444   4.075  -7.606  1.00  0.00     0.087 A 
ATOM     14  N   UNL     1      -0.635   3.486  -8.508  1.00  0.00    -0.174 NA
ATOM     15  C   UNL     1      -1.776   3.154  -6.602  1.00  0.00     0.132 A 
ATOM     16  N   UNL     1      -0.399   2.248  -8.008  1.00  0.00    -0.250 N 
ATOM     17  C   UNL     1      -1.159   1.986  -6.905  1.00  0.00     0.159 A 
ATOM     18  N   UNL     1      -2.418   3.133  -5.406  1.00  0.00    -0.219 NA
ATOM     19  C   UNL     1       0.778   1.575  -8.506  1.00  0.00     0.176 C 
ATOM     20  N   UNL     1      -1.556   1.109  -5.932  1.00  0.00    -0.295 N 
BRANCH  20  21
ATOM     21  C   UNL     1      -1.573  -0.351  -5.937  1.00  0.00     0.152 C 
ATOM     22  C   UNL     1      -2.953  -0.865  -6.372  1.00  0.00     0.093 C 
ATOM     23  C   UNL     1      -0.607  -1.103  -6.868  1.00  0.00     0.288 C 
ATOM     24  C   UNL     1      -2.745  -1.258  -7.822  1.00  0.00     0.264 C 
ATOM     25  N   UNL     1      -1.440  -1.913  -7.766  1.00  0.00    -0.336 N 
ATOM     26  C   UNL     1      -0.864  -2.110  -9.087  1.00  0.00     0.332 C 
ATOM     27  H   UNL     1      -1.518  -2.862  -7.398  1.00  0.00     0.347 HD
ENDBRANCH  20  21
ENDBRANCH  10  11
ENDBRANCH   9  10
ENDBRANCH   7   9
ENDBRANCH   6   7
ENDBRANCH   5   6
ENDBRANCH   4   5
ENDBRANCH   3   4
ENDBRANCH   2   3
ENDBRANCH   1   2
BRANCH   1  28
ATOM     28  O   UNL     1       0.850   3.866  -1.982  1.00  0.00    -0.377 OA
BRANCH  28  29
ATOM     29  C   UNL     1       2.128   4.284  -2.431  1.00  0.00     0.188 C 
BRANCH  29  30
ATOM     30  C   UNL     1       2.197   5.699  -3.025  1.00  0.00     0.188 C 
BRANCH  30  31
ATOM     31  O   UNL     1       1.151   6.007  -3.936  1.00  0.00    -0.376 OA
BRANCH  31  32
ATOM     32  C   UNL     1       1.430   6.048  -5.325  1.00  0.00     0.202 C 
BRANCH  32  33
ATOM     33  C   UNL     1       1.516   4.688  -6.000  1.00  0.00     0.261 C 
BRANCH  33  34
ATOM     34  O   UNL     1       2.412   3.768  -5.406  1.00  0.00    -0.460 OA
BRANCH  34  35
ATOM     35  C   UNL     1       3.698   4.117  -5.475  1.00  0.00     0.338 C 
ATOM     36  O   UNL     1       4.163   5.238  -5.664  1.00  0.00    -0.246 OA
BRANCH  35  37
ATOM     37  C   UNL     1       4.489   2.895  -5.512  1.00  0.00     0.060 A 
ATOM     38  C   UNL     1       5.864   3.078  -5.588  1.00  0.00     0.016 A 
ATOM     39  C   UNL     1       3.875   1.651  -5.767  1.00  0.00     0.016 A 
ATOM     40  C   UNL     1       6.612   2.057  -6.111  1.00  0.00     0.010 A 
ATOM     41  C   UNL     1       4.628   0.628  -6.294  1.00  0.00     0.010 A 
ATOM     42  C   UNL     1       5.975   0.872  -6.517  1.00  0.00    -0.014 A 
BRANCH  42  43
ATOM     43  C   UNL     1       6.848  -0.150  -7.033  1.00  0.00     0.031 A 
ATOM     44  C   UNL     1       7.739  -0.696  -5.995  1.00  0.00     0.074 A 
ATOM     45  C   UNL     1       6.913  -0.526  -8.317  1.00  0.00     0.049 A 
ATOM     46  N   UNL     1       8.983  -0.407  -5.824  1.00  0.00    -0.248 NA
ATOM     47  C   UNL     1       7.130  -1.484  -4.917  1.00  0.00     0.031 C 
ATOM     48  C   UNL     1       5.965  -0.292  -9.403  1.00  0.00     0.029 A 
ATOM     49  N   UNL     1       7.873  -1.294  -8.890  1.00  0.00    -0.354 N 
ATOM     50  C   UNL     1       9.377  -1.120  -4.704  1.00  0.00     0.074 A 
ATOM     51  C   UNL     1       8.171  -1.628  -4.097  1.00  0.00     0.031 C 
ATOM     52  C   UNL     1       6.292  -1.094 -10.444  1.00  0.00     0.029 A 
ATOM     53  C   UNL     1       7.544  -1.774 -10.142  1.00  0.00     0.049 A 
ATOM     54  H   UNL     1       8.732  -1.492  -8.450  1.00  0.00     0.167 HD
ATOM     55  C   UNL     1      10.681  -1.446  -4.510  1.00  0.00     0.031 A 
ATOM     56  C   UNL     1       8.231  -2.720 -10.825  1.00  0.00     0.031 A 
ATOM     57  C   UNL     1      11.565  -0.627  -5.303  1.00  0.00     0.049 A 
ATOM     58  C   UNL     1       9.609  -2.773 -10.275  1.00  0.00     0.074 A 
ATOM     59  C   UNL     1      11.814   0.729  -5.395  1.00  0.00     0.029 A 
ATOM     60  N   UNL     1      12.087  -1.186  -6.445  1.00  0.00    -0.354 N 
ATOM     61  N   UNL     1      10.493  -1.835 -10.456  1.00  0.00    -0.248 NA
ATOM     62  C   UNL     1       9.886  -3.680  -9.169  1.00  0.00     0.031 C 
ATOM     63  C   UNL     1      12.058   0.969  -6.779  1.00  0.00     0.029 A 
ATOM     64  C   UNL     1      11.990  -0.255  -7.446  1.00  0.00     0.049 A 
ATOM     65  H   UNL     1      12.464  -2.092  -6.529  1.00  0.00     0.167 HD
ATOM     66  C   UNL     1      11.184  -1.758  -9.255  1.00  0.00     0.074 A 
ATOM     67  C   UNL     1      10.846  -2.990  -8.546  1.00  0.00     0.031 C 
ATOM     68  C   UNL     1      11.741  -0.584  -8.833  1.00  0.00     0.031 A 
BRANCH  55  69
ATOM     69  C   UNL     1      11.091  -2.792  -3.971  1.00  0.00    -0.014 A 
ATOM     70  C   UNL     1      12.460  -3.067  -3.830  1.00  0.00     0.009 A 
ATOM     71  C   UNL     1      10.210  -3.889  -3.887  1.00  0.00     0.009 A 
ATOM     72  C   UNL     1      12.925  -4.381  -3.712  1.00  0.00     0.001 A 
ATOM     73  C   UNL     1      10.667  -5.196  -3.726  1.00  0.00     0.001 A 
ATOM     74  C   UNL     1      12.029  -5.445  -3.673  1.00  0.00     0.000 A 
ENDBRANCH  55  69
BRANCH  56  75
ATOM     75  C   UNL     1       7.702  -3.759 -11.728  1.00  0.00    -0.014 A 
ATOM     76  C   UNL     1       8.566  -4.489 -12.556  1.00  0.00     0.009 A 
ATOM     77  C   UNL     1       6.382  -4.224 -11.581  1.00  0.00     0.009 A 
ATOM     78  C   UNL     1       8.138  -5.669 -13.177  1.00  0.00     0.001 A 
ATOM     79  C   UNL     1       5.952  -5.397 -12.207  1.00  0.00     0.001 A 
ATOM     80  C   UNL     1       6.836  -6.129 -12.992  1.00  0.00     0.000 A 
ENDBRANCH  56  75
BRANCH  68  81
ATOM     81  C   UNL     1      11.858   0.545  -9.827  1.00  0.00    -0.014 A 
ATOM     82  C   UNL     1      10.756   1.092 -10.508  1.00  0.00     0.009 A 
ATOM     83  C   UNL     1      13.108   1.163  -9.985  1.00  0.00     0.009 A 
ATOM     84  C   UNL     1      10.913   2.194 -11.355  1.00  0.00     0.001 A 
ATOM     85  C   UNL     1      13.260   2.278 -10.810  1.00  0.00     0.001 A 
ATOM     86  C   UNL     1      12.164   2.788 -11.503  1.00  0.00     0.000 A 
ENDBRANCH  68  81
ENDBRANCH  42  43
ENDBRANCH  35  37
ENDBRANCH  34  35
ENDBRANCH  33  34
ENDBRANCH  32  33
ENDBRANCH  31  32
ENDBRANCH  30  31
ENDBRANCH  29  30
ENDBRANCH  28  29
ENDBRANCH   1  28
TORSDOF 23
