REMARK SMILES CCCc1cc(OC(F)(F)F)cc2c1O[C@H](C(F)(F)F)C(C(=O)OCCOCCOCCOCCOC(=O)c1ccc(-c3c4nc(c(-c5ccccc5)c5ccc([nH]5)c(-c5ccccc5)c5nc(c(-c6ccccc6)c6ccc3[nH]6)C=C5)C=C4)cc1)=C2
REMARK SMILES IDX 30 1 29 2 28 3 27 4 26 5 25 6 24 7 22 8 23 9 21 10 4 11 5 12
REMARK SMILES IDX 14 13 6 14 13 15 15 16 12 17 87 18 16 19 3 20 2 21 1 22 7 23
REMARK SMILES IDX 8 24 9 25 10 26 11 27 17 28 18 29 19 30 20 31 31 32 32 33
REMARK SMILES IDX 33 34 34 35 35 36 36 37 37 38 38 39 39 40 40 41 86 42 41 43
REMARK SMILES IDX 85 44 42 45 43 46 44 47 79 48 45 49 84 50 78 51 80 52 46 53
REMARK SMILES IDX 83 54 77 55 76 56 47 58 69 59 54 60 68 61 55 62 58 63 67 64
REMARK SMILES IDX 81 65 56 66 57 67 66 69 82 70 59 71 48 72 49 73 53 74 50 75
REMARK SMILES IDX 52 76 51 77 70 78 71 79 75 80 72 81 74 82 73 83 60 84 61 85
REMARK SMILES IDX 65 86 62 87 64 88 63 89
REMARK H PARENT 80 57 58 68
REMARK Flexibility Score: inf
ROOT
ATOM      1  O   UNL     1      -5.785   3.321   4.968  1.00  0.00    -0.377 OA
ENDROOT
BRANCH   1   2
ATOM      2  C   UNL     1      -5.468   1.964   4.700  1.00  0.00     0.188 C 
BRANCH   2   3
ATOM      3  C   UNL     1      -5.820   0.877   5.742  1.00  0.00     0.188 C 
BRANCH   3   4
ATOM      4  O   UNL     1      -6.500   1.381   6.875  1.00  0.00    -0.376 OA
BRANCH   4   5
ATOM      5  C   UNL     1      -5.800   1.513   8.094  1.00  0.00     0.202 C 
BRANCH   5   6
ATOM      6  C   UNL     1      -4.503   2.335   8.146  1.00  0.00     0.261 C 
BRANCH   6   7
ATOM      7  O   UNL     1      -3.624   2.256   7.016  1.00  0.00    -0.460 OA
BRANCH   7   8
ATOM      8  C   UNL     1      -2.903   1.125   6.864  1.00  0.00     0.338 C 
ATOM      9  O   UNL     1      -2.953   0.140   7.582  1.00  0.00    -0.246 OA
BRANCH   8  10
ATOM     10  C   UNL     1      -2.125   1.177   5.609  1.00  0.00     0.087 C 
ATOM     11  C   UNL     1       0.886   0.731   2.787  1.00  0.00    -0.002 A 
ATOM     12  C   UNL     1       1.473   1.874   2.228  1.00  0.00     0.054 A 
ATOM     13  C   UNL     1      -0.107   0.902   3.752  1.00  0.00     0.131 A 
ATOM     14  C   UNL     1       1.046   3.158   2.583  1.00  0.00     0.130 A 
ATOM     15  C   UNL     1      -0.538   2.183   4.137  1.00  0.00     0.021 A 
ATOM     16  O   UNL     1      -0.596  -0.231   4.356  1.00  0.00    -0.475 OA
ATOM     17  C   UNL     1       0.027   3.306   3.530  1.00  0.00     0.058 A 
ATOM     18  C   UNL     1      -1.487   2.302   5.243  1.00  0.00     0.027 C 
ATOM     19  C   UNL     1      -1.960  -0.100   4.818  1.00  0.00     0.316 C 
BRANCH  11  20
ATOM     20  C   UNL     1       1.307  -0.643   2.320  1.00  0.00     0.039 C 
BRANCH  20  21
ATOM     21  C   UNL     1       0.616  -1.089   1.025  1.00  0.00     0.001 C 
ATOM     22  C   UNL     1       1.036  -0.289  -0.201  1.00  0.00     0.004 C 
ENDBRANCH  20  21
ENDBRANCH  11  20
BRANCH  14  23
ATOM     23  O   UNL     1       1.545   4.330   2.087  1.00  0.00    -0.406 OA
BRANCH  23  24
ATOM     24  C   UNL     1       2.679   4.246   1.238  1.00  0.00     0.573 C 
ATOM     25  F   UNL     1       3.710   3.634   1.861  1.00  0.00    -0.132 F 
ATOM     26  F   UNL     1       2.386   3.586   0.097  1.00  0.00    -0.132 F 
ATOM     27  F   UNL     1       3.071   5.497   0.910  1.00  0.00    -0.132 F 
ENDBRANCH  23  24
ENDBRANCH  14  23
BRANCH  19  28
ATOM     28  C   UNL     1      -2.921  -0.269   3.616  1.00  0.00     0.430 C 
ATOM     29  F   UNL     1      -3.024   0.845   2.854  1.00  0.00    -0.167 F 
ATOM     30  F   UNL     1      -2.520  -1.272   2.796  1.00  0.00    -0.167 F 
ATOM     31  F   UNL     1      -4.173  -0.589   4.019  1.00  0.00    -0.167 F 
ENDBRANCH  19  28
ENDBRANCH   8  10
ENDBRANCH   7   8
ENDBRANCH   6   7
ENDBRANCH   5   6
ENDBRANCH   4   5
ENDBRANCH   3   4
ENDBRANCH   2   3
ENDBRANCH   1   2
BRANCH   1  32
ATOM     32  C   UNL     1      -7.048   3.648   5.535  1.00  0.00     0.188 C 
BRANCH  32  33
ATOM     33  C   UNL     1      -8.294   2.768   5.274  1.00  0.00     0.188 C 
BRANCH  33  34
ATOM     34  O   UNL     1      -8.085   1.689   4.381  1.00  0.00    -0.376 OA
BRANCH  34  35
ATOM     35  C   UNL     1      -8.635   1.769   3.081  1.00  0.00     0.202 C 
BRANCH  35  36
ATOM     36  C   UNL     1      -8.121   2.887   2.163  1.00  0.00     0.261 C 
BRANCH  36  37
ATOM     37  O   UNL     1      -8.127   4.211   2.715  1.00  0.00    -0.460 OA
BRANCH  37  38
ATOM     38  C   UNL     1      -9.328   4.766   2.973  1.00  0.00     0.338 C 
ATOM     39  O   UNL     1     -10.429   4.269   2.796  1.00  0.00    -0.246 OA
BRANCH  38  40
ATOM     40  C   UNL     1      -9.084   6.031   3.692  1.00  0.00     0.060 A 
ATOM     41  C   UNL     1      -9.579   6.185   4.995  1.00  0.00     0.016 A 
ATOM     42  C   UNL     1      -8.346   7.050   3.087  1.00  0.00     0.016 A 
ATOM     43  C   UNL     1      -9.361   7.376   5.685  1.00  0.00     0.010 A 
ATOM     44  C   UNL     1      -8.153   8.253   3.769  1.00  0.00     0.010 A 
ATOM     45  C   UNL     1      -8.690   8.432   5.056  1.00  0.00    -0.014 A 
BRANCH  45  46
ATOM     46  C   UNL     1      -8.738   9.786   5.654  1.00  0.00     0.031 A 
ATOM     47  C   UNL     1      -9.777  10.747   5.144  1.00  0.00     0.074 A 
ATOM     48  C   UNL     1      -7.903  10.150   6.642  1.00  0.00     0.049 A 
ATOM     49  N   UNL     1     -10.000  11.989   5.486  1.00  0.00    -0.248 NA
ATOM     50  C   UNL     1     -10.687  10.234   4.105  1.00  0.00     0.031 C 
ATOM     51  C   UNL     1      -6.889   9.296   7.255  1.00  0.00     0.029 A 
ATOM     52  N   UNL     1      -7.781  11.348   7.301  1.00  0.00    -0.354 N 
ATOM     53  C   UNL     1     -11.066  12.408   4.700  1.00  0.00     0.074 A 
ATOM     54  C   UNL     1     -11.425  11.301   3.841  1.00  0.00     0.031 C 
ATOM     55  C   UNL     1      -6.242  10.001   8.201  1.00  0.00     0.029 A 
ATOM     56  C   UNL     1      -6.773  11.362   8.233  1.00  0.00     0.049 A 
ATOM     57  H   UNL     1      -8.362  12.123   7.123  1.00  0.00     0.167 HD
ATOM     58  C   UNL     1     -11.697  13.605   4.697  1.00  0.00     0.031 A 
ATOM     59  C   UNL     1      -6.320  12.368   9.007  1.00  0.00     0.031 A 
ATOM     60  C   UNL     1     -11.326  14.712   5.536  1.00  0.00     0.049 A 
ATOM     61  C   UNL     1      -6.982  13.720   8.922  1.00  0.00     0.074 A 
ATOM     62  C   UNL     1     -11.906  15.966   5.613  1.00  0.00     0.029 A 
ATOM     63  N   UNL     1     -10.272  14.700   6.436  1.00  0.00    -0.354 N 
ATOM     64  N   UNL     1      -8.006  14.099   8.194  1.00  0.00    -0.248 NA
ATOM     65  C   UNL     1      -6.431  14.781   9.777  1.00  0.00     0.031 C 
ATOM     66  C   UNL     1     -11.162  16.735   6.514  1.00  0.00     0.029 A 
ATOM     67  C   UNL     1     -10.168  15.934   7.054  1.00  0.00     0.049 A 
ATOM     68  H   UNL     1      -9.686  13.929   6.610  1.00  0.00     0.167 HD
ATOM     69  C   UNL     1      -8.245  15.426   8.534  1.00  0.00     0.074 A 
ATOM     70  C   UNL     1      -7.267  15.782   9.541  1.00  0.00     0.031 C 
ATOM     71  C   UNL     1      -9.193  16.272   8.060  1.00  0.00     0.031 A 
BRANCH  58  72
ATOM     72  C   UNL     1     -12.828  13.789   3.723  1.00  0.00    -0.014 A 
ATOM     73  C   UNL     1     -14.049  13.114   3.881  1.00  0.00     0.009 A 
ATOM     74  C   UNL     1     -12.677  14.673   2.644  1.00  0.00     0.009 A 
ATOM     75  C   UNL     1     -15.082  13.295   2.959  1.00  0.00     0.001 A 
ATOM     76  C   UNL     1     -13.723  14.878   1.742  1.00  0.00     0.001 A 
ATOM     77  C   UNL     1     -14.920  14.181   1.895  1.00  0.00     0.000 A 
ENDBRANCH  58  72
BRANCH  59  78
ATOM     78  C   UNL     1      -5.167  12.151   9.922  1.00  0.00    -0.014 A 
ATOM     79  C   UNL     1      -5.335  12.201  11.315  1.00  0.00     0.009 A 
ATOM     80  C   UNL     1      -3.881  11.926   9.404  1.00  0.00     0.009 A 
ATOM     81  C   UNL     1      -4.236  12.065  12.167  1.00  0.00     0.001 A 
ATOM     82  C   UNL     1      -2.790  11.757  10.259  1.00  0.00     0.001 A 
ATOM     83  C   UNL     1      -2.966  11.838  11.639  1.00  0.00     0.000 A 
ENDBRANCH  59  78
BRANCH  71  84
ATOM     84  C   UNL     1      -9.261  17.648   8.667  1.00  0.00    -0.014 A 
ATOM     85  C   UNL     1      -8.266  18.610   8.433  1.00  0.00     0.009 A 
ATOM     86  C   UNL     1     -10.369  17.998   9.456  1.00  0.00     0.009 A 
ATOM     87  C   UNL     1      -8.360  19.878   9.011  1.00  0.00     0.001 A 
ATOM     88  C   UNL     1     -10.479  19.277  10.002  1.00  0.00     0.001 A 
ATOM     89  C   UNL     1      -9.468  20.212   9.790  1.00  0.00     0.000 A 
ENDBRANCH  71  84
ENDBRANCH  45  46
ENDBRANCH  38  40
ENDBRANCH  37  38
ENDBRANCH  36  37
ENDBRANCH  35  36
ENDBRANCH  34  35
ENDBRANCH  33  34
ENDBRANCH  32  33
ENDBRANCH   1  32
TORSDOF 25
