REMARK SMILES CC(C)(CCc1ccc(Cl)c2ccccc12)C(=O)OCCOCCOCCOCCOC(=O)c1ccc(-c2c3nc(c(-c4ccccc4)c4ccc([nH]4)c(-c4ccccc4)c4nc(c(-c5ccccc5)c5ccc2[nH]5)C=C4)C=C3)cc1
REMARK SMILES IDX 24 1 23 2 22 3 21 4 20 5 19 6 17 7 18 8 2 9 1 10 3 11 4 12
REMARK SMILES IDX 5 13 6 14 7 15 16 16 8 17 11 18 15 19 9 20 12 21 14 22 10 23
REMARK SMILES IDX 13 24 25 25 26 26 27 27 28 28 29 29 30 30 31 31 32 32 33 33
REMARK SMILES IDX 34 34 35 35 81 36 36 37 80 38 37 39 38 40 39 41 74 42 40 43
REMARK SMILES IDX 79 44 73 45 75 46 41 47 78 48 72 49 71 50 42 52 64 53 49 54
REMARK SMILES IDX 63 55 50 56 53 57 62 58 76 59 51 60 52 61 61 63 77 64 54 65
REMARK SMILES IDX 43 66 44 67 48 68 45 69 47 70 46 71 65 72 66 73 70 74 67 75
REMARK SMILES IDX 69 76 68 77 55 78 56 79 60 80 57 81 59 82 58 83
REMARK H PARENT 75 51 53 62
REMARK Flexibility Score: inf
ROOT
ATOM      1  C   UNL     1       1.148   3.546   0.986  1.00  0.00     0.188 C 
ENDROOT
BRANCH   1   2
ATOM      2  C   UNL     1       2.592   4.773   0.603  1.00  0.00     0.188 C 
BRANCH   2   3
ATOM      3  O   UNL     1       2.708   5.614  -0.960  1.00  0.00    -0.376 OA
BRANCH   3   4
ATOM      4  C   UNL     1       1.845   5.327  -2.468  1.00  0.00     0.202 C 
BRANCH   4   5
ATOM      5  C   UNL     1       1.542   3.805  -3.499  1.00  0.00     0.261 C 
BRANCH   5   6
ATOM      6  O   UNL     1       0.795   2.451  -3.061  1.00  0.00    -0.463 OA
BRANCH   6   7
ATOM      7  C   UNL     1       1.248   1.130  -3.340  1.00  0.00     0.311 C 
ATOM      8  O   UNL     1       2.157   0.943  -4.151  1.00  0.00    -0.252 OA
BRANCH   7   9
ATOM      9  C   UNL     1       0.478  -0.223  -2.581  1.00  0.00     0.063 C 
ATOM     10  C   UNL     1       1.048  -1.171  -1.446  1.00  0.00     0.023 C 
ATOM     11  C   UNL     1       0.468  -1.332  -3.695  1.00  0.00     0.023 C 
BRANCH   9  12
ATOM     12  C   UNL     1      -0.927   0.153  -2.074  1.00  0.00     0.023 C 
BRANCH  12  13
ATOM     13  C   UNL     1      -1.085   0.503  -0.534  1.00  0.00     0.037 C 
BRANCH  13  14
ATOM     14  C   UNL     1      -0.141   1.525   0.256  1.00  0.00    -0.040 A 
ATOM     15  C   UNL     1      -1.107   2.705   1.103  1.00  0.00     0.006 A 
ATOM     16  C   UNL     1       1.345   1.940  -0.577  1.00  0.00    -0.014 A 
ATOM     17  C   UNL     1      -0.783   4.406   0.938  1.00  0.00     0.021 A 
ATOM     18  C   UNL     1       1.706   3.579  -0.951  1.00  0.00     0.001 A 
ATOM     19  C   UNL     1       2.462   1.030  -0.660  1.00  0.00     0.009 A 
ATOM     20  C   UNL     1       0.533   4.958  -0.210  1.00  0.00     0.048 A 
ATOM     21  C   UNL     1       3.199   3.420  -1.582  1.00  0.00     0.010 A 
ATOM     22  C   UNL     1       3.695   1.161  -1.326  1.00  0.00     0.001 A 
ATOM     23  Cl  UNL     1       0.698   6.778   0.030  1.00  0.00    -0.084 Cl
ATOM     24  C   UNL     1       4.061   2.357  -1.829  1.00  0.00     0.001 A 
ENDBRANCH  13  14
ENDBRANCH  12  13
ENDBRANCH   9  12
ENDBRANCH   7   9
ENDBRANCH   6   7
ENDBRANCH   5   6
ENDBRANCH   4   5
ENDBRANCH   3   4
ENDBRANCH   2   3
ENDBRANCH   1   2
BRANCH   1  25
ATOM     25  O   UNL     1      -0.160   3.315  -0.549  1.00  0.00    -0.377 OA
BRANCH  25  26
ATOM     26  C   UNL     1      -1.374   4.231  -1.322  1.00  0.00     0.188 C 
BRANCH  26  27
ATOM     27  C   UNL     1      -2.002   5.757  -1.039  1.00  0.00     0.188 C 
BRANCH  27  28
ATOM     28  O   UNL     1      -2.146   6.487   0.190  1.00  0.00    -0.376 OA
BRANCH  28  29
ATOM     29  C   UNL     1      -3.166   6.466   1.192  1.00  0.00     0.202 C 
BRANCH  29  30
ATOM     30  C   UNL     1      -4.431   5.638   1.020  1.00  0.00     0.261 C 
BRANCH  30  31
ATOM     31  O   UNL     1      -4.933   5.674  -0.308  1.00  0.00    -0.460 OA
BRANCH  31  32
ATOM     32  C   UNL     1      -5.213   6.920  -0.757  1.00  0.00     0.338 C 
ATOM     33  O   UNL     1      -5.337   7.942  -0.109  1.00  0.00    -0.246 OA
BRANCH  32  34
ATOM     34  C   UNL     1      -5.088   6.863  -2.216  1.00  0.00     0.060 A 
ATOM     35  C   UNL     1      -4.143   7.699  -2.827  1.00  0.00     0.016 A 
ATOM     36  C   UNL     1      -5.830   5.936  -2.951  1.00  0.00     0.016 A 
ATOM     37  C   UNL     1      -3.981   7.654  -4.204  1.00  0.00     0.010 A 
ATOM     38  C   UNL     1      -5.712   5.934  -4.335  1.00  0.00     0.010 A 
ATOM     39  C   UNL     1      -4.829   6.834  -4.959  1.00  0.00    -0.014 A 
BRANCH  39  40
ATOM     40  C   UNL     1      -5.059   7.189  -6.370  1.00  0.00     0.031 A 
ATOM     41  C   UNL     1      -6.115   8.224  -6.638  1.00  0.00     0.074 A 
ATOM     42  C   UNL     1      -4.341   6.646  -7.364  1.00  0.00     0.049 A 
ATOM     43  N   UNL     1      -6.590   8.652  -7.776  1.00  0.00    -0.248 NA
ATOM     44  C   UNL     1      -6.713   8.869  -5.454  1.00  0.00     0.031 C 
ATOM     45  C   UNL     1      -3.222   5.722  -7.202  1.00  0.00     0.029 A 
ATOM     46  N   UNL     1      -4.462   6.806  -8.718  1.00  0.00    -0.354 N 
ATOM     47  C   UNL     1      -7.542   9.607  -7.442  1.00  0.00     0.074 A 
ATOM     48  C   UNL     1      -7.593   9.688  -6.003  1.00  0.00     0.031 C 
ATOM     49  C   UNL     1      -2.766   5.381  -8.421  1.00  0.00     0.029 A 
ATOM     50  C   UNL     1      -3.598   6.022  -9.438  1.00  0.00     0.049 A 
ATOM     51  H   UNL     1      -5.106   7.424  -9.134  1.00  0.00     0.167 HD
ATOM     52  C   UNL     1      -8.314  10.349  -8.268  1.00  0.00     0.031 A 
ATOM     53  C   UNL     1      -3.526   5.823 -10.767  1.00  0.00     0.031 A 
ATOM     54  C   UNL     1      -8.284  10.225  -9.697  1.00  0.00     0.049 A 
ATOM     55  C   UNL     1      -4.502   6.546 -11.662  1.00  0.00     0.074 A 
ATOM     56  C   UNL     1      -9.045  10.893 -10.637  1.00  0.00     0.029 A 
ATOM     57  N   UNL     1      -7.452   9.357 -10.388  1.00  0.00    -0.354 N 
ATOM     58  N   UNL     1      -5.418   7.431 -11.346  1.00  0.00    -0.248 NA
ATOM     59  C   UNL     1      -4.435   6.237 -13.097  1.00  0.00     0.031 C 
ATOM     60  C   UNL     1      -8.719  10.379 -11.896  1.00  0.00     0.029 A 
ATOM     61  C   UNL     1      -7.702   9.448 -11.744  1.00  0.00     0.049 A 
ATOM     62  H   UNL     1      -6.783   8.765  -9.975  1.00  0.00     0.167 HD
ATOM     63  C   UNL     1      -6.013   7.809 -12.544  1.00  0.00     0.074 A 
ATOM     64  C   UNL     1      -5.345   7.064 -13.592  1.00  0.00     0.031 C 
ATOM     65  C   UNL     1      -7.018   8.693 -12.763  1.00  0.00     0.031 A 
BRANCH  52  66
ATOM     66  C   UNL     1      -9.296  11.288  -7.628  1.00  0.00    -0.014 A 
ATOM     67  C   UNL     1      -8.876  12.435  -6.935  1.00  0.00     0.009 A 
ATOM     68  C   UNL     1     -10.669  11.010  -7.707  1.00  0.00     0.009 A 
ATOM     69  C   UNL     1      -9.808  13.262  -6.305  1.00  0.00     0.001 A 
ATOM     70  C   UNL     1     -11.601  11.856  -7.105  1.00  0.00     0.001 A 
ATOM     71  C   UNL     1     -11.170  12.975  -6.395  1.00  0.00     0.000 A 
ENDBRANCH  52  66
BRANCH  53  72
ATOM     72  C   UNL     1      -2.536   4.868 -11.331  1.00  0.00    -0.014 A 
ATOM     73  C   UNL     1      -1.492   5.319 -12.151  1.00  0.00     0.009 A 
ATOM     74  C   UNL     1      -2.643   3.492 -11.068  1.00  0.00     0.009 A 
ATOM     75  C   UNL     1      -0.592   4.412 -12.716  1.00  0.00     0.001 A 
ATOM     76  C   UNL     1      -1.722   2.591 -11.607  1.00  0.00     0.001 A 
ATOM     77  C   UNL     1      -0.704   3.050 -12.439  1.00  0.00     0.000 A 
ENDBRANCH  53  72
BRANCH  65  78
ATOM     78  C   UNL     1      -7.425   8.938 -14.190  1.00  0.00    -0.014 A 
ATOM     79  C   UNL     1      -8.123   7.973 -14.930  1.00  0.00     0.009 A 
ATOM     80  C   UNL     1      -7.157  10.185 -14.778  1.00  0.00     0.009 A 
ATOM     81  C   UNL     1      -8.517   8.241 -16.242  1.00  0.00     0.001 A 
ATOM     82  C   UNL     1      -7.583  10.463 -16.076  1.00  0.00     0.001 A 
ATOM     83  C   UNL     1      -8.254   9.487 -16.811  1.00  0.00     0.000 A 
ENDBRANCH  65  78
ENDBRANCH  39  40
ENDBRANCH  32  34
ENDBRANCH  31  32
ENDBRANCH  30  31
ENDBRANCH  29  30
ENDBRANCH  28  29
ENDBRANCH  27  28
ENDBRANCH  26  27
ENDBRANCH  25  26
ENDBRANCH   1  25
TORSDOF 23
