REMARK SMILES O=C(OCCOCCOCCOCCOC(=O)c1nccnc1C(=O)Nc1n[nH]c2ncccc12)c1ccc(-c2c3nc(c(-c4ccccc4)c4ccc([nH]4)c(-c4ccccc4)c4nc(c(-c5ccccc5)c5ccc2[nH]5)C=C4)C=C3)cc1
REMARK SMILES IDX 9 1 8 2 7 3 6 4 5 5 4 6 3 7 2 8 1 9 36 10 37 11 83 12 38 13
REMARK SMILES IDX 82 14 39 15 40 16 41 17 76 18 42 19 81 20 75 21 77 22 43 23
REMARK SMILES IDX 80 24 74 25 73 26 44 28 66 29 51 30 65 31 52 32 55 33 64 34
REMARK SMILES IDX 78 35 53 36 54 37 63 39 79 40 56 41 45 42 46 43 50 44 47 45
REMARK SMILES IDX 49 46 48 47 67 48 68 49 72 50 69 51 71 52 70 53 57 54 58 55
REMARK SMILES IDX 62 56 59 57 61 58 60 59 10 60 11 61 12 62 13 63 14 64 15 65
REMARK SMILES IDX 16 66 17 67 18 68 19 69 23 70 20 71 22 72 21 73 24 74 25 75
REMARK SMILES IDX 26 76 27 78 28 79 35 80 29 81 30 82 34 83 31 85 33 86 32 87
REMARK H PARENT 77 27 55 38 26 77 29 84
REMARK Flexibility Score: inf
ROOT
ATOM      1  O   UNL     1       3.823  -0.796   2.826  1.00  0.00    -0.377 OA
ENDROOT
BRANCH   1   2
ATOM      2  C   UNL     1       2.475  -0.658   2.387  1.00  0.00     0.188 C 
BRANCH   2   3
ATOM      3  C   UNL     1       2.300   0.003   1.031  1.00  0.00     0.188 C 
BRANCH   3   4
ATOM      4  O   UNL     1       3.558   0.326   0.463  1.00  0.00    -0.376 OA
BRANCH   4   5
ATOM      5  C   UNL     1       4.089   1.591   0.828  1.00  0.00     0.202 C 
BRANCH   5   6
ATOM      6  C   UNL     1       4.147   2.460  -0.427  1.00  0.00     0.261 C 
BRANCH   6   7
ATOM      7  O   UNL     1       2.868   2.486  -1.089  1.00  0.00    -0.460 OA
BRANCH   7   8
ATOM      8  C   UNL     1       2.312   1.508  -1.847  1.00  0.00     0.338 C 
ATOM      9  O   UNL     1       1.090   1.518  -2.006  1.00  0.00    -0.246 OA
BRANCH   8  10
ATOM     10  C   UNL     1       3.088   0.462  -2.597  1.00  0.00     0.060 A 
ATOM     11  C   UNL     1       4.260  -0.175  -2.171  1.00  0.00     0.016 A 
ATOM     12  C   UNL     1       2.511   0.019  -3.800  1.00  0.00     0.016 A 
ATOM     13  C   UNL     1       4.817  -1.238  -2.875  1.00  0.00     0.010 A 
ATOM     14  C   UNL     1       3.088  -1.015  -4.542  1.00  0.00     0.010 A 
ATOM     15  C   UNL     1       4.247  -1.643  -4.075  1.00  0.00    -0.014 A 
BRANCH  15  16
ATOM     16  C   UNL     1       5.015  -2.548  -4.942  1.00  0.00     0.031 A 
ATOM     17  C   UNL     1       5.891  -1.910  -5.975  1.00  0.00     0.074 A 
ATOM     18  C   UNL     1       4.979  -3.879  -4.764  1.00  0.00     0.049 A 
ATOM     19  N   UNL     1       6.539  -2.455  -6.965  1.00  0.00    -0.248 NA
ATOM     20  C   UNL     1       6.063  -0.448  -5.870  1.00  0.00     0.031 C 
ATOM     21  C   UNL     1       4.271  -4.574  -3.688  1.00  0.00     0.029 A 
ATOM     22  N   UNL     1       5.554  -4.885  -5.495  1.00  0.00    -0.354 N 
ATOM     23  C   UNL     1       7.151  -1.400  -7.629  1.00  0.00     0.074 A 
ATOM     24  C   UNL     1       6.824  -0.187  -6.920  1.00  0.00     0.031 C 
ATOM     25  C   UNL     1       4.436  -5.900  -3.844  1.00  0.00     0.029 A 
ATOM     26  C   UNL     1       5.198  -6.141  -5.067  1.00  0.00     0.049 A 
ATOM     27  H   UNL     1       6.162  -4.724  -6.251  1.00  0.00     0.167 HD
ATOM     28  C   UNL     1       7.893  -1.449  -8.756  1.00  0.00     0.031 A 
ATOM     29  C   UNL     1       5.415  -7.337  -5.648  1.00  0.00     0.031 A 
ATOM     30  C   UNL     1       8.183  -2.673  -9.444  1.00  0.00     0.049 A 
ATOM     31  C   UNL     1       6.152  -7.355  -6.966  1.00  0.00     0.074 A 
ATOM     32  C   UNL     1       8.892  -2.862 -10.614  1.00  0.00     0.029 A 
ATOM     33  N   UNL     1       7.763  -3.924  -9.013  1.00  0.00    -0.354 N 
ATOM     34  N   UNL     1       6.698  -6.356  -7.622  1.00  0.00    -0.248 NA
ATOM     35  C   UNL     1       6.279  -8.655  -7.638  1.00  0.00     0.031 C 
ATOM     36  C   UNL     1       8.846  -4.224 -10.924  1.00  0.00     0.029 A 
ATOM     37  C   UNL     1       8.163  -4.889  -9.915  1.00  0.00     0.049 A 
ATOM     38  H   UNL     1       7.255  -4.097  -8.188  1.00  0.00     0.167 HD
ATOM     39  C   UNL     1       7.241  -6.906  -8.774  1.00  0.00     0.074 A 
ATOM     40  C   UNL     1       6.982  -8.332  -8.715  1.00  0.00     0.031 C 
ATOM     41  C   UNL     1       7.886  -6.298  -9.801  1.00  0.00     0.031 A 
BRANCH  28  42
ATOM     42  C   UNL     1       8.329  -0.142  -9.350  1.00  0.00    -0.014 A 
ATOM     43  C   UNL     1       9.336   0.641  -8.767  1.00  0.00     0.009 A 
ATOM     44  C   UNL     1       7.695   0.321 -10.514  1.00  0.00     0.009 A 
ATOM     45  C   UNL     1       9.677   1.878  -9.322  1.00  0.00     0.001 A 
ATOM     46  C   UNL     1       8.055   1.544 -11.080  1.00  0.00     0.001 A 
ATOM     47  C   UNL     1       9.039   2.326 -10.479  1.00  0.00     0.000 A 
ENDBRANCH  28  42
BRANCH  29  48
ATOM     48  C   UNL     1       4.846  -8.586  -5.069  1.00  0.00    -0.014 A 
ATOM     49  C   UNL     1       5.676  -9.632  -4.636  1.00  0.00     0.009 A 
ATOM     50  C   UNL     1       3.453  -8.762  -4.993  1.00  0.00     0.009 A 
ATOM     51  C   UNL     1       5.126 -10.832  -4.171  1.00  0.00     0.001 A 
ATOM     52  C   UNL     1       2.906  -9.948  -4.497  1.00  0.00     0.001 A 
ATOM     53  C   UNL     1       3.742 -10.987  -4.098  1.00  0.00     0.000 A 
ENDBRANCH  29  48
BRANCH  41  54
ATOM     54  C   UNL     1       8.372  -7.173 -10.918  1.00  0.00    -0.014 A 
ATOM     55  C   UNL     1       7.480  -7.697 -11.864  1.00  0.00     0.009 A 
ATOM     56  C   UNL     1       9.749  -7.395 -11.072  1.00  0.00     0.009 A 
ATOM     57  C   UNL     1       7.960  -8.446 -12.939  1.00  0.00     0.001 A 
ATOM     58  C   UNL     1      10.227  -8.118 -12.164  1.00  0.00     0.001 A 
ATOM     59  C   UNL     1       9.332  -8.647 -13.092  1.00  0.00     0.000 A 
ENDBRANCH  41  54
ENDBRANCH  15  16
ENDBRANCH   8  10
ENDBRANCH   7   8
ENDBRANCH   6   7
ENDBRANCH   5   6
ENDBRANCH   4   5
ENDBRANCH   3   4
ENDBRANCH   2   3
ENDBRANCH   1   2
BRANCH   1  60
ATOM     60  C   UNL     1       4.769  -1.541   2.046  1.00  0.00     0.188 C 
BRANCH  60  61
ATOM     61  C   UNL     1       4.330  -2.580   0.989  1.00  0.00     0.188 C 
BRANCH  61  62
ATOM     62  O   UNL     1       3.028  -3.109   1.201  1.00  0.00    -0.376 OA
BRANCH  62  63
ATOM     63  C   UNL     1       2.910  -4.512   1.437  1.00  0.00     0.202 C 
BRANCH  63  64
ATOM     64  C   UNL     1       2.328  -4.848   2.970  1.00  0.00     0.261 C 
BRANCH  64  65
ATOM     65  O   UNL     1       3.352  -5.281   4.677  1.00  0.00    -0.458 OA
BRANCH  65  66
ATOM     66  C   UNL     1       4.285  -5.239   5.776  1.00  0.00     0.359 C 
ATOM     67  O   UNL     1       4.592  -6.271   6.370  1.00  0.00    -0.244 OA
BRANCH  66  68
ATOM     68  C   UNL     1       4.890  -3.941   6.275  1.00  0.00     0.179 A 
ATOM     69  N   UNL     1       4.162  -3.482   7.359  1.00  0.00    -0.245 NA
ATOM     70  C   UNL     1       5.981  -3.207   5.773  1.00  0.00     0.161 A 
ATOM     71  C   UNL     1       4.535  -2.311   7.914  1.00  0.00     0.132 A 
ATOM     72  N   UNL     1       6.290  -1.992   6.356  1.00  0.00    -0.247 NA
ATOM     73  C   UNL     1       5.575  -1.571   7.414  1.00  0.00     0.132 A 
BRANCH  70  74
ATOM     74  C   UNL     1       7.002  -3.463   4.676  1.00  0.00     0.278 C 
ATOM     75  O   UNL     1       8.084  -2.860   4.738  1.00  0.00    -0.267 OA
ATOM     76  N   UNL     1       6.900  -4.306   3.607  1.00  0.00    -0.303 N 
ATOM     77  H   UNL     1       7.740  -4.451   3.115  1.00  0.00     0.172 HD
BRANCH  76  78
ATOM     78  C   UNL     1       5.833  -4.974   3.114  1.00  0.00     0.164 A 
ATOM     79  N   UNL     1       6.047  -6.127   2.461  1.00  0.00    -0.155 NA
ATOM     80  C   UNL     1       4.484  -4.665   3.317  1.00  0.00     0.063 A 
ATOM     81  N   UNL     1       4.971  -6.940   2.676  1.00  0.00    -0.259 N 
ATOM     82  C   UNL     1       3.896  -6.317   3.227  1.00  0.00     0.157 A 
ATOM     83  C   UNL     1       3.428  -3.433   4.149  1.00  0.00     0.017 A 
ATOM     84  H   UNL     1       4.974  -7.899   2.451  1.00  0.00     0.192 HD
ATOM     85  N   UNL     1       2.462  -6.878   3.962  1.00  0.00    -0.237 NA
ATOM     86  C   UNL     1       1.939  -3.976   4.983  1.00  0.00     0.021 A 
ATOM     87  C   UNL     1       1.521  -5.667   4.830  1.00  0.00     0.113 A 
ENDBRANCH  76  78
ENDBRANCH  70  74
ENDBRANCH  66  68
ENDBRANCH  65  66
ENDBRANCH  64  65
ENDBRANCH  63  64
ENDBRANCH  62  63
ENDBRANCH  61  62
ENDBRANCH  60  61
ENDBRANCH   1  60
TORSDOF 22
