REMARK SMILES O=C(OCCOCCOCCOCCOC(=O)[C@@H]1CS[C@@H](c2cc(Br)ccc2O)[NH2+]1)c1ccc(-c2c3nc(c(-c4ccccc4)c4ccc([nH]4)c(-c4ccccc4)c4nc(c(-c5ccccc5)c5ccc2[nH]5)C=C4)C=C3)cc1
REMARK SMILES IDX 9 1 8 2 7 3 6 4 5 5 4 6 3 7 2 8 1 9 31 10 32 11 78 12 33 13
REMARK SMILES IDX 77 14 34 15 35 16 36 17 71 18 37 19 76 20 70 21 72 22 38 23
REMARK SMILES IDX 75 24 69 25 68 26 39 28 61 29 46 30 60 31 47 32 50 33 59 34
REMARK SMILES IDX 73 35 48 36 49 37 58 39 74 40 51 41 40 42 41 43 45 44 42 45
REMARK SMILES IDX 44 46 43 47 62 48 63 49 67 50 64 51 66 52 65 53 52 54 53 55
REMARK SMILES IDX 57 56 54 57 56 58 55 59 10 60 11 61 12 62 13 63 14 64 15 65
REMARK SMILES IDX 16 66 17 67 18 68 19 69 30 70 20 71 21 72 22 75 23 76 28 77
REMARK SMILES IDX 24 78 27 79 25 80 26 81 29 82
REMARK H PARENT 72 27 50 38 30 73 30 74 29 83
REMARK Flexibility Score: inf
ROOT
ATOM      1  O   UNL     1       5.855  -2.581   0.661  1.00  0.00    -0.377 OA
ENDROOT
BRANCH   1   2
ATOM      2  C   UNL     1       6.550  -2.153   1.822  1.00  0.00     0.188 C 
BRANCH   2   3
ATOM      3  C   UNL     1       6.022  -2.681   3.157  1.00  0.00     0.188 C 
BRANCH   3   4
ATOM      4  O   UNL     1       6.325  -4.066   3.343  1.00  0.00    -0.376 OA
BRANCH   4   5
ATOM      5  C   UNL     1       5.292  -4.901   3.873  1.00  0.00     0.202 C 
BRANCH   5   6
ATOM      6  C   UNL     1       4.963  -4.721   5.354  1.00  0.00     0.261 C 
BRANCH   6   7
ATOM      7  O   UNL     1       5.154  -3.385   5.827  1.00  0.00    -0.460 OA
BRANCH   7   8
ATOM      8  C   UNL     1       6.299  -2.800   6.251  1.00  0.00     0.338 C 
ATOM      9  O   UNL     1       6.230  -1.638   6.650  1.00  0.00    -0.246 OA
BRANCH   8  10
ATOM     10  C   UNL     1       7.659  -3.437   6.208  1.00  0.00     0.060 A 
ATOM     11  C   UNL     1       8.003  -4.614   5.537  1.00  0.00     0.016 A 
ATOM     12  C   UNL     1       8.692  -2.738   6.857  1.00  0.00     0.016 A 
ATOM     13  C   UNL     1       9.302  -5.085   5.482  1.00  0.00     0.010 A 
ATOM     14  C   UNL     1       9.997  -3.230   6.867  1.00  0.00     0.010 A 
ATOM     15  C   UNL     1      10.285  -4.423   6.197  1.00  0.00    -0.014 A 
BRANCH  15  16
ATOM     16  C   UNL     1      11.496  -5.186   6.497  1.00  0.00     0.031 A 
ATOM     17  C   UNL     1      11.504  -5.926   7.796  1.00  0.00     0.074 A 
ATOM     18  C   UNL     1      12.464  -5.317   5.581  1.00  0.00     0.049 A 
ATOM     19  N   UNL     1      12.484  -6.530   8.402  1.00  0.00    -0.248 NA
ATOM     20  C   UNL     1      10.214  -5.996   8.511  1.00  0.00     0.031 C 
ATOM     21  C   UNL     1      12.412  -4.797   4.214  1.00  0.00     0.029 A 
ATOM     22  N   UNL     1      13.676  -5.937   5.666  1.00  0.00    -0.354 N 
ATOM     23  C   UNL     1      11.946  -6.992   9.596  1.00  0.00     0.074 A 
ATOM     24  C   UNL     1      10.552  -6.626   9.621  1.00  0.00     0.031 C 
ATOM     25  C   UNL     1      13.565  -5.098   3.594  1.00  0.00     0.029 A 
ATOM     26  C   UNL     1      14.452  -5.750   4.551  1.00  0.00     0.049 A 
ATOM     27  H   UNL     1      13.964  -6.464   6.447  1.00  0.00     0.167 HD
ATOM     28  C   UNL     1      12.591  -7.630  10.596  1.00  0.00     0.031 A 
ATOM     29  C   UNL     1      15.758  -6.014   4.376  1.00  0.00     0.031 A 
ATOM     30  C   UNL     1      13.991  -7.935  10.519  1.00  0.00     0.049 A 
ATOM     31  C   UNL     1      16.500  -6.614   5.540  1.00  0.00     0.074 A 
ATOM     32  C   UNL     1      14.815  -8.501  11.469  1.00  0.00     0.029 A 
ATOM     33  N   UNL     1      14.773  -7.680   9.396  1.00  0.00    -0.354 N 
ATOM     34  N   UNL     1      16.036  -6.956   6.722  1.00  0.00    -0.248 NA
ATOM     35  C   UNL     1      17.936  -6.849   5.364  1.00  0.00     0.031 C 
ATOM     36  C   UNL     1      16.110  -8.533  10.938  1.00  0.00     0.029 A 
ATOM     37  C   UNL     1      16.078  -8.056   9.633  1.00  0.00     0.049 A 
ATOM     38  H   UNL     1      14.443  -7.288   8.556  1.00  0.00     0.167 HD
ATOM     39  C   UNL     1      17.114  -7.471   7.425  1.00  0.00     0.074 A 
ATOM     40  C   UNL     1      18.257  -7.396   6.530  1.00  0.00     0.031 C 
ATOM     41  C   UNL     1      17.166  -7.965   8.688  1.00  0.00     0.031 A 
BRANCH  28  42
ATOM     42  C   UNL     1      11.809  -7.875  11.855  1.00  0.00    -0.014 A 
ATOM     43  C   UNL     1      10.734  -8.779  11.905  1.00  0.00     0.009 A 
ATOM     44  C   UNL     1      12.086  -7.094  12.988  1.00  0.00     0.009 A 
ATOM     45  C   UNL     1       9.918  -8.847  13.039  1.00  0.00     0.001 A 
ATOM     46  C   UNL     1      11.291  -7.189  14.132  1.00  0.00     0.001 A 
ATOM     47  C   UNL     1      10.196  -8.051  14.150  1.00  0.00     0.000 A 
ENDBRANCH  28  42
BRANCH  29  48
ATOM     48  C   UNL     1      16.427  -5.625   3.107  1.00  0.00    -0.014 A 
ATOM     49  C   UNL     1      16.893  -6.591   2.206  1.00  0.00     0.009 A 
ATOM     50  C   UNL     1      16.548  -4.267   2.760  1.00  0.00     0.009 A 
ATOM     51  C   UNL     1      17.469  -6.207   0.990  1.00  0.00     0.001 A 
ATOM     52  C   UNL     1      17.097  -3.886   1.534  1.00  0.00     0.001 A 
ATOM     53  C   UNL     1      17.562  -4.857   0.651  1.00  0.00     0.000 A 
ENDBRANCH  29  48
BRANCH  41  54
ATOM     54  C   UNL     1      18.481  -8.517   9.147  1.00  0.00    -0.014 A 
ATOM     55  C   UNL     1      19.532  -7.674   9.531  1.00  0.00     0.009 A 
ATOM     56  C   UNL     1      18.614  -9.906   9.303  1.00  0.00     0.009 A 
ATOM     57  C   UNL     1      20.704  -8.218  10.056  1.00  0.00     0.001 A 
ATOM     58  C   UNL     1      19.774 -10.442   9.856  1.00  0.00     0.001 A 
ATOM     59  C   UNL     1      20.819  -9.598  10.228  1.00  0.00     0.000 A 
ENDBRANCH  41  54
ENDBRANCH  15  16
ENDBRANCH   8  10
ENDBRANCH   7   8
ENDBRANCH   6   7
ENDBRANCH   5   6
ENDBRANCH   4   5
ENDBRANCH   3   4
ENDBRANCH   2   3
ENDBRANCH   1   2
BRANCH   1  60
ATOM     60  C   UNL     1       5.345  -3.902   0.684  1.00  0.00     0.188 C 
BRANCH  60  61
ATOM     61  C   UNL     1       6.355  -5.079   0.695  1.00  0.00     0.188 C 
BRANCH  61  62
ATOM     62  O   UNL     1       7.698  -4.669   0.825  1.00  0.00    -0.376 OA
BRANCH  62  63
ATOM     63  C   UNL     1       8.398  -4.336  -0.366  1.00  0.00     0.202 C 
BRANCH  63  64
ATOM     64  C   UNL     1       7.676  -3.745  -1.599  1.00  0.00     0.261 C 
BRANCH  64  65
ATOM     65  O   UNL     1       6.384  -4.289  -1.956  1.00  0.00    -0.459 OA
BRANCH  65  66
ATOM     66  C   UNL     1       6.348  -5.496  -2.595  1.00  0.00     0.365 C 
ATOM     67  O   UNL     1       7.348  -6.108  -2.909  1.00  0.00    -0.245 OA
BRANCH  66  68
ATOM     68  C   UNL     1       4.873  -5.912  -2.906  1.00  0.00     0.304 C 
ATOM     69  C   UNL     1       3.846  -5.640  -1.799  1.00  0.00     0.153 C 
ATOM     70  N   UNL     1       4.813  -7.363  -3.242  1.00  0.00    -0.319 N 
ATOM     71  S   UNL     1       2.873  -7.134  -1.626  1.00  0.00    -0.087 SA
ATOM     72  C   UNL     1       4.340  -8.101  -2.059  1.00  0.00     0.278 C 
ATOM     73  H   UNL     1       5.742  -7.694  -3.504  1.00  0.00     0.348 HD
ATOM     74  H   UNL     1       4.176  -7.514  -4.024  1.00  0.00     0.348 HD
BRANCH  72  75
ATOM     75  C   UNL     1       4.125  -9.572  -2.326  1.00  0.00     0.063 A 
ATOM     76  C   UNL     1       2.921 -10.240  -2.034  1.00  0.00     0.030 A 
ATOM     77  C   UNL     1       5.178 -10.337  -2.853  1.00  0.00     0.125 A 
ATOM     78  C   UNL     1       2.754 -11.583  -2.369  1.00  0.00     0.018 A 
ATOM     79  C   UNL     1       5.005 -11.670  -3.215  1.00  0.00     0.048 A 
ATOM     80  Br  UNL     1       1.117 -12.445  -1.979  1.00  0.00    -0.051 Br
ATOM     81  C   UNL     1       3.780 -12.291  -2.987  1.00  0.00     0.019 A 
BRANCH  77  82
ATOM     82  O   UNL     1       6.411  -9.762  -2.977  1.00  0.00    -0.507 OA
ATOM     83  H   UNL     1       6.537  -8.866  -2.736  1.00  0.00     0.293 HD
ENDBRANCH  77  82
ENDBRANCH  72  75
ENDBRANCH  66  68
ENDBRANCH  65  66
ENDBRANCH  64  65
ENDBRANCH  63  64
ENDBRANCH  62  63
ENDBRANCH  61  62
ENDBRANCH  60  61
ENDBRANCH   1  60
TORSDOF 22
