REMARK SMILES CS(=O)(=O)c1ccc(C2=NN(c3ccc(C(=O)OCCOCCOCCOCCOC(=O)c4ccc(-c5c6nc(c(-c7ccccc7)c7ccc([nH]7)c(-c7ccccc7)c7nc(c(-c8ccccc8)c8ccc5[nH]8)C=C7)C=C6)cc4)cc3)[C@H](c3ccccc3)C2)cc1
REMARK SMILES IDX 23 1 22 2 21 3 20 4 19 5 18 6 16 7 17 8 15 9 12 10 13 11
REMARK SMILES IDX 82 12 14 13 81 14 11 15 9 16 10 17 90 18 83 19 8 20 5 21
REMARK SMILES IDX 6 22 92 23 7 24 91 25 2 26 1 27 3 28 4 29 84 30 85 31 89 32
REMARK SMILES IDX 86 33 88 34 87 35 24 36 25 37 26 38 27 39 28 40 29 41 30 42
REMARK SMILES IDX 31 43 32 44 33 45 34 46 80 47 35 48 79 49 36 50 37 51 38 52
REMARK SMILES IDX 73 53 39 54 78 55 72 56 74 57 40 58 77 59 71 60 70 61 41 63
REMARK SMILES IDX 63 64 48 65 62 66 49 67 52 68 61 69 75 70 50 71 51 72 60 74
REMARK SMILES IDX 76 75 53 76 42 77 43 78 47 79 44 80 46 81 45 82 64 83 65 84
REMARK SMILES IDX 69 85 66 86 68 87 67 88 54 89 55 90 59 91 56 92 58 93 57 94
REMARK H PARENT 74 62 52 73
REMARK Flexibility Score: inf
ROOT
ATOM      1  C   UNL     1       2.288   2.243 -13.658  1.00  0.00     0.188 C 
ENDROOT
BRANCH   1   2
ATOM      2  C   UNL     1       1.202   3.054 -14.394  1.00  0.00     0.188 C 
BRANCH   2   3
ATOM      3  O   UNL     1       1.538   3.349 -15.739  1.00  0.00    -0.376 OA
BRANCH   3   4
ATOM      4  C   UNL     1       1.929   4.660 -16.098  1.00  0.00     0.202 C 
BRANCH   4   5
ATOM      5  C   UNL     1       3.083   5.361 -15.365  1.00  0.00     0.261 C 
BRANCH   5   6
ATOM      6  O   UNL     1       3.174   5.133 -13.959  1.00  0.00    -0.460 OA
BRANCH   6   7
ATOM      7  C   UNL     1       2.303   5.786 -13.161  1.00  0.00     0.338 C 
ATOM      8  O   UNL     1       1.459   6.592 -13.513  1.00  0.00    -0.246 OA
BRANCH   7   9
ATOM      9  C   UNL     1       2.425   5.231 -11.788  1.00  0.00     0.060 A 
ATOM     10  C   UNL     1       2.619   4.294  -9.149  1.00  0.00     0.060 A 
ATOM     11  C   UNL     1       1.380   4.680  -9.671  1.00  0.00     0.029 A 
ATOM     12  C   UNL     1       3.726   4.251 -10.007  1.00  0.00     0.029 A 
ATOM     13  C   UNL     1       1.281   5.154 -10.984  1.00  0.00     0.018 A 
ATOM     14  C   UNL     1       3.643   4.737 -11.310  1.00  0.00     0.018 A 
BRANCH  10  15
ATOM     15  N   UNL     1       2.818   4.123  -7.777  1.00  0.00    -0.257 N 
ATOM     16  C   UNL     1       2.137   3.468  -5.870  1.00  0.00     0.071 C 
ATOM     17  N   UNL     1       2.232   3.098  -7.111  1.00  0.00    -0.176 NA
ATOM     18  C   UNL     1       2.506   4.899  -5.586  1.00  0.00     0.091 C 
ATOM     19  C   UNL     1       3.092   5.308  -6.945  1.00  0.00     0.144 C 
BRANCH  16  20
ATOM     20  C   UNL     1       1.700   2.554  -4.797  1.00  0.00    -0.002 A 
ATOM     21  C   UNL     1       0.911   0.744  -2.829  1.00  0.00     0.067 A 
ATOM     22  C   UNL     1       1.731   0.312  -3.874  1.00  0.00     0.021 A 
ATOM     23  C   UNL     1       0.481   2.075  -2.761  1.00  0.00     0.021 A 
ATOM     24  C   UNL     1       2.116   1.219  -4.863  1.00  0.00     0.011 A 
ATOM     25  C   UNL     1       0.891   2.988  -3.741  1.00  0.00     0.011 A 
BRANCH  21  26
ATOM     26  S   UNL     1       0.331  -0.429  -1.622  1.00  0.00     0.175 S 
ATOM     27  C   UNL     1       1.036   0.121  -0.092  1.00  0.00     0.163 C 
ATOM     28  O   UNL     1       0.926  -1.715  -1.935  1.00  0.00    -0.224 OA
ATOM     29  O   UNL     1      -1.107  -0.269  -1.543  1.00  0.00    -0.224 OA
ENDBRANCH  21  26
ENDBRANCH  16  20
BRANCH  19  30
ATOM     30  C   UNL     1       4.571   5.678  -7.010  1.00  0.00    -0.023 A 
ATOM     31  C   UNL     1       5.525   5.266  -6.071  1.00  0.00     0.006 A 
ATOM     32  C   UNL     1       5.030   6.410  -8.126  1.00  0.00     0.006 A 
ATOM     33  C   UNL     1       6.883   5.554  -6.254  1.00  0.00     0.000 A 
ATOM     34  C   UNL     1       6.388   6.649  -8.338  1.00  0.00     0.000 A 
ATOM     35  C   UNL     1       7.316   6.222  -7.397  1.00  0.00     0.000 A 
ENDBRANCH  19  30
ENDBRANCH  10  15
ENDBRANCH   7   9
ENDBRANCH   6   7
ENDBRANCH   5   6
ENDBRANCH   4   5
ENDBRANCH   3   4
ENDBRANCH   2   3
ENDBRANCH   1   2
BRANCH   1  36
ATOM     36  O   UNL     1       3.577   2.197 -14.251  1.00  0.00    -0.377 OA
BRANCH  36  37
ATOM     37  C   UNL     1       3.730   1.674 -15.570  1.00  0.00     0.188 C 
BRANCH  37  38
ATOM     38  C   UNL     1       2.608   0.895 -16.304  1.00  0.00     0.188 C 
BRANCH  38  39
ATOM     39  O   UNL     1       1.548   0.445 -15.480  1.00  0.00    -0.376 OA
BRANCH  39  40
ATOM     40  C   UNL     1       1.468  -0.936 -15.182  1.00  0.00     0.202 C 
BRANCH  40  41
ATOM     41  C   UNL     1       2.625  -1.542 -14.377  1.00  0.00     0.261 C 
BRANCH  41  42
ATOM     42  O   UNL     1       3.942  -1.324 -14.905  1.00  0.00    -0.460 OA
BRANCH  42  43
ATOM     43  C   UNL     1       4.241  -1.906 -16.084  1.00  0.00     0.338 C 
ATOM     44  O   UNL     1       3.516  -2.611 -16.769  1.00  0.00    -0.246 OA
BRANCH  43  45
ATOM     45  C   UNL     1       5.558  -1.394 -16.511  1.00  0.00     0.060 A 
ATOM     46  C   UNL     1       5.658  -0.670 -17.707  1.00  0.00     0.016 A 
ATOM     47  C   UNL     1       6.687  -1.618 -15.720  1.00  0.00     0.016 A 
ATOM     48  C   UNL     1       6.900  -0.197 -18.133  1.00  0.00     0.010 A 
ATOM     49  C   UNL     1       7.932  -1.163 -16.158  1.00  0.00     0.010 A 
ATOM     50  C   UNL     1       8.049  -0.480 -17.383  1.00  0.00    -0.014 A 
BRANCH  50  51
ATOM     51  C   UNL     1       9.390  -0.242 -17.966  1.00  0.00     0.031 A 
ATOM     52  C   UNL     1      10.111  -1.404 -18.592  1.00  0.00     0.074 A 
ATOM     53  C   UNL     1       9.957   0.977 -17.953  1.00  0.00     0.049 A 
ATOM     54  N   UNL     1      11.310  -1.456 -19.114  1.00  0.00    -0.248 NA
ATOM     55  C   UNL     1       9.380  -2.682 -18.631  1.00  0.00     0.031 C 
ATOM     56  C   UNL     1       9.344   2.193 -17.422  1.00  0.00     0.029 A 
ATOM     57  N   UNL     1      11.190   1.386 -18.398  1.00  0.00    -0.354 N 
ATOM     58  C   UNL     1      11.479  -2.771 -19.531  1.00  0.00     0.074 A 
ATOM     59  C   UNL     1      10.276  -3.490 -19.175  1.00  0.00     0.031 C 
ATOM     60  C   UNL     1      10.209   3.213 -17.566  1.00  0.00     0.029 A 
ATOM     61  C   UNL     1      11.448   2.713 -18.160  1.00  0.00     0.049 A 
ATOM     62  H   UNL     1      11.828   0.784 -18.846  1.00  0.00     0.167 HD
ATOM     63  C   UNL     1      12.540  -3.330 -20.159  1.00  0.00     0.031 A 
ATOM     64  C   UNL     1      12.566   3.434 -18.375  1.00  0.00     0.031 A 
ATOM     65  C   UNL     1      13.745  -2.620 -20.494  1.00  0.00     0.049 A 
ATOM     66  C   UNL     1      13.770   2.767 -18.991  1.00  0.00     0.074 A 
ATOM     67  C   UNL     1      14.872  -3.095 -21.142  1.00  0.00     0.029 A 
ATOM     68  N   UNL     1      13.983  -1.288 -20.198  1.00  0.00    -0.354 N 
ATOM     69  N   UNL     1      13.911   1.531 -19.406  1.00  0.00    -0.248 NA
ATOM     70  C   UNL     1      14.967   3.600 -19.174  1.00  0.00     0.031 C 
ATOM     71  C   UNL     1      15.819  -2.067 -21.176  1.00  0.00     0.029 A 
ATOM     72  C   UNL     1      15.253  -0.931 -20.619  1.00  0.00     0.049 A 
ATOM     73  H   UNL     1      13.345  -0.684 -19.754  1.00  0.00     0.167 HD
ATOM     74  C   UNL     1      15.196   1.448 -19.929  1.00  0.00     0.074 A 
ATOM     75  C   UNL     1      15.788   2.763 -19.792  1.00  0.00     0.031 C 
ATOM     76  C   UNL     1      15.829   0.382 -20.477  1.00  0.00     0.031 A 
BRANCH  63  77
ATOM     77  C   UNL     1      12.459  -4.797 -20.481  1.00  0.00    -0.014 A 
ATOM     78  C   UNL     1      11.584  -5.285 -21.465  1.00  0.00     0.009 A 
ATOM     79  C   UNL     1      13.292  -5.703 -19.806  1.00  0.00     0.009 A 
ATOM     80  C   UNL     1      11.520  -6.653 -21.739  1.00  0.00     0.001 A 
ATOM     81  C   UNL     1      13.250  -7.065 -20.105  1.00  0.00     0.001 A 
ATOM     82  C   UNL     1      12.357  -7.541 -21.064  1.00  0.00     0.000 A 
ENDBRANCH  63  77
BRANCH  64  83
ATOM     83  C   UNL     1      12.619   4.869 -17.983  1.00  0.00    -0.014 A 
ATOM     84  C   UNL     1      12.722   5.876 -18.955  1.00  0.00     0.009 A 
ATOM     85  C   UNL     1      12.600   5.237 -16.628  1.00  0.00     0.009 A 
ATOM     86  C   UNL     1      12.832   7.217 -18.578  1.00  0.00     0.001 A 
ATOM     87  C   UNL     1      12.677   6.581 -16.255  1.00  0.00     0.001 A 
ATOM     88  C   UNL     1      12.805   7.568 -17.230  1.00  0.00     0.000 A 
ENDBRANCH  64  83
BRANCH  76  89
ATOM     89  C   UNL     1      17.218   0.599 -21.015  1.00  0.00    -0.014 A 
ATOM     90  C   UNL     1      18.311   0.821 -20.164  1.00  0.00     0.009 A 
ATOM     91  C   UNL     1      17.441   0.532 -22.401  1.00  0.00     0.009 A 
ATOM     92  C   UNL     1      19.591   1.008 -20.691  1.00  0.00     0.001 A 
ATOM     93  C   UNL     1      18.727   0.684 -22.922  1.00  0.00     0.001 A 
ATOM     94  C   UNL     1      19.799   0.933 -22.068  1.00  0.00     0.000 A 
ENDBRANCH  76  89
ENDBRANCH  50  51
ENDBRANCH  43  45
ENDBRANCH  42  43
ENDBRANCH  41  42
ENDBRANCH  40  41
ENDBRANCH  39  40
ENDBRANCH  38  39
ENDBRANCH  37  38
ENDBRANCH  36  37
ENDBRANCH   1  36
TORSDOF 24
