REMARK SMILES Cc1ccc2c(c1)C=C(C(=O)OCCOCCOCCOCCOC(=O)c1ccc(-c3c4nc(c(-c5ccccc5)c5ccc([nH]5)c(-c5ccccc5)c5nc(c(-c6ccccc6)c6ccc3[nH]6)C=C5)C=C4)cc1)[C@@H](C(F)(F)F)O2
REMARK SMILES IDX 19 1 18 2 17 3 16 4 15 5 14 6 13 7 12 8 10 9 11 10 9 11 1 12
REMARK SMILES IDX 2 13 3 14 7 15 4 16 6 17 5 18 8 19 80 20 75 21 76 22 77 23
REMARK SMILES IDX 78 24 79 25 20 26 21 27 22 28 23 29 24 30 25 31 26 32 27 33
REMARK SMILES IDX 28 34 74 35 29 36 73 37 30 38 31 39 32 40 67 41 33 42 72 43
REMARK SMILES IDX 66 44 68 45 34 46 71 47 65 48 64 49 35 51 57 52 42 53 56 54
REMARK SMILES IDX 43 55 46 56 55 57 69 58 44 59 45 60 54 62 70 63 47 64 36 65
REMARK SMILES IDX 37 66 41 67 38 68 40 69 39 70 58 71 59 72 63 73 60 74 62 75
REMARK SMILES IDX 61 76 48 77 49 78 53 79 50 80 52 81 51 82
REMARK H PARENT 68 50 46 61
REMARK Flexibility Score: inf
ROOT
ATOM      1  C   UNL     1       3.316   7.971   5.837  1.00  0.00     0.188 C 
ENDROOT
BRANCH   1   2
ATOM      2  O   UNL     1       2.299   7.138   5.278  1.00  0.00    -0.377 OA
BRANCH   2   3
ATOM      3  C   UNL     1       2.631   6.400   4.111  1.00  0.00     0.188 C 
BRANCH   3   4
ATOM      4  C   UNL     1       2.461   7.228   2.823  1.00  0.00     0.188 C 
BRANCH   4   5
ATOM      5  O   UNL     1       2.293   8.619   3.082  1.00  0.00    -0.376 OA
BRANCH   5   6
ATOM      6  C   UNL     1       0.974   9.148   3.050  1.00  0.00     0.202 C 
BRANCH   6   7
ATOM      7  C   UNL     1      -0.064   8.609   4.049  1.00  0.00     0.261 C 
BRANCH   7   8
ATOM      8  O   UNL     1      -0.233   7.184   4.064  1.00  0.00    -0.460 OA
BRANCH   8   9
ATOM      9  C   UNL     1      -0.767   6.599   2.975  1.00  0.00     0.338 C 
ATOM     10  O   UNL     1      -1.182   7.159   1.977  1.00  0.00    -0.246 OA
BRANCH   9  11
ATOM     11  C   UNL     1      -0.610   5.134   3.128  1.00  0.00     0.087 C 
ATOM     12  C   UNL     1       1.079   0.053   0.063  1.00  0.00     0.044 C 
ATOM     13  C   UNL     1       0.599   0.865   1.230  1.00  0.00    -0.050 A 
ATOM     14  C   UNL     1       0.269   0.247   2.441  1.00  0.00     0.007 A 
ATOM     15  C   UNL     1       0.503   2.260   1.129  1.00  0.00     0.015 A 
ATOM     16  C   UNL     1      -0.158   1.012   3.529  1.00  0.00     0.047 A 
ATOM     17  C   UNL     1       0.040   3.025   2.207  1.00  0.00     0.017 A 
ATOM     18  C   UNL     1      -0.271   2.398   3.413  1.00  0.00     0.128 A 
ATOM     19  C   UNL     1      -0.159   4.458   2.064  1.00  0.00     0.027 C 
ATOM     20  O   UNL     1      -0.705   3.058   4.525  1.00  0.00    -0.475 OA
ATOM     21  C   UNL     1      -0.870   4.502   4.473  1.00  0.00     0.316 C 
BRANCH  21  22
ATOM     22  C   UNL     1      -2.269   4.837   5.013  1.00  0.00     0.430 C 
ATOM     23  F   UNL     1      -2.505   4.213   6.192  1.00  0.00    -0.167 F 
ATOM     24  F   UNL     1      -2.424   6.162   5.241  1.00  0.00    -0.167 F 
ATOM     25  F   UNL     1      -3.244   4.462   4.153  1.00  0.00    -0.167 F 
ENDBRANCH  21  22
ENDBRANCH   9  11
ENDBRANCH   8   9
ENDBRANCH   7   8
ENDBRANCH   6   7
ENDBRANCH   5   6
ENDBRANCH   4   5
ENDBRANCH   3   4
ENDBRANCH   2   3
ENDBRANCH   1   2
BRANCH   1  26
ATOM     26  C   UNL     1       4.450   8.560   4.965  1.00  0.00     0.188 C 
BRANCH  26  27
ATOM     27  O   UNL     1       5.085   7.603   4.120  1.00  0.00    -0.376 OA
BRANCH  27  28
ATOM     28  C   UNL     1       6.403   7.204   4.471  1.00  0.00     0.202 C 
BRANCH  28  29
ATOM     29  C   UNL     1       6.463   6.204   5.631  1.00  0.00     0.261 C 
BRANCH  29  30
ATOM     30  O   UNL     1       5.958   6.695   6.882  1.00  0.00    -0.460 OA
BRANCH  30  31
ATOM     31  C   UNL     1       6.547   7.790   7.410  1.00  0.00     0.338 C 
ATOM     32  O   UNL     1       7.524   8.381   6.983  1.00  0.00    -0.246 OA
BRANCH  31  33
ATOM     33  C   UNL     1       5.677   8.284   8.498  1.00  0.00     0.060 A 
ATOM     34  C   UNL     1       5.193   7.406   9.472  1.00  0.00     0.016 A 
ATOM     35  C   UNL     1       5.324   9.639   8.526  1.00  0.00     0.016 A 
ATOM     36  C   UNL     1       4.393   7.897  10.504  1.00  0.00     0.010 A 
ATOM     37  C   UNL     1       4.521  10.130   9.559  1.00  0.00     0.010 A 
ATOM     38  C   UNL     1       4.080   9.267  10.574  1.00  0.00    -0.014 A 
BRANCH  38  39
ATOM     39  C   UNL     1       3.507   9.813  11.827  1.00  0.00     0.031 A 
ATOM     40  C   UNL     1       2.062  10.174  11.968  1.00  0.00     0.074 A 
ATOM     41  C   UNL     1       4.349   9.973  12.866  1.00  0.00     0.049 A 
ATOM     42  N   UNL     1       1.414  10.523  13.051  1.00  0.00    -0.248 NA
ATOM     43  C   UNL     1       1.240  10.151  10.751  1.00  0.00     0.031 C 
ATOM     44  C   UNL     1       5.786   9.691  12.827  1.00  0.00     0.029 A 
ATOM     45  N   UNL     1       4.124  10.388  14.153  1.00  0.00    -0.354 N 
ATOM     46  C   UNL     1       0.102  10.739  12.656  1.00  0.00     0.074 A 
ATOM     47  C   UNL     1       0.057  10.529  11.223  1.00  0.00     0.031 C 
ATOM     48  C   UNL     1       6.305   9.899  14.044  1.00  0.00     0.029 A 
ATOM     49  C   UNL     1       5.248  10.351  14.942  1.00  0.00     0.049 A 
ATOM     50  H   UNL     1       3.243  10.682  14.480  1.00  0.00     0.167 HD
ATOM     51  C   UNL     1      -0.963  11.067  13.428  1.00  0.00     0.031 A 
ATOM     52  C   UNL     1       5.414  10.631  16.248  1.00  0.00     0.031 A 
ATOM     53  C   UNL     1      -0.897  11.302  14.850  1.00  0.00     0.049 A 
ATOM     54  C   UNL     1       4.222  11.016  17.072  1.00  0.00     0.074 A 
ATOM     55  C   UNL     1      -1.936  11.587  15.721  1.00  0.00     0.029 A 
ATOM     56  N   UNL     1       0.265  11.298  15.607  1.00  0.00    -0.354 N 
ATOM     57  N   UNL     1       2.967  11.117  16.706  1.00  0.00    -0.248 NA
ATOM     58  C   UNL     1       4.462  11.304  18.493  1.00  0.00     0.031 C 
ATOM     59  C   UNL     1      -1.395  11.828  16.986  1.00  0.00     0.029 A 
ATOM     60  C   UNL     1      -0.027  11.614  16.925  1.00  0.00     0.049 A 
ATOM     61  H   UNL     1       1.165  11.100  15.260  1.00  0.00     0.167 HD
ATOM     62  C   UNL     1       2.264  11.461  17.853  1.00  0.00     0.074 A 
ATOM     63  C   UNL     1       3.230  11.529  18.931  1.00  0.00     0.031 C 
ATOM     64  C   UNL     1       0.938  11.698  17.993  1.00  0.00     0.031 A 
BRANCH  51  65
ATOM     65  C   UNL     1      -2.312  11.184  12.770  1.00  0.00    -0.014 A 
ATOM     66  C   UNL     1      -2.969  12.425  12.728  1.00  0.00     0.009 A 
ATOM     67  C   UNL     1      -2.991  10.044  12.313  1.00  0.00     0.009 A 
ATOM     68  C   UNL     1      -4.282  12.518  12.261  1.00  0.00     0.001 A 
ATOM     69  C   UNL     1      -4.295  10.145  11.820  1.00  0.00     0.001 A 
ATOM     70  C   UNL     1      -4.943  11.379  11.806  1.00  0.00     0.000 A 
ENDBRANCH  51  65
BRANCH  52  71
ATOM     71  C   UNL     1       6.765  10.489  16.850  1.00  0.00    -0.014 A 
ATOM     72  C   UNL     1       7.804  11.362  16.487  1.00  0.00     0.009 A 
ATOM     73  C   UNL     1       7.042   9.434  17.732  1.00  0.00     0.009 A 
ATOM     74  C   UNL     1       9.097  11.165  16.974  1.00  0.00     0.001 A 
ATOM     75  C   UNL     1       8.330   9.260  18.243  1.00  0.00     0.001 A 
ATOM     76  C   UNL     1       9.358  10.118  17.855  1.00  0.00     0.000 A 
ENDBRANCH  52  71
BRANCH  64  77
ATOM     77  C   UNL     1       0.432  12.059  19.364  1.00  0.00    -0.014 A 
ATOM     78  C   UNL     1      -0.424  11.180  20.048  1.00  0.00     0.009 A 
ATOM     79  C   UNL     1       0.728  13.303  19.943  1.00  0.00     0.009 A 
ATOM     80  C   UNL     1      -0.984  11.544  21.274  1.00  0.00     0.001 A 
ATOM     81  C   UNL     1       0.193  13.650  21.186  1.00  0.00     0.001 A 
ATOM     82  C   UNL     1      -0.670  12.776  21.844  1.00  0.00     0.000 A 
ENDBRANCH  64  77
ENDBRANCH  38  39
ENDBRANCH  31  33
ENDBRANCH  30  31
ENDBRANCH  29  30
ENDBRANCH  28  29
ENDBRANCH  27  28
ENDBRANCH  26  27
ENDBRANCH   1  26
TORSDOF 21
