REMARK SMILES Cc1c(CC(=O)OCCOCCOCCOCCOC(=O)c2ccc(-c3c4nc(c(-c5ccccc5)c5ccc([nH]5)c(-c5ccccc5)c5nc(c(-c6ccccc6)c6ccc3[nH]6)C=C5)C=C4)cc2)c2cc(O)ccc2n1C(=O)c1ccc(Cl)cc1
REMARK SMILES IDX 12 1 11 2 10 3 9 4 8 5 7 6 5 7 6 8 4 9 3 10 1 11 2 12 77 13
REMARK SMILES IDX 70 14 76 15 71 16 75 17 72 18 74 19 78 20 79 21 80 22 81 23
REMARK SMILES IDX 86 24 82 25 85 26 83 27 84 28 73 29 13 31 14 32 15 33 16 34
REMARK SMILES IDX 17 35 18 36 19 37 20 38 21 39 22 40 23 41 69 42 24 43 68 44
REMARK SMILES IDX 25 45 26 46 27 47 62 48 28 49 67 50 61 51 63 52 29 53 66 54
REMARK SMILES IDX 60 55 59 56 30 58 52 59 37 60 51 61 38 62 41 63 50 64 64 65
REMARK SMILES IDX 39 66 40 67 49 69 65 70 42 71 31 72 32 73 36 74 33 75 35 76
REMARK SMILES IDX 34 77 53 78 54 79 58 80 55 81 57 82 56 83 43 84 44 85 48 86
REMARK SMILES IDX 45 87 47 88 46 89
REMARK H PARENT 73 30 63 57 41 68
REMARK Flexibility Score: inf
ROOT
ATOM      1  C   UNL     1      -0.968  -3.503  -3.168  1.00  0.00     0.188 C 
ENDROOT
BRANCH   1   2
ATOM      2  C   UNL     1      -0.592  -4.981  -3.124  1.00  0.00     0.188 C 
BRANCH   2   3
ATOM      3  O   UNL     1      -0.674  -5.781  -1.952  1.00  0.00    -0.376 OA
BRANCH   3   4
ATOM      4  C   UNL     1      -1.571  -5.519  -0.899  1.00  0.00     0.202 C 
BRANCH   4   5
ATOM      5  C   UNL     1      -1.148  -4.468   0.146  1.00  0.00     0.261 C 
BRANCH   5   6
ATOM      6  O   UNL     1      -0.301  -3.402  -0.328  1.00  0.00    -0.463 OA
BRANCH   6   7
ATOM      7  C   UNL     1       1.037  -3.628  -0.299  1.00  0.00     0.310 C 
ATOM      8  O   UNL     1       1.535  -4.631   0.209  1.00  0.00    -0.252 OA
BRANCH   7   9
ATOM      9  C   UNL     1       1.919  -2.555  -0.934  1.00  0.00     0.160 C 
BRANCH   9  10
ATOM     10  C   UNL     1       1.317  -1.359  -1.652  1.00  0.00    -0.008 A 
ATOM     11  C   UNL     1       0.757   0.114   0.387  1.00  0.00     0.065 C 
ATOM     12  C   UNL     1       0.807  -0.200  -1.074  1.00  0.00     0.028 A 
ATOM     13  N   UNL     1       0.386   0.683  -2.085  1.00  0.00    -0.280 N 
ATOM     14  C   UNL     1       1.266  -1.157  -3.071  1.00  0.00     0.008 A 
ATOM     15  C   UNL     1       0.545   0.020  -3.315  1.00  0.00     0.057 A 
ATOM     16  C   UNL     1       1.693  -1.933  -4.179  1.00  0.00     0.056 A 
ATOM     17  C   UNL     1       0.154   0.350  -4.634  1.00  0.00     0.031 A 
ATOM     18  C   UNL     1       1.233  -1.624  -5.461  1.00  0.00     0.116 A 
ATOM     19  C   UNL     1       0.470  -0.499  -5.694  1.00  0.00     0.048 A 
BRANCH  13  20
ATOM     20  C   UNL     1      -0.076   2.025  -1.911  1.00  0.00     0.262 C 
ATOM     21  O   UNL     1      -0.050   2.533  -0.792  1.00  0.00    -0.268 OA
BRANCH  20  22
ATOM     22  C   UNL     1      -0.547   2.903  -2.999  1.00  0.00     0.040 A 
ATOM     23  C   UNL     1      -1.877   2.825  -3.434  1.00  0.00     0.015 A 
ATOM     24  C   UNL     1       0.361   3.767  -3.621  1.00  0.00     0.015 A 
ATOM     25  C   UNL     1      -2.276   3.564  -4.552  1.00  0.00     0.021 A 
ATOM     26  C   UNL     1      -0.048   4.509  -4.733  1.00  0.00     0.021 A 
ATOM     27  C   UNL     1      -1.357   4.390  -5.204  1.00  0.00     0.041 A 
ATOM     28  Cl  UNL     1      -1.833   5.246  -6.618  1.00  0.00    -0.084 Cl
ENDBRANCH  20  22
ENDBRANCH  13  20
BRANCH  18  29
ATOM     29  O   UNL     1       1.476  -2.522  -6.459  1.00  0.00    -0.508 OA
ATOM     30  H   UNL     1       1.995  -3.283  -6.289  1.00  0.00     0.293 HD
ENDBRANCH  18  29
ENDBRANCH   9  10
ENDBRANCH   7   9
ENDBRANCH   6   7
ENDBRANCH   5   6
ENDBRANCH   4   5
ENDBRANCH   3   4
ENDBRANCH   2   3
ENDBRANCH   1   2
BRANCH   1  31
ATOM     31  O   UNL     1      -2.199  -3.012  -3.615  1.00  0.00    -0.377 OA
BRANCH  31  32
ATOM     32  C   UNL     1      -3.360  -3.694  -3.281  1.00  0.00     0.188 C 
BRANCH  32  33
ATOM     33  C   UNL     1      -3.791  -4.712  -4.330  1.00  0.00     0.188 C 
BRANCH  33  34
ATOM     34  O   UNL     1      -3.507  -4.538  -5.718  1.00  0.00    -0.376 OA
BRANCH  34  35
ATOM     35  C   UNL     1      -2.948  -3.331  -6.223  1.00  0.00     0.202 C 
BRANCH  35  36
ATOM     36  C   UNL     1      -3.868  -2.098  -6.315  1.00  0.00     0.261 C 
BRANCH  36  37
ATOM     37  O   UNL     1      -4.592  -1.831  -5.110  1.00  0.00    -0.460 OA
BRANCH  37  38
ATOM     38  C   UNL     1      -5.941  -1.728  -5.196  1.00  0.00     0.338 C 
ATOM     39  O   UNL     1      -6.621  -1.556  -6.194  1.00  0.00    -0.246 OA
BRANCH  38  40
ATOM     40  C   UNL     1      -6.449  -2.226  -3.903  1.00  0.00     0.060 A 
ATOM     41  C   UNL     1      -6.071  -1.626  -2.695  1.00  0.00     0.016 A 
ATOM     42  C   UNL     1      -7.005  -3.511  -3.929  1.00  0.00     0.016 A 
ATOM     43  C   UNL     1      -6.130  -2.381  -1.524  1.00  0.00     0.010 A 
ATOM     44  C   UNL     1      -7.031  -4.271  -2.765  1.00  0.00     0.010 A 
ATOM     45  C   UNL     1      -6.555  -3.723  -1.569  1.00  0.00    -0.014 A 
BRANCH  45  46
ATOM     46  C   UNL     1      -6.784  -4.426  -0.302  1.00  0.00     0.031 A 
ATOM     47  C   UNL     1      -7.927  -3.850   0.453  1.00  0.00     0.074 A 
ATOM     48  C   UNL     1      -6.221  -5.587   0.098  1.00  0.00     0.049 A 
ATOM     49  N   UNL     1      -7.966  -3.463   1.685  1.00  0.00    -0.248 NA
ATOM     50  C   UNL     1      -9.156  -3.572  -0.316  1.00  0.00     0.031 C 
ATOM     51  C   UNL     1      -5.307  -6.436  -0.665  1.00  0.00     0.029 A 
ATOM     52  N   UNL     1      -6.452  -6.321   1.236  1.00  0.00    -0.354 N 
ATOM     53  C   UNL     1      -9.272  -3.032   1.887  1.00  0.00     0.074 A 
ATOM     54  C   UNL     1      -9.906  -2.968   0.598  1.00  0.00     0.031 C 
ATOM     55  C   UNL     1      -5.219  -7.645  -0.069  1.00  0.00     0.029 A 
ATOM     56  C   UNL     1      -6.021  -7.642   1.144  1.00  0.00     0.049 A 
ATOM     57  H   UNL     1      -6.881  -5.949   2.040  1.00  0.00     0.167 HD
ATOM     58  C   UNL     1      -9.842  -2.978   3.117  1.00  0.00     0.031 A 
ATOM     59  C   UNL     1      -6.373  -8.688   1.936  1.00  0.00     0.031 A 
ATOM     60  C   UNL     1      -8.874  -2.925   4.173  1.00  0.00     0.049 A 
ATOM     61  C   UNL     1      -6.926  -8.155   3.200  1.00  0.00     0.074 A 
ATOM     62  C   UNL     1      -7.860  -2.049   4.502  1.00  0.00     0.029 A 
ATOM     63  N   UNL     1      -8.647  -4.069   4.894  1.00  0.00    -0.354 N 
ATOM     64  N   UNL     1      -6.217  -7.567   4.117  1.00  0.00    -0.248 NA
ATOM     65  C   UNL     1      -8.366  -7.977   3.317  1.00  0.00     0.031 C 
ATOM     66  C   UNL     1      -6.840  -2.854   5.078  1.00  0.00     0.029 A 
ATOM     67  C   UNL     1      -7.294  -4.174   5.099  1.00  0.00     0.049 A 
ATOM     68  H   UNL     1      -9.332  -4.703   5.208  1.00  0.00     0.167 HD
ATOM     69  C   UNL     1      -7.059  -6.603   4.646  1.00  0.00     0.074 A 
ATOM     70  C   UNL     1      -8.397  -6.997   4.223  1.00  0.00     0.031 C 
ATOM     71  C   UNL     1      -6.563  -5.425   5.124  1.00  0.00     0.031 A 
BRANCH  58  72
ATOM     72  C   UNL     1     -11.289  -3.326   3.325  1.00  0.00    -0.014 A 
ATOM     73  C   UNL     1     -12.022  -4.111   2.407  1.00  0.00     0.009 A 
ATOM     74  C   UNL     1     -11.894  -3.072   4.563  1.00  0.00     0.009 A 
ATOM     75  C   UNL     1     -13.306  -4.578   2.683  1.00  0.00     0.001 A 
ATOM     76  C   UNL     1     -13.162  -3.584   4.864  1.00  0.00     0.001 A 
ATOM     77  C   UNL     1     -13.870  -4.328   3.922  1.00  0.00     0.000 A 
ENDBRANCH  58  72
BRANCH  59  78
ATOM     78  C   UNL     1      -6.501 -10.123   1.573  1.00  0.00    -0.014 A 
ATOM     79  C   UNL     1      -6.710 -10.510   0.237  1.00  0.00     0.009 A 
ATOM     80  C   UNL     1      -6.672 -11.110   2.561  1.00  0.00     0.009 A 
ATOM     81  C   UNL     1      -7.099 -11.810  -0.102  1.00  0.00     0.001 A 
ATOM     82  C   UNL     1      -7.077 -12.411   2.224  1.00  0.00     0.001 A 
ATOM     83  C   UNL     1      -7.302 -12.756   0.894  1.00  0.00     0.000 A 
ENDBRANCH  59  78
BRANCH  71  84
ATOM     84  C   UNL     1      -5.078  -5.326   5.394  1.00  0.00    -0.014 A 
ATOM     85  C   UNL     1      -4.660  -4.810   6.632  1.00  0.00     0.009 A 
ATOM     86  C   UNL     1      -4.099  -5.565   4.413  1.00  0.00     0.009 A 
ATOM     87  C   UNL     1      -3.314  -4.530   6.878  1.00  0.00     0.001 A 
ATOM     88  C   UNL     1      -2.747  -5.314   4.670  1.00  0.00     0.001 A 
ATOM     89  C   UNL     1      -2.358  -4.785   5.898  1.00  0.00     0.000 A 
ENDBRANCH  71  84
ENDBRANCH  45  46
ENDBRANCH  38  40
ENDBRANCH  37  38
ENDBRANCH  36  37
ENDBRANCH  35  36
ENDBRANCH  34  35
ENDBRANCH  33  34
ENDBRANCH  32  33
ENDBRANCH  31  32
ENDBRANCH   1  31
TORSDOF 24
