REMARK SMILES O=C(COc1ccccc1C[NH+]1CCC2(CC[NH2+]CC2)CC1)OCCOCCOCCOCCOC(=O)c1ccc(-c2c3nc(c(-c4ccccc4)c4ccc([nH]4)c(-c4ccccc4)c4nc(c(-c5ccccc5)c5ccc2[nH]5)C=C4)C=C3)cc1
REMARK SMILES IDX 28 1 27 2 26 3 25 4 24 5 23 6 2 7 1 8 3 9 4 10 5 11 6 12
REMARK SMILES IDX 10 13 7 14 9 15 8 16 11 17 12 18 13 19 22 20 14 22 21 23
REMARK SMILES IDX 15 24 16 25 20 26 17 27 19 28 18 29 29 32 30 33 31 34 32 35
REMARK SMILES IDX 33 36 34 37 35 38 36 39 37 40 38 41 39 42 85 43 40 44 84 45
REMARK SMILES IDX 41 46 42 47 43 48 78 49 44 50 83 51 77 52 79 53 45 54 82 55
REMARK SMILES IDX 76 56 75 57 46 59 68 60 53 61 67 62 54 63 57 64 66 65 80 66
REMARK SMILES IDX 55 67 56 68 65 70 81 71 58 72 47 73 48 74 52 75 49 76 51 77
REMARK SMILES IDX 50 78 69 79 70 80 74 81 71 82 73 83 72 84 59 85 60 86 64 87
REMARK SMILES IDX 61 88 63 89 62 90
REMARK H PARENT 12 21 18 30 18 31 79 58 57 69
REMARK Flexibility Score: inf
ROOT
ATOM      1  C   UNL     1       2.706  -0.173  -2.860  1.00  0.00     0.188 C 
ENDROOT
BRANCH   1   2
ATOM      2  C   UNL     1       3.268   1.237  -2.560  1.00  0.00     0.188 C 
BRANCH   2   3
ATOM      3  O   UNL     1       4.526   1.435  -1.923  1.00  0.00    -0.376 OA
BRANCH   3   4
ATOM      4  C   UNL     1       5.075   0.612  -0.907  1.00  0.00     0.202 C 
BRANCH   4   5
ATOM      5  C   UNL     1       4.222  -0.227   0.043  1.00  0.00     0.261 C 
BRANCH   5   6
ATOM      6  O   UNL     1       2.799  -0.109  -0.095  1.00  0.00    -0.461 OA
BRANCH   6   7
ATOM      7  C   UNL     1       2.084   1.028   0.063  1.00  0.00     0.344 C 
ATOM      8  O   UNL     1       0.915   1.089  -0.320  1.00  0.00    -0.248 OA
BRANCH   7   9
ATOM      9  C   UNL     1       2.752   2.184   0.755  1.00  0.00     0.351 C 
BRANCH   9  10
ATOM     10  O   UNL     1       3.514   1.720   1.864  1.00  0.00    -0.481 OA
BRANCH  10  11
ATOM     11  C   UNL     1       2.847   1.934   3.033  1.00  0.00     0.129 A 
ATOM     12  C   UNL     1       3.345   3.021   3.765  1.00  0.00     0.047 A 
ATOM     13  C   UNL     1       1.762   1.150   3.480  1.00  0.00     0.048 A 
ATOM     14  C   UNL     1       2.709   3.417   4.928  1.00  0.00     0.004 A 
ATOM     15  C   UNL     1       1.087   1.641   4.607  1.00  0.00     0.013 A 
ATOM     16  C   UNL     1       1.561   2.744   5.331  1.00  0.00     0.001 A 
BRANCH  13  17
ATOM     17  C   UNL     1       1.226  -0.104   2.797  1.00  0.00     0.302 C 
BRANCH  17  18
ATOM     18  N   UNL     1       1.507  -1.472   3.248  1.00  0.00    -0.331 N 
ATOM     19  C   UNL     1       2.817  -2.021   2.938  1.00  0.00     0.263 C 
ATOM     20  C   UNL     1       1.085  -1.851   4.571  1.00  0.00     0.263 C 
ATOM     21  H   UNL     1       0.849  -1.931   2.618  1.00  0.00     0.348 HD
ATOM     22  C   UNL     1       3.900  -1.420   3.813  1.00  0.00     0.069 C 
ATOM     23  C   UNL     1       2.038  -1.363   5.651  1.00  0.00     0.069 C 
ATOM     24  C   UNL     1       3.563  -1.448   5.332  1.00  0.00    -0.008 C 
ATOM     25  C   UNL     1       4.131  -2.740   5.968  1.00  0.00     0.069 C 
ATOM     26  C   UNL     1       4.241  -0.227   6.008  1.00  0.00     0.069 C 
ATOM     27  C   UNL     1       5.658  -2.738   6.087  1.00  0.00     0.261 C 
ATOM     28  C   UNL     1       5.758  -0.333   6.052  1.00  0.00     0.261 C 
ATOM     29  N   UNL     1       6.161  -1.542   6.767  1.00  0.00    -0.346 N 
ATOM     30  H   UNL     1       7.179  -1.584   6.808  1.00  0.00     0.346 HD
ATOM     31  H   UNL     1       5.770  -1.512   7.709  1.00  0.00     0.346 HD
ENDBRANCH  17  18
ENDBRANCH  13  17
ENDBRANCH  10  11
ENDBRANCH   9  10
ENDBRANCH   7   9
ENDBRANCH   6   7
ENDBRANCH   5   6
ENDBRANCH   4   5
ENDBRANCH   3   4
ENDBRANCH   2   3
ENDBRANCH   1   2
BRANCH   1  32
ATOM     32  O   UNL     1       3.526  -1.240  -2.419  1.00  0.00    -0.377 OA
BRANCH  32  33
ATOM     33  C   UNL     1       4.544  -1.708  -3.287  1.00  0.00     0.188 C 
BRANCH  33  34
ATOM     34  C   UNL     1       5.325  -0.694  -4.147  1.00  0.00     0.188 C 
BRANCH  34  35
ATOM     35  O   UNL     1       4.548   0.359  -4.673  1.00  0.00    -0.376 OA
BRANCH  35  36
ATOM     36  C   UNL     1       4.045   0.372  -5.991  1.00  0.00     0.202 C 
BRANCH  36  37
ATOM     37  C   UNL     1       3.147  -0.769  -6.482  1.00  0.00     0.261 C 
BRANCH  37  38
ATOM     38  O   UNL     1       3.577  -2.089  -6.155  1.00  0.00    -0.460 OA
BRANCH  38  39
ATOM     39  C   UNL     1       4.737  -2.500  -6.717  1.00  0.00     0.338 C 
ATOM     40  O   UNL     1       5.445  -1.889  -7.481  1.00  0.00    -0.246 OA
BRANCH  39  41
ATOM     41  C   UNL     1       5.098  -3.766  -6.044  1.00  0.00     0.060 A 
ATOM     42  C   UNL     1       6.337  -3.853  -5.394  1.00  0.00     0.016 A 
ATOM     43  C   UNL     1       4.197  -4.832  -6.018  1.00  0.00     0.016 A 
ATOM     44  C   UNL     1       6.694  -5.027  -4.742  1.00  0.00     0.010 A 
ATOM     45  C   UNL     1       4.571  -6.023  -5.402  1.00  0.00     0.010 A 
ATOM     46  C   UNL     1       5.838  -6.132  -4.803  1.00  0.00    -0.014 A 
BRANCH  46  47
ATOM     47  C   UNL     1       6.386  -7.470  -4.510  1.00  0.00     0.031 A 
ATOM     48  C   UNL     1       6.950  -8.249  -5.665  1.00  0.00     0.074 A 
ATOM     49  C   UNL     1       6.410  -7.964  -3.262  1.00  0.00     0.049 A 
ATOM     50  N   UNL     1       7.443  -9.458  -5.690  1.00  0.00    -0.248 NA
ATOM     51  C   UNL     1       6.956  -7.566  -6.972  1.00  0.00     0.031 C 
ATOM     52  C   UNL     1       5.950  -7.269  -2.062  1.00  0.00     0.029 A 
ATOM     53  N   UNL     1       6.841  -9.183  -2.807  1.00  0.00    -0.354 N 
ATOM     54  C   UNL     1       7.806  -9.682  -7.012  1.00  0.00     0.074 A 
ATOM     55  C   UNL     1       7.454  -8.501  -7.764  1.00  0.00     0.031 C 
ATOM     56  C   UNL     1       6.112  -8.082  -1.003  1.00  0.00     0.029 A 
ATOM     57  C   UNL     1       6.649  -9.363  -1.461  1.00  0.00     0.049 A 
ATOM     58  H   UNL     1       7.249  -9.863  -3.390  1.00  0.00     0.167 HD
ATOM     59  C   UNL     1       8.384 -10.779  -7.551  1.00  0.00     0.031 A 
ATOM     60  C   UNL     1       6.859 -10.453  -0.699  1.00  0.00     0.031 A 
ATOM     61  C   UNL     1       8.706 -11.960  -6.801  1.00  0.00     0.049 A 
ATOM     62  C   UNL     1       7.410 -11.699  -1.343  1.00  0.00     0.074 A 
ATOM     63  C   UNL     1       9.293 -13.130  -7.245  1.00  0.00     0.029 A 
ATOM     64  N   UNL     1       8.452 -12.123  -5.447  1.00  0.00    -0.354 N 
ATOM     65  N   UNL     1       7.769 -11.900  -2.589  1.00  0.00    -0.248 NA
ATOM     66  C   UNL     1       7.591 -12.868  -0.471  1.00  0.00     0.031 C 
ATOM     67  C   UNL     1       9.335 -14.027  -6.174  1.00  0.00     0.029 A 
ATOM     68  C   UNL     1       8.843 -13.388  -5.045  1.00  0.00     0.049 A 
ATOM     69  H   UNL     1       8.054 -11.441  -4.860  1.00  0.00     0.167 HD
ATOM     70  C   UNL     1       8.250 -13.204  -2.642  1.00  0.00     0.074 A 
ATOM     71  C   UNL     1       8.149 -13.739  -1.300  1.00  0.00     0.031 C 
ATOM     72  C   UNL     1       8.735 -13.897  -3.702  1.00  0.00     0.031 A 
BRANCH  59  73
ATOM     73  C   UNL     1       8.652 -10.762  -9.029  1.00  0.00    -0.014 A 
ATOM     74  C   UNL     1       9.639  -9.934  -9.588  1.00  0.00     0.009 A 
ATOM     75  C   UNL     1       7.910 -11.600  -9.876  1.00  0.00     0.009 A 
ATOM     76  C   UNL     1       9.855  -9.922 -10.967  1.00  0.00     0.001 A 
ATOM     77  C   UNL     1       8.150 -11.610 -11.251  1.00  0.00     0.001 A 
ATOM     78  C   UNL     1       9.115 -10.765 -11.796  1.00  0.00     0.000 A 
ENDBRANCH  59  73
BRANCH  60  79
ATOM     79  C   UNL     1       6.522 -10.431   0.749  1.00  0.00    -0.014 A 
ATOM     80  C   UNL     1       7.529 -10.523   1.722  1.00  0.00     0.009 A 
ATOM     81  C   UNL     1       5.184 -10.347   1.166  1.00  0.00     0.009 A 
ATOM     82  C   UNL     1       7.200 -10.563   3.079  1.00  0.00     0.001 A 
ATOM     83  C   UNL     1       4.861 -10.353   2.525  1.00  0.00     0.001 A 
ATOM     84  C   UNL     1       5.868 -10.473   3.480  1.00  0.00     0.000 A 
ENDBRANCH  60  79
BRANCH  72  85
ATOM     85  C   UNL     1       9.240 -15.290  -3.446  1.00  0.00    -0.014 A 
ATOM     86  C   UNL     1       8.364 -16.346  -3.150  1.00  0.00     0.009 A 
ATOM     87  C   UNL     1      10.614 -15.557  -3.555  1.00  0.00     0.009 A 
ATOM     88  C   UNL     1       8.861 -17.633  -2.932  1.00  0.00     0.001 A 
ATOM     89  C   UNL     1      11.104 -16.850  -3.372  1.00  0.00     0.001 A 
ATOM     90  C   UNL     1      10.228 -17.885  -3.049  1.00  0.00     0.000 A 
ENDBRANCH  72  85
ENDBRANCH  46  47
ENDBRANCH  39  41
ENDBRANCH  38  39
ENDBRANCH  37  38
ENDBRANCH  36  37
ENDBRANCH  35  36
ENDBRANCH  34  35
ENDBRANCH  33  34
ENDBRANCH  32  33
ENDBRANCH   1  32
TORSDOF 24
