REMARK SMILES O=C(OCCOCCOCCOCCOC(=O)c1ccnc(Oc2cccc(C(F)(F)F)c2)c1)c1ccc(-c2c3nc(c(-c4ccccc4)c4ccc([nH]4)c(-c4ccccc4)c4nc(c(-c5ccccc5)c5ccc2[nH]5)C=C4)C=C3)cc1
REMARK SMILES IDX 10 1 9 2 8 3 7 4 6 5 5 6 4 7 3 8 2 9 1 10 35 11 36 12 82 13
REMARK SMILES IDX 37 14 81 15 38 16 39 17 40 18 75 19 41 20 80 21 74 22 76 23
REMARK SMILES IDX 42 24 79 25 73 26 72 27 43 29 65 30 50 31 64 32 51 33 54 34
REMARK SMILES IDX 63 35 77 36 52 37 53 38 62 40 78 41 55 42 44 43 45 44 49 45
REMARK SMILES IDX 46 46 48 47 47 48 66 49 67 50 71 51 68 52 70 53 69 54 56 55
REMARK SMILES IDX 57 56 61 57 58 58 60 59 59 60 11 61 12 62 13 63 14 64 15 65
REMARK SMILES IDX 16 66 17 67 18 68 19 69 34 70 20 71 22 72 21 73 23 74 24 75
REMARK SMILES IDX 25 76 33 77 26 78 28 79 27 80 29 81 30 82 31 83 32 84
REMARK H PARENT 76 28 54 39
REMARK Flexibility Score: inf
ROOT
ATOM      1  C   UNL     1       3.790   3.506  -1.408  1.00  0.00     0.188 C 
ENDROOT
BRANCH   1   2
ATOM      2  O   UNL     1       2.379   3.689  -1.391  1.00  0.00    -0.377 OA
BRANCH   2   3
ATOM      3  C   UNL     1       1.615   2.706  -0.693  1.00  0.00     0.188 C 
BRANCH   3   4
ATOM      4  C   UNL     1       1.958   1.263  -1.056  1.00  0.00     0.188 C 
BRANCH   4   5
ATOM      5  O   UNL     1       3.226   0.940  -0.492  1.00  0.00    -0.376 OA
BRANCH   5   6
ATOM      6  C   UNL     1       4.037   0.051  -1.248  1.00  0.00     0.202 C 
BRANCH   6   7
ATOM      7  C   UNL     1       3.653  -1.422  -1.138  1.00  0.00     0.261 C 
BRANCH   7   8
ATOM      8  O   UNL     1       2.299  -1.620  -0.706  1.00  0.00    -0.460 OA
BRANCH   8   9
ATOM      9  C   UNL     1       1.834  -1.709   0.564  1.00  0.00     0.338 C 
ATOM     10  O   UNL     1       0.637  -1.932   0.739  1.00  0.00    -0.246 OA
BRANCH   9  11
ATOM     11  C   UNL     1       2.699  -1.605   1.775  1.00  0.00     0.060 A 
ATOM     12  C   UNL     1       3.781  -0.737   1.919  1.00  0.00     0.016 A 
ATOM     13  C   UNL     1       2.314  -2.362   2.892  1.00  0.00     0.016 A 
ATOM     14  C   UNL     1       4.520  -0.678   3.091  1.00  0.00     0.010 A 
ATOM     15  C   UNL     1       3.018  -2.271   4.097  1.00  0.00     0.010 A 
ATOM     16  C   UNL     1       4.146  -1.446   4.187  1.00  0.00    -0.014 A 
BRANCH  16  17
ATOM     17  C   UNL     1       5.044  -1.482   5.355  1.00  0.00     0.031 A 
ATOM     18  C   UNL     1       5.838  -2.732   5.583  1.00  0.00     0.074 A 
ATOM     19  C   UNL     1       5.234  -0.381   6.103  1.00  0.00     0.049 A 
ATOM     20  N   UNL     1       6.608  -3.053   6.586  1.00  0.00    -0.248 NA
ATOM     21  C   UNL     1       5.757  -3.760   4.529  1.00  0.00     0.031 C 
ATOM     22  C   UNL     1       4.614   0.926   5.863  1.00  0.00     0.029 A 
ATOM     23  N   UNL     1       6.031  -0.174   7.196  1.00  0.00    -0.354 N 
ATOM     24  C   UNL     1       7.064  -4.335   6.306  1.00  0.00     0.074 A 
ATOM     25  C   UNL     1       6.485  -4.736   5.045  1.00  0.00     0.031 C 
ATOM     26  C   UNL     1       5.079   1.805   6.766  1.00  0.00     0.029 A 
ATOM     27  C   UNL     1       5.960   1.105   7.694  1.00  0.00     0.049 A 
ATOM     28  H   UNL     1       6.601  -0.874   7.589  1.00  0.00     0.167 HD
ATOM     29  C   UNL     1       7.889  -5.108   7.048  1.00  0.00     0.031 A 
ATOM     30  C   UNL     1       6.514   1.629   8.803  1.00  0.00     0.031 A 
ATOM     31  C   UNL     1       8.445  -4.679   8.300  1.00  0.00     0.049 A 
ATOM     32  C   UNL     1       7.341   0.717   9.667  1.00  0.00     0.074 A 
ATOM     33  C   UNL     1       9.216  -5.388   9.199  1.00  0.00     0.029 A 
ATOM     34  N   UNL     1       8.288  -3.400   8.818  1.00  0.00    -0.354 N 
ATOM     35  N   UNL     1       7.682  -0.534   9.458  1.00  0.00    -0.248 NA
ATOM     36  C   UNL     1       7.841   1.276  10.928  1.00  0.00     0.031 C 
ATOM     37  C   UNL     1       9.495  -4.545  10.282  1.00  0.00     0.029 A 
ATOM     38  C   UNL     1       8.942  -3.298  10.030  1.00  0.00     0.049 A 
ATOM     39  H   UNL     1       7.784  -2.673   8.385  1.00  0.00     0.167 HD
ATOM     40  C   UNL     1       8.445  -0.910  10.554  1.00  0.00     0.074 A 
ATOM     41  C   UNL     1       8.539   0.257  11.412  1.00  0.00     0.031 C 
ATOM     42  C   UNL     1       9.010  -2.109  10.840  1.00  0.00     0.031 A 
BRANCH  29  43
ATOM     43  C   UNL     1       8.148  -6.498   6.545  1.00  0.00    -0.014 A 
ATOM     44  C   UNL     1       8.955  -6.736   5.420  1.00  0.00     0.009 A 
ATOM     45  C   UNL     1       7.520  -7.586   7.171  1.00  0.00     0.009 A 
ATOM     46  C   UNL     1       9.091  -8.029   4.909  1.00  0.00     0.001 A 
ATOM     47  C   UNL     1       7.680  -8.881   6.673  1.00  0.00     0.001 A 
ATOM     48  C   UNL     1       8.454  -9.099   5.535  1.00  0.00     0.000 A 
ENDBRANCH  29  43
BRANCH  30  49
ATOM     49  C   UNL     1       6.244   3.039   9.197  1.00  0.00    -0.014 A 
ATOM     50  C   UNL     1       7.277   3.986   9.255  1.00  0.00     0.009 A 
ATOM     51  C   UNL     1       4.943   3.444   9.542  1.00  0.00     0.009 A 
ATOM     52  C   UNL     1       7.018   5.296   9.673  1.00  0.00     0.001 A 
ATOM     53  C   UNL     1       4.680   4.761   9.926  1.00  0.00     0.001 A 
ATOM     54  C   UNL     1       5.720   5.684  10.003  1.00  0.00     0.000 A 
ENDBRANCH  30  49
BRANCH  42  55
ATOM     55  C   UNL     1       9.804  -2.190  12.109  1.00  0.00    -0.014 A 
ATOM     56  C   UNL     1       9.170  -2.240  13.359  1.00  0.00     0.009 A 
ATOM     57  C   UNL     1      11.204  -2.261  12.043  1.00  0.00     0.009 A 
ATOM     58  C   UNL     1       9.930  -2.330  14.526  1.00  0.00     0.001 A 
ATOM     59  C   UNL     1      11.958  -2.378  13.209  1.00  0.00     0.001 A 
ATOM     60  C   UNL     1      11.321  -2.404  14.449  1.00  0.00     0.000 A 
ENDBRANCH  42  55
ENDBRANCH  16  17
ENDBRANCH   9  11
ENDBRANCH   8   9
ENDBRANCH   7   8
ENDBRANCH   6   7
ENDBRANCH   5   6
ENDBRANCH   4   5
ENDBRANCH   3   4
ENDBRANCH   2   3
ENDBRANCH   1   2
BRANCH   1  61
ATOM     61  C   UNL     1       4.557   3.514  -0.068  1.00  0.00     0.188 C 
BRANCH  61  62
ATOM     62  O   UNL     1       3.754   3.750   1.080  1.00  0.00    -0.376 OA
BRANCH  62  63
ATOM     63  C   UNL     1       3.870   5.053   1.648  1.00  0.00     0.202 C 
BRANCH  63  64
ATOM     64  C   UNL     1       3.183   6.159   0.840  1.00  0.00     0.261 C 
BRANCH  64  65
ATOM     65  O   UNL     1       3.734   6.394  -0.470  1.00  0.00    -0.460 OA
BRANCH  65  66
ATOM     66  C   UNL     1       5.034   6.741  -0.604  1.00  0.00     0.338 C 
ATOM     67  O   UNL     1       5.834   6.978   0.283  1.00  0.00    -0.246 OA
BRANCH  66  68
ATOM     68  C   UNL     1       5.374   6.527  -2.032  1.00  0.00     0.067 A 
ATOM     69  C   UNL     1       4.491   6.974  -3.015  1.00  0.00     0.036 A 
ATOM     70  C   UNL     1       6.464   5.708  -2.368  1.00  0.00     0.084 A 
ATOM     71  C   UNL     1       4.714   6.552  -4.306  1.00  0.00     0.116 A 
ATOM     72  C   UNL     1       6.579   5.311  -3.690  1.00  0.00     0.220 A 
ATOM     73  N   UNL     1       5.729   5.735  -4.655  1.00  0.00    -0.222 NA
BRANCH  72  74
ATOM     74  O   UNL     1       7.619   4.571  -4.191  1.00  0.00    -0.439 OA
BRANCH  74  75
ATOM     75  C   UNL     1       8.111   3.484  -3.508  1.00  0.00     0.130 A 
ATOM     76  C   UNL     1       9.476   3.520  -3.217  1.00  0.00     0.047 A 
ATOM     77  C   UNL     1       7.393   2.292  -3.357  1.00  0.00     0.060 A 
ATOM     78  C   UNL     1      10.130   2.382  -2.751  1.00  0.00     0.004 A 
ATOM     79  C   UNL     1       8.056   1.125  -2.914  1.00  0.00     0.059 A 
ATOM     80  C   UNL     1       9.425   1.192  -2.599  1.00  0.00     0.013 A 
BRANCH  79  81
ATOM     81  C   UNL     1       7.363  -0.211  -2.806  1.00  0.00     0.416 C 
ATOM     82  F   UNL     1       8.078  -1.231  -3.357  1.00  0.00    -0.166 F 
ATOM     83  F   UNL     1       7.144  -0.578  -1.512  1.00  0.00    -0.166 F 
ATOM     84  F   UNL     1       6.142  -0.248  -3.408  1.00  0.00    -0.166 F 
ENDBRANCH  79  81
ENDBRANCH  74  75
ENDBRANCH  72  74
ENDBRANCH  66  68
ENDBRANCH  65  66
ENDBRANCH  64  65
ENDBRANCH  63  64
ENDBRANCH  62  63
ENDBRANCH  61  62
ENDBRANCH   1  61
TORSDOF 23
