REMARK SMILES O=C(OCCOCCOCCOCCOC(=O)c1cccc(CS(=O)(=O)Nc2ncccn2)c1)c1ccc(-c2c3nc(c(-c4ccccc4)c4ccc([nH]4)c(-c4ccccc4)c4nc(c(-c5ccccc5)c5ccc2[nH]5)C=C4)C=C3)cc1
REMARK SMILES IDX 10 1 9 2 8 3 7 4 6 5 5 6 4 7 3 8 2 9 1 10 35 11 36 12 82 13
REMARK SMILES IDX 37 14 81 15 38 16 39 17 40 18 75 19 41 20 80 21 74 22 76 23
REMARK SMILES IDX 42 24 79 25 73 26 72 27 43 29 65 30 50 31 64 32 51 33 54 34
REMARK SMILES IDX 63 35 77 36 52 37 53 38 62 40 78 41 55 42 44 43 45 44 49 45
REMARK SMILES IDX 46 46 48 47 47 48 66 49 67 50 71 51 68 52 70 53 69 54 56 55
REMARK SMILES IDX 57 56 61 57 58 58 60 59 59 60 11 61 12 62 13 63 14 64 15 65
REMARK SMILES IDX 16 66 17 67 18 68 19 69 34 70 20 71 22 72 21 73 23 74 24 75
REMARK SMILES IDX 25 76 26 77 27 78 28 80 29 81 33 82 30 83 32 84 31 85
REMARK H PARENT 76 28 54 39 27 79
REMARK Flexibility Score: inf
ROOT
ATOM      1  C   UNL     1       3.761  -0.482  -3.666  1.00  0.00     0.188 C 
ENDROOT
BRANCH   1   2
ATOM      2  O   UNL     1       2.343  -0.487  -3.739  1.00  0.00    -0.377 OA
BRANCH   2   3
ATOM      3  C   UNL     1       1.654  -0.020  -2.587  1.00  0.00     0.188 C 
BRANCH   3   4
ATOM      4  C   UNL     1       2.163  -0.549  -1.246  1.00  0.00     0.188 C 
BRANCH   4   5
ATOM      5  O   UNL     1       3.502  -0.143  -0.961  1.00  0.00    -0.376 OA
BRANCH   5   6
ATOM      6  C   UNL     1       4.398  -1.153  -0.495  1.00  0.00     0.202 C 
BRANCH   6   7
ATOM      7  C   UNL     1       4.179  -1.599   0.947  1.00  0.00     0.261 C 
BRANCH   7   8
ATOM      8  O   UNL     1       2.843  -1.388   1.425  1.00  0.00    -0.460 OA
BRANCH   8   9
ATOM      9  C   UNL     1       2.248  -0.250   1.853  1.00  0.00     0.338 C 
ATOM     10  O   UNL     1       1.058  -0.309   2.166  1.00  0.00    -0.246 OA
BRANCH   9  11
ATOM     11  C   UNL     1       2.922   1.082   1.977  1.00  0.00     0.060 A 
ATOM     12  C   UNL     1       4.092   1.475   1.328  1.00  0.00     0.016 A 
ATOM     13  C   UNL     1       2.286   2.030   2.800  1.00  0.00     0.016 A 
ATOM     14  C   UNL     1       4.658   2.721   1.523  1.00  0.00     0.010 A 
ATOM     15  C   UNL     1       2.855   3.286   3.027  1.00  0.00     0.010 A 
ATOM     16  C   UNL     1       4.076   3.600   2.425  1.00  0.00    -0.014 A 
BRANCH  16  17
ATOM     17  C   UNL     1       4.958   4.654   2.944  1.00  0.00     0.031 A 
ATOM     18  C   UNL     1       5.651   4.366   4.244  1.00  0.00     0.074 A 
ATOM     19  C   UNL     1       5.298   5.691   2.163  1.00  0.00     0.049 A 
ATOM     20  N   UNL     1       6.483   5.104   4.925  1.00  0.00    -0.248 NA
ATOM     21  C   UNL     1       5.389   3.045   4.848  1.00  0.00     0.031 C 
ATOM     22  C   UNL     1       4.826   5.909   0.793  1.00  0.00     0.029 A 
ATOM     23  N   UNL     1       6.164   6.722   2.389  1.00  0.00    -0.354 N 
ATOM     24  C   UNL     1       6.796   4.359   6.056  1.00  0.00     0.074 A 
ATOM     25  C   UNL     1       6.080   3.111   5.972  1.00  0.00     0.031 C 
ATOM     26  C   UNL     1       5.432   6.998   0.292  1.00  0.00     0.029 A 
ATOM     27  C   UNL     1       6.267   7.589   1.331  1.00  0.00     0.049 A 
ATOM     28  H   UNL     1       6.666   6.832   3.229  1.00  0.00     0.167 HD
ATOM     29  C   UNL     1       7.601   4.707   7.084  1.00  0.00     0.031 A 
ATOM     30  C   UNL     1       6.941   8.749   1.246  1.00  0.00     0.031 A 
ATOM     31  C   UNL     1       8.288   5.966   7.129  1.00  0.00     0.049 A 
ATOM     32  C   UNL     1       7.718   9.184   2.459  1.00  0.00     0.074 A 
ATOM     33  C   UNL     1       9.064   6.500   8.137  1.00  0.00     0.029 A 
ATOM     34  N   UNL     1       8.268   6.893   6.092  1.00  0.00    -0.354 N 
ATOM     35  N   UNL     1       7.925   8.536   3.583  1.00  0.00    -0.248 NA
ATOM     36  C   UNL     1       8.342  10.509   2.400  1.00  0.00     0.031 C 
ATOM     37  C   UNL     1       9.463   7.780   7.733  1.00  0.00     0.029 A 
ATOM     38  C   UNL     1       9.000   8.009   6.444  1.00  0.00     0.049 A 
ATOM     39  H   UNL     1       7.801   6.771   5.234  1.00  0.00     0.167 HD
ATOM     40  C   UNL     1       8.729   9.360   4.356  1.00  0.00     0.074 A 
ATOM     41  C   UNL     1       8.980  10.549   3.562  1.00  0.00     0.031 C 
ATOM     42  C   UNL     1       9.221   9.162   5.606  1.00  0.00     0.031 A 
BRANCH  29  43
ATOM     43  C   UNL     1       7.644   3.769   8.258  1.00  0.00    -0.014 A 
ATOM     44  C   UNL     1       8.255   2.506   8.189  1.00  0.00     0.009 A 
ATOM     45  C   UNL     1       6.975   4.132   9.438  1.00  0.00     0.009 A 
ATOM     46  C   UNL     1       8.145   1.608   9.256  1.00  0.00     0.001 A 
ATOM     47  C   UNL     1       6.894   3.246  10.513  1.00  0.00     0.001 A 
ATOM     48  C   UNL     1       7.465   1.978  10.416  1.00  0.00     0.000 A 
ENDBRANCH  29  43
BRANCH  30  49
ATOM     49  C   UNL     1       6.855   9.590   0.022  1.00  0.00    -0.014 A 
ATOM     50  C   UNL     1       7.991   9.854  -0.757  1.00  0.00     0.009 A 
ATOM     51  C   UNL     1       5.627  10.149  -0.371  1.00  0.00     0.009 A 
ATOM     52  C   UNL     1       7.904  10.677  -1.885  1.00  0.00     0.001 A 
ATOM     53  C   UNL     1       5.535  10.944  -1.516  1.00  0.00     0.001 A 
ATOM     54  C   UNL     1       6.676  11.217  -2.266  1.00  0.00     0.000 A 
ENDBRANCH  30  49
BRANCH  42  55
ATOM     55  C   UNL     1      10.127  10.228   6.146  1.00  0.00    -0.014 A 
ATOM     56  C   UNL     1       9.635  11.479   6.545  1.00  0.00     0.009 A 
ATOM     57  C   UNL     1      11.493   9.944   6.301  1.00  0.00     0.009 A 
ATOM     58  C   UNL     1      10.505  12.443   7.052  1.00  0.00     0.001 A 
ATOM     59  C   UNL     1      12.353  10.896   6.844  1.00  0.00     0.001 A 
ATOM     60  C   UNL     1      11.861  12.149   7.207  1.00  0.00     0.000 A 
ENDBRANCH  42  55
ENDBRANCH  16  17
ENDBRANCH   9  11
ENDBRANCH   8   9
ENDBRANCH   7   8
ENDBRANCH   6   7
ENDBRANCH   5   6
ENDBRANCH   4   5
ENDBRANCH   3   4
ENDBRANCH   2   3
ENDBRANCH   1   2
BRANCH   1  61
ATOM     61  C   UNL     1       4.494   0.850  -3.361  1.00  0.00     0.188 C 
BRANCH  61  62
ATOM     62  O   UNL     1       3.637   1.934  -3.039  1.00  0.00    -0.376 OA
BRANCH  62  63
ATOM     63  C   UNL     1       3.411   2.887  -4.069  1.00  0.00     0.202 C 
BRANCH  63  64
ATOM     64  C   UNL     1       2.700   2.410  -5.351  1.00  0.00     0.261 C 
BRANCH  64  65
ATOM     65  O   UNL     1       3.232   1.242  -6.003  1.00  0.00    -0.460 OA
BRANCH  65  66
ATOM     66  C   UNL     1       4.508   1.283  -6.427  1.00  0.00     0.338 C 
ATOM     67  O   UNL     1       5.259   2.254  -6.388  1.00  0.00    -0.246 OA
BRANCH  66  68
ATOM     68  C   UNL     1       4.951  -0.094  -6.745  1.00  0.00     0.060 A 
ATOM     69  C   UNL     1       6.086  -0.614  -6.100  1.00  0.00     0.016 A 
ATOM     70  C   UNL     1       4.253  -0.872  -7.669  1.00  0.00     0.020 A 
ATOM     71  C   UNL     1       6.444  -1.945  -6.286  1.00  0.00     0.001 A 
ATOM     72  C   UNL     1       4.753  -2.134  -8.014  1.00  0.00    -0.030 A 
ATOM     73  C   UNL     1       5.769  -2.707  -7.233  1.00  0.00     0.005 A 
BRANCH  72  74
ATOM     74  C   UNL     1       4.278  -2.806  -9.274  1.00  0.00     0.195 C 
BRANCH  74  75
ATOM     75  S   UNL     1       5.631  -2.925 -10.500  1.00  0.00     0.239 S 
ATOM     76  O   UNL     1       6.843  -3.394  -9.854  1.00  0.00    -0.206 OA
ATOM     77  O   UNL     1       5.120  -3.708 -11.611  1.00  0.00    -0.206 OA
BRANCH  75  78
ATOM     78  N   UNL     1       6.022  -1.447 -11.141  1.00  0.00    -0.251 N 
ATOM     79  H   UNL     1       6.426  -1.389 -12.037  1.00  0.00     0.183 HD
BRANCH  78  80
ATOM     80  C   UNL     1       5.779  -0.287 -10.411  1.00  0.00     0.236 A 
ATOM     81  N   UNL     1       4.664   0.387 -10.711  1.00  0.00    -0.221 NA
ATOM     82  N   UNL     1       6.780   0.124  -9.632  1.00  0.00    -0.221 NA
ATOM     83  C   UNL     1       4.593   1.634 -10.202  1.00  0.00     0.117 A 
ATOM     84  C   UNL     1       6.630   1.357  -9.106  1.00  0.00     0.117 A 
ATOM     85  C   UNL     1       5.558   2.176  -9.386  1.00  0.00     0.040 A 
ENDBRANCH  78  80
ENDBRANCH  75  78
ENDBRANCH  74  75
ENDBRANCH  72  74
ENDBRANCH  66  68
ENDBRANCH  65  66
ENDBRANCH  64  65
ENDBRANCH  63  64
ENDBRANCH  62  63
ENDBRANCH  61  62
ENDBRANCH   1  61
TORSDOF 24
