REMARK SMILES O=C(NCc1ccc(C(=O)OCCOCCOCCOCCOC(=O)c2ccc(-c3c4nc(c(-c5ccccc5)c5ccc([nH]5)c(-c5ccccc5)c5nc(c(-c6ccccc6)c6ccc3[nH]6)C=C5)C=C4)cc2)o1)Nc1ccc(F)c(Cl)c1
REMARK SMILES IDX 16 1 15 2 14 3 13 4 12 5 11 6 9 7 10 8 8 9 5 10 6 11 74 12
REMARK SMILES IDX 7 13 4 14 3 15 1 16 2 17 75 18 76 21 77 22 83 23 78 24 81 25
REMARK SMILES IDX 79 26 82 27 80 28 17 29 18 30 19 31 20 32 21 33 22 34 23 35
REMARK SMILES IDX 24 36 25 37 26 38 27 39 73 40 28 41 72 42 29 43 30 44 31 45
REMARK SMILES IDX 66 46 32 47 71 48 65 49 67 50 33 51 70 52 64 53 63 54 34 56
REMARK SMILES IDX 56 57 41 58 55 59 42 60 45 61 54 62 68 63 43 64 44 65 53 67
REMARK SMILES IDX 69 68 46 69 35 70 36 71 40 72 37 73 39 74 38 75 57 76 58 77
REMARK SMILES IDX 62 78 59 79 61 80 60 81 47 82 48 83 52 84 49 85 51 86 50 87
REMARK H PARENT 3 19 75 20 67 55 45 66
REMARK Flexibility Score: inf
ROOT
ATOM      1  C   UNL     1       6.540  -4.912  -1.931  1.00  0.00     0.188 C 
ENDROOT
BRANCH   1   2
ATOM      2  C   UNL     1       5.250  -5.680  -1.609  1.00  0.00     0.188 C 
BRANCH   2   3
ATOM      3  O   UNL     1       5.055  -6.840  -2.417  1.00  0.00    -0.376 OA
BRANCH   3   4
ATOM      4  C   UNL     1       3.919  -6.801  -3.274  1.00  0.00     0.202 C 
BRANCH   4   5
ATOM      5  C   UNL     1       4.229  -6.157  -4.632  1.00  0.00     0.261 C 
BRANCH   5   6
ATOM      6  O   UNL     1       4.616  -4.777  -4.554  1.00  0.00    -0.457 OA
BRANCH   6   7
ATOM      7  C   UNL     1       3.678  -3.912  -4.082  1.00  0.00     0.374 C 
ATOM      8  O   UNL     1       2.511  -4.211  -3.858  1.00  0.00    -0.242 OA
BRANCH   7   9
ATOM      9  C   UNL     1       4.318  -2.660  -3.765  1.00  0.00     0.211 A 
ATOM     10  C   UNL     1       4.680  -0.893  -2.489  1.00  0.00     0.124 A 
ATOM     11  C   UNL     1       5.656  -0.876  -3.463  1.00  0.00     0.048 A 
ATOM     12  O   UNL     1       3.851  -1.959  -2.688  1.00  0.00    -0.452 OA
ATOM     13  C   UNL     1       5.433  -2.018  -4.273  1.00  0.00     0.058 A 
BRANCH  10  14
ATOM     14  C   UNL     1       4.395  -0.042  -1.302  1.00  0.00     0.193 C 
BRANCH  14  15
ATOM     15  N   UNL     1       2.963   0.093  -1.154  1.00  0.00    -0.331 N 
ATOM     16  O   UNL     1       0.977  -0.141  -0.198  1.00  0.00    -0.248 OA
ATOM     17  C   UNL     1       2.189  -0.020  -0.046  1.00  0.00     0.319 C 
ATOM     18  N   UNL     1       2.836   0.039   1.158  1.00  0.00    -0.308 N 
ATOM     19  H   UNL     1       2.476   0.299  -1.984  1.00  0.00     0.165 HD
ATOM     20  H   UNL     1       3.772   0.344   1.151  1.00  0.00     0.171 HD
BRANCH  18  21
ATOM     21  C   UNL     1       2.278  -0.300   2.409  1.00  0.00     0.044 A 
ATOM     22  C   UNL     1       2.916   0.174   3.562  1.00  0.00     0.029 A 
ATOM     23  C   UNL     1       1.139  -1.106   2.538  1.00  0.00     0.049 A 
ATOM     24  C   UNL     1       2.398  -0.118   4.827  1.00  0.00     0.043 A 
ATOM     25  C   UNL     1       0.632  -1.410   3.804  1.00  0.00     0.078 A 
ATOM     26  C   UNL     1       1.258  -0.906   4.941  1.00  0.00     0.141 A 
ATOM     27  Cl  UNL     1      -0.758  -2.417   3.943  1.00  0.00    -0.081 Cl
ATOM     28  F   UNL     1       0.780  -1.175   6.165  1.00  0.00    -0.205 F 
ENDBRANCH  18  21
ENDBRANCH  14  15
ENDBRANCH  10  14
ENDBRANCH   7   9
ENDBRANCH   6   7
ENDBRANCH   5   6
ENDBRANCH   4   5
ENDBRANCH   3   4
ENDBRANCH   2   3
ENDBRANCH   1   2
BRANCH   1  29
ATOM     29  O   UNL     1       7.325  -5.399  -3.004  1.00  0.00    -0.377 OA
BRANCH  29  30
ATOM     30  C   UNL     1       7.879  -6.710  -2.921  1.00  0.00     0.188 C 
BRANCH  30  31
ATOM     31  C   UNL     1       7.854  -7.530  -1.615  1.00  0.00     0.188 C 
BRANCH  31  32
ATOM     32  O   UNL     1       8.002  -6.755  -0.429  1.00  0.00    -0.376 OA
BRANCH  32  33
ATOM     33  C   UNL     1       9.227  -6.922   0.275  1.00  0.00     0.202 C 
BRANCH  33  34
ATOM     34  C   UNL     1      10.349  -6.051  -0.297  1.00  0.00     0.261 C 
BRANCH  34  35
ATOM     35  O   UNL     1      10.770  -6.431  -1.616  1.00  0.00    -0.460 OA
BRANCH  35  36
ATOM     36  C   UNL     1      11.306  -7.664  -1.748  1.00  0.00     0.338 C 
ATOM     37  O   UNL     1      11.514  -8.482  -0.872  1.00  0.00    -0.246 OA
BRANCH  36  38
ATOM     38  C   UNL     1      11.462  -7.931  -3.188  1.00  0.00     0.060 A 
ATOM     39  C   UNL     1      10.870  -9.077  -3.731  1.00  0.00     0.016 A 
ATOM     40  C   UNL     1      12.191  -7.050  -3.990  1.00  0.00     0.016 A 
ATOM     41  C   UNL     1      11.033  -9.360  -5.087  1.00  0.00     0.010 A 
ATOM     42  C   UNL     1      12.366  -7.344  -5.341  1.00  0.00     0.010 A 
ATOM     43  C   UNL     1      11.810  -8.512  -5.888  1.00  0.00    -0.014 A 
BRANCH  43  44
ATOM     44  C   UNL     1      12.197  -8.918  -7.256  1.00  0.00     0.031 A 
ATOM     45  C   UNL     1      13.495  -9.648  -7.446  1.00  0.00     0.074 A 
ATOM     46  C   UNL     1      11.428  -8.611  -8.314  1.00  0.00     0.049 A 
ATOM     47  N   UNL     1      14.077 -10.029  -8.553  1.00  0.00    -0.248 NA
ATOM     48  C   UNL     1      14.238  -9.990  -6.221  1.00  0.00     0.031 C 
ATOM     49  C   UNL     1      10.133  -7.936  -8.257  1.00  0.00     0.029 A 
ATOM     50  N   UNL     1      11.643  -8.820  -9.653  1.00  0.00    -0.354 N 
ATOM     51  C   UNL     1      15.251 -10.657  -8.160  1.00  0.00     0.074 A 
ATOM     52  C   UNL     1      15.313 -10.585  -6.717  1.00  0.00     0.031 C 
ATOM     53  C   UNL     1       9.673  -7.774  -9.510  1.00  0.00     0.029 A 
ATOM     54  C   UNL     1      10.655  -8.305 -10.454  1.00  0.00     0.049 A 
ATOM     55  H   UNL     1      12.431  -9.294 -10.005  1.00  0.00     0.167 HD
ATOM     56  C   UNL     1      16.195 -11.244  -8.931  1.00  0.00     0.031 A 
ATOM     57  C   UNL     1      10.570  -8.248 -11.796  1.00  0.00     0.031 A 
ATOM     58  C   UNL     1      16.156 -11.288 -10.366  1.00  0.00     0.049 A 
ATOM     59  C   UNL     1      11.682  -8.819 -12.635  1.00  0.00     0.074 A 
ATOM     60  C   UNL     1      17.064 -11.865 -11.237  1.00  0.00     0.029 A 
ATOM     61  N   UNL     1      15.160 -10.718 -11.142  1.00  0.00    -0.354 N 
ATOM     62  N   UNL     1      12.774  -9.434 -12.253  1.00  0.00    -0.248 NA
ATOM     63  C   UNL     1      11.547  -8.681 -14.094  1.00  0.00     0.031 C 
ATOM     64  C   UNL     1      16.638 -11.602 -12.544  1.00  0.00     0.029 A 
ATOM     65  C   UNL     1      15.444 -10.902 -12.483  1.00  0.00     0.049 A 
ATOM     66  H   UNL     1      14.368 -10.250 -10.790  1.00  0.00     0.167 HD
ATOM     67  C   UNL     1      13.444  -9.777 -13.421  1.00  0.00     0.074 A 
ATOM     68  C   UNL     1      12.633  -9.309 -14.525  1.00  0.00     0.031 C 
ATOM     69  C   UNL     1      14.625 -10.427 -13.567  1.00  0.00     0.031 A 
BRANCH  56  70
ATOM     70  C   UNL     1      17.368 -11.855  -8.224  1.00  0.00    -0.014 A 
ATOM     71  C   UNL     1      17.240 -13.065  -7.525  1.00  0.00     0.009 A 
ATOM     72  C   UNL     1      18.616 -11.215  -8.261  1.00  0.00     0.009 A 
ATOM     73  C   UNL     1      18.335 -13.608  -6.850  1.00  0.00     0.001 A 
ATOM     74  C   UNL     1      19.714 -11.771  -7.603  1.00  0.00     0.001 A 
ATOM     75  C   UNL     1      19.570 -12.962  -6.891  1.00  0.00     0.000 A 
ENDBRANCH  56  70
BRANCH  57  76
ATOM     76  C   UNL     1       9.397  -7.606 -12.442  1.00  0.00    -0.014 A 
ATOM     77  C   UNL     1       8.438  -8.382 -13.108  1.00  0.00     0.009 A 
ATOM     78  C   UNL     1       9.245  -6.211 -12.415  1.00  0.00     0.009 A 
ATOM     79  C   UNL     1       7.360  -7.772 -13.754  1.00  0.00     0.001 A 
ATOM     80  C   UNL     1       8.155  -5.606 -13.043  1.00  0.00     0.001 A 
ATOM     81  C   UNL     1       7.217  -6.386 -13.718  1.00  0.00     0.000 A 
ENDBRANCH  57  76
BRANCH  69  82
ATOM     82  C   UNL     1      15.097 -10.694 -14.967  1.00  0.00    -0.014 A 
ATOM     83  C   UNL     1      15.651  -9.673 -15.753  1.00  0.00     0.009 A 
ATOM     84  C   UNL     1      15.033 -11.997 -15.484  1.00  0.00     0.009 A 
ATOM     85  C   UNL     1      16.113  -9.949 -17.041  1.00  0.00     0.001 A 
ATOM     86  C   UNL     1      15.517 -12.274 -16.763  1.00  0.00     0.001 A 
ATOM     87  C   UNL     1      16.050 -11.249 -17.543  1.00  0.00     0.000 A 
ENDBRANCH  69  82
ENDBRANCH  43  44
ENDBRANCH  36  38
ENDBRANCH  35  36
ENDBRANCH  34  35
ENDBRANCH  33  34
ENDBRANCH  32  33
ENDBRANCH  31  32
ENDBRANCH  30  31
ENDBRANCH  29  30
ENDBRANCH   1  29
TORSDOF 23
