REMARK SMILES CC[C@H]1CCC[C@H](O[C@@H]2CC[C@]([NH2+]C(C)C)(C(=O)OCCOCCOCCOCCOC(=O)c3ccc(-c4c5nc(c(-c6ccccc6)c6ccc([nH]6)c(-c6ccccc6)c6nc(c(-c7ccccc7)c7ccc4[nH]7)C=C6)C=C5)cc3)C2)C1
REMARK SMILES IDX 24 1 23 2 22 3 21 4 20 5 19 6 17 7 18 8 12 9 9 10 10 11
REMARK SMILES IDX 82 12 11 13 8 14 7 15 3 16 4 17 83 18 5 19 6 20 2 21 1 22
REMARK SMILES IDX 13 23 14 26 15 27 16 28 25 29 26 30 27 31 28 32 29 33 30 34
REMARK SMILES IDX 31 35 32 36 33 37 34 38 35 39 81 40 36 41 80 42 37 43 38 44
REMARK SMILES IDX 39 45 74 46 40 47 79 48 73 49 75 50 41 51 78 52 72 53 71 54
REMARK SMILES IDX 42 56 64 57 49 58 63 59 50 60 53 61 62 62 76 63 51 64 52 65
REMARK SMILES IDX 61 67 77 68 54 69 43 70 44 71 48 72 45 73 47 74 46 75 65 76
REMARK SMILES IDX 66 77 70 78 67 79 69 80 68 81 55 82 56 83 60 84 57 85 59 86
REMARK SMILES IDX 58 87
REMARK H PARENT 13 24 13 25 75 55 53 66
REMARK Flexibility Score: inf
ROOT
ATOM      1  C   UNL     1      -3.445   0.638   2.962  1.00  0.00     0.188 C 
ENDROOT
BRANCH   1   2
ATOM      2  C   UNL     1      -4.827   1.031   2.398  1.00  0.00     0.188 C 
BRANCH   2   3
ATOM      3  O   UNL     1      -5.477   0.086   1.577  1.00  0.00    -0.376 OA
BRANCH   3   4
ATOM      4  C   UNL     1      -4.844  -0.408   0.409  1.00  0.00     0.202 C 
BRANCH   4   5
ATOM      5  C   UNL     1      -3.563   0.168  -0.237  1.00  0.00     0.261 C 
BRANCH   5   6
ATOM      6  O   UNL     1      -2.942   1.340   0.307  1.00  0.00    -0.459 OA
BRANCH   6   7
ATOM      7  C   UNL     1      -3.446   2.571   0.020  1.00  0.00     0.368 C 
ATOM      8  O   UNL     1      -4.444   2.740  -0.668  1.00  0.00    -0.245 OA
BRANCH   7   9
ATOM      9  C   UNL     1      -2.601   3.709   0.727  1.00  0.00     0.197 C 
ATOM     10  C   UNL     1      -0.677   4.249   2.107  1.00  0.00     0.125 C 
ATOM     11  C   UNL     1      -1.893   4.488   3.002  1.00  0.00     0.039 C 
ATOM     12  C   UNL     1      -1.184   3.244   1.093  1.00  0.00     0.113 C 
ATOM     13  C   UNL     1      -3.123   4.136   2.132  1.00  0.00     0.084 C 
BRANCH  10  14
ATOM     14  O   UNL     1       0.570   4.011   2.739  1.00  0.00    -0.375 OA
BRANCH  14  15
ATOM     15  C   UNL     1       1.037   2.744   3.212  1.00  0.00     0.118 C 
ATOM     16  C   UNL     1       1.702   0.296   2.621  1.00  0.00    -0.009 C 
ATOM     17  C   UNL     1       0.836  -0.130   3.819  1.00  0.00     0.004 C 
ATOM     18  C   UNL     1       1.306   1.694   2.118  1.00  0.00     0.035 C 
ATOM     19  C   UNL     1       0.809   0.911   4.931  1.00  0.00     0.003 C 
ATOM     20  C   UNL     1       0.245   2.226   4.408  1.00  0.00     0.032 C 
BRANCH  16  21
ATOM     21  C   UNL     1       3.203   0.144   2.913  1.00  0.00     0.000 C 
ATOM     22  C   UNL     1       4.077   0.423   1.695  1.00  0.00     0.004 C 
ENDBRANCH  16  21
ENDBRANCH  14  15
ENDBRANCH  10  14
BRANCH   9  23
ATOM     23  N   UNL     1      -2.640   4.917  -0.119  1.00  0.00    -0.330 N 
ATOM     24  H   UNL     1      -2.304   5.700   0.442  1.00  0.00     0.347 HD
ATOM     25  H   UNL     1      -3.609   5.001  -0.426  1.00  0.00     0.347 HD
BRANCH  23  26
ATOM     26  C   UNL     1      -1.848   4.879  -1.345  1.00  0.00     0.176 C 
ATOM     27  C   UNL     1      -2.691   5.530  -2.438  1.00  0.00     0.075 C 
ATOM     28  C   UNL     1      -0.537   5.646  -1.161  1.00  0.00     0.075 C 
ENDBRANCH  23  26
ENDBRANCH   9  23
ENDBRANCH   7   9
ENDBRANCH   6   7
ENDBRANCH   5   6
ENDBRANCH   4   5
ENDBRANCH   3   4
ENDBRANCH   2   3
ENDBRANCH   1   2
BRANCH   1  29
ATOM     29  O   UNL     1      -3.075  -0.693   2.626  1.00  0.00    -0.377 OA
BRANCH  29  30
ATOM     30  C   UNL     1      -3.355  -1.644   3.648  1.00  0.00     0.188 C 
BRANCH  30  31
ATOM     31  C   UNL     1      -4.767  -1.582   4.266  1.00  0.00     0.188 C 
BRANCH  31  32
ATOM     32  O   UNL     1      -5.090  -0.303   4.791  1.00  0.00    -0.376 OA
BRANCH  32  33
ATOM     33  C   UNL     1      -4.945   0.028   6.156  1.00  0.00     0.202 C 
BRANCH  33  34
ATOM     34  C   UNL     1      -3.573  -0.061   6.839  1.00  0.00     0.261 C 
BRANCH  34  35
ATOM     35  O   UNL     1      -2.803  -1.243   6.606  1.00  0.00    -0.460 OA
BRANCH  35  36
ATOM     36  C   UNL     1      -3.321  -2.420   7.008  1.00  0.00     0.338 C 
ATOM     37  O   UNL     1      -4.372  -2.603   7.596  1.00  0.00    -0.246 OA
BRANCH  36  38
ATOM     38  C   UNL     1      -2.484  -3.480   6.407  1.00  0.00     0.060 A 
ATOM     39  C   UNL     1      -3.089  -4.434   5.578  1.00  0.00     0.016 A 
ATOM     40  C   UNL     1      -1.103  -3.500   6.622  1.00  0.00     0.016 A 
ATOM     41  C   UNL     1      -2.317  -5.427   4.979  1.00  0.00     0.010 A 
ATOM     42  C   UNL     1      -0.335  -4.516   6.052  1.00  0.00     0.010 A 
ATOM     43  C   UNL     1      -0.948  -5.502   5.258  1.00  0.00    -0.014 A 
BRANCH  43  44
ATOM     44  C   UNL     1      -0.211  -6.740   4.924  1.00  0.00     0.031 A 
ATOM     45  C   UNL     1      -0.086  -7.789   5.994  1.00  0.00     0.074 A 
ATOM     46  C   UNL     1       0.306  -6.944   3.701  1.00  0.00     0.049 A 
ATOM     47  N   UNL     1       0.533  -8.939   5.962  1.00  0.00    -0.248 NA
ATOM     48  C   UNL     1      -0.753  -7.497   7.275  1.00  0.00     0.031 C 
ATOM     49  C   UNL     1       0.193  -6.031   2.566  1.00  0.00     0.029 A 
ATOM     50  N   UNL     1       1.035  -8.000   3.217  1.00  0.00    -0.354 N 
ATOM     51  C   UNL     1       0.345  -9.498   7.220  1.00  0.00     0.074 A 
ATOM     52  C   UNL     1      -0.423  -8.554   7.998  1.00  0.00     0.031 C 
ATOM     53  C   UNL     1       0.834  -6.569   1.512  1.00  0.00     0.029 A 
ATOM     54  C   UNL     1       1.433  -7.840   1.913  1.00  0.00     0.049 A 
ATOM     55  H   UNL     1       1.252  -8.797   3.753  1.00  0.00     0.167 HD
ATOM     56  C   UNL     1       0.775 -10.694   7.685  1.00  0.00     0.031 A 
ATOM     57  C   UNL     1       2.211  -8.626   1.143  1.00  0.00     0.031 A 
ATOM     58  C   UNL     1       1.553 -11.623   6.912  1.00  0.00     0.049 A 
ATOM     59  C   UNL     1       2.759  -9.908   1.718  1.00  0.00     0.074 A 
ATOM     60  C   UNL     1       2.024 -12.869   7.284  1.00  0.00     0.029 A 
ATOM     61  N   UNL     1       1.986 -11.398   5.615  1.00  0.00    -0.354 N 
ATOM     62  N   UNL     1       2.555 -10.442   2.898  1.00  0.00    -0.248 NA
ATOM     63  C   UNL     1       3.643 -10.696   0.847  1.00  0.00     0.031 C 
ATOM     64  C   UNL     1       2.804 -13.367   6.236  1.00  0.00     0.029 A 
ATOM     65  C   UNL     1       2.753 -12.466   5.184  1.00  0.00     0.049 A 
ATOM     66  H   UNL     1       1.779 -10.598   5.080  1.00  0.00     0.167 HD
ATOM     67  C   UNL     1       3.253 -11.644   2.898  1.00  0.00     0.074 A 
ATOM     68  C   UNL     1       3.877 -11.765   1.596  1.00  0.00     0.031 C 
ATOM     69  C   UNL     1       3.365 -12.569   3.884  1.00  0.00     0.031 A 
BRANCH  56  70
ATOM     70  C   UNL     1       0.460 -11.031   9.116  1.00  0.00    -0.014 A 
ATOM     71  C   UNL     1      -0.850 -11.312   9.537  1.00  0.00     0.009 A 
ATOM     72  C   UNL     1       1.501 -11.084  10.056  1.00  0.00     0.009 A 
ATOM     73  C   UNL     1      -1.114 -11.601  10.878  1.00  0.00     0.001 A 
ATOM     74  C   UNL     1       1.239 -11.405  11.388  1.00  0.00     0.001 A 
ATOM     75  C   UNL     1      -0.069 -11.653  11.800  1.00  0.00     0.000 A 
ENDBRANCH  56  70
BRANCH  57  76
ATOM     76  C   UNL     1       2.538  -8.224  -0.251  1.00  0.00    -0.014 A 
ATOM     77  C   UNL     1       2.054  -8.964  -1.341  1.00  0.00     0.009 A 
ATOM     78  C   UNL     1       3.362  -7.114  -0.499  1.00  0.00     0.009 A 
ATOM     79  C   UNL     1       2.411  -8.618  -2.647  1.00  0.00     0.001 A 
ATOM     80  C   UNL     1       3.692  -6.753  -1.807  1.00  0.00     0.001 A 
ATOM     81  C   UNL     1       3.225  -7.511  -2.879  1.00  0.00     0.000 A 
ENDBRANCH  57  76
BRANCH  69  82
ATOM     82  C   UNL     1       4.152 -13.815   3.579  1.00  0.00    -0.014 A 
ATOM     83  C   UNL     1       5.548 -13.787   3.437  1.00  0.00     0.009 A 
ATOM     84  C   UNL     1       3.484 -15.047   3.482  1.00  0.00     0.009 A 
ATOM     85  C   UNL     1       6.253 -14.963   3.166  1.00  0.00     0.001 A 
ATOM     86  C   UNL     1       4.195 -16.224   3.248  1.00  0.00     0.001 A 
ATOM     87  C   UNL     1       5.577 -16.179   3.079  1.00  0.00     0.000 A 
ENDBRANCH  69  82
ENDBRANCH  43  44
ENDBRANCH  36  38
ENDBRANCH  35  36
ENDBRANCH  34  35
ENDBRANCH  33  34
ENDBRANCH  32  33
ENDBRANCH  31  32
ENDBRANCH  30  31
ENDBRANCH  29  30
ENDBRANCH   1  29
TORSDOF 25
