REMARK SMILES Cc1ccc(-c2cc(C(=O)OCCOCCOCCOCCOC(=O)c3ccc(-c4c5nc(c(-c6ccccc6)c6ccc([nH]6)c(-c6ccccc6)c6nc(c(-c7ccccc7)c7ccc4[nH]7)C=C6)C=C5)cc3)c3c(-c4cccc([N+](=O)[O-])c4)[nH]nc3n2)cc1
REMARK SMILES IDX 17 1 16 2 15 3 14 4 13 5 12 6 11 7 9 8 10 9 8 10 6 11 7 12
REMARK SMILES IDX 88 13 87 14 74 15 86 16 75 17 85 18 5 20 1 21 2 22 3 23
REMARK SMILES IDX 90 24 4 25 89 26 76 27 77 28 84 29 78 30 80 31 79 32 81 33
REMARK SMILES IDX 82 34 83 35 18 36 19 37 20 38 21 39 22 40 23 41 24 42 25 43
REMARK SMILES IDX 26 44 27 45 73 46 28 47 72 48 29 49 30 50 31 51 66 52 32 53
REMARK SMILES IDX 71 54 65 55 67 56 33 57 70 58 64 59 63 60 34 62 56 63 41 64
REMARK SMILES IDX 55 65 42 66 45 67 54 68 68 69 43 70 44 71 53 73 69 74 46 75
REMARK SMILES IDX 35 76 36 77 40 78 37 79 39 80 38 81 57 82 58 83 62 84 59 85
REMARK SMILES IDX 61 86 60 87 47 88 48 89 52 90 49 91 51 92 50 93
REMARK H PARENT 85 19 67 61 45 72
REMARK Flexibility Score: inf
ROOT
ATOM      1  O   UNL     1      -5.575  -1.233  -3.468  1.00  0.00    -0.377 OA
ENDROOT
BRANCH   1   2
ATOM      2  C   UNL     1      -7.001  -1.237  -3.399  1.00  0.00     0.188 C 
BRANCH   2   3
ATOM      3  C   UNL     1      -8.193  -0.547  -4.353  1.00  0.00     0.188 C 
BRANCH   3   4
ATOM      4  O   UNL     1      -8.608   1.067  -5.051  1.00  0.00    -0.376 OA
BRANCH   4   5
ATOM      5  C   UNL     1      -7.960   2.697  -4.992  1.00  0.00     0.202 C 
BRANCH   5   6
ATOM      6  C   UNL     1      -6.914   3.488  -3.647  1.00  0.00     0.261 C 
BRANCH   6   7
ATOM      7  O   UNL     1      -6.557   2.742  -2.016  1.00  0.00    -0.460 OA
BRANCH   7   8
ATOM      8  C   UNL     1      -6.969   1.810  -0.917  1.00  0.00     0.339 C 
ATOM      9  O   UNL     1      -8.103   1.767  -0.458  1.00  0.00    -0.246 OA
BRANCH   8  10
ATOM     10  C   UNL     1      -6.109   0.733  -0.134  1.00  0.00     0.075 A 
ATOM     11  C   UNL     1      -3.959  -0.320   0.830  1.00  0.00     0.074 A 
ATOM     12  C   UNL     1      -4.710   0.483  -0.071  1.00  0.00     0.045 A 
ATOM     13  N   UNL     1      -4.513  -1.071   1.785  1.00  0.00    -0.226 NA
ATOM     14  C   UNL     1      -5.867  -1.049   1.719  1.00  0.00     0.182 A 
ATOM     15  C   UNL     1      -6.644  -0.224   0.786  1.00  0.00     0.061 A 
ATOM     16  N   UNL     1      -6.638  -1.817   2.482  1.00  0.00    -0.154 NA
ATOM     17  C   UNL     1      -7.935  -0.729   0.943  1.00  0.00     0.076 A 
ATOM     18  N   UNL     1      -7.861  -1.591   2.011  1.00  0.00    -0.275 N 
ATOM     19  H   UNL     1      -8.660  -2.014   2.401  1.00  0.00     0.190 HD
BRANCH  11  20
ATOM     20  C   UNL     1      -2.476  -0.322   0.703  1.00  0.00     0.000 A 
ATOM     21  C   UNL     1       1.827  -0.209   0.039  1.00  0.00     0.044 C 
ATOM     22  C   UNL     1       0.340  -0.238   0.248  1.00  0.00    -0.051 A 
ATOM     23  C   UNL     1      -0.370  -1.442   0.157  1.00  0.00     0.004 A 
ATOM     24  C   UNL     1      -0.360   0.924   0.578  1.00  0.00     0.004 A 
ATOM     25  C   UNL     1      -1.758  -1.482   0.381  1.00  0.00     0.010 A 
ATOM     26  C   UNL     1      -1.745   0.881   0.796  1.00  0.00     0.010 A 
ENDBRANCH  11  20
BRANCH  17  27
ATOM     27  C   UNL     1      -9.211  -0.638   0.241  1.00  0.00     0.007 A 
ATOM     28  C   UNL     1     -10.198   0.245   0.694  1.00  0.00     0.011 A 
ATOM     29  C   UNL     1      -9.490  -1.477  -0.846  1.00  0.00     0.096 A 
ATOM     30  C   UNL     1     -11.424   0.344   0.035  1.00  0.00     0.008 A 
ATOM     31  C   UNL     1     -10.723  -1.365  -1.509  1.00  0.00     0.270 A 
ATOM     32  C   UNL     1     -11.691  -0.453  -1.077  1.00  0.00     0.085 A 
BRANCH  31  33
ATOM     33  N   UNL     1     -10.950  -2.116  -2.751  1.00  0.00     0.062 N 
ATOM     34  O   UNL     1     -11.834  -1.709  -3.520  1.00  0.00    -0.258 OA
ATOM     35  O   UNL     1     -10.202  -3.075  -2.989  1.00  0.00    -0.258 OA
ENDBRANCH  31  33
ENDBRANCH  17  27
ENDBRANCH   8  10
ENDBRANCH   7   8
ENDBRANCH   6   7
ENDBRANCH   5   6
ENDBRANCH   4   5
ENDBRANCH   3   4
ENDBRANCH   2   3
ENDBRANCH   1   2
BRANCH   1  36
ATOM     36  C   UNL     1      -4.776  -1.780  -4.496  1.00  0.00     0.188 C 
BRANCH  36  37
ATOM     37  C   UNL     1      -5.196  -3.024  -5.239  1.00  0.00     0.188 C 
BRANCH  37  38
ATOM     38  O   UNL     1      -6.591  -3.015  -5.466  1.00  0.00    -0.376 OA
BRANCH  38  39
ATOM     39  C   UNL     1      -7.083  -4.242  -5.988  1.00  0.00     0.202 C 
BRANCH  39  40
ATOM     40  C   UNL     1      -6.608  -4.498  -7.428  1.00  0.00     0.261 C 
BRANCH  40  41
ATOM     41  O   UNL     1      -6.910  -3.355  -8.260  1.00  0.00    -0.460 OA
BRANCH  41  42
ATOM     42  C   UNL     1      -5.873  -2.556  -8.633  1.00  0.00     0.338 C 
ATOM     43  O   UNL     1      -4.760  -2.953  -9.017  1.00  0.00    -0.246 OA
BRANCH  42  44
ATOM     44  C   UNL     1      -6.142  -1.169  -8.187  1.00  0.00     0.060 A 
ATOM     45  C   UNL     1      -5.156  -0.264  -7.797  1.00  0.00     0.016 A 
ATOM     46  C   UNL     1      -7.405  -0.861  -7.811  1.00  0.00     0.016 A 
ATOM     47  C   UNL     1      -5.362   0.647  -6.697  1.00  0.00     0.010 A 
ATOM     48  C   UNL     1      -7.535   0.001  -6.726  1.00  0.00     0.010 A 
ATOM     49  C   UNL     1      -6.491   0.606  -5.872  1.00  0.00    -0.014 A 
BRANCH  49  50
ATOM     50  C   UNL     1      -6.554   1.168  -4.082  1.00  0.00     0.031 A 
ATOM     51  C   UNL     1      -8.267   1.568  -3.097  1.00  0.00     0.074 A 
ATOM     52  C   UNL     1      -5.191   1.440  -3.677  1.00  0.00     0.049 A 
ATOM     53  N   UNL     1      -8.600   2.790  -2.574  1.00  0.00    -0.248 NA
ATOM     54  C   UNL     1      -9.851   1.146  -3.244  1.00  0.00     0.031 C 
ATOM     55  C   UNL     1      -4.526   1.921  -2.441  1.00  0.00     0.029 A 
ATOM     56  N   UNL     1      -4.013   1.512  -4.465  1.00  0.00    -0.354 N 
ATOM     57  C   UNL     1      -9.851   3.080  -2.131  1.00  0.00     0.074 A 
ATOM     58  C   UNL     1     -10.643   2.108  -2.763  1.00  0.00     0.031 C 
ATOM     59  C   UNL     1      -3.232   2.212  -2.491  1.00  0.00     0.029 A 
ATOM     60  C   UNL     1      -3.019   2.319  -3.859  1.00  0.00     0.049 A 
ATOM     61  H   UNL     1      -3.901   1.056  -5.331  1.00  0.00     0.167 HD
ATOM     62  C   UNL     1     -10.095   4.073  -1.223  1.00  0.00     0.031 A 
ATOM     63  C   UNL     1      -2.621   3.528  -4.321  1.00  0.00     0.031 A 
ATOM     64  C   UNL     1      -8.860   4.673  -0.672  1.00  0.00     0.049 A 
ATOM     65  C   UNL     1      -3.215   4.728  -3.516  1.00  0.00     0.074 A 
ATOM     66  C   UNL     1      -8.145   4.393   0.484  1.00  0.00     0.029 A 
ATOM     67  N   UNL     1      -8.001   5.460  -1.447  1.00  0.00    -0.354 N 
ATOM     68  N   UNL     1      -4.406   4.780  -2.932  1.00  0.00    -0.248 NA
ATOM     69  C   UNL     1      -2.390   5.866  -3.115  1.00  0.00     0.031 C 
ATOM     70  C   UNL     1      -6.792   4.808   0.289  1.00  0.00     0.029 A 
ATOM     71  C   UNL     1      -6.691   5.463  -0.936  1.00  0.00     0.049 A 
ATOM     72  H   UNL     1      -8.280   5.952  -2.252  1.00  0.00     0.167 HD
ATOM     73  C   UNL     1      -4.538   5.931  -2.161  1.00  0.00     0.074 A 
ATOM     74  C   UNL     1      -3.215   6.540  -2.291  1.00  0.00     0.031 C 
ATOM     75  C   UNL     1      -5.639   6.372  -1.438  1.00  0.00     0.031 A 
BRANCH  62  76
ATOM     76  C   UNL     1     -11.469   4.101  -0.567  1.00  0.00    -0.014 A 
ATOM     77  C   UNL     1     -11.596   4.236   0.825  1.00  0.00     0.009 A 
ATOM     78  C   UNL     1     -12.666   3.854  -1.273  1.00  0.00     0.009 A 
ATOM     79  C   UNL     1     -12.810   3.980   1.485  1.00  0.00     0.001 A 
ATOM     80  C   UNL     1     -13.868   3.538  -0.618  1.00  0.00     0.001 A 
ATOM     81  C   UNL     1     -13.933   3.581   0.767  1.00  0.00     0.000 A 
ENDBRANCH  62  76
BRANCH  63  82
ATOM     82  C   UNL     1      -2.061   3.274  -5.675  1.00  0.00    -0.014 A 
ATOM     83  C   UNL     1      -1.093   2.216  -5.723  1.00  0.00     0.009 A 
ATOM     84  C   UNL     1      -2.811   3.522  -6.822  1.00  0.00     0.009 A 
ATOM     85  C   UNL     1      -1.078   1.290  -6.768  1.00  0.00     0.001 A 
ATOM     86  C   UNL     1      -2.725   2.633  -7.910  1.00  0.00     0.001 A 
ATOM     87  C   UNL     1      -1.912   1.492  -7.856  1.00  0.00     0.000 A 
ENDBRANCH  63  82
BRANCH  75  88
ATOM     88  C   UNL     1      -5.849   7.830  -0.998  1.00  0.00    -0.014 A 
ATOM     89  C   UNL     1      -5.172   8.924  -1.544  1.00  0.00     0.009 A 
ATOM     90  C   UNL     1      -6.934   8.148  -0.136  1.00  0.00     0.009 A 
ATOM     91  C   UNL     1      -5.548  10.243  -1.244  1.00  0.00     0.001 A 
ATOM     92  C   UNL     1      -7.354   9.454   0.113  1.00  0.00     0.001 A 
ATOM     93  C   UNL     1      -6.654  10.508  -0.441  1.00  0.00     0.000 A 
ENDBRANCH  75  88
ENDBRANCH  49  50
ENDBRANCH  42  44
ENDBRANCH  41  42
ENDBRANCH  40  41
ENDBRANCH  39  40
ENDBRANCH  38  39
ENDBRANCH  37  38
ENDBRANCH  36  37
ENDBRANCH   1  36
TORSDOF 23
