REMARK SMILES Cc1ccc(C(=O)OCCOCCOCCOCCOC(=O)c2ccc(-c3c4nc(c(-c5ccccc5)c5ccc([nH]5)c(-c5ccccc5)c5nc(c(-c6ccccc6)c6ccc3[nH]6)C=C5)C=C4)cc2)cc1NC(=O)c1ccc(Br)o1
REMARK SMILES IDX 14 1 13 2 12 3 11 4 10 5 9 6 8 7 6 8 7 9 5 10 1 11 2 12 3 13
REMARK SMILES IDX 72 14 4 15 71 16 73 17 74 18 75 20 76 21 77 22 81 23 78 24
REMARK SMILES IDX 79 25 80 26 15 27 16 28 17 29 18 30 19 31 20 32 21 33 22 34
REMARK SMILES IDX 23 35 24 36 70 37 25 38 69 39 26 40 27 41 28 42 63 43 29 44
REMARK SMILES IDX 68 45 62 46 64 47 30 48 67 49 61 50 60 51 31 53 53 54 38 55
REMARK SMILES IDX 52 56 39 57 42 58 51 59 65 60 40 61 41 62 50 64 66 65 43 66
REMARK SMILES IDX 32 67 33 68 37 69 34 70 36 71 35 72 54 73 55 74 59 75 56 76
REMARK SMILES IDX 58 77 57 78 44 79 45 80 49 81 46 82 48 83 47 84
REMARK H PARENT 73 19 64 52 42 63
REMARK Flexibility Score: inf
ROOT
ATOM      1  O   UNL     1      -1.392   0.409  -3.200  1.00  0.00    -0.377 OA
ENDROOT
BRANCH   1   2
ATOM      2  C   UNL     1      -1.248  -0.997  -3.240  1.00  0.00     0.188 C 
BRANCH   2   3
ATOM      3  C   UNL     1      -1.722  -2.008  -2.153  1.00  0.00     0.188 C 
BRANCH   3   4
ATOM      4  O   UNL     1      -3.058  -2.312  -1.789  1.00  0.00    -0.376 OA
BRANCH   4   5
ATOM      5  C   UNL     1      -3.568  -1.509  -0.752  1.00  0.00     0.202 C 
BRANCH   5   6
ATOM      6  C   UNL     1      -3.566  -1.841   0.729  1.00  0.00     0.261 C 
BRANCH   6   7
ATOM      7  O   UNL     1      -2.439  -1.668   1.513  1.00  0.00    -0.460 OA
BRANCH   7   8
ATOM      8  C   UNL     1      -1.587  -2.673   1.440  1.00  0.00     0.338 C 
ATOM      9  O   UNL     1      -1.822  -3.859   1.390  1.00  0.00    -0.246 OA
BRANCH   8  10
ATOM     10  C   UNL     1      -0.358  -1.962   1.109  1.00  0.00     0.062 A 
ATOM     11  C   UNL     1       3.113   0.001  -0.270  1.00  0.00     0.046 C 
ATOM     12  C   UNL     1       1.769  -0.600   0.027  1.00  0.00    -0.027 A 
ATOM     13  C   UNL     1       1.809  -2.011   0.207  1.00  0.00     0.006 A 
ATOM     14  C   UNL     1       0.548   0.080   0.221  1.00  0.00     0.045 A 
ATOM     15  C   UNL     1       0.720  -2.703   0.691  1.00  0.00     0.016 A 
ATOM     16  C   UNL     1      -0.412  -0.573   0.922  1.00  0.00     0.042 A 
BRANCH  14  17
ATOM     17  N   UNL     1       0.174   1.353  -0.216  1.00  0.00    -0.319 N 
ATOM     18  C   UNL     1      -1.089   1.997  -0.353  1.00  0.00     0.291 C 
ATOM     19  H   UNL     1       0.935   1.917  -0.484  1.00  0.00     0.170 HD
ATOM     20  O   UNL     1      -0.891   3.176  -0.722  1.00  0.00    -0.265 OA
BRANCH  18  21
ATOM     21  C   UNL     1      -2.659   1.451  -0.318  1.00  0.00     0.193 A 
ATOM     22  C   UNL     1      -4.122   1.628   0.838  1.00  0.00     0.057 A 
ATOM     23  O   UNL     1      -3.260   2.286  -1.872  1.00  0.00    -0.444 OA
ATOM     24  C   UNL     1      -5.587   2.751  -0.093  1.00  0.00     0.059 A 
ATOM     25  C   UNL     1      -4.934   3.134  -1.821  1.00  0.00     0.170 A 
ATOM     26  Br  UNL     1      -4.851   4.207  -3.399  1.00  0.00    -0.008 Br
ENDBRANCH  18  21
ENDBRANCH  14  17
ENDBRANCH   8  10
ENDBRANCH   7   8
ENDBRANCH   6   7
ENDBRANCH   5   6
ENDBRANCH   4   5
ENDBRANCH   3   4
ENDBRANCH   2   3
ENDBRANCH   1   2
BRANCH   1  27
ATOM     27  C   UNL     1      -2.595   0.955  -3.698  1.00  0.00     0.188 C 
BRANCH  27  28
ATOM     28  C   UNL     1      -3.240   0.582  -4.994  1.00  0.00     0.188 C 
BRANCH  28  29
ATOM     29  O   UNL     1      -3.613  -0.775  -4.855  1.00  0.00    -0.376 OA
BRANCH  29  30
ATOM     30  C   UNL     1      -3.683  -1.510  -6.050  1.00  0.00     0.202 C 
BRANCH  30  31
ATOM     31  C   UNL     1      -4.491  -0.803  -7.142  1.00  0.00     0.261 C 
BRANCH  31  32
ATOM     32  O   UNL     1      -5.895  -0.836  -6.771  1.00  0.00    -0.460 OA
BRANCH  32  33
ATOM     33  C   UNL     1      -6.466   0.340  -6.376  1.00  0.00     0.338 C 
ATOM     34  O   UNL     1      -6.461   1.373  -7.026  1.00  0.00    -0.246 OA
BRANCH  33  35
ATOM     35  C   UNL     1      -6.858   0.276  -4.926  1.00  0.00     0.060 A 
ATOM     36  C   UNL     1      -7.276   1.408  -4.247  1.00  0.00     0.016 A 
ATOM     37  C   UNL     1      -6.298  -0.715  -4.156  1.00  0.00     0.016 A 
ATOM     38  C   UNL     1      -6.745   1.664  -2.963  1.00  0.00     0.010 A 
ATOM     39  C   UNL     1      -5.577  -0.325  -3.014  1.00  0.00     0.010 A 
ATOM     40  C   UNL     1      -5.619   0.963  -2.450  1.00  0.00    -0.014 A 
BRANCH  40  41
ATOM     41  C   UNL     1      -4.648   1.428  -0.973  1.00  0.00     0.031 A 
ATOM     42  C   UNL     1      -5.849   0.255  -0.021  1.00  0.00     0.074 A 
ATOM     43  C   UNL     1      -3.762   3.050  -0.324  1.00  0.00     0.049 A 
ATOM     44  N   UNL     1      -5.904  -0.094   1.245  1.00  0.00    -0.248 NA
ATOM     45  C   UNL     1      -6.977  -0.568  -0.634  1.00  0.00     0.031 C 
ATOM     46  C   UNL     1      -2.933   3.550   1.130  1.00  0.00     0.029 A 
ATOM     47  N   UNL     1      -3.830   4.597  -0.672  1.00  0.00    -0.354 N 
ATOM     48  C   UNL     1      -6.481  -1.403   1.404  1.00  0.00     0.074 A 
ATOM     49  C   UNL     1      -7.191  -1.611   0.190  1.00  0.00     0.031 C 
ATOM     50  C   UNL     1      -3.182   4.831   1.438  1.00  0.00     0.029 A 
ATOM     51  C   UNL     1      -4.181   5.296   0.512  1.00  0.00     0.049 A 
ATOM     52  H   UNL     1      -3.659   5.001  -1.553  1.00  0.00     0.167 HD
ATOM     53  C   UNL     1      -6.106  -2.198   2.481  1.00  0.00     0.031 A 
ATOM     54  C   UNL     1      -5.503   5.496   0.866  1.00  0.00     0.031 A 
ATOM     55  C   UNL     1      -5.465  -1.318   3.449  1.00  0.00     0.049 A 
ATOM     56  C   UNL     1      -5.740   4.761   2.247  1.00  0.00     0.074 A 
ATOM     57  C   UNL     1      -4.172  -1.178   3.915  1.00  0.00     0.029 A 
ATOM     58  N   UNL     1      -6.145  -0.167   3.804  1.00  0.00    -0.354 N 
ATOM     59  N   UNL     1      -5.910   3.471   2.495  1.00  0.00    -0.248 NA
ATOM     60  C   UNL     1      -5.432   5.511   3.475  1.00  0.00     0.031 C 
ATOM     61  C   UNL     1      -4.007   0.194   4.234  1.00  0.00     0.029 A 
ATOM     62  C   UNL     1      -5.240   0.826   4.102  1.00  0.00     0.049 A 
ATOM     63  H   UNL     1      -7.125  -0.072   3.837  1.00  0.00     0.167 HD
ATOM     64  C   UNL     1      -5.750   3.243   3.860  1.00  0.00     0.074 A 
ATOM     65  C   UNL     1      -5.417   4.547   4.402  1.00  0.00     0.031 C 
ATOM     66  C   UNL     1      -5.737   2.082   4.595  1.00  0.00     0.031 A 
BRANCH  53  67
ATOM     67  C   UNL     1      -5.981  -3.758   2.669  1.00  0.00    -0.014 A 
ATOM     68  C   UNL     1      -5.141  -4.237   3.722  1.00  0.00     0.009 A 
ATOM     69  C   UNL     1      -6.493  -4.790   1.862  1.00  0.00     0.009 A 
ATOM     70  C   UNL     1      -4.772  -5.584   3.922  1.00  0.00     0.001 A 
ATOM     71  C   UNL     1      -6.163  -6.167   2.089  1.00  0.00     0.001 A 
ATOM     72  C   UNL     1      -5.289  -6.562   3.101  1.00  0.00     0.000 A 
ENDBRANCH  53  67
BRANCH  54  73
ATOM     73  C   UNL     1      -6.512   5.653  -0.312  1.00  0.00    -0.014 A 
ATOM     74  C   UNL     1      -6.169   6.434  -1.450  1.00  0.00     0.009 A 
ATOM     75  C   UNL     1      -7.670   4.869  -0.473  1.00  0.00     0.009 A 
ATOM     76  C   UNL     1      -6.793   6.256  -2.715  1.00  0.00     0.001 A 
ATOM     77  C   UNL     1      -8.242   4.629  -1.750  1.00  0.00     0.001 A 
ATOM     78  C   UNL     1      -7.747   5.257  -2.886  1.00  0.00     0.000 A 
ENDBRANCH  54  73
BRANCH  66  79
ATOM     79  C   UNL     1      -6.253   2.005   6.022  1.00  0.00    -0.014 A 
ATOM     80  C   UNL     1      -7.043   3.011   6.576  1.00  0.00     0.009 A 
ATOM     81  C   UNL     1      -6.157   0.791   6.756  1.00  0.00     0.009 A 
ATOM     82  C   UNL     1      -7.644   2.846   7.824  1.00  0.00     0.001 A 
ATOM     83  C   UNL     1      -6.809   0.599   7.970  1.00  0.00     0.001 A 
ATOM     84  C   UNL     1      -7.537   1.642   8.514  1.00  0.00     0.000 A 
ENDBRANCH  66  79
ENDBRANCH  40  41
ENDBRANCH  33  35
ENDBRANCH  32  33
ENDBRANCH  31  32
ENDBRANCH  30  31
ENDBRANCH  29  30
ENDBRANCH  28  29
ENDBRANCH  27  28
ENDBRANCH   1  27
TORSDOF 22
