REMARK SMILES O=C(OCCOCCOCCOCCOC(=O)[C@H]1CC2=c3ccccc3=N[C@H]2[C@@H](c2ccccc2)[NH2+]1)c1ccc(-c2c3nc(c(-c4ccccc4)c4ccc([nH]4)c(-c4ccccc4)c4nc(c(-c5ccccc5)c5ccc2[nH]5)C=C4)C=C3)cc1
REMARK SMILES IDX 8 1 7 2 6 3 5 4 4 5 3 6 2 7 1 8 37 9 38 10 84 11 39 12 83 13
REMARK SMILES IDX 40 14 41 15 42 16 77 17 43 18 82 19 76 20 78 21 44 22 81 23
REMARK SMILES IDX 75 24 74 25 45 27 67 28 52 29 66 30 53 31 56 32 65 33 79 34
REMARK SMILES IDX 54 35 55 36 64 38 80 39 57 40 46 41 47 42 51 43 48 44 50 45
REMARK SMILES IDX 49 46 68 47 69 48 73 49 70 50 72 51 71 52 58 53 59 54 63 55
REMARK SMILES IDX 60 56 62 57 61 58 9 59 10 60 11 61 12 62 13 63 14 64 15 65
REMARK SMILES IDX 16 66 17 67 18 68 19 69 36 70 20 71 29 72 21 75 28 76 22 77
REMARK SMILES IDX 26 78 27 79 23 80 25 81 24 82 30 83 31 84 35 85 32 86 34 87
REMARK SMILES IDX 33 88
REMARK H PARENT 78 26 56 37 36 73 36 74
REMARK Flexibility Score: inf
ROOT
ATOM      1  C   UNL     1       2.151  -1.717   1.954  1.00  0.00     0.188 C 
ENDROOT
BRANCH   1   2
ATOM      2  C   UNL     1       2.550  -0.425   1.243  1.00  0.00     0.188 C 
BRANCH   2   3
ATOM      3  O   UNL     1       3.835  -0.543   0.634  1.00  0.00    -0.376 OA
BRANCH   3   4
ATOM      4  C   UNL     1       4.758   0.506   0.891  1.00  0.00     0.202 C 
BRANCH   4   5
ATOM      5  C   UNL     1       4.485   1.825   0.186  1.00  0.00     0.261 C 
BRANCH   5   6
ATOM      6  O   UNL     1       3.186   1.986  -0.401  1.00  0.00    -0.460 OA
BRANCH   6   7
ATOM      7  C   UNL     1       2.526   1.368  -1.399  1.00  0.00     0.338 C 
ATOM      8  O   UNL     1       1.344   1.682  -1.556  1.00  0.00    -0.246 OA
BRANCH   7   9
ATOM      9  C   UNL     1       3.071   0.317  -2.318  1.00  0.00     0.060 A 
ATOM     10  C   UNL     1       2.247  -0.035  -3.408  1.00  0.00     0.016 A 
ATOM     11  C   UNL     1       4.267  -0.381  -2.167  1.00  0.00     0.016 A 
ATOM     12  C   UNL     1       2.600  -1.051  -4.299  1.00  0.00     0.010 A 
ATOM     13  C   UNL     1       4.601  -1.441  -3.008  1.00  0.00     0.010 A 
ATOM     14  C   UNL     1       3.787  -1.757  -4.096  1.00  0.00    -0.014 A 
BRANCH  14  15
ATOM     15  C   UNL     1       4.368  -2.621  -5.136  1.00  0.00     0.031 A 
ATOM     16  C   UNL     1       4.381  -4.107  -5.008  1.00  0.00     0.074 A 
ATOM     17  C   UNL     1       5.077  -1.983  -6.086  1.00  0.00     0.049 A 
ATOM     18  N   UNL     1       4.904  -4.986  -5.820  1.00  0.00    -0.248 NA
ATOM     19  C   UNL     1       3.759  -4.685  -3.807  1.00  0.00     0.031 C 
ATOM     20  C   UNL     1       5.206  -0.523  -6.181  1.00  0.00     0.029 A 
ATOM     21  N   UNL     1       5.859  -2.454  -7.103  1.00  0.00    -0.354 N 
ATOM     22  C   UNL     1       4.669  -6.224  -5.237  1.00  0.00     0.074 A 
ATOM     23  C   UNL     1       3.994  -5.981  -3.981  1.00  0.00     0.031 C 
ATOM     24  C   UNL     1       6.032  -0.221  -7.188  1.00  0.00     0.029 A 
ATOM     25  C   UNL     1       6.491  -1.458  -7.805  1.00  0.00     0.049 A 
ATOM     26  H   UNL     1       5.958  -3.411  -7.311  1.00  0.00     0.167 HD
ATOM     27  C   UNL     1       4.992  -7.441  -5.733  1.00  0.00     0.031 A 
ATOM     28  C   UNL     1       7.345  -1.530  -8.841  1.00  0.00     0.031 A 
ATOM     29  C   UNL     1       5.700  -7.617  -6.977  1.00  0.00     0.049 A 
ATOM     30  C   UNL     1       7.656  -2.884  -9.396  1.00  0.00     0.074 A 
ATOM     31  C   UNL     1       5.970  -8.792  -7.653  1.00  0.00     0.029 A 
ATOM     32  N   UNL     1       6.275  -6.587  -7.712  1.00  0.00    -0.354 N 
ATOM     33  N   UNL     1       7.268  -4.055  -8.947  1.00  0.00    -0.248 NA
ATOM     34  C   UNL     1       8.484  -2.940 -10.604  1.00  0.00     0.031 C 
ATOM     35  C   UNL     1       6.785  -8.483  -8.744  1.00  0.00     0.029 A 
ATOM     36  C   UNL     1       6.949  -7.106  -8.804  1.00  0.00     0.049 A 
ATOM     37  H   UNL     1       6.213  -5.630  -7.489  1.00  0.00     0.167 HD
ATOM     38  C   UNL     1       7.789  -4.991  -9.824  1.00  0.00     0.074 A 
ATOM     39  C   UNL     1       8.509  -4.247 -10.842  1.00  0.00     0.031 C 
ATOM     40  C   UNL     1       7.678  -6.341  -9.788  1.00  0.00     0.031 A 
BRANCH  27  41
ATOM     41  C   UNL     1       4.585  -8.675  -4.968  1.00  0.00    -0.014 A 
ATOM     42  C   UNL     1       5.564  -9.577  -4.517  1.00  0.00     0.009 A 
ATOM     43  C   UNL     1       3.233  -9.019  -4.811  1.00  0.00     0.009 A 
ATOM     44  C   UNL     1       5.200 -10.801  -3.948  1.00  0.00     0.001 A 
ATOM     45  C   UNL     1       2.871 -10.230  -4.213  1.00  0.00     0.001 A 
ATOM     46  C   UNL     1       3.854 -11.125  -3.794  1.00  0.00     0.000 A 
ENDBRANCH  27  41
BRANCH  28  47
ATOM     47  C   UNL     1       7.830  -0.260  -9.437  1.00  0.00    -0.014 A 
ATOM     48  C   UNL     1       8.718   0.572  -8.732  1.00  0.00     0.009 A 
ATOM     49  C   UNL     1       7.245   0.221 -10.618  1.00  0.00     0.009 A 
ATOM     50  C   UNL     1       8.970   1.875  -9.171  1.00  0.00     0.001 A 
ATOM     51  C   UNL     1       7.520   1.515 -11.068  1.00  0.00     0.001 A 
ATOM     52  C   UNL     1       8.367   2.346 -10.335  1.00  0.00     0.000 A 
ENDBRANCH  28  47
BRANCH  40  53
ATOM     53  C   UNL     1       8.375  -7.124 -10.864  1.00  0.00    -0.014 A 
ATOM     54  C   UNL     1       7.620  -7.848 -11.800  1.00  0.00     0.009 A 
ATOM     55  C   UNL     1       9.770  -7.268 -10.850  1.00  0.00     0.009 A 
ATOM     56  C   UNL     1       8.246  -8.734 -12.677  1.00  0.00     0.001 A 
ATOM     57  C   UNL     1      10.396  -8.129 -11.752  1.00  0.00     0.001 A 
ATOM     58  C   UNL     1       9.633  -8.873 -12.652  1.00  0.00     0.000 A 
ENDBRANCH  40  53
ENDBRANCH  14  15
ENDBRANCH   7   9
ENDBRANCH   6   7
ENDBRANCH   5   6
ENDBRANCH   4   5
ENDBRANCH   3   4
ENDBRANCH   2   3
ENDBRANCH   1   2
BRANCH   1  59
ATOM     59  O   UNL     1       2.911  -2.042   3.111  1.00  0.00    -0.377 OA
BRANCH  59  60
ATOM     60  C   UNL     1       4.325  -1.960   3.014  1.00  0.00     0.188 C 
BRANCH  60  61
ATOM     61  C   UNL     1       5.082  -2.796   1.959  1.00  0.00     0.188 C 
BRANCH  61  62
ATOM     62  O   UNL     1       4.255  -3.513   1.074  1.00  0.00    -0.376 OA
BRANCH  62  63
ATOM     63  C   UNL     1       3.855  -4.828   1.410  1.00  0.00     0.202 C 
BRANCH  63  64
ATOM     64  C   UNL     1       3.774  -5.383   2.844  1.00  0.00     0.261 C 
BRANCH  64  65
ATOM     65  O   UNL     1       4.092  -4.535   3.947  1.00  0.00    -0.459 OA
BRANCH  65  66
ATOM     66  C   UNL     1       5.312  -4.627   4.550  1.00  0.00     0.365 C 
ATOM     67  O   UNL     1       6.310  -5.135   4.033  1.00  0.00    -0.245 OA
BRANCH  66  68
ATOM     68  C   UNL     1       5.269  -4.070   5.990  1.00  0.00     0.298 C 
ATOM     69  C   UNL     1       5.921  -2.666   6.330  1.00  0.00     0.111 C 
ATOM     70  N   UNL     1       3.881  -4.220   6.477  1.00  0.00    -0.326 N 
ATOM     71  C   UNL     1       5.253  -1.746   7.444  1.00  0.00    -0.024 C 
ATOM     72  C   UNL     1       3.895  -3.748   7.852  1.00  0.00     0.243 C 
ATOM     73  H   UNL     1       3.594  -5.198   6.439  1.00  0.00     0.347 HD
ATOM     74  H   UNL     1       3.222  -3.692   5.905  1.00  0.00     0.347 HD
ATOM     75  C   UNL     1       5.141  -0.433   7.201  1.00  0.00     0.002 A 
ATOM     76  C   UNL     1       3.850  -2.212   7.851  1.00  0.00     0.196 C 
ATOM     77  C   UNL     1       5.241   0.685   8.126  1.00  0.00     0.010 A 
ATOM     78  C   UNL     1       3.771  -0.456   6.587  1.00  0.00     0.066 A 
ATOM     79  N   UNL     1       3.020  -1.504   6.806  1.00  0.00    -0.270 NA
ATOM     80  C   UNL     1       4.683   1.847   7.736  1.00  0.00     0.001 A 
ATOM     81  C   UNL     1       3.490   0.813   5.863  1.00  0.00     0.028 A 
ATOM     82  C   UNL     1       3.999   1.921   6.444  1.00  0.00     0.002 A 
BRANCH  72  83
ATOM     83  C   UNL     1       3.298  -4.745   8.814  1.00  0.00     0.012 A 
ATOM     84  C   UNL     1       3.796  -6.071   8.697  1.00  0.00     0.010 A 
ATOM     85  C   UNL     1       2.602  -4.395   9.966  1.00  0.00     0.010 A 
ATOM     86  C   UNL     1       3.707  -6.980   9.740  1.00  0.00     0.001 A 
ATOM     87  C   UNL     1       2.493  -5.324  11.009  1.00  0.00     0.001 A 
ATOM     88  C   UNL     1       3.070  -6.596  10.909  1.00  0.00     0.000 A 
ENDBRANCH  72  83
ENDBRANCH  66  68
ENDBRANCH  65  66
ENDBRANCH  64  65
ENDBRANCH  63  64
ENDBRANCH  62  63
ENDBRANCH  61  62
ENDBRANCH  60  61
ENDBRANCH  59  60
ENDBRANCH   1  59
TORSDOF 21
