REMARK SMILES Cc1ccc(-c2cnnc(-n3nc(C)c4c3NC(=O)C[C@@H]4c3ccc(C(=O)OCCOCCOCCOCCOC(=O)c4ccc(-c5c6nc(c(-c7ccccc7)c7ccc([nH]7)c(-c7ccccc7)c7nc(c(-c8ccccc8)c8ccc5[nH]8)C=C7)C=C6)cc4)cc3)n2)cc1
REMARK SMILES IDX 33 1 32 2 31 3 30 4 29 5 28 6 26 7 27 8 25 9 22 10 23 11
REMARK SMILES IDX 92 12 24 13 91 14 21 15 11 16 12 17 16 18 13 19 15 20 17 21
REMARK SMILES IDX 14 22 18 23 20 25 19 26 10 27 6 28 7 29 93 30 8 31 9 32 5 33
REMARK SMILES IDX 1 34 2 35 3 36 95 37 4 38 94 39 34 40 35 41 36 42 37 43
REMARK SMILES IDX 38 44 39 45 40 46 41 47 42 48 43 49 44 50 90 51 45 52 89 53
REMARK SMILES IDX 46 54 47 55 48 56 83 57 49 58 88 59 82 60 84 61 50 62 87 63
REMARK SMILES IDX 81 64 80 65 51 67 73 68 58 69 72 70 59 71 62 72 71 73 85 74
REMARK SMILES IDX 60 75 61 76 70 78 86 79 63 80 52 81 53 82 57 83 54 84 56 85
REMARK SMILES IDX 55 86 74 87 75 88 79 89 76 90 78 91 77 92 64 93 65 94 69 95
REMARK SMILES IDX 66 96 68 97 67 98
REMARK H PARENT 17 24 84 66 62 77
REMARK Flexibility Score: inf
ROOT
ATOM      1  C   UNL     1      -8.198   7.313  -7.315  1.00  0.00     0.188 C 
ENDROOT
BRANCH   1   2
ATOM      2  C   UNL     1      -9.448   7.581  -8.244  1.00  0.00     0.188 C 
BRANCH   2   3
ATOM      3  O   UNL     1     -10.912   7.924  -7.760  1.00  0.00    -0.376 OA
BRANCH   3   4
ATOM      4  C   UNL     1     -12.398   7.202  -8.022  1.00  0.00     0.202 C 
BRANCH   4   5
ATOM      5  C   UNL     1     -13.098   5.639  -8.720  1.00  0.00     0.261 C 
BRANCH   5   6
ATOM      6  O   UNL     1     -12.326   4.094  -9.355  1.00  0.00    -0.460 OA
BRANCH   6   7
ATOM      7  C   UNL     1     -11.014   3.381  -9.914  1.00  0.00     0.338 C 
ATOM      8  O   UNL     1     -11.005   2.972 -11.081  1.00  0.00    -0.246 OA
BRANCH   7   9
ATOM      9  C   UNL     1      -9.652   2.862  -9.104  1.00  0.00     0.060 A 
ATOM     10  C   UNL     1      -7.746   1.693  -7.194  1.00  0.00    -0.040 A 
ATOM     11  C   UNL     1      -8.387   0.941  -8.214  1.00  0.00     0.005 A 
ATOM     12  C   UNL     1      -7.911   3.059  -7.290  1.00  0.00     0.005 A 
ATOM     13  C   UNL     1      -9.339   1.503  -9.126  1.00  0.00     0.016 A 
ATOM     14  C   UNL     1      -8.753   3.611  -8.294  1.00  0.00     0.016 A 
BRANCH  10  15
ATOM     15  C   UNL     1      -6.848   1.006  -6.170  1.00  0.00     0.064 C 
ATOM     16  N   UNL     1      -5.869   1.991  -2.808  1.00  0.00    -0.180 N 
ATOM     17  N   UNL     1      -7.163   2.376  -2.661  1.00  0.00    -0.168 NA
ATOM     18  C   UNL     1      -5.584   1.957  -4.165  1.00  0.00     0.143 A 
ATOM     19  C   UNL     1      -7.739   2.088  -3.836  1.00  0.00     0.066 A 
ATOM     20  C   UNL     1      -6.786   1.653  -4.799  1.00  0.00     0.026 A 
ATOM     21  N   UNL     1      -4.436   2.170  -4.898  1.00  0.00    -0.310 N 
ATOM     22  C   UNL     1      -9.192   2.334  -3.937  1.00  0.00     0.069 C 
ATOM     23  C   UNL     1      -4.491   1.885  -6.300  1.00  0.00     0.226 C 
ATOM     24  H   UNL     1      -3.612   2.504  -4.475  1.00  0.00     0.171 HD
ATOM     25  C   UNL     1      -5.427   0.771  -6.703  1.00  0.00     0.113 C 
ATOM     26  O   UNL     1      -3.702   2.460  -7.026  1.00  0.00    -0.275 OA
BRANCH  16  27
ATOM     27  C   UNL     1      -5.156   1.386  -1.716  1.00  0.00     0.272 A 
ATOM     28  C   UNL     1      -3.329   0.392  -0.739  1.00  0.00     0.095 A 
ATOM     29  C   UNL     1      -4.151  -0.145   0.238  1.00  0.00     0.164 A 
ATOM     30  N   UNL     1      -3.823   1.136  -1.780  1.00  0.00    -0.208 NA
ATOM     31  N   UNL     1      -5.462   0.120   0.253  1.00  0.00    -0.153 NA
ATOM     32  N   UNL     1      -5.956   0.930  -0.713  1.00  0.00    -0.109 NA
BRANCH  28  33
ATOM     33  C   UNL     1      -1.868   0.264  -0.601  1.00  0.00     0.002 A 
ATOM     34  C   UNL     1       2.410  -0.036   0.080  1.00  0.00     0.044 C 
ATOM     35  C   UNL     1       0.927   0.074  -0.129  1.00  0.00    -0.051 A 
ATOM     36  C   UNL     1       0.141  -1.080  -0.219  1.00  0.00     0.004 A 
ATOM     37  C   UNL     1       0.309   1.321  -0.256  1.00  0.00     0.004 A 
ATOM     38  C   UNL     1      -1.238  -0.986  -0.448  1.00  0.00     0.011 A 
ATOM     39  C   UNL     1      -1.068   1.412  -0.492  1.00  0.00     0.011 A 
ENDBRANCH  28  33
ENDBRANCH  16  27
ENDBRANCH  10  15
ENDBRANCH   7   9
ENDBRANCH   6   7
ENDBRANCH   5   6
ENDBRANCH   4   5
ENDBRANCH   3   4
ENDBRANCH   2   3
ENDBRANCH   1   2
BRANCH   1  40
ATOM     40  O   UNL     1      -7.455   8.404  -6.791  1.00  0.00    -0.377 OA
BRANCH  40  41
ATOM     41  C   UNL     1      -8.261   9.548  -6.603  1.00  0.00     0.188 C 
BRANCH  41  42
ATOM     42  C   UNL     1      -8.295  10.439  -7.846  1.00  0.00     0.188 C 
BRANCH  42  43
ATOM     43  O   UNL     1      -7.976   9.724  -9.027  1.00  0.00    -0.376 OA
BRANCH  43  44
ATOM     44  C   UNL     1      -6.758   9.920  -9.697  1.00  0.00     0.202 C 
BRANCH  44  45
ATOM     45  C   UNL     1      -6.817  11.241 -10.458  1.00  0.00     0.261 C 
BRANCH  45  46
ATOM     46  O   UNL     1      -7.881  11.191 -11.444  1.00  0.00    -0.460 OA
BRANCH  46  47
ATOM     47  C   UNL     1      -9.146  11.355 -10.965  1.00  0.00     0.338 C 
ATOM     48  O   UNL     1      -9.511  12.282 -10.244  1.00  0.00    -0.246 OA
BRANCH  47  49
ATOM     49  C   UNL     1      -9.943  10.104 -11.202  1.00  0.00     0.060 A 
ATOM     50  C   UNL     1     -11.183   9.938 -10.598  1.00  0.00     0.016 A 
ATOM     51  C   UNL     1      -9.323   8.971 -11.741  1.00  0.00     0.016 A 
ATOM     52  C   UNL     1     -11.661   8.633 -10.364  1.00  0.00     0.010 A 
ATOM     53  C   UNL     1      -9.704   7.688 -11.314  1.00  0.00     0.010 A 
ATOM     54  C   UNL     1     -10.807   7.501 -10.465  1.00  0.00    -0.014 A 
BRANCH  54  55
ATOM     55  C   UNL     1     -11.045   6.005  -9.776  1.00  0.00     0.031 A 
ATOM     56  C   UNL     1     -12.006   5.486 -11.182  1.00  0.00     0.074 A 
ATOM     57  C   UNL     1     -10.873   5.373  -8.223  1.00  0.00     0.049 A 
ATOM     58  N   UNL     1     -13.243   5.035 -11.152  1.00  0.00    -0.248 NA
ATOM     59  C   UNL     1     -11.670   5.738 -12.604  1.00  0.00     0.031 C 
ATOM     60  C   UNL     1     -11.270   3.948  -7.448  1.00  0.00     0.029 A 
ATOM     61  N   UNL     1     -10.603   5.930  -6.826  1.00  0.00    -0.354 N 
ATOM     62  C   UNL     1     -13.466   4.360 -12.304  1.00  0.00     0.074 A 
ATOM     63  C   UNL     1     -12.676   5.117 -13.242  1.00  0.00     0.031 C 
ATOM     64  C   UNL     1     -11.245   3.932  -6.119  1.00  0.00     0.029 A 
ATOM     65  C   UNL     1     -11.261   5.282  -5.749  1.00  0.00     0.049 A 
ATOM     66  H   UNL     1     -10.003   6.697  -6.680  1.00  0.00     0.167 HD
ATOM     67  C   UNL     1     -13.966   3.080 -12.282  1.00  0.00     0.031 A 
ATOM     68  C   UNL     1     -12.279   5.777  -4.967  1.00  0.00     0.031 A 
ATOM     69  C   UNL     1     -14.207   2.519 -10.897  1.00  0.00     0.049 A 
ATOM     70  C   UNL     1     -13.605   4.984  -5.246  1.00  0.00     0.074 A 
ATOM     71  C   UNL     1     -13.592   1.480 -10.199  1.00  0.00     0.029 A 
ATOM     72  N   UNL     1     -14.974   3.180  -9.912  1.00  0.00    -0.354 N 
ATOM     73  N   UNL     1     -13.803   4.239  -6.315  1.00  0.00    -0.248 NA
ATOM     74  C   UNL     1     -14.766   4.925  -4.367  1.00  0.00     0.031 C 
ATOM     75  C   UNL     1     -13.917   1.570  -8.810  1.00  0.00     0.029 A 
ATOM     76  C   UNL     1     -14.775   2.643  -8.619  1.00  0.00     0.049 A 
ATOM     77  H   UNL     1     -15.581   3.932 -10.105  1.00  0.00     0.167 HD
ATOM     78  C   UNL     1     -15.067   3.708  -6.360  1.00  0.00     0.074 A 
ATOM     79  C   UNL     1     -15.591   4.100  -5.051  1.00  0.00     0.031 C 
ATOM     80  C   UNL     1     -15.605   3.037  -7.446  1.00  0.00     0.031 A 
BRANCH  67  81
ATOM     81  C   UNL     1     -13.788   2.215 -13.540  1.00  0.00    -0.014 A 
ATOM     82  C   UNL     1     -13.655   0.818 -13.466  1.00  0.00     0.009 A 
ATOM     83  C   UNL     1     -13.694   2.749 -14.843  1.00  0.00     0.009 A 
ATOM     84  C   UNL     1     -13.324   0.033 -14.587  1.00  0.00     0.001 A 
ATOM     85  C   UNL     1     -13.315   1.986 -15.959  1.00  0.00     0.001 A 
ATOM     86  C   UNL     1     -13.118   0.622 -15.828  1.00  0.00     0.000 A 
ENDBRANCH  67  81
BRANCH  68  87
ATOM     87  C   UNL     1     -12.133   7.217  -4.546  1.00  0.00    -0.014 A 
ATOM     88  C   UNL     1     -10.903   7.592  -3.953  1.00  0.00     0.009 A 
ATOM     89  C   UNL     1     -12.984   8.258  -4.950  1.00  0.00     0.009 A 
ATOM     90  C   UNL     1     -10.475   8.925  -3.915  1.00  0.00     0.001 A 
ATOM     91  C   UNL     1     -12.532   9.593  -4.957  1.00  0.00     0.001 A 
ATOM     92  C   UNL     1     -11.270   9.922  -4.466  1.00  0.00     0.000 A 
ENDBRANCH  68  87
BRANCH  80  93
ATOM     93  C   UNL     1     -17.042   2.548  -7.505  1.00  0.00    -0.014 A 
ATOM     94  C   UNL     1     -18.104   3.117  -6.797  1.00  0.00     0.009 A 
ATOM     95  C   UNL     1     -17.378   1.517  -8.418  1.00  0.00     0.009 A 
ATOM     96  C   UNL     1     -19.415   2.644  -6.945  1.00  0.00     0.001 A 
ATOM     97  C   UNL     1     -18.688   1.084  -8.615  1.00  0.00     0.001 A 
ATOM     98  C   UNL     1     -19.709   1.638  -7.861  1.00  0.00     0.000 A 
ENDBRANCH  80  93
ENDBRANCH  54  55
ENDBRANCH  47  49
ENDBRANCH  46  47
ENDBRANCH  45  46
ENDBRANCH  44  45
ENDBRANCH  43  44
ENDBRANCH  42  43
ENDBRANCH  41  42
ENDBRANCH  40  41
ENDBRANCH   1  40
TORSDOF 23
