REMARK SMILES Cc1nn(C)cc1C[NH+]1CCN(C(=O)c2cnn(CC(=O)OCCOCCOCCOCCOC(=O)c3ccc(-c4c5nc(c(-c6ccccc6)c6ccc([nH]6)c(-c6ccccc6)c6nc(c(-c7ccccc7)c7ccc4[nH]7)C=C6)C=C5)cc3)c2)CC1
REMARK SMILES IDX 27 1 26 2 25 3 24 4 23 5 22 6 20 7 21 8 19 9 18 10 15 11
REMARK SMILES IDX 16 12 85 13 17 14 13 15 9 16 10 17 87 18 11 20 86 21 12 22
REMARK SMILES IDX 14 23 8 24 7 25 1 26 2 27 3 28 4 29 6 30 5 31 28 32 29 33
REMARK SMILES IDX 30 34 31 35 32 36 33 37 34 38 35 39 36 40 37 41 38 42 84 43
REMARK SMILES IDX 39 44 83 45 40 46 41 47 42 48 77 49 43 50 82 51 76 52 78 53
REMARK SMILES IDX 44 54 81 55 75 56 74 57 45 59 67 60 52 61 66 62 53 63 56 64
REMARK SMILES IDX 65 65 79 66 54 67 55 68 64 70 80 71 57 72 46 73 47 74 51 75
REMARK SMILES IDX 48 76 50 77 49 78 68 79 69 80 73 81 70 82 72 83 71 84 58 85
REMARK SMILES IDX 59 86 63 87 60 88 62 89 61 90
REMARK H PARENT 9 19 78 58 56 69
REMARK Flexibility Score: inf
ROOT
ATOM      1  C   UNL     1       6.440  -3.736  -1.467  1.00  0.00     0.188 C 
ENDROOT
BRANCH   1   2
ATOM      2  C   UNL     1       7.967  -3.642  -1.669  1.00  0.00     0.188 C 
BRANCH   2   3
ATOM      3  O   UNL     1       8.816  -3.279  -0.584  1.00  0.00    -0.376 OA
BRANCH   3   4
ATOM      4  C   UNL     1       8.359  -2.344   0.380  1.00  0.00     0.202 C 
BRANCH   4   5
ATOM      5  C   UNL     1       7.984  -0.939  -0.110  1.00  0.00     0.261 C 
BRANCH   5   6
ATOM      6  O   UNL     1       7.068  -0.891  -1.229  1.00  0.00    -0.462 OA
BRANCH   6   7
ATOM      7  C   UNL     1       7.539  -0.297  -2.354  1.00  0.00     0.327 C 
ATOM      8  O   UNL     1       8.650   0.227  -2.428  1.00  0.00    -0.250 OA
BRANCH   7   9
ATOM      9  C   UNL     1       6.634  -0.291  -3.555  1.00  0.00     0.266 C 
BRANCH   9  10
ATOM     10  N   UNL     1       5.314  -0.903  -3.469  1.00  0.00    -0.261 N 
ATOM     11  C   UNL     1       3.111  -1.065  -3.654  1.00  0.00     0.078 A 
ATOM     12  C   UNL     1       3.778  -2.201  -4.154  1.00  0.00     0.149 A 
ATOM     13  C   UNL     1       4.136  -0.248  -3.209  1.00  0.00     0.123 A 
ATOM     14  N   UNL     1       5.107  -2.111  -4.051  1.00  0.00    -0.180 NA
BRANCH  11  15
ATOM     15  C   UNL     1       1.700  -0.716  -3.724  1.00  0.00     0.257 C 
ATOM     16  N   UNL     1      -1.276  -2.789  -1.319  1.00  0.00    -0.328 N 
ATOM     17  C   UNL     1      -1.656  -2.058  -2.528  1.00  0.00     0.284 C 
ATOM     18  C   UNL     1       0.048  -3.386  -1.469  1.00  0.00     0.284 C 
ATOM     19  H   UNL     1      -1.929  -3.568  -1.237  1.00  0.00     0.348 HD
ATOM     20  C   UNL     1      -0.610  -1.071  -3.067  1.00  0.00     0.181 C 
ATOM     21  C   UNL     1       1.173  -2.570  -2.131  1.00  0.00     0.181 C 
ATOM     22  N   UNL     1       0.768  -1.566  -3.109  1.00  0.00    -0.327 N 
ATOM     23  O   UNL     1       1.358   0.321  -4.287  1.00  0.00    -0.269 OA
BRANCH  16  24
ATOM     24  C   UNL     1      -1.560  -2.130  -0.041  1.00  0.00     0.302 C 
BRANCH  24  25
ATOM     25  C   UNL     1      -0.748  -0.916   0.220  1.00  0.00     0.047 A 
ATOM     26  C   UNL     1      -2.494   1.018  -0.103  1.00  0.00     0.069 C 
ATOM     27  C   UNL     1      -1.150   0.449   0.166  1.00  0.00     0.068 A 
ATOM     28  N   UNL     1      -0.111   1.276   0.347  1.00  0.00    -0.178 NA
ATOM     29  N   UNL     1       0.933   0.452   0.523  1.00  0.00    -0.275 N 
ATOM     30  C   UNL     1       0.573  -0.856   0.618  1.00  0.00     0.118 A 
ATOM     31  C   UNL     1       2.277   0.971   0.479  1.00  0.00     0.173 C 
ENDBRANCH  24  25
ENDBRANCH  16  24
ENDBRANCH  11  15
ENDBRANCH   9  10
ENDBRANCH   7   9
ENDBRANCH   6   7
ENDBRANCH   5   6
ENDBRANCH   4   5
ENDBRANCH   3   4
ENDBRANCH   2   3
ENDBRANCH   1   2
BRANCH   1  32
ATOM     32  O   UNL     1       5.987  -3.651  -0.124  1.00  0.00    -0.377 OA
BRANCH  32  33
ATOM     33  C   UNL     1       5.639  -4.887   0.476  1.00  0.00     0.188 C 
BRANCH  33  34
ATOM     34  C   UNL     1       6.738  -5.960   0.482  1.00  0.00     0.188 C 
BRANCH  34  35
ATOM     35  O   UNL     1       7.189  -6.313  -0.826  1.00  0.00    -0.376 OA
BRANCH  35  36
ATOM     36  C   UNL     1       6.779  -7.570  -1.349  1.00  0.00     0.202 C 
BRANCH  36  37
ATOM     37  C   UNL     1       5.423  -7.512  -2.051  1.00  0.00     0.261 C 
BRANCH  37  38
ATOM     38  O   UNL     1       4.343  -7.124  -1.204  1.00  0.00    -0.460 OA
BRANCH  38  39
ATOM     39  C   UNL     1       4.128  -7.850  -0.094  1.00  0.00     0.338 C 
ATOM     40  O   UNL     1       4.773  -8.816   0.299  1.00  0.00    -0.246 OA
BRANCH  39  41
ATOM     41  C   UNL     1       2.920  -7.351   0.574  1.00  0.00     0.060 A 
ATOM     42  C   UNL     1       2.519  -8.000   1.747  1.00  0.00     0.016 A 
ATOM     43  C   UNL     1       2.083  -6.439  -0.082  1.00  0.00     0.016 A 
ATOM     44  C   UNL     1       1.193  -7.930   2.122  1.00  0.00     0.010 A 
ATOM     45  C   UNL     1       0.762  -6.383   0.289  1.00  0.00     0.010 A 
ATOM     46  C   UNL     1       0.315  -7.213   1.311  1.00  0.00    -0.014 A 
BRANCH  46  47
ATOM     47  C   UNL     1      -1.103  -7.481   1.403  1.00  0.00     0.031 A 
ATOM     48  C   UNL     1      -1.854  -6.822   2.483  1.00  0.00     0.074 A 
ATOM     49  C   UNL     1      -1.757  -8.134   0.423  1.00  0.00     0.049 A 
ATOM     50  N   UNL     1      -2.455  -7.366   3.485  1.00  0.00    -0.248 NA
ATOM     51  C   UNL     1      -1.918  -5.359   2.452  1.00  0.00     0.031 C 
ATOM     52  C   UNL     1      -1.271  -8.507  -0.910  1.00  0.00     0.029 A 
ATOM     53  N   UNL     1      -3.066  -8.489   0.391  1.00  0.00    -0.354 N 
ATOM     54  C   UNL     1      -3.114  -6.329   4.136  1.00  0.00     0.074 A 
ATOM     55  C   UNL     1      -2.652  -5.102   3.533  1.00  0.00     0.031 C 
ATOM     56  C   UNL     1      -2.327  -8.833  -1.687  1.00  0.00     0.029 A 
ATOM     57  C   UNL     1      -3.527  -8.832  -0.867  1.00  0.00     0.049 A 
ATOM     58  H   UNL     1      -3.638  -8.501   1.192  1.00  0.00     0.167 HD
ATOM     59  C   UNL     1      -4.147  -6.551   4.991  1.00  0.00     0.031 A 
ATOM     60  C   UNL     1      -4.817  -9.041  -1.212  1.00  0.00     0.031 A 
ATOM     61  C   UNL     1      -4.258  -7.930   5.381  1.00  0.00     0.049 A 
ATOM     62  C   UNL     1      -5.585  -9.285   0.034  1.00  0.00     0.074 A 
ATOM     63  C   UNL     1      -3.413  -8.840   5.987  1.00  0.00     0.029 A 
ATOM     64  N   UNL     1      -5.257  -8.680   4.808  1.00  0.00    -0.354 N 
ATOM     65  N   UNL     1      -5.444 -10.344   0.778  1.00  0.00    -0.248 NA
ATOM     66  C   UNL     1      -6.245  -8.159   0.678  1.00  0.00     0.031 C 
ATOM     67  C   UNL     1      -3.671 -10.078   5.326  1.00  0.00     0.029 A 
ATOM     68  C   UNL     1      -4.675  -9.847   4.382  1.00  0.00     0.049 A 
ATOM     69  H   UNL     1      -6.205  -8.428   4.720  1.00  0.00     0.167 HD
ATOM     70  C   UNL     1      -5.614  -9.896   2.081  1.00  0.00     0.074 A 
ATOM     71  C   UNL     1      -6.228  -8.579   1.947  1.00  0.00     0.031 C 
ATOM     72  C   UNL     1      -4.988 -10.507   3.132  1.00  0.00     0.031 A 
BRANCH  59  73
ATOM     73  C   UNL     1      -5.258  -5.565   5.209  1.00  0.00    -0.014 A 
ATOM     74  C   UNL     1      -6.130  -5.744   6.294  1.00  0.00     0.009 A 
ATOM     75  C   UNL     1      -5.621  -4.604   4.245  1.00  0.00     0.009 A 
ATOM     76  C   UNL     1      -7.317  -5.008   6.397  1.00  0.00     0.001 A 
ATOM     77  C   UNL     1      -6.780  -3.836   4.368  1.00  0.00     0.001 A 
ATOM     78  C   UNL     1      -7.639  -4.053   5.437  1.00  0.00     0.000 A 
ENDBRANCH  59  73
BRANCH  60  79
ATOM     79  C   UNL     1      -5.458  -8.829  -2.523  1.00  0.00    -0.014 A 
ATOM     80  C   UNL     1      -6.698  -9.412  -2.815  1.00  0.00     0.009 A 
ATOM     81  C   UNL     1      -4.959  -7.862  -3.416  1.00  0.00     0.009 A 
ATOM     82  C   UNL     1      -7.426  -9.021  -3.946  1.00  0.00     0.001 A 
ATOM     83  C   UNL     1      -5.679  -7.479  -4.551  1.00  0.00     0.001 A 
ATOM     84  C   UNL     1      -6.921  -8.050  -4.808  1.00  0.00     0.000 A 
ENDBRANCH  60  79
BRANCH  72  85
ATOM     85  C   UNL     1      -4.293 -11.824   2.877  1.00  0.00    -0.014 A 
ATOM     86  C   UNL     1      -3.251 -11.960   1.941  1.00  0.00     0.009 A 
ATOM     87  C   UNL     1      -4.579 -12.916   3.709  1.00  0.00     0.009 A 
ATOM     88  C   UNL     1      -2.545 -13.160   1.817  1.00  0.00     0.001 A 
ATOM     89  C   UNL     1      -3.858 -14.110   3.601  1.00  0.00     0.001 A 
ATOM     90  C   UNL     1      -2.846 -14.233   2.651  1.00  0.00     0.000 A 
ENDBRANCH  72  85
ENDBRANCH  46  47
ENDBRANCH  39  41
ENDBRANCH  38  39
ENDBRANCH  37  38
ENDBRANCH  36  37
ENDBRANCH  35  36
ENDBRANCH  34  35
ENDBRANCH  33  34
ENDBRANCH  32  33
ENDBRANCH   1  32
TORSDOF 24
