REMARK SMILES O=C(CC1CCN(S(=O)(=O)c2cc[nH]c2)CC1)OCCOCCOCCOCCOC(=O)c1ccc(-c2c3nc(c(-c4ccccc4)c4ccc([nH]4)c(-c4ccccc4)c4nc(c(-c5ccccc5)c5ccc2[nH]5)C=C4)C=C3)cc1
REMARK SMILES IDX 23 1 22 2 21 3 20 4 19 5 18 6 2 7 1 8 3 9 4 10 5 11 17 12
REMARK SMILES IDX 6 13 16 14 7 15 8 16 9 17 10 18 11 19 12 20 15 21 13 22
REMARK SMILES IDX 14 23 24 25 25 26 26 27 27 28 28 29 29 30 30 31 31 32 32 33
REMARK SMILES IDX 33 34 34 35 80 36 35 37 79 38 36 39 37 40 38 41 73 42 39 43
REMARK SMILES IDX 78 44 72 45 74 46 40 47 77 48 71 49 70 50 41 52 63 53 48 54
REMARK SMILES IDX 62 55 49 56 52 57 61 58 75 59 50 60 51 61 60 63 76 64 53 65
REMARK SMILES IDX 42 66 43 67 47 68 44 69 46 70 45 71 64 72 65 73 69 74 66 75
REMARK SMILES IDX 68 76 67 77 54 78 55 79 59 80 56 81 58 82 57 83
REMARK H PARENT 14 24 74 51 52 62
REMARK Flexibility Score: inf
ROOT
ATOM      1  C   UNL     1       2.170   2.521  -0.315  1.00  0.00     0.188 C 
ENDROOT
BRANCH   1   2
ATOM      2  C   UNL     1       2.635   1.457   0.669  1.00  0.00     0.188 C 
BRANCH   2   3
ATOM      3  O   UNL     1       3.991   1.052   0.758  1.00  0.00    -0.376 OA
BRANCH   3   4
ATOM      4  C   UNL     1       4.773   0.530  -0.295  1.00  0.00     0.202 C 
BRANCH   4   5
ATOM      5  C   UNL     1       4.166  -0.303  -1.419  1.00  0.00     0.261 C 
BRANCH   5   6
ATOM      6  O   UNL     1       2.772  -0.601  -1.344  1.00  0.00    -0.463 OA
BRANCH   6   7
ATOM      7  C   UNL     1       2.208  -1.551  -0.572  1.00  0.00     0.306 C 
ATOM      8  O   UNL     1       1.120  -2.020  -0.903  1.00  0.00    -0.252 OA
BRANCH   7   9
ATOM      9  C   UNL     1       2.789  -1.872   0.788  1.00  0.00     0.126 C 
BRANCH   9  10
ATOM     10  C   UNL     1       4.166  -2.525   0.859  1.00  0.00     0.003 C 
ATOM     11  C   UNL     1       4.195  -3.892   0.190  1.00  0.00     0.021 C 
ATOM     12  C   UNL     1       4.624  -2.631   2.316  1.00  0.00     0.021 C 
ATOM     13  C   UNL     1       3.379  -4.913   0.967  1.00  0.00     0.103 C 
ATOM     14  C   UNL     1       3.814  -3.664   3.082  1.00  0.00     0.103 C 
ATOM     15  N   UNL     1       3.852  -4.975   2.377  1.00  0.00    -0.198 NA
BRANCH  15  16
ATOM     16  S   UNL     1       3.077  -6.240   3.237  1.00  0.00     0.244 S 
ATOM     17  O   UNL     1       1.751  -5.768   3.618  1.00  0.00    -0.207 OA
ATOM     18  O   UNL     1       3.273  -7.467   2.521  1.00  0.00    -0.207 OA
BRANCH  16  19
ATOM     19  C   UNL     1       3.917  -6.442   4.733  1.00  0.00     0.100 A 
ATOM     20  C   UNL     1       3.780  -5.626   5.886  1.00  0.00     0.041 A 
ATOM     21  C   UNL     1       4.883  -7.389   5.008  1.00  0.00     0.104 A 
ATOM     22  C   UNL     1       4.689  -6.080   6.814  1.00  0.00     0.083 A 
ATOM     23  N   UNL     1       5.336  -7.166   6.281  1.00  0.00    -0.366 N 
ATOM     24  H   UNL     1       6.020  -7.703   6.743  1.00  0.00     0.165 HD
ENDBRANCH  16  19
ENDBRANCH  15  16
ENDBRANCH   9  10
ENDBRANCH   7   9
ENDBRANCH   6   7
ENDBRANCH   5   6
ENDBRANCH   4   5
ENDBRANCH   3   4
ENDBRANCH   2   3
ENDBRANCH   1   2
BRANCH   1  25
ATOM     25  O   UNL     1       2.848   3.759  -0.270  1.00  0.00    -0.377 OA
BRANCH  25  26
ATOM     26  C   UNL     1       4.191   3.710  -0.698  1.00  0.00     0.188 C 
BRANCH  26  27
ATOM     27  C   UNL     1       5.224   3.849   0.434  1.00  0.00     0.188 C 
BRANCH  27  28
ATOM     28  O   UNL     1       4.908   3.648   1.800  1.00  0.00    -0.376 OA
BRANCH  28  29
ATOM     29  C   UNL     1       3.772   4.130   2.498  1.00  0.00     0.202 C 
BRANCH  29  30
ATOM     30  C   UNL     1       2.986   5.411   2.217  1.00  0.00     0.261 C 
BRANCH  30  31
ATOM     31  O   UNL     1       3.199   6.000   0.964  1.00  0.00    -0.460 OA
BRANCH  31  32
ATOM     32  C   UNL     1       4.370   6.644   0.911  1.00  0.00     0.338 C 
ATOM     33  O   UNL     1       5.246   6.707   1.755  1.00  0.00    -0.246 OA
BRANCH  32  34
ATOM     34  C   UNL     1       4.402   7.384  -0.336  1.00  0.00     0.060 A 
ATOM     35  C   UNL     1       5.673   7.713  -0.802  1.00  0.00     0.016 A 
ATOM     36  C   UNL     1       3.243   8.114  -0.626  1.00  0.00     0.016 A 
ATOM     37  C   UNL     1       5.827   8.954  -1.353  1.00  0.00     0.010 A 
ATOM     38  C   UNL     1       3.410   9.383  -1.098  1.00  0.00     0.010 A 
ATOM     39  C   UNL     1       4.707   9.797  -1.406  1.00  0.00    -0.014 A 
BRANCH  39  40
ATOM     40  C   UNL     1       4.913  11.117  -1.974  1.00  0.00     0.031 A 
ATOM     41  C   UNL     1       4.756  11.021  -3.486  1.00  0.00     0.074 A 
ATOM     42  C   UNL     1       5.312  12.074  -1.082  1.00  0.00     0.049 A 
ATOM     43  N   UNL     1       5.373  11.687  -4.402  1.00  0.00    -0.248 NA
ATOM     44  C   UNL     1       3.874   9.973  -4.088  1.00  0.00     0.031 C 
ATOM     45  C   UNL     1       5.347  11.912   0.396  1.00  0.00     0.029 A 
ATOM     46  N   UNL     1       5.786  13.357  -1.218  1.00  0.00    -0.354 N 
ATOM     47  C   UNL     1       4.849  11.286  -5.643  1.00  0.00     0.074 A 
ATOM     48  C   UNL     1       4.017  10.152  -5.401  1.00  0.00     0.031 C 
ATOM     49  C   UNL     1       5.889  13.000   0.990  1.00  0.00     0.029 A 
ATOM     50  C   UNL     1       6.251  13.969  -0.025  1.00  0.00     0.049 A 
ATOM     51  H   UNL     1       5.803  13.820  -2.086  1.00  0.00     0.167 HD
ATOM     52  C   UNL     1       5.026  12.023  -6.771  1.00  0.00     0.031 A 
ATOM     53  C   UNL     1       6.930  15.149   0.117  1.00  0.00     0.031 A 
ATOM     54  C   UNL     1       5.901  13.114  -6.501  1.00  0.00     0.049 A 
ATOM     55  C   UNL     1       6.970  15.738  -1.229  1.00  0.00     0.074 A 
ATOM     56  C   UNL     1       7.244  13.157  -6.227  1.00  0.00     0.029 A 
ATOM     57  N   UNL     1       5.303  14.264  -6.042  1.00  0.00    -0.354 N 
ATOM     58  N   UNL     1       5.960  16.285  -1.833  1.00  0.00    -0.248 NA
ATOM     59  C   UNL     1       8.207  15.620  -2.013  1.00  0.00     0.031 C 
ATOM     60  C   UNL     1       7.324  14.097  -5.178  1.00  0.00     0.029 A 
ATOM     61  C   UNL     1       6.098  14.758  -5.039  1.00  0.00     0.049 A 
ATOM     62  H   UNL     1       4.462  14.657  -6.370  1.00  0.00     0.167 HD
ATOM     63  C   UNL     1       6.332  16.193  -3.151  1.00  0.00     0.074 A 
ATOM     64  C   UNL     1       7.778  16.127  -3.166  1.00  0.00     0.031 C 
ATOM     65  C   UNL     1       5.492  15.611  -4.046  1.00  0.00     0.031 A 
BRANCH  52  66
ATOM     66  C   UNL     1       4.260  12.029  -8.054  1.00  0.00    -0.014 A 
ATOM     67  C   UNL     1       4.790  12.806  -9.107  1.00  0.00     0.009 A 
ATOM     68  C   UNL     1       2.928  11.613  -8.160  1.00  0.00     0.009 A 
ATOM     69  C   UNL     1       3.989  13.270 -10.148  1.00  0.00     0.001 A 
ATOM     70  C   UNL     1       2.133  12.044  -9.230  1.00  0.00     0.001 A 
ATOM     71  C   UNL     1       2.651  12.904 -10.197  1.00  0.00     0.000 A 
ENDBRANCH  52  66
BRANCH  53  72
ATOM     72  C   UNL     1       7.675  15.913   1.182  1.00  0.00    -0.014 A 
ATOM     73  C   UNL     1       7.612  15.695   2.559  1.00  0.00     0.009 A 
ATOM     74  C   UNL     1       8.555  16.956   0.772  1.00  0.00     0.009 A 
ATOM     75  C   UNL     1       8.440  16.422   3.449  1.00  0.00     0.001 A 
ATOM     76  C   UNL     1       9.404  17.648   1.637  1.00  0.00     0.001 A 
ATOM     77  C   UNL     1       9.354  17.371   2.987  1.00  0.00     0.000 A 
ENDBRANCH  53  72
BRANCH  65  78
ATOM     78  C   UNL     1       4.024  15.597  -3.642  1.00  0.00    -0.014 A 
ATOM     79  C   UNL     1       3.358  16.810  -3.404  1.00  0.00     0.009 A 
ATOM     80  C   UNL     1       3.313  14.416  -3.361  1.00  0.00     0.009 A 
ATOM     81  C   UNL     1       2.057  16.843  -2.884  1.00  0.00     0.001 A 
ATOM     82  C   UNL     1       2.011  14.443  -2.834  1.00  0.00     0.001 A 
ATOM     83  C   UNL     1       1.384  15.661  -2.592  1.00  0.00     0.000 A 
ENDBRANCH  65  78
ENDBRANCH  39  40
ENDBRANCH  32  34
ENDBRANCH  31  32
ENDBRANCH  30  31
ENDBRANCH  29  30
ENDBRANCH  28  29
ENDBRANCH  27  28
ENDBRANCH  26  27
ENDBRANCH  25  26
ENDBRANCH   1  25
TORSDOF 23
