REMARK SMILES COc1cccc(-c2ccc(=O)n(CC(=O)N[C@@H](C(=O)OCCOCCOCCOCCOC(=O)c3ccc(-c4c5nc(c(-c6ccccc6)c6ccc([nH]6)c(-c6ccccc6)c6nc(c(-c7ccccc7)c7ccc4[nH]7)C=C6)C=C5)cc3)C(C)C)n2)c1
REMARK SMILES IDX 25 1 24 2 23 3 22 4 21 5 19 6 20 7 18 8 17 9 15 10 16 11
REMARK SMILES IDX 14 13 13 14 8 15 9 16 87 17 10 18 11 19 12 20 7 21 3 22 4 23
REMARK SMILES IDX 88 24 5 25 6 26 2 27 1 28 84 29 85 30 86 31 26 32 27 33
REMARK SMILES IDX 28 34 29 35 30 36 31 37 32 38 33 39 34 40 35 41 36 42 37 43
REMARK SMILES IDX 83 44 38 45 82 46 39 47 40 48 41 49 76 50 42 51 81 52 75 53
REMARK SMILES IDX 77 54 43 55 80 56 74 57 73 58 44 60 66 61 51 62 65 63 52 64
REMARK SMILES IDX 55 65 64 66 78 67 53 68 54 69 63 71 79 72 56 73 45 74 46 75
REMARK SMILES IDX 50 76 47 77 49 78 48 79 67 80 68 81 72 82 69 83 71 84 70 85
REMARK SMILES IDX 57 86 58 87 62 88 59 89 61 90 60 91
REMARK H PARENT 17 12 77 59 55 70
REMARK Flexibility Score: inf
ROOT
ATOM      1  C   UNL     1       4.058  -9.072  -4.537  1.00  0.00     0.188 C 
ENDROOT
BRANCH   1   2
ATOM      2  O   UNL     1       3.185  -8.689  -5.580  1.00  0.00    -0.376 OA
BRANCH   2   3
ATOM      3  C   UNL     1       3.053  -7.336  -5.975  1.00  0.00     0.202 C 
BRANCH   3   4
ATOM      4  C   UNL     1       3.468  -6.100  -5.150  1.00  0.00     0.261 C 
BRANCH   4   5
ATOM      5  O   UNL     1       4.370  -6.240  -4.045  1.00  0.00    -0.462 OA
BRANCH   5   6
ATOM      6  C   UNL     1       3.824  -6.308  -2.808  1.00  0.00     0.328 C 
ATOM      7  O   UNL     1       2.613  -6.258  -2.618  1.00  0.00    -0.250 OA
BRANCH   6   8
ATOM      8  C   UNL     1       4.865  -6.539  -1.673  1.00  0.00     0.194 C 
BRANCH   8   9
ATOM      9  N   UNL     1       6.295  -6.509  -2.056  1.00  0.00    -0.341 N 
ATOM     10  C   UNL     1       7.248  -5.549  -1.908  1.00  0.00     0.242 C 
ATOM     11  O   UNL     1       8.424  -5.926  -1.954  1.00  0.00    -0.273 OA
ATOM     12  H   UNL     1       6.613  -7.330  -2.497  1.00  0.00     0.164 HD
BRANCH  10  13
ATOM     13  C   UNL     1       6.891  -4.120  -1.529  1.00  0.00     0.248 C 
BRANCH  13  14
ATOM     14  N   UNL     1       5.919  -3.582  -2.466  1.00  0.00    -0.220 N 
ATOM     15  C   UNL     1       3.737  -3.030  -2.858  1.00  0.00     0.091 A 
ATOM     16  C   UNL     1       4.002  -2.734  -4.279  1.00  0.00     0.036 A 
ATOM     17  N   UNL     1       4.635  -3.411  -2.005  1.00  0.00    -0.169 NA
ATOM     18  C   UNL     1       5.270  -2.837  -4.682  1.00  0.00     0.075 A 
ATOM     19  C   UNL     1       6.335  -3.258  -3.750  1.00  0.00     0.267 A 
ATOM     20  O   UNL     1       7.492  -3.320  -4.156  1.00  0.00    -0.268 OA
BRANCH  15  21
ATOM     21  C   UNL     1       2.340  -2.882  -2.394  1.00  0.00     0.006 A 
ATOM     22  C   UNL     1       0.800  -1.980  -0.783  1.00  0.00     0.119 A 
ATOM     23  C   UNL     1      -0.231  -2.741  -1.333  1.00  0.00     0.046 A 
ATOM     24  C   UNL     1       2.099  -2.088  -1.275  1.00  0.00     0.056 A 
ATOM     25  C   UNL     1       0.014  -3.546  -2.441  1.00  0.00     0.005 A 
ATOM     26  C   UNL     1       1.293  -3.588  -2.992  1.00  0.00     0.011 A 
BRANCH  22  27
ATOM     27  O   UNL     1       0.478  -1.171   0.271  1.00  0.00    -0.497 OA
ATOM     28  C   UNL     1       0.960   0.160   0.083  1.00  0.00     0.278 C 
ENDBRANCH  22  27
ENDBRANCH  15  21
ENDBRANCH  13  14
ENDBRANCH  10  13
ENDBRANCH   8   9
BRANCH   8  29
ATOM     29  C   UNL     1       4.596  -7.899  -0.953  1.00  0.00     0.017 C 
ATOM     30  C   UNL     1       5.496  -8.047   0.281  1.00  0.00     0.010 C 
ATOM     31  C   UNL     1       3.137  -8.098  -0.529  1.00  0.00     0.010 C 
ENDBRANCH   8  29
ENDBRANCH   6   8
ENDBRANCH   5   6
ENDBRANCH   4   5
ENDBRANCH   3   4
ENDBRANCH   2   3
ENDBRANCH   1   2
BRANCH   1  32
ATOM     32  C   UNL     1       5.549  -8.730  -4.654  1.00  0.00     0.188 C 
BRANCH  32  33
ATOM     33  O   UNL     1       5.834  -7.680  -5.555  1.00  0.00    -0.377 OA
BRANCH  33  34
ATOM     34  C   UNL     1       6.181  -8.027  -6.884  1.00  0.00     0.188 C 
BRANCH  34  35
ATOM     35  C   UNL     1       5.579  -9.303  -7.506  1.00  0.00     0.188 C 
BRANCH  35  36
ATOM     36  O   UNL     1       5.641 -10.449  -6.668  1.00  0.00    -0.376 OA
BRANCH  36  37
ATOM     37  C   UNL     1       6.715 -11.364  -6.829  1.00  0.00     0.202 C 
BRANCH  37  38
ATOM     38  C   UNL     1       8.141 -10.871  -6.535  1.00  0.00     0.261 C 
BRANCH  38  39
ATOM     39  O   UNL     1       8.613  -9.748  -7.292  1.00  0.00    -0.460 OA
BRANCH  39  40
ATOM     40  C   UNL     1       8.575  -9.807  -8.639  1.00  0.00     0.338 C 
ATOM     41  O   UNL     1       8.233 -10.749  -9.331  1.00  0.00    -0.246 OA
BRANCH  40  42
ATOM     42  C   UNL     1       8.838  -8.442  -9.143  1.00  0.00     0.060 A 
ATOM     43  C   UNL     1       7.883  -7.806  -9.951  1.00  0.00     0.016 A 
ATOM     44  C   UNL     1      10.023  -7.788  -8.800  1.00  0.00     0.016 A 
ATOM     45  C   UNL     1       8.131  -6.527 -10.454  1.00  0.00     0.010 A 
ATOM     46  C   UNL     1      10.282  -6.523  -9.325  1.00  0.00     0.010 A 
ATOM     47  C   UNL     1       9.357  -5.904 -10.186  1.00  0.00    -0.014 A 
BRANCH  47  48
ATOM     48  C   UNL     1       9.811  -4.747 -10.993  1.00  0.00     0.031 A 
ATOM     49  C   UNL     1      10.712  -5.035 -12.163  1.00  0.00     0.074 A 
ATOM     50  C   UNL     1       9.477  -3.482 -10.686  1.00  0.00     0.049 A 
ATOM     51  N   UNL     1      11.403  -4.210 -12.906  1.00  0.00    -0.248 NA
ATOM     52  C   UNL     1      10.861  -6.453 -12.538  1.00  0.00     0.031 C 
ATOM     53  C   UNL     1       8.560  -3.074  -9.626  1.00  0.00     0.029 A 
ATOM     54  N   UNL     1       9.906  -2.299 -11.238  1.00  0.00    -0.354 N 
ATOM     55  C   UNL     1      12.078  -5.008 -13.820  1.00  0.00     0.074 A 
ATOM     56  C   UNL     1      11.737  -6.382 -13.527  1.00  0.00     0.031 C 
ATOM     57  C   UNL     1       8.511  -1.729  -9.587  1.00  0.00     0.029 A 
ATOM     58  C   UNL     1       9.435  -1.186 -10.583  1.00  0.00     0.049 A 
ATOM     59  H   UNL     1      10.494  -2.253 -12.026  1.00  0.00     0.167 HD
ATOM     60  C   UNL     1      12.909  -4.632 -14.819  1.00  0.00     0.031 A 
ATOM     61  C   UNL     1       9.752   0.114 -10.745  1.00  0.00     0.031 A 
ATOM     62  C   UNL     1      13.268  -3.268 -15.092  1.00  0.00     0.049 A 
ATOM     63  C   UNL     1      10.778   0.499 -11.786  1.00  0.00     0.074 A 
ATOM     64  C   UNL     1      14.123  -2.780 -16.063  1.00  0.00     0.029 A 
ATOM     65  N   UNL     1      12.788  -2.176 -14.389  1.00  0.00    -0.354 N 
ATOM     66  N   UNL     1      11.419  -0.260 -12.642  1.00  0.00    -0.248 NA
ATOM     67  C   UNL     1      11.125   1.927 -11.880  1.00  0.00     0.031 C 
ATOM     68  C   UNL     1      14.198  -1.393 -15.917  1.00  0.00     0.029 A 
ATOM     69  C   UNL     1      13.335  -1.014 -14.901  1.00  0.00     0.049 A 
ATOM     70  H   UNL     1      12.152  -2.220 -13.639  1.00  0.00     0.167 HD
ATOM     71  C   UNL     1      12.198   0.602 -13.407  1.00  0.00     0.074 A 
ATOM     72  C   UNL     1      11.950   1.940 -12.917  1.00  0.00     0.031 C 
ATOM     73  C   UNL     1      13.041   0.313 -14.428  1.00  0.00     0.031 A 
BRANCH  60  74
ATOM     74  C   UNL     1      13.507  -5.714 -15.671  1.00  0.00    -0.014 A 
ATOM     75  C   UNL     1      12.721  -6.433 -16.585  1.00  0.00     0.009 A 
ATOM     76  C   UNL     1      14.881  -5.988 -15.591  1.00  0.00     0.009 A 
ATOM     77  C   UNL     1      13.295  -7.423 -17.385  1.00  0.00     0.001 A 
ATOM     78  C   UNL     1      15.458  -6.956 -16.414  1.00  0.00     0.001 A 
ATOM     79  C   UNL     1      14.664  -7.677 -17.305  1.00  0.00     0.000 A 
ENDBRANCH  60  74
BRANCH  61  80
ATOM     80  C   UNL     1       9.137   1.165  -9.887  1.00  0.00    -0.014 A 
ATOM     81  C   UNL     1       8.315   2.154 -10.449  1.00  0.00     0.009 A 
ATOM     82  C   UNL     1       9.428   1.231  -8.515  1.00  0.00     0.009 A 
ATOM     83  C   UNL     1       7.838   3.212  -9.669  1.00  0.00     0.001 A 
ATOM     84  C   UNL     1       8.921   2.269  -7.729  1.00  0.00     0.001 A 
ATOM     85  C   UNL     1       8.141   3.267  -8.310  1.00  0.00     0.000 A 
ENDBRANCH  61  80
BRANCH  73  86
ATOM     86  C   UNL     1      13.684   1.460 -15.158  1.00  0.00    -0.014 A 
ATOM     87  C   UNL     1      14.715   2.217 -14.585  1.00  0.00     0.009 A 
ATOM     88  C   UNL     1      13.298   1.727 -16.483  1.00  0.00     0.009 A 
ATOM     89  C   UNL     1      15.331   3.235 -15.317  1.00  0.00     0.001 A 
ATOM     90  C   UNL     1      13.936   2.722 -17.222  1.00  0.00     0.001 A 
ATOM     91  C   UNL     1      14.947   3.480 -16.636  1.00  0.00     0.000 A 
ENDBRANCH  73  86
ENDBRANCH  47  48
ENDBRANCH  40  42
ENDBRANCH  39  40
ENDBRANCH  38  39
ENDBRANCH  37  38
ENDBRANCH  36  37
ENDBRANCH  35  36
ENDBRANCH  34  35
ENDBRANCH  33  34
ENDBRANCH  32  33
ENDBRANCH   1  32
TORSDOF 26
