REMARK SMILES Nc1ccc(Cl)c(SC[C@H]2CC[C@H](C(=O)OCCOCCOCCOCCOC(=O)c3ccc(-c4c5nc(c(-c6ccccc6)c6ccc([nH]6)c(-c6ccccc6)c6nc(c(-c7ccccc7)c7ccc4[nH]7)C=C6)C=C5)cc3)O2)c1
REMARK SMILES IDX 21 1 20 2 19 3 18 4 17 5 16 6 14 7 15 8 13 9 10 10 11 11
REMARK SMILES IDX 79 12 12 13 9 14 8 15 7 16 2 17 3 18 80 19 4 20 5 21 6 22
REMARK SMILES IDX 1 23 22 26 23 27 24 28 25 29 26 30 27 31 28 32 29 33 30 34
REMARK SMILES IDX 31 35 32 36 78 37 33 38 77 39 34 40 35 41 36 42 71 43 37 44
REMARK SMILES IDX 76 45 70 46 72 47 38 48 75 49 69 50 68 51 39 53 61 54 46 55
REMARK SMILES IDX 60 56 47 57 50 58 59 59 73 60 48 61 49 62 58 64 74 65 51 66
REMARK SMILES IDX 40 67 41 68 45 69 42 70 44 71 43 72 62 73 63 74 67 75 64 76
REMARK SMILES IDX 66 77 65 78 52 79 53 80 57 81 54 82 56 83 55 84
REMARK H PARENT 1 24 1 25 72 52 50 63
REMARK Flexibility Score: inf
ROOT
ATOM      1  C   UNL     1      -5.822  -3.687   0.819  1.00  0.00     0.188 C 
ENDROOT
BRANCH   1   2
ATOM      2  C   UNL     1      -6.125  -2.239   0.419  1.00  0.00     0.188 C 
BRANCH   2   3
ATOM      3  O   UNL     1      -6.465  -1.916  -0.916  1.00  0.00    -0.376 OA
BRANCH   3   4
ATOM      4  C   UNL     1      -5.615  -2.198  -2.018  1.00  0.00     0.202 C 
BRANCH   4   5
ATOM      5  C   UNL     1      -4.078  -2.196  -1.976  1.00  0.00     0.261 C 
BRANCH   5   6
ATOM      6  O   UNL     1      -3.446  -2.976  -0.955  1.00  0.00    -0.461 OA
BRANCH   6   7
ATOM      7  C   UNL     1      -2.932  -2.253   0.068  1.00  0.00     0.335 C 
ATOM      8  O   UNL     1      -3.022  -1.030   0.157  1.00  0.00    -0.249 OA
BRANCH   7   9
ATOM      9  C   UNL     1      -2.149  -3.071   1.082  1.00  0.00     0.228 C 
ATOM     10  C   UNL     1      -0.190  -4.326   1.028  1.00  0.00     0.129 C 
ATOM     11  C   UNL     1      -1.330  -5.321   1.051  1.00  0.00     0.036 C 
ATOM     12  O   UNL     1      -0.789  -3.103   0.611  1.00  0.00    -0.362 OA
ATOM     13  C   UNL     1      -2.515  -4.495   1.474  1.00  0.00     0.047 C 
BRANCH  10  14
ATOM     14  C   UNL     1       0.636  -4.178   2.326  1.00  0.00     0.107 C 
BRANCH  14  15
ATOM     15  S   UNL     1       0.031  -3.143   3.725  1.00  0.00    -0.122 SA
BRANCH  15  16
ATOM     16  C   UNL     1       0.126  -1.421   3.160  1.00  0.00     0.028 A 
ATOM     17  C   UNL     1       0.533   0.223   1.379  1.00  0.00     0.033 A 
ATOM     18  C   UNL     1       0.048   1.238   2.195  1.00  0.00     0.027 A 
ATOM     19  C   UNL     1       0.658  -1.068   1.909  1.00  0.00     0.042 A 
ATOM     20  C   UNL     1      -0.419   0.942   3.475  1.00  0.00     0.024 A 
ATOM     21  C   UNL     1      -0.406  -0.378   3.946  1.00  0.00     0.054 A 
ATOM     22  Cl  UNL     1      -1.079  -0.637   5.523  1.00  0.00    -0.083 Cl
BRANCH  17  23
ATOM     23  N   UNL     1       1.007   0.502   0.103  1.00  0.00    -0.399 N 
ATOM     24  H   UNL     1       0.918   1.410  -0.268  1.00  0.00     0.156 HD
ATOM     25  H   UNL     1       1.433  -0.207  -0.431  1.00  0.00     0.156 HD
ENDBRANCH  17  23
ENDBRANCH  15  16
ENDBRANCH  14  15
ENDBRANCH  10  14
ENDBRANCH   7   9
ENDBRANCH   6   7
ENDBRANCH   5   6
ENDBRANCH   4   5
ENDBRANCH   3   4
ENDBRANCH   2   3
ENDBRANCH   1   2
BRANCH   1  26
ATOM     26  O   UNL     1      -5.378  -4.516  -0.235  1.00  0.00    -0.377 OA
BRANCH  26  27
ATOM     27  C   UNL     1      -6.330  -5.240  -1.002  1.00  0.00     0.188 C 
BRANCH  27  28
ATOM     28  C   UNL     1      -7.805  -4.799  -1.000  1.00  0.00     0.188 C 
BRANCH  28  29
ATOM     29  O   UNL     1      -8.329  -4.549   0.293  1.00  0.00    -0.376 OA
BRANCH  29  30
ATOM     30  C   UNL     1      -9.016  -5.596   0.963  1.00  0.00     0.202 C 
BRANCH  30  31
ATOM     31  C   UNL     1      -8.239  -6.885   1.272  1.00  0.00     0.261 C 
BRANCH  31  32
ATOM     32  O   UNL     1      -7.737  -7.631   0.149  1.00  0.00    -0.460 OA
BRANCH  32  33
ATOM     33  C   UNL     1      -8.594  -8.001  -0.830  1.00  0.00     0.338 C 
ATOM     34  O   UNL     1      -9.791  -7.844  -0.861  1.00  0.00    -0.246 OA
BRANCH  33  35
ATOM     35  C   UNL     1      -7.768  -8.468  -1.969  1.00  0.00     0.060 A 
ATOM     36  C   UNL     1      -7.813  -7.768  -3.182  1.00  0.00     0.016 A 
ATOM     37  C   UNL     1      -6.938  -9.581  -1.827  1.00  0.00     0.016 A 
ATOM     38  C   UNL     1      -7.029  -8.184  -4.261  1.00  0.00     0.010 A 
ATOM     39  C   UNL     1      -6.174 -10.011  -2.916  1.00  0.00     0.010 A 
ATOM     40  C   UNL     1      -6.227  -9.326  -4.143  1.00  0.00    -0.014 A 
BRANCH  40  41
ATOM     41  C   UNL     1      -5.544  -9.901  -5.328  1.00  0.00     0.031 A 
ATOM     42  C   UNL     1      -6.181 -11.064  -6.035  1.00  0.00     0.074 A 
ATOM     43  C   UNL     1      -4.362  -9.420  -5.753  1.00  0.00     0.049 A 
ATOM     44  N   UNL     1      -5.709 -11.806  -7.004  1.00  0.00    -0.248 NA
ATOM     45  C   UNL     1      -7.530 -11.442  -5.585  1.00  0.00     0.031 C 
ATOM     46  C   UNL     1      -3.666  -8.263  -5.195  1.00  0.00     0.029 A 
ATOM     47  N   UNL     1      -3.528  -9.868  -6.749  1.00  0.00    -0.354 N 
ATOM     48  C   UNL     1      -6.696 -12.748  -7.269  1.00  0.00     0.074 A 
ATOM     49  C   UNL     1      -7.782 -12.496  -6.347  1.00  0.00     0.031 C 
ATOM     50  C   UNL     1      -2.499  -8.103  -5.844  1.00  0.00     0.029 A 
ATOM     51  C   UNL     1      -2.345  -9.174  -6.828  1.00  0.00     0.049 A 
ATOM     52  H   UNL     1      -3.757 -10.615  -7.349  1.00  0.00     0.167 HD
ATOM     53  C   UNL     1      -6.696 -13.735  -8.195  1.00  0.00     0.031 A 
ATOM     54  C   UNL     1      -1.249  -9.402  -7.578  1.00  0.00     0.031 A 
ATOM     55  C   UNL     1      -5.606 -14.000  -9.096  1.00  0.00     0.049 A 
ATOM     56  C   UNL     1      -1.226 -10.578  -8.521  1.00  0.00     0.074 A 
ATOM     57  C   UNL     1      -5.518 -14.968 -10.082  1.00  0.00     0.029 A 
ATOM     58  N   UNL     1      -4.407 -13.304  -9.111  1.00  0.00    -0.354 N 
ATOM     59  N   UNL     1      -2.173 -11.447  -8.784  1.00  0.00    -0.248 NA
ATOM     60  C   UNL     1       0.021 -10.808  -9.267  1.00  0.00     0.031 C 
ATOM     61  C   UNL     1      -4.239 -14.904 -10.643  1.00  0.00     0.029 A 
ATOM     62  C   UNL     1      -3.557 -13.850 -10.057  1.00  0.00     0.049 A 
ATOM     63  H   UNL     1      -4.192 -12.535  -8.534  1.00  0.00     0.167 HD
ATOM     64  C   UNL     1      -1.645 -12.307  -9.741  1.00  0.00     0.074 A 
ATOM     65  C   UNL     1      -0.303 -11.846 -10.025  1.00  0.00     0.031 C 
ATOM     66  C   UNL     1      -2.221 -13.385 -10.329  1.00  0.00     0.031 A 
BRANCH  53  67
ATOM     67  C   UNL     1      -7.897 -14.638  -8.247  1.00  0.00    -0.014 A 
ATOM     68  C   UNL     1      -9.139 -14.181  -8.716  1.00  0.00     0.009 A 
ATOM     69  C   UNL     1      -7.772 -15.980  -7.853  1.00  0.00     0.009 A 
ATOM     70  C   UNL     1     -10.238 -15.041  -8.756  1.00  0.00     0.001 A 
ATOM     71  C   UNL     1      -8.865 -16.845  -7.924  1.00  0.00     0.001 A 
ATOM     72  C   UNL     1     -10.099 -16.373  -8.366  1.00  0.00     0.000 A 
ENDBRANCH  53  67
BRANCH  54  73
ATOM     73  C   UNL     1      -0.052  -8.528  -7.440  1.00  0.00    -0.014 A 
ATOM     74  C   UNL     1       0.359  -7.703  -8.498  1.00  0.00     0.009 A 
ATOM     75  C   UNL     1       0.704  -8.537  -6.256  1.00  0.00     0.009 A 
ATOM     76  C   UNL     1       1.514  -6.925  -8.383  1.00  0.00     0.001 A 
ATOM     77  C   UNL     1       1.840  -7.734  -6.132  1.00  0.00     0.001 A 
ATOM     78  C   UNL     1       2.250  -6.937  -7.199  1.00  0.00     0.000 A 
ENDBRANCH  54  73
BRANCH  66  79
ATOM     79  C   UNL     1      -1.417 -14.130 -11.359  1.00  0.00    -0.014 A 
ATOM     80  C   UNL     1      -0.325 -14.932 -10.991  1.00  0.00     0.009 A 
ATOM     81  C   UNL     1      -1.798 -14.081 -12.710  1.00  0.00     0.009 A 
ATOM     82  C   UNL     1       0.383 -15.649 -11.959  1.00  0.00     0.001 A 
ATOM     83  C   UNL     1      -1.109 -14.823 -13.670  1.00  0.00     0.001 A 
ATOM     84  C   UNL     1      -0.014 -15.600 -13.295  1.00  0.00     0.000 A 
ENDBRANCH  66  79
ENDBRANCH  40  41
ENDBRANCH  33  35
ENDBRANCH  32  33
ENDBRANCH  31  32
ENDBRANCH  30  31
ENDBRANCH  29  30
ENDBRANCH  28  29
ENDBRANCH  27  28
ENDBRANCH  26  27
ENDBRANCH   1  26
TORSDOF 24
