REMARK SMILES C[N@@H+]1C[C@@H](Oc2cccc3cccnc23)C[C@H]1C(=O)OCCOCCOCCOCCOC(=O)c1ccc(-c2c3nc(c(-c4ccccc4)c4ccc([nH]4)c(-c4ccccc4)c4nc(c(-c5ccccc5)c5ccc2[nH]5)C=C4)C=C3)cc1
REMARK SMILES IDX 26 1 25 2 24 3 23 4 22 5 21 6 20 7 18 8 19 9 17 10 1 11 2 12
REMARK SMILES IDX 3 13 4 15 16 16 5 17 6 18 7 19 15 20 8 21 10 22 14 23 9 24
REMARK SMILES IDX 11 25 13 26 12 27 27 28 28 29 29 30 30 31 31 32 32 33 33 34
REMARK SMILES IDX 34 35 35 36 36 37 82 38 37 39 81 40 38 41 39 42 40 43 75 44
REMARK SMILES IDX 41 45 80 46 74 47 76 48 42 49 79 50 73 51 72 52 43 54 65 55
REMARK SMILES IDX 50 56 64 57 51 58 54 59 63 60 77 61 52 62 53 63 62 65 78 66
REMARK SMILES IDX 55 67 44 68 45 69 49 70 46 71 48 72 47 73 66 74 67 75 71 76
REMARK SMILES IDX 68 77 70 78 69 79 56 80 57 81 61 82 58 83 60 84 59 85
REMARK H PARENT 2 14 76 53 54 64
REMARK Flexibility Score: inf
ROOT
ATOM      1  O   UNL     1      -2.567  -0.977   2.170  1.00  0.00    -0.377 OA
ENDROOT
BRANCH   1   2
ATOM      2  C   UNL     1      -2.935  -2.339   2.041  1.00  0.00     0.188 C 
BRANCH   2   3
ATOM      3  C   UNL     1      -1.987  -3.339   2.706  1.00  0.00     0.188 C 
BRANCH   3   4
ATOM      4  O   UNL     1      -1.832  -3.250   4.115  1.00  0.00    -0.376 OA
BRANCH   4   5
ATOM      5  C   UNL     1      -1.133  -2.129   4.640  1.00  0.00     0.202 C 
BRANCH   5   6
ATOM      6  C   UNL     1       0.182  -1.694   3.984  1.00  0.00     0.261 C 
BRANCH   6   7
ATOM      7  O   UNL     1       0.032  -1.096   2.688  1.00  0.00    -0.459 OA
BRANCH   7   8
ATOM      8  C   UNL     1       0.710  -1.647   1.643  1.00  0.00     0.365 C 
ATOM      9  O   UNL     1       1.424  -2.643   1.734  1.00  0.00    -0.245 OA
BRANCH   8  10
ATOM     10  C   UNL     1       0.492  -0.919   0.301  1.00  0.00     0.298 C 
ATOM     11  C   UNL     1      -1.520   0.368  -0.399  1.00  0.00     0.333 C 
ATOM     12  N   UNL     1      -0.350   0.270   0.448  1.00  0.00    -0.322 N 
ATOM     13  C   UNL     1       0.483   1.465   0.532  1.00  0.00     0.308 C 
ATOM     14  H   UNL     1      -0.832   0.163   1.341  1.00  0.00     0.348 HD
ATOM     15  C   UNL     1       1.909   1.044   0.152  1.00  0.00     0.234 C 
ATOM     16  C   UNL     1       1.828  -0.429  -0.243  1.00  0.00     0.128 C 
BRANCH  15  17
ATOM     17  O   UNL     1       2.999   1.342   1.036  1.00  0.00    -0.482 OA
BRANCH  17  18
ATOM     18  C   UNL     1       2.846   1.074   2.374  1.00  0.00     0.146 A 
ATOM     19  C   UNL     1       3.330  -0.151   2.846  1.00  0.00     0.049 A 
ATOM     20  C   UNL     1       2.399   2.073   3.253  1.00  0.00     0.112 A 
ATOM     21  C   UNL     1       3.297  -0.440   4.206  1.00  0.00     0.005 A 
ATOM     22  C   UNL     1       2.358   1.756   4.631  1.00  0.00     0.004 A 
ATOM     23  N   UNL     1       2.024   3.296   2.806  1.00  0.00    -0.252 NA
ATOM     24  C   UNL     1       2.800   0.506   5.096  1.00  0.00     0.010 A 
ATOM     25  C   UNL     1       1.888   2.724   5.527  1.00  0.00     0.012 A 
ATOM     26  C   UNL     1       1.599   4.211   3.702  1.00  0.00     0.112 A 
ATOM     27  C   UNL     1       1.511   3.974   5.057  1.00  0.00     0.021 A 
ENDBRANCH  17  18
ENDBRANCH  15  17
ENDBRANCH   8  10
ENDBRANCH   7   8
ENDBRANCH   6   7
ENDBRANCH   5   6
ENDBRANCH   4   5
ENDBRANCH   3   4
ENDBRANCH   2   3
ENDBRANCH   1   2
BRANCH   1  28
ATOM     28  C   UNL     1      -3.285  -0.094   3.026  1.00  0.00     0.188 C 
BRANCH  28  29
ATOM     29  C   UNL     1      -4.589  -0.608   3.634  1.00  0.00     0.188 C 
BRANCH  29  30
ATOM     30  O   UNL     1      -5.633  -0.973   2.724  1.00  0.00    -0.376 OA
BRANCH  30  31
ATOM     31  C   UNL     1      -5.664  -0.359   1.438  1.00  0.00     0.202 C 
BRANCH  31  32
ATOM     32  C   UNL     1      -6.428   0.962   1.387  1.00  0.00     0.261 C 
BRANCH  32  33
ATOM     33  O   UNL     1      -5.771   1.989   2.146  1.00  0.00    -0.460 OA
BRANCH  33  34
ATOM     34  C   UNL     1      -6.252   2.160   3.393  1.00  0.00     0.338 C 
ATOM     35  O   UNL     1      -7.189   1.562   3.921  1.00  0.00    -0.246 OA
BRANCH  34  36
ATOM     36  C   UNL     1      -5.425   3.122   4.134  1.00  0.00     0.060 A 
ATOM     37  C   UNL     1      -5.102   2.820   5.463  1.00  0.00     0.016 A 
ATOM     38  C   UNL     1      -5.090   4.360   3.579  1.00  0.00     0.016 A 
ATOM     39  C   UNL     1      -4.526   3.791   6.272  1.00  0.00     0.010 A 
ATOM     40  C   UNL     1      -4.517   5.337   4.394  1.00  0.00     0.010 A 
ATOM     41  C   UNL     1      -4.296   5.072   5.757  1.00  0.00    -0.014 A 
BRANCH  41  42
ATOM     42  C   UNL     1      -4.059   6.183   6.704  1.00  0.00     0.031 A 
ATOM     43  C   UNL     1      -5.227   7.044   7.102  1.00  0.00     0.074 A 
ATOM     44  C   UNL     1      -2.849   6.374   7.254  1.00  0.00     0.049 A 
ATOM     45  N   UNL     1      -5.267   8.058   7.927  1.00  0.00    -0.248 NA
ATOM     46  C   UNL     1      -6.527   6.713   6.491  1.00  0.00     0.031 C 
ATOM     47  C   UNL     1      -1.664   5.557   6.998  1.00  0.00     0.029 A 
ATOM     48  N   UNL     1      -2.426   7.316   8.155  1.00  0.00    -0.354 N 
ATOM     49  C   UNL     1      -6.590   8.485   7.931  1.00  0.00     0.074 A 
ATOM     50  C   UNL     1      -7.312   7.649   7.000  1.00  0.00     0.031 C 
ATOM     51  C   UNL     1      -0.644   6.037   7.731  1.00  0.00     0.029 A 
ATOM     52  C   UNL     1      -1.096   7.212   8.469  1.00  0.00     0.049 A 
ATOM     53  H   UNL     1      -3.020   8.000   8.539  1.00  0.00     0.167 HD
ATOM     54  C   UNL     1      -7.155   9.480   8.655  1.00  0.00     0.031 A 
ATOM     55  C   UNL     1      -0.325   7.989   9.252  1.00  0.00     0.031 A 
ATOM     56  C   UNL     1      -6.428  10.317   9.571  1.00  0.00     0.049 A 
ATOM     57  C   UNL     1      -0.956   9.147   9.975  1.00  0.00     0.074 A 
ATOM     58  C   UNL     1      -6.903  11.348  10.361  1.00  0.00     0.029 A 
ATOM     59  N   UNL     1      -5.066  10.221   9.812  1.00  0.00    -0.354 N 
ATOM     60  N   UNL     1      -2.210   9.531   9.986  1.00  0.00    -0.248 NA
ATOM     61  C   UNL     1      -0.066   9.966  10.808  1.00  0.00     0.031 C 
ATOM     62  C   UNL     1      -5.816  11.916  11.034  1.00  0.00     0.029 A 
ATOM     63  C   UNL     1      -4.676  11.195  10.714  1.00  0.00     0.049 A 
ATOM     64  H   UNL     1      -4.465   9.558   9.401  1.00  0.00     0.167 HD
ATOM     65  C   UNL     1      -2.266  10.618  10.848  1.00  0.00     0.074 A 
ATOM     66  C   UNL     1      -0.922  10.817  11.355  1.00  0.00     0.031 C 
ATOM     67  C   UNL     1      -3.331  11.383  11.194  1.00  0.00     0.031 A 
BRANCH  54  68
ATOM     68  C   UNL     1      -8.622   9.737   8.448  1.00  0.00    -0.014 A 
ATOM     69  C   UNL     1      -9.597   8.831   8.899  1.00  0.00     0.009 A 
ATOM     70  C   UNL     1      -9.037  10.912   7.803  1.00  0.00     0.009 A 
ATOM     71  C   UNL     1     -10.953   9.082   8.675  1.00  0.00     0.001 A 
ATOM     72  C   UNL     1     -10.394  11.174   7.607  1.00  0.00     0.001 A 
ATOM     73  C   UNL     1     -11.350  10.254   8.034  1.00  0.00     0.000 A 
ENDBRANCH  54  68
BRANCH  55  74
ATOM     74  C   UNL     1       1.129   7.710   9.377  1.00  0.00    -0.014 A 
ATOM     75  C   UNL     1       1.673   7.252  10.585  1.00  0.00     0.009 A 
ATOM     76  C   UNL     1       1.985   7.914   8.282  1.00  0.00     0.009 A 
ATOM     77  C   UNL     1       3.048   7.031  10.703  1.00  0.00     0.001 A 
ATOM     78  C   UNL     1       3.354   7.663   8.393  1.00  0.00     0.001 A 
ATOM     79  C   UNL     1       3.885   7.232   9.607  1.00  0.00     0.000 A 
ENDBRANCH  55  74
BRANCH  67  80
ATOM     80  C   UNL     1      -3.084  12.484  12.188  1.00  0.00    -0.014 A 
ATOM     81  C   UNL     1      -2.344  13.626  11.843  1.00  0.00     0.009 A 
ATOM     82  C   UNL     1      -3.617  12.383  13.482  1.00  0.00     0.009 A 
ATOM     83  C   UNL     1      -2.104  14.623  12.791  1.00  0.00     0.001 A 
ATOM     84  C   UNL     1      -3.405  13.397  14.417  1.00  0.00     0.001 A 
ATOM     85  C   UNL     1      -2.638  14.509  14.075  1.00  0.00     0.000 A 
ENDBRANCH  67  80
ENDBRANCH  41  42
ENDBRANCH  34  36
ENDBRANCH  33  34
ENDBRANCH  32  33
ENDBRANCH  31  32
ENDBRANCH  30  31
ENDBRANCH  29  30
ENDBRANCH  28  29
ENDBRANCH   1  28
TORSDOF 22
