REMARK SMILES Cc1nc(=O)c(-c2ccccc2)c(C)n1-c1ccc(C(=O)OCCOCCOCCOCCOC(=O)c2ccc(-c3c4nc(c(-c5ccccc5)c5ccc([nH]5)c(-c5ccccc5)c5nc(c(-c6ccccc6)c6ccc3[nH]6)C=C5)C=C4)cc2)cc1
REMARK SMILES IDX 28 1 27 2 26 3 25 4 24 5 23 6 22 7 20 8 21 9 19 10 16 11
REMARK SMILES IDX 17 12 86 13 18 14 85 15 15 16 1 17 2 18 3 19 4 20 13 21 5 22
REMARK SMILES IDX 6 23 14 24 7 25 8 26 12 27 9 28 11 29 10 30 29 31 30 32
REMARK SMILES IDX 31 33 32 34 33 35 34 36 35 37 36 38 37 39 38 40 84 41 39 42
REMARK SMILES IDX 83 43 40 44 41 45 42 46 77 47 43 48 82 49 76 50 78 51 44 52
REMARK SMILES IDX 81 53 75 54 74 55 45 57 67 58 52 59 66 60 53 61 56 62 65 63
REMARK SMILES IDX 79 64 54 65 55 66 64 68 80 69 57 70 46 71 47 72 51 73 48 74
REMARK SMILES IDX 50 75 49 76 68 77 69 78 73 79 70 80 72 81 71 82 58 83 59 84
REMARK SMILES IDX 63 85 60 86 62 87 61 88
REMARK H PARENT 78 56 56 67
REMARK Flexibility Score: inf
ROOT
ATOM      1  O   UNL     1      -3.003   6.561   1.395  1.00  0.00    -0.377 OA
ENDROOT
BRANCH   1   2
ATOM      2  C   UNL     1      -1.993   6.306   2.359  1.00  0.00     0.188 C 
BRANCH   2   3
ATOM      3  C   UNL     1      -0.797   7.277   2.409  1.00  0.00     0.188 C 
BRANCH   3   4
ATOM      4  O   UNL     1      -1.023   8.486   1.701  1.00  0.00    -0.376 OA
BRANCH   4   5
ATOM      5  C   UNL     1      -0.335   8.704   0.483  1.00  0.00     0.202 C 
BRANCH   5   6
ATOM      6  C   UNL     1      -0.566   7.731  -0.685  1.00  0.00     0.261 C 
BRANCH   6   7
ATOM      7  O   UNL     1      -0.566   6.339  -0.350  1.00  0.00    -0.460 OA
BRANCH   7   8
ATOM      8  C   UNL     1       0.628   5.776  -0.071  1.00  0.00     0.338 C 
ATOM      9  O   UNL     1       1.718   6.317  -0.126  1.00  0.00    -0.246 OA
BRANCH   8  10
ATOM     10  C   UNL     1       0.385   4.437   0.526  1.00  0.00     0.060 A 
ATOM     11  C   UNL     1       0.015   1.915   1.711  1.00  0.00     0.047 A 
ATOM     12  C   UNL     1       1.012   2.783   2.184  1.00  0.00     0.027 A 
ATOM     13  C   UNL     1      -0.851   2.362   0.696  1.00  0.00     0.027 A 
ATOM     14  C   UNL     1       1.198   4.035   1.593  1.00  0.00     0.018 A 
ATOM     15  C   UNL     1      -0.662   3.612   0.098  1.00  0.00     0.018 A 
BRANCH  11  16
ATOM     16  N   UNL     1      -0.021   0.556   2.146  1.00  0.00    -0.302 N 
ATOM     17  C   UNL     1       1.083  -0.110  -0.072  1.00  0.00     0.088 C 
ATOM     18  C   UNL     1       0.485  -0.435   1.293  1.00  0.00     0.114 A 
ATOM     19  N   UNL     1       0.565  -1.693   1.596  1.00  0.00    -0.195 NA
ATOM     20  C   UNL     1       0.135  -2.139   2.816  1.00  0.00     0.281 A 
ATOM     21  C   UNL     1      -0.395   0.181   3.454  1.00  0.00     0.035 A 
ATOM     22  O   UNL     1       0.137  -3.333   3.097  1.00  0.00    -0.267 OA
ATOM     23  C   UNL     1      -0.318  -1.122   3.833  1.00  0.00     0.069 A 
ATOM     24  C   UNL     1      -0.874   1.231   4.441  1.00  0.00     0.066 C 
BRANCH  23  25
ATOM     25  C   UNL     1      -0.623  -1.597   5.202  1.00  0.00    -0.011 A 
ATOM     26  C   UNL     1       0.413  -2.086   6.013  1.00  0.00     0.009 A 
ATOM     27  C   UNL     1      -1.930  -1.588   5.707  1.00  0.00     0.009 A 
ATOM     28  C   UNL     1       0.150  -2.534   7.309  1.00  0.00     0.001 A 
ATOM     29  C   UNL     1      -2.189  -2.024   7.009  1.00  0.00     0.001 A 
ATOM     30  C   UNL     1      -1.149  -2.493   7.810  1.00  0.00     0.000 A 
ENDBRANCH  23  25
ENDBRANCH  11  16
ENDBRANCH   8  10
ENDBRANCH   7   8
ENDBRANCH   6   7
ENDBRANCH   5   6
ENDBRANCH   4   5
ENDBRANCH   3   4
ENDBRANCH   2   3
ENDBRANCH   1   2
BRANCH   1  31
ATOM     31  C   UNL     1      -3.667   7.825   1.392  1.00  0.00     0.188 C 
BRANCH  31  32
ATOM     32  C   UNL     1      -3.598   8.807   2.588  1.00  0.00     0.188 C 
BRANCH  32  33
ATOM     33  O   UNL     1      -3.136   8.239   3.802  1.00  0.00    -0.376 OA
BRANCH  33  34
ATOM     34  C   UNL     1      -4.082   8.052   4.839  1.00  0.00     0.202 C 
BRANCH  34  35
ATOM     35  C   UNL     1      -5.176   7.011   4.573  1.00  0.00     0.261 C 
BRANCH  35  36
ATOM     36  O   UNL     1      -5.946   7.203   3.376  1.00  0.00    -0.460 OA
BRANCH  36  37
ATOM     37  C   UNL     1      -6.733   8.298   3.314  1.00  0.00     0.338 C 
ATOM     38  O   UNL     1      -6.882   9.153   4.171  1.00  0.00    -0.246 OA
BRANCH  37  39
ATOM     39  C   UNL     1      -7.253   8.390   1.934  1.00  0.00     0.060 A 
ATOM     40  C   UNL     1      -6.913   9.498   1.146  1.00  0.00     0.016 A 
ATOM     41  C   UNL     1      -8.052   7.369   1.416  1.00  0.00     0.016 A 
ATOM     42  C   UNL     1      -7.395   9.598  -0.160  1.00  0.00     0.010 A 
ATOM     43  C   UNL     1      -8.557   7.484   0.119  1.00  0.00     0.010 A 
ATOM     44  C   UNL     1      -8.256   8.613  -0.662  1.00  0.00    -0.014 A 
BRANCH  44  45
ATOM     45  C   UNL     1      -9.013   8.867  -1.911  1.00  0.00     0.031 A 
ATOM     46  C   UNL     1     -10.401   9.433  -1.791  1.00  0.00     0.074 A 
ATOM     47  C   UNL     1      -8.480   8.629  -3.122  1.00  0.00     0.049 A 
ATOM     48  N   UNL     1     -11.272   9.700  -2.729  1.00  0.00    -0.248 NA
ATOM     49  C   UNL     1     -10.869   9.741  -0.428  1.00  0.00     0.031 C 
ATOM     50  C   UNL     1      -7.126   8.142  -3.374  1.00  0.00     0.029 A 
ATOM     51  N   UNL     1      -9.027   8.772  -4.374  1.00  0.00    -0.354 N 
ATOM     52  C   UNL     1     -12.386  10.206  -2.071  1.00  0.00     0.074 A 
ATOM     53  C   UNL     1     -12.097  10.180  -0.655  1.00  0.00     0.031 C 
ATOM     54  C   UNL     1      -6.948   8.023  -4.702  1.00  0.00     0.029 A 
ATOM     55  C   UNL     1      -8.185   8.391  -5.390  1.00  0.00     0.049 A 
ATOM     56  H   UNL     1      -9.937   9.115  -4.529  1.00  0.00     0.167 HD
ATOM     57  C   UNL     1     -13.545  10.661  -2.600  1.00  0.00     0.031 A 
ATOM     58  C   UNL     1      -8.398   8.328  -6.720  1.00  0.00     0.031 A 
ATOM     59  C   UNL     1     -13.840  10.673  -4.006  1.00  0.00     0.049 A 
ATOM     60  C   UNL     1      -9.737   8.741  -7.276  1.00  0.00     0.074 A 
ATOM     61  C   UNL     1     -14.989  11.114  -4.638  1.00  0.00     0.029 A 
ATOM     62  N   UNL     1     -12.984  10.219  -4.996  1.00  0.00    -0.354 N 
ATOM     63  N   UNL     1     -10.780   9.228  -6.647  1.00  0.00    -0.248 NA
ATOM     64  C   UNL     1      -9.927   8.599  -8.728  1.00  0.00     0.031 C 
ATOM     65  C   UNL     1     -14.853  10.869  -6.006  1.00  0.00     0.029 A 
ATOM     66  C   UNL     1     -13.592  10.341  -6.233  1.00  0.00     0.049 A 
ATOM     67  H   UNL     1     -12.079   9.864  -4.843  1.00  0.00     0.167 HD
ATOM     68  C   UNL     1     -11.736   9.474  -7.626  1.00  0.00     0.074 A 
ATOM     69  C   UNL     1     -11.144   9.100  -8.893  1.00  0.00     0.031 C 
ATOM     70  C   UNL     1     -12.991   9.967  -7.487  1.00  0.00     0.031 A 
BRANCH  57  71
ATOM     71  C   UNL     1     -14.596  11.163  -1.652  1.00  0.00    -0.014 A 
ATOM     72  C   UNL     1     -14.443  12.386  -0.980  1.00  0.00     0.009 A 
ATOM     73  C   UNL     1     -15.784  10.436  -1.482  1.00  0.00     0.009 A 
ATOM     74  C   UNL     1     -15.455  12.863  -0.144  1.00  0.00     0.001 A 
ATOM     75  C   UNL     1     -16.805  10.930  -0.668  1.00  0.00     0.001 A 
ATOM     76  C   UNL     1     -16.638  12.140   0.003  1.00  0.00     0.000 A 
ENDBRANCH  57  71
BRANCH  58  77
ATOM     77  C   UNL     1      -7.322   7.841  -7.626  1.00  0.00    -0.014 A 
ATOM     78  C   UNL     1      -6.707   8.710  -8.540  1.00  0.00     0.009 A 
ATOM     79  C   UNL     1      -6.914   6.497  -7.592  1.00  0.00     0.009 A 
ATOM     80  C   UNL     1      -5.721   8.241  -9.412  1.00  0.00     0.001 A 
ATOM     81  C   UNL     1      -5.906   6.038  -8.444  1.00  0.00     0.001 A 
ATOM     82  C   UNL     1      -5.316   6.908  -9.358  1.00  0.00     0.000 A 
ENDBRANCH  58  77
BRANCH  70  83
ATOM     83  C   UNL     1     -13.812  10.159  -8.732  1.00  0.00    -0.014 A 
ATOM     84  C   UNL     1     -14.339   9.065  -9.434  1.00  0.00     0.009 A 
ATOM     85  C   UNL     1     -14.136  11.459  -9.157  1.00  0.00     0.009 A 
ATOM     86  C   UNL     1     -15.155   9.268 -10.550  1.00  0.00     0.001 A 
ATOM     87  C   UNL     1     -14.977  11.659 -10.253  1.00  0.00     0.001 A 
ATOM     88  C   UNL     1     -15.480  10.563 -10.952  1.00  0.00     0.000 A 
ENDBRANCH  70  83
ENDBRANCH  44  45
ENDBRANCH  37  39
ENDBRANCH  36  37
ENDBRANCH  35  36
ENDBRANCH  34  35
ENDBRANCH  33  34
ENDBRANCH  32  33
ENDBRANCH  31  32
ENDBRANCH   1  31
TORSDOF 22
