REMARK SMILES Cn1c(=O)c2c(nc(Nc3cccc(Cl)c3Cl)n2CC(=O)OCCOCCOCCOCCOC(=O)c2ccc(-c3c4nc(c(-c5ccccc5)c5ccc([nH]5)c(-c5ccccc5)c5nc(c(-c6ccccc6)c6ccc3[nH]6)C=C5)C=C4)cc2)n(C)c1=O
REMARK SMILES IDX 27 1 26 2 25 3 24 4 23 5 22 6 20 7 21 8 19 9 18 10 1 11 2 12
REMARK SMILES IDX 3 13 87 14 4 15 5 16 85 17 88 18 6 19 86 20 7 21 8 22 9 23
REMARK SMILES IDX 10 25 11 26 16 27 12 28 14 29 17 30 13 31 15 32 28 33 29 34
REMARK SMILES IDX 30 35 31 36 32 37 33 38 34 39 35 40 36 41 37 42 38 43 84 44
REMARK SMILES IDX 39 45 83 46 40 47 41 48 42 49 77 50 43 51 82 52 76 53 78 54
REMARK SMILES IDX 44 55 81 56 75 57 74 58 45 60 67 61 52 62 66 63 53 64 56 65
REMARK SMILES IDX 65 66 79 67 54 68 55 69 64 71 80 72 57 73 46 74 47 75 51 76
REMARK SMILES IDX 48 77 50 78 49 79 68 80 69 81 73 82 70 83 72 84 71 85 58 86
REMARK SMILES IDX 59 87 63 88 60 89 62 90 61 91
REMARK H PARENT 9 24 78 59 56 70
REMARK Flexibility Score: inf
ROOT
ATOM      1  C   UNL     1       3.158   3.241   1.725  1.00  0.00     0.188 C 
ENDROOT
BRANCH   1   2
ATOM      2  C   UNL     1       4.591   3.256   1.147  1.00  0.00     0.188 C 
BRANCH   2   3
ATOM      3  O   UNL     1       5.676   3.736   1.936  1.00  0.00    -0.376 OA
BRANCH   3   4
ATOM      4  C   UNL     1       5.454   4.818   2.831  1.00  0.00     0.202 C 
BRANCH   4   5
ATOM      5  C   UNL     1       4.854   6.115   2.254  1.00  0.00     0.261 C 
BRANCH   5   6
ATOM      6  O   UNL     1       3.680   5.912   1.432  1.00  0.00    -0.462 OA
BRANCH   6   7
ATOM      7  C   UNL     1       3.656   6.530   0.225  1.00  0.00     0.326 C 
ATOM      8  O   UNL     1       4.428   7.434  -0.084  1.00  0.00    -0.250 OA
BRANCH   7   9
ATOM      9  C   UNL     1       2.761   5.862  -0.801  1.00  0.00     0.248 C 
BRANCH   9  10
ATOM     10  N   UNL     1       1.377   5.524  -0.475  1.00  0.00    -0.293 N 
ATOM     11  C   UNL     1       0.809   0.673  -1.595  1.00  0.00     0.159 C 
ATOM     12  N   UNL     1       0.395   1.970  -1.087  1.00  0.00    -0.261 N 
ATOM     13  C   UNL     1       1.311   3.027  -1.168  1.00  0.00     0.282 A 
ATOM     14  C   UNL     1      -0.905   2.055  -0.559  1.00  0.00     0.332 A 
ATOM     15  O   UNL     1       2.451   2.894  -1.606  1.00  0.00    -0.267 OA
ATOM     16  C   UNL     1       0.806   4.266  -0.663  1.00  0.00     0.154 A 
ATOM     17  N   UNL     1      -1.327   3.305  -0.116  1.00  0.00    -0.279 N 
ATOM     18  O   UNL     1      -1.635   1.062  -0.488  1.00  0.00    -0.247 OA
ATOM     19  C   UNL     1      -0.464   4.374  -0.188  1.00  0.00     0.170 A 
ATOM     20  C   UNL     1      -2.674   3.481   0.399  1.00  0.00     0.157 C 
ATOM     21  N   UNL     1      -0.750   5.639   0.190  1.00  0.00    -0.194 NA
ATOM     22  C   UNL     1       0.336   6.347  -0.061  1.00  0.00     0.210 A 
BRANCH  22  23
ATOM     23  N   UNL     1       0.348   7.678   0.145  1.00  0.00    -0.324 N 
ATOM     24  H   UNL     1      -0.456   8.016   0.601  1.00  0.00     0.170 HD
BRANCH  23  25
ATOM     25  C   UNL     1       1.283   8.677  -0.163  1.00  0.00     0.061 A 
ATOM     26  C   UNL     1       1.722   9.467   0.914  1.00  0.00     0.028 A 
ATOM     27  C   UNL     1       1.777   8.957  -1.453  1.00  0.00     0.083 A 
ATOM     28  C   UNL     1       2.713  10.428   0.745  1.00  0.00     0.004 A 
ATOM     29  C   UNL     1       2.818   9.886  -1.609  1.00  0.00     0.061 A 
ATOM     30  Cl  UNL     1       1.046   8.207  -2.844  1.00  0.00    -0.080 Cl
ATOM     31  C   UNL     1       3.287  10.610  -0.509  1.00  0.00     0.022 A 
ATOM     32  Cl  UNL     1       3.590  10.164  -3.132  1.00  0.00    -0.083 Cl
ENDBRANCH  23  25
ENDBRANCH  22  23
ENDBRANCH   9  10
ENDBRANCH   7   9
ENDBRANCH   6   7
ENDBRANCH   5   6
ENDBRANCH   4   5
ENDBRANCH   3   4
ENDBRANCH   2   3
ENDBRANCH   1   2
BRANCH   1  33
ATOM     33  O   UNL     1       3.031   3.629   3.079  1.00  0.00    -0.377 OA
BRANCH  33  34
ATOM     34  C   UNL     1       2.844   2.577   4.009  1.00  0.00     0.188 C 
BRANCH  34  35
ATOM     35  C   UNL     1       3.818   1.386   3.919  1.00  0.00     0.188 C 
BRANCH  35  36
ATOM     36  O   UNL     1       4.024   0.875   2.602  1.00  0.00    -0.376 OA
BRANCH  36  37
ATOM     37  C   UNL     1       3.397  -0.345   2.230  1.00  0.00     0.202 C 
BRANCH  37  38
ATOM     38  C   UNL     1       1.946  -0.203   1.780  1.00  0.00     0.261 C 
BRANCH  38  39
ATOM     39  O   UNL     1       1.102   0.455   2.710  1.00  0.00    -0.460 OA
BRANCH  39  40
ATOM     40  C   UNL     1       0.986  -0.138   3.905  1.00  0.00     0.338 C 
ATOM     41  O   UNL     1       1.644  -1.082   4.342  1.00  0.00    -0.246 OA
BRANCH  40  42
ATOM     42  C   UNL     1      -0.160   0.430   4.602  1.00  0.00     0.060 A 
ATOM     43  C   UNL     1      -0.349   0.004   5.916  1.00  0.00     0.016 A 
ATOM     44  C   UNL     1      -1.167   1.064   3.854  1.00  0.00     0.016 A 
ATOM     45  C   UNL     1      -1.635  -0.039   6.385  1.00  0.00     0.010 A 
ATOM     46  C   UNL     1      -2.453   1.010   4.322  1.00  0.00     0.010 A 
ATOM     47  C   UNL     1      -2.670   0.362   5.532  1.00  0.00    -0.014 A 
BRANCH  47  48
ATOM     48  C   UNL     1      -4.010   0.072   5.967  1.00  0.00     0.031 A 
ATOM     49  C   UNL     1      -4.478   0.957   7.041  1.00  0.00     0.074 A 
ATOM     50  C   UNL     1      -4.747  -0.909   5.425  1.00  0.00     0.049 A 
ATOM     51  N   UNL     1      -4.651   0.657   8.282  1.00  0.00    -0.248 NA
ATOM     52  C   UNL     1      -4.601   2.385   6.722  1.00  0.00     0.031 C 
ATOM     53  C   UNL     1      -4.521  -1.652   4.184  1.00  0.00     0.029 A 
ATOM     54  N   UNL     1      -5.946  -1.371   5.856  1.00  0.00    -0.354 N 
ATOM     55  C   UNL     1      -5.075   1.832   8.883  1.00  0.00     0.074 A 
ATOM     56  C   UNL     1      -4.859   2.889   7.927  1.00  0.00     0.031 C 
ATOM     57  C   UNL     1      -5.664  -2.296   3.848  1.00  0.00     0.029 A 
ATOM     58  C   UNL     1      -6.634  -2.118   4.918  1.00  0.00     0.049 A 
ATOM     59  H   UNL     1      -6.296  -1.191   6.758  1.00  0.00     0.167 HD
ATOM     60  C   UNL     1      -5.799   1.820  10.032  1.00  0.00     0.031 A 
ATOM     61  C   UNL     1      -7.939  -2.467   4.999  1.00  0.00     0.031 A 
ATOM     62  C   UNL     1      -5.723   0.554  10.710  1.00  0.00     0.049 A 
ATOM     63  C   UNL     1      -8.351  -2.345   6.421  1.00  0.00     0.074 A 
ATOM     64  C   UNL     1      -4.702  -0.183  11.276  1.00  0.00     0.029 A 
ATOM     65  N   UNL     1      -6.772  -0.318  10.532  1.00  0.00    -0.354 N 
ATOM     66  N   UNL     1      -7.912  -3.123   7.369  1.00  0.00    -0.248 NA
ATOM     67  C   UNL     1      -8.923  -1.084   6.872  1.00  0.00     0.031 C 
ATOM     68  C   UNL     1      -5.026  -1.542  10.999  1.00  0.00     0.029 A 
ATOM     69  C   UNL     1      -6.244  -1.565  10.314  1.00  0.00     0.049 A 
ATOM     70  H   UNL     1      -7.729  -0.089  10.558  1.00  0.00     0.167 HD
ATOM     71  C   UNL     1      -7.763  -2.296   8.475  1.00  0.00     0.074 A 
ATOM     72  C   UNL     1      -8.506  -1.084   8.142  1.00  0.00     0.031 C 
ATOM     73  C   UNL     1      -6.823  -2.556   9.431  1.00  0.00     0.031 A 
BRANCH  60  74
ATOM     74  C   UNL     1      -6.880   2.825  10.307  1.00  0.00    -0.014 A 
ATOM     75  C   UNL     1      -7.503   2.827  11.564  1.00  0.00     0.009 A 
ATOM     76  C   UNL     1      -7.487   3.592   9.292  1.00  0.00     0.009 A 
ATOM     77  C   UNL     1      -8.697   3.525  11.776  1.00  0.00     0.001 A 
ATOM     78  C   UNL     1      -8.651   4.326   9.512  1.00  0.00     0.001 A 
ATOM     79  C   UNL     1      -9.270   4.272  10.750  1.00  0.00     0.000 A 
ENDBRANCH  60  74
BRANCH  61  80
ATOM     80  C   UNL     1      -8.910  -2.564   3.890  1.00  0.00    -0.014 A 
ATOM     81  C   UNL     1     -10.146  -3.198   4.075  1.00  0.00     0.009 A 
ATOM     82  C   UNL     1      -8.732  -1.803   2.718  1.00  0.00     0.009 A 
ATOM     83  C   UNL     1     -11.178  -3.044   3.140  1.00  0.00     0.001 A 
ATOM     84  C   UNL     1      -9.758  -1.655   1.782  1.00  0.00     0.001 A 
ATOM     85  C   UNL     1     -10.988  -2.264   2.002  1.00  0.00     0.000 A 
ENDBRANCH  61  80
BRANCH  73  86
ATOM     86  C   UNL     1      -6.121  -3.892   9.386  1.00  0.00    -0.014 A 
ATOM     87  C   UNL     1      -5.308  -4.287   8.309  1.00  0.00     0.009 A 
ATOM     88  C   UNL     1      -6.134  -4.693  10.538  1.00  0.00     0.009 A 
ATOM     89  C   UNL     1      -4.546  -5.458   8.378  1.00  0.00     0.001 A 
ATOM     90  C   UNL     1      -5.357  -5.851  10.615  1.00  0.00     0.001 A 
ATOM     91  C   UNL     1      -4.565  -6.234   9.535  1.00  0.00     0.000 A 
ENDBRANCH  73  86
ENDBRANCH  47  48
ENDBRANCH  40  42
ENDBRANCH  39  40
ENDBRANCH  38  39
ENDBRANCH  37  38
ENDBRANCH  36  37
ENDBRANCH  35  36
ENDBRANCH  34  35
ENDBRANCH  33  34
ENDBRANCH   1  33
TORSDOF 23
