REMARK SMILES Cc1cccc(CS[C@@H]2CC[C@]([NH3+])(C(=O)OCCOCCOCCOCCOC(=O)c3ccc(-c4c5nc(c(-c6ccccc6)c6ccc([nH]6)c(-c6ccccc6)c6nc(c(-c7ccccc7)c7ccc4[nH]7)C=C6)C=C5)cc3)C2)c1
REMARK SMILES IDX 21 1 20 2 19 3 18 4 17 5 16 6 14 7 15 8 12 9 9 10 10 11
REMARK SMILES IDX 79 12 11 13 8 14 7 15 6 16 1 17 2 18 3 19 80 20 4 21 5 22
REMARK SMILES IDX 13 23 22 27 23 28 24 29 25 30 26 31 27 32 28 33 29 34 30 35
REMARK SMILES IDX 31 36 32 37 78 38 33 39 77 40 34 41 35 42 36 43 71 44 37 45
REMARK SMILES IDX 76 46 70 47 72 48 38 49 75 50 69 51 68 52 39 54 61 55 46 56
REMARK SMILES IDX 60 57 47 58 50 59 59 60 73 61 48 62 49 63 58 65 74 66 51 67
REMARK SMILES IDX 40 68 41 69 45 70 42 71 44 72 43 73 62 74 63 75 67 76 64 77
REMARK SMILES IDX 66 78 65 79 52 80 53 81 57 82 54 83 56 84 55 85
REMARK H PARENT 13 24 13 25 13 26 72 53 50 64
REMARK Flexibility Score: inf
ROOT
ATOM      1  C   UNL     1       0.158   5.036  -6.630  1.00  0.00     0.188 C 
ENDROOT
BRANCH   1   2
ATOM      2  C   UNL     1       0.133   6.071  -5.499  1.00  0.00     0.188 C 
BRANCH   2   3
ATOM      3  O   UNL     1       1.377   6.618  -5.079  1.00  0.00    -0.376 OA
BRANCH   3   4
ATOM      4  C   UNL     1       2.190   5.755  -4.279  1.00  0.00     0.202 C 
BRANCH   4   5
ATOM      5  C   UNL     1       1.631   5.456  -2.893  1.00  0.00     0.261 C 
BRANCH   5   6
ATOM      6  O   UNL     1       0.805   4.280  -2.953  1.00  0.00    -0.459 OA
BRANCH   6   7
ATOM      7  C   UNL     1      -0.489   4.472  -2.615  1.00  0.00     0.368 C 
ATOM      8  O   UNL     1      -0.930   5.501  -2.113  1.00  0.00    -0.245 OA
BRANCH   7   9
ATOM      9  C   UNL     1      -1.390   3.315  -3.080  1.00  0.00     0.193 C 
ATOM     10  C   UNL     1      -3.267   2.020  -2.216  1.00  0.00     0.054 C 
ATOM     11  C   UNL     1      -2.148   1.067  -2.656  1.00  0.00     0.022 C 
ATOM     12  C   UNL     1      -2.697   3.427  -2.290  1.00  0.00     0.095 C 
ATOM     13  C   UNL     1      -0.879   1.917  -2.729  1.00  0.00     0.082 C 
BRANCH  10  14
ATOM     14  S   UNL     1      -4.076   1.762  -0.595  1.00  0.00    -0.154 SA
BRANCH  14  15
ATOM     15  C   UNL     1      -2.658   1.751   0.577  1.00  0.00     0.105 C 
BRANCH  15  16
ATOM     16  C   UNL     1      -1.893   0.450   0.591  1.00  0.00    -0.038 A 
ATOM     17  C   UNL     1       1.727  -0.753   0.777  1.00  0.00     0.044 C 
ATOM     18  C   UNL     1       0.234  -0.741   0.661  1.00  0.00    -0.051 A 
ATOM     19  C   UNL     1      -0.433  -1.937   0.393  1.00  0.00     0.003 A 
ATOM     20  C   UNL     1      -0.499   0.452   0.750  1.00  0.00     0.008 A 
ATOM     21  C   UNL     1      -1.819  -1.962   0.307  1.00  0.00     0.001 A 
ATOM     22  C   UNL     1      -2.545  -0.782   0.442  1.00  0.00     0.004 A 
ENDBRANCH  15  16
ENDBRANCH  14  15
ENDBRANCH  10  14
BRANCH   9  23
ATOM     23  N   UNL     1      -1.676   3.410  -4.528  1.00  0.00    -0.343 N 
ATOM     24  H   UNL     1      -2.273   2.632  -4.808  1.00  0.00     0.345 HD
ATOM     25  H   UNL     1      -0.801   3.372  -5.050  1.00  0.00     0.345 HD
ATOM     26  H   UNL     1      -2.151   4.291  -4.724  1.00  0.00     0.345 HD
ENDBRANCH   9  23
ENDBRANCH   7   9
ENDBRANCH   6   7
ENDBRANCH   5   6
ENDBRANCH   4   5
ENDBRANCH   3   4
ENDBRANCH   2   3
ENDBRANCH   1   2
BRANCH   1  27
ATOM     27  O   UNL     1       1.058   3.951  -6.438  1.00  0.00    -0.377 OA
BRANCH  27  28
ATOM     28  C   UNL     1       1.813   3.664  -7.612  1.00  0.00     0.188 C 
BRANCH  28  29
ATOM     29  C   UNL     1       3.071   4.525  -7.744  1.00  0.00     0.188 C 
BRANCH  29  30
ATOM     30  O   UNL     1       2.952   5.901  -7.421  1.00  0.00    -0.376 OA
BRANCH  30  31
ATOM     31  C   UNL     1       2.551   6.854  -8.395  1.00  0.00     0.202 C 
BRANCH  31  32
ATOM     32  C   UNL     1       3.385   6.900  -9.679  1.00  0.00     0.261 C 
BRANCH  32  33
ATOM     33  O   UNL     1       4.749   7.239  -9.371  1.00  0.00    -0.460 OA
BRANCH  33  34
ATOM     34  C   UNL     1       5.614   6.202  -9.385  1.00  0.00     0.338 C 
ATOM     35  O   UNL     1       5.739   5.394 -10.317  1.00  0.00    -0.246 OA
BRANCH  34  36
ATOM     36  C   UNL     1       6.160   5.974  -8.023  1.00  0.00     0.060 A 
ATOM     37  C   UNL     1       6.750   4.738  -7.717  1.00  0.00     0.016 A 
ATOM     38  C   UNL     1       5.747   6.815  -6.994  1.00  0.00     0.016 A 
ATOM     39  C   UNL     1       6.734   4.262  -6.399  1.00  0.00     0.010 A 
ATOM     40  C   UNL     1       5.637   6.291  -5.720  1.00  0.00     0.010 A 
ATOM     41  C   UNL     1       6.063   4.989  -5.413  1.00  0.00    -0.014 A 
BRANCH  41  42
ATOM     42  C   UNL     1       5.535   4.407  -4.159  1.00  0.00     0.031 A 
ATOM     43  C   UNL     1       5.585   5.198  -2.877  1.00  0.00     0.074 A 
ATOM     44  C   UNL     1       4.736   3.304  -4.228  1.00  0.00     0.049 A 
ATOM     45  N   UNL     1       5.108   4.790  -1.750  1.00  0.00    -0.248 NA
ATOM     46  C   UNL     1       6.171   6.537  -2.739  1.00  0.00     0.031 C 
ATOM     47  C   UNL     1       3.708   2.909  -3.263  1.00  0.00     0.029 A 
ATOM     48  N   UNL     1       4.605   2.299  -5.172  1.00  0.00    -0.354 N 
ATOM     49  C   UNL     1       4.970   5.874  -0.909  1.00  0.00     0.074 A 
ATOM     50  C   UNL     1       5.730   6.921  -1.534  1.00  0.00     0.031 C 
ATOM     51  C   UNL     1       3.175   1.720  -3.578  1.00  0.00     0.029 A 
ATOM     52  C   UNL     1       4.022   1.164  -4.598  1.00  0.00     0.049 A 
ATOM     53  H   UNL     1       4.882   2.373  -6.114  1.00  0.00     0.167 HD
ATOM     54  C   UNL     1       4.108   5.783   0.144  1.00  0.00     0.031 A 
ATOM     55  C   UNL     1       4.718   0.001  -4.398  1.00  0.00     0.031 A 
ATOM     56  C   UNL     1       3.653   4.408   0.334  1.00  0.00     0.049 A 
ATOM     57  C   UNL     1       4.995  -0.244  -2.918  1.00  0.00     0.074 A 
ATOM     58  C   UNL     1       2.422   3.796   0.191  1.00  0.00     0.029 A 
ATOM     59  N   UNL     1       4.599   3.390   0.445  1.00  0.00    -0.354 N 
ATOM     60  N   UNL     1       5.014   0.716  -2.025  1.00  0.00    -0.248 NA
ATOM     61  C   UNL     1       5.153  -1.558  -2.297  1.00  0.00     0.031 C 
ATOM     62  C   UNL     1       2.676   2.417  -0.018  1.00  0.00     0.029 A 
ATOM     63  C   UNL     1       4.023   2.164   0.193  1.00  0.00     0.049 A 
ATOM     64  H   UNL     1       5.548   3.529   0.671  1.00  0.00     0.167 HD
ATOM     65  C   UNL     1       5.018   0.185  -0.765  1.00  0.00     0.074 A 
ATOM     66  C   UNL     1       5.184  -1.242  -0.986  1.00  0.00     0.031 C 
ATOM     67  C   UNL     1       4.784   0.928   0.360  1.00  0.00     0.031 A 
BRANCH  54  68
ATOM     68  C   UNL     1       3.483   6.948   0.887  1.00  0.00    -0.014 A 
ATOM     69  C   UNL     1       2.603   6.693   1.961  1.00  0.00     0.009 A 
ATOM     70  C   UNL     1       3.612   8.297   0.512  1.00  0.00     0.009 A 
ATOM     71  C   UNL     1       1.896   7.716   2.612  1.00  0.00     0.001 A 
ATOM     72  C   UNL     1       2.933   9.329   1.181  1.00  0.00     0.001 A 
ATOM     73  C   UNL     1       2.068   9.039   2.227  1.00  0.00     0.000 A 
ENDBRANCH  54  68
BRANCH  55  74
ATOM     74  C   UNL     1       5.510  -0.369  -5.602  1.00  0.00    -0.014 A 
ATOM     75  C   UNL     1       4.728  -0.706  -6.732  1.00  0.00     0.009 A 
ATOM     76  C   UNL     1       6.779   0.188  -5.811  1.00  0.00     0.009 A 
ATOM     77  C   UNL     1       5.084  -0.250  -8.004  1.00  0.00     0.001 A 
ATOM     78  C   UNL     1       7.146   0.610  -7.099  1.00  0.00     0.001 A 
ATOM     79  C   UNL     1       6.271   0.454  -8.176  1.00  0.00     0.000 A 
ENDBRANCH  55  74
BRANCH  67  80
ATOM     80  C   UNL     1       5.087   0.510   1.783  1.00  0.00    -0.014 A 
ATOM     81  C   UNL     1       5.944  -0.538   2.129  1.00  0.00     0.009 A 
ATOM     82  C   UNL     1       4.604   1.308   2.852  1.00  0.00     0.009 A 
ATOM     83  C   UNL     1       6.267  -0.798   3.468  1.00  0.00     0.001 A 
ATOM     84  C   UNL     1       4.965   1.086   4.180  1.00  0.00     0.001 A 
ATOM     85  C   UNL     1       5.790   0.019   4.490  1.00  0.00     0.000 A 
ENDBRANCH  67  80
ENDBRANCH  41  42
ENDBRANCH  34  36
ENDBRANCH  33  34
ENDBRANCH  32  33
ENDBRANCH  31  32
ENDBRANCH  30  31
ENDBRANCH  29  30
ENDBRANCH  28  29
ENDBRANCH  27  28
ENDBRANCH   1  27
TORSDOF 24
