REMARK SMILES CC[N@@H+]1C/C(=C\c2ccccc2C)c2nc3ccccc3c(C(=O)OCCOCCOCCOCCOC(=O)c3ccc(-c4c5nc(c(-c6ccccc6)c6ccc([nH]6)c(-c6ccccc6)c6nc(c(-c7ccccc7)c7ccc4[nH]7)C=C6)C=C5)cc3)c2C1
REMARK SMILES IDX 32 1 31 2 30 3 29 4 28 5 27 6 26 7 25 8 23 9 24 10 22 11
REMARK SMILES IDX 3 12 4 13 89 14 5 16 88 17 6 18 14 19 15 20 21 21 16 22
REMARK SMILES IDX 20 23 17 24 19 25 18 26 2 27 1 28 7 29 8 30 12 31 9 32 11 33
REMARK SMILES IDX 13 34 10 35 33 36 34 37 35 38 36 39 37 40 38 41 39 42 40 43
REMARK SMILES IDX 41 44 87 45 42 46 86 47 43 48 44 49 45 50 80 51 46 52 85 53
REMARK SMILES IDX 79 54 81 55 47 56 84 57 78 58 77 59 48 61 70 62 55 63 69 64
REMARK SMILES IDX 56 65 59 66 68 67 82 68 57 69 58 70 67 72 83 73 60 74 49 75
REMARK SMILES IDX 50 76 54 77 51 78 53 79 52 80 71 81 72 82 76 83 73 84 75 85
REMARK SMILES IDX 74 86 61 87 62 88 66 89 63 90 65 91 64 92
REMARK H PARENT 3 15 81 60 59 71
REMARK Flexibility Score: inf
ROOT
ATOM      1  C   UNL     1       4.331  -1.920   7.787  1.00  0.00     0.188 C 
ENDROOT
BRANCH   1   2
ATOM      2  O   UNL     1       3.998  -0.675   7.188  1.00  0.00    -0.377 OA
BRANCH   2   3
ATOM      3  C   UNL     1       3.193  -0.665   6.022  1.00  0.00     0.188 C 
BRANCH   3   4
ATOM      4  C   UNL     1       3.530  -1.651   4.889  1.00  0.00     0.188 C 
BRANCH   4   5
ATOM      5  O   UNL     1       4.700  -2.438   5.100  1.00  0.00    -0.376 OA
BRANCH   5   6
ATOM      6  C   UNL     1       5.774  -2.172   4.206  1.00  0.00     0.202 C 
BRANCH   6   7
ATOM      7  C   UNL     1       6.557  -0.911   4.570  1.00  0.00     0.261 C 
BRANCH   7   8
ATOM      8  O   UNL     1       5.726   0.257   4.659  1.00  0.00    -0.460 OA
BRANCH   8   9
ATOM      9  C   UNL     1       5.390   0.881   3.511  1.00  0.00     0.339 C 
ATOM     10  O   UNL     1       5.700   0.525   2.387  1.00  0.00    -0.246 OA
BRANCH   9  11
ATOM     11  C   UNL     1       4.449   1.998   3.805  1.00  0.00     0.080 A 
ATOM     12  N   UNL     1       1.407   1.054   1.828  1.00  0.00    -0.328 N 
ATOM     13  C   UNL     1       1.062   2.377   1.312  1.00  0.00     0.301 C 
ATOM     14  C   UNL     1       2.854   1.020   2.040  1.00  0.00     0.302 C 
ATOM     15  H   UNL     1       0.949   0.906   2.728  1.00  0.00     0.348 HD
ATOM     16  C   UNL     1       1.194   3.364   2.450  1.00  0.00     0.033 C 
ATOM     17  C   UNL     1       3.264   2.077   3.045  1.00  0.00     0.048 A 
ATOM     18  C   UNL     1       0.270   4.307   2.738  1.00  0.00     0.020 C 
ATOM     19  C   UNL     1       2.435   3.181   3.256  1.00  0.00     0.082 A 
ATOM     20  N   UNL     1       2.706   4.127   4.185  1.00  0.00    -0.247 NA
ATOM     21  C   UNL     1       4.726   2.956   4.824  1.00  0.00     0.015 A 
ATOM     22  C   UNL     1       3.796   4.005   4.957  1.00  0.00     0.072 A 
ATOM     23  C   UNL     1       5.839   2.939   5.713  1.00  0.00     0.011 A 
ATOM     24  C   UNL     1       3.999   4.974   5.931  1.00  0.00     0.029 A 
ATOM     25  C   UNL     1       6.004   3.906   6.705  1.00  0.00     0.001 A 
ATOM     26  C   UNL     1       5.083   4.934   6.809  1.00  0.00     0.002 A 
BRANCH  12  27
ATOM     27  C   UNL     1       0.853  -0.056   1.062  1.00  0.00     0.259 C 
ATOM     28  C   UNL     1       1.246  -0.131  -0.405  1.00  0.00     0.071 C 
ENDBRANCH  12  27
BRANCH  18  29
ATOM     29  C   UNL     1      -0.940   4.517   1.924  1.00  0.00    -0.022 A 
ATOM     30  C   UNL     1      -1.946   3.534   1.946  1.00  0.00     0.008 A 
ATOM     31  C   UNL     1      -1.065   5.614   1.052  1.00  0.00    -0.044 A 
ATOM     32  C   UNL     1      -3.022   3.592   1.061  1.00  0.00     0.001 A 
ATOM     33  C   UNL     1      -2.165   5.664   0.177  1.00  0.00     0.004 A 
ATOM     34  C   UNL     1      -0.079   6.749   1.008  1.00  0.00     0.045 C 
ATOM     35  C   UNL     1      -3.125   4.652   0.167  1.00  0.00     0.000 A 
ENDBRANCH  18  29
ENDBRANCH   9  11
ENDBRANCH   8   9
ENDBRANCH   7   8
ENDBRANCH   6   7
ENDBRANCH   5   6
ENDBRANCH   4   5
ENDBRANCH   3   4
ENDBRANCH   2   3
ENDBRANCH   1   2
BRANCH   1  36
ATOM     36  C   UNL     1       3.417  -3.154   7.625  1.00  0.00     0.188 C 
BRANCH  36  37
ATOM     37  O   UNL     1       2.103  -2.873   7.159  1.00  0.00    -0.376 OA
BRANCH  37  38
ATOM     38  C   UNL     1       1.048  -3.038   8.093  1.00  0.00     0.202 C 
BRANCH  38  39
ATOM     39  C   UNL     1       0.943  -1.905   9.118  1.00  0.00     0.261 C 
BRANCH  39  40
ATOM     40  O   UNL     1       2.087  -1.753   9.971  1.00  0.00    -0.460 OA
BRANCH  40  41
ATOM     41  C   UNL     1       2.437  -2.798  10.754  1.00  0.00     0.338 C 
ATOM     42  O   UNL     1       1.871  -3.870  10.860  1.00  0.00    -0.246 OA
BRANCH  41  43
ATOM     43  C   UNL     1       3.763  -2.480  11.320  1.00  0.00     0.060 A 
ATOM     44  C   UNL     1       3.974  -1.255  11.957  1.00  0.00     0.016 A 
ATOM     45  C   UNL     1       4.817  -3.386  11.147  1.00  0.00     0.016 A 
ATOM     46  C   UNL     1       5.241  -0.947  12.450  1.00  0.00     0.010 A 
ATOM     47  C   UNL     1       6.089  -3.070  11.629  1.00  0.00     0.010 A 
ATOM     48  C   UNL     1       6.300  -1.859  12.306  1.00  0.00    -0.014 A 
BRANCH  48  49
ATOM     49  C   UNL     1       7.551  -1.633  13.064  1.00  0.00     0.031 A 
ATOM     50  C   UNL     1       8.773  -1.032  12.445  1.00  0.00     0.074 A 
ATOM     51  C   UNL     1       7.546  -1.978  14.366  1.00  0.00     0.049 A 
ATOM     52  N   UNL     1       9.886  -0.672  13.032  1.00  0.00    -0.248 NA
ATOM     53  C   UNL     1       8.754  -0.808  10.993  1.00  0.00     0.031 C 
ATOM     54  C   UNL     1       6.411  -2.590  15.062  1.00  0.00     0.029 A 
ATOM     55  N   UNL     1       8.507  -1.855  15.334  1.00  0.00    -0.354 N 
ATOM     56  C   UNL     1      10.696  -0.158  12.029  1.00  0.00     0.074 A 
ATOM     57  C   UNL     1       9.961  -0.290  10.788  1.00  0.00     0.031 C 
ATOM     58  C   UNL     1       6.734  -2.769  16.350  1.00  0.00     0.029 A 
ATOM     59  C   UNL     1       8.100  -2.305  16.566  1.00  0.00     0.049 A 
ATOM     60  H   UNL     1       9.402  -1.482  15.164  1.00  0.00     0.167 HD
ATOM     61  C   UNL     1      11.932   0.384  12.149  1.00  0.00     0.031 A 
ATOM     62  C   UNL     1       8.746  -2.333  17.746  1.00  0.00     0.031 A 
ATOM     63  C   UNL     1      12.659   0.490  13.390  1.00  0.00     0.049 A 
ATOM     64  C   UNL     1      10.126  -1.752  17.839  1.00  0.00     0.074 A 
ATOM     65  C   UNL     1      13.896   1.072  13.610  1.00  0.00     0.029 A 
ATOM     66  N   UNL     1      12.229  -0.006  14.611  1.00  0.00    -0.354 N 
ATOM     67  N   UNL     1      10.841  -1.182  16.900  1.00  0.00    -0.248 NA
ATOM     68  C   UNL     1      10.780  -1.795  19.154  1.00  0.00     0.031 C 
ATOM     69  C   UNL     1      14.245   0.869  14.946  1.00  0.00     0.029 A 
ATOM     70  C   UNL     1      13.194   0.225  15.579  1.00  0.00     0.049 A 
ATOM     71  H   UNL     1      11.367  -0.455  14.768  1.00  0.00     0.167 HD
ATOM     72  C   UNL     1      12.019  -0.779  17.514  1.00  0.00     0.074 A 
ATOM     73  C   UNL     1      11.915  -1.153  18.909  1.00  0.00     0.031 C 
ATOM     74  C   UNL     1      13.088  -0.155  16.965  1.00  0.00     0.031 A 
BRANCH  61  75
ATOM     75  C   UNL     1      12.600   0.930  10.917  1.00  0.00    -0.014 A 
ATOM     76  C   UNL     1      13.757   0.312  10.415  1.00  0.00     0.009 A 
ATOM     77  C   UNL     1      12.180   2.145  10.353  1.00  0.00     0.009 A 
ATOM     78  C   UNL     1      14.495   0.912   9.392  1.00  0.00     0.001 A 
ATOM     79  C   UNL     1      12.907   2.730   9.313  1.00  0.00     0.001 A 
ATOM     80  C   UNL     1      14.069   2.120   8.842  1.00  0.00     0.000 A 
ENDBRANCH  61  75
BRANCH  62  81
ATOM     81  C   UNL     1       8.060  -2.902  18.934  1.00  0.00    -0.014 A 
ATOM     82  C   UNL     1       7.783  -4.278  19.003  1.00  0.00     0.009 A 
ATOM     83  C   UNL     1       7.625  -2.069  19.974  1.00  0.00     0.009 A 
ATOM     84  C   UNL     1       7.067  -4.804  20.079  1.00  0.00     0.001 A 
ATOM     85  C   UNL     1       6.936  -2.604  21.065  1.00  0.00     0.001 A 
ATOM     86  C   UNL     1       6.650  -3.968  21.112  1.00  0.00     0.000 A 
ENDBRANCH  62  81
BRANCH  74  87
ATOM     87  C   UNL     1      14.245   0.180  17.866  1.00  0.00    -0.014 A 
ATOM     88  C   UNL     1      14.540   1.523  18.152  1.00  0.00     0.009 A 
ATOM     89  C   UNL     1      15.100  -0.822  18.349  1.00  0.00     0.009 A 
ATOM     90  C   UNL     1      15.677   1.857  18.890  1.00  0.00     0.001 A 
ATOM     91  C   UNL     1      16.220  -0.486  19.113  1.00  0.00     0.001 A 
ATOM     92  C   UNL     1      16.513   0.852  19.373  1.00  0.00     0.000 A 
ENDBRANCH  74  87
ENDBRANCH  48  49
ENDBRANCH  41  43
ENDBRANCH  40  41
ENDBRANCH  39  40
ENDBRANCH  38  39
ENDBRANCH  37  38
ENDBRANCH  36  37
ENDBRANCH   1  36
TORSDOF 22
