REMARK SMILES CC[C@H]1CC[C@](Cc2cccc(OC)n2)(C(=O)OCCOCCOCCOCCOC(=O)c2ccc(-c3c4nc(c(-c5ccccc5)c5ccc([nH]5)c(-c5ccccc5)c5nc(c(-c6ccccc6)c6ccc3[nH]6)C=C5)C=C4)cc2)C1
REMARK SMILES IDX 23 1 22 2 21 3 20 4 19 5 18 6 16 7 17 8 6 9 3 10 4 11 81 12
REMARK SMILES IDX 5 13 2 14 1 15 7 16 8 17 9 18 15 19 10 20 12 21 11 22 13 23
REMARK SMILES IDX 14 24 24 25 25 26 26 27 27 28 28 29 29 30 30 31 31 32 32 33
REMARK SMILES IDX 33 34 34 35 80 36 35 37 79 38 36 39 37 40 38 41 73 42 39 43
REMARK SMILES IDX 78 44 72 45 74 46 40 47 77 48 71 49 70 50 41 52 63 53 48 54
REMARK SMILES IDX 62 55 49 56 52 57 61 58 75 59 50 60 51 61 60 63 76 64 53 65
REMARK SMILES IDX 42 66 43 67 47 68 44 69 46 70 45 71 64 72 65 73 69 74 66 75
REMARK SMILES IDX 68 76 67 77 54 78 55 79 59 80 56 81 58 82 57 83
REMARK H PARENT 74 51 52 62
REMARK Flexibility Score: inf
ROOT
ATOM      1  C   UNL     1       3.146  -5.696  -1.135  1.00  0.00     0.188 C 
ENDROOT
BRANCH   1   2
ATOM      2  C   UNL     1       3.456  -6.968  -0.323  1.00  0.00     0.188 C 
BRANCH   2   3
ATOM      3  O   UNL     1       3.040  -8.153  -0.978  1.00  0.00    -0.376 OA
BRANCH   3   4
ATOM      4  C   UNL     1       1.793  -8.691  -0.581  1.00  0.00     0.202 C 
BRANCH   4   5
ATOM      5  C   UNL     1       0.531  -7.817  -0.715  1.00  0.00     0.261 C 
BRANCH   5   6
ATOM      6  O   UNL     1       0.549  -6.479  -0.173  1.00  0.00    -0.463 OA
BRANCH   6   7
ATOM      7  C   UNL     1       0.761  -6.315   1.153  1.00  0.00     0.312 C 
ATOM      8  O   UNL     1       0.964  -7.264   1.904  1.00  0.00    -0.252 OA
BRANCH   7   9
ATOM      9  C   UNL     1       0.731  -4.829   1.626  1.00  0.00     0.074 C 
ATOM     10  C   UNL     1       0.972  -2.550   0.573  1.00  0.00    -0.010 C 
ATOM     11  C   UNL     1       2.361  -3.028   0.975  1.00  0.00     0.005 C 
ATOM     12  C   UNL     1       0.116  -3.838   0.598  1.00  0.00     0.022 C 
ATOM     13  C   UNL     1       2.158  -4.260   1.872  1.00  0.00     0.019 C 
BRANCH  10  14
ATOM     14  C   UNL     1       0.464  -1.437   1.495  1.00  0.00     0.000 C 
ATOM     15  C   UNL     1       1.065  -0.063   1.233  1.00  0.00     0.004 C 
ENDBRANCH  10  14
BRANCH   9  16
ATOM     16  C   UNL     1      -0.086  -4.981   2.945  1.00  0.00     0.075 C 
BRANCH  16  17
ATOM     17  C   UNL     1      -0.366  -3.757   3.758  1.00  0.00     0.046 A 
ATOM     18  C   UNL     1      -1.512  -3.005   3.545  1.00  0.00     0.024 A 
ATOM     19  N   UNL     1       0.569  -3.418   4.676  1.00  0.00    -0.219 NA
ATOM     20  C   UNL     1      -1.656  -1.816   4.246  1.00  0.00     0.007 A 
ATOM     21  C   UNL     1       0.403  -2.281   5.376  1.00  0.00     0.213 A 
ATOM     22  C   UNL     1      -0.679  -1.438   5.165  1.00  0.00     0.068 A 
BRANCH  21  23
ATOM     23  O   UNL     1       1.419  -2.059   6.257  1.00  0.00    -0.481 OA
ATOM     24  C   UNL     1       1.184  -1.084   7.259  1.00  0.00     0.280 C 
ENDBRANCH  21  23
ENDBRANCH  16  17
ENDBRANCH   9  16
ENDBRANCH   7   9
ENDBRANCH   6   7
ENDBRANCH   5   6
ENDBRANCH   4   5
ENDBRANCH   3   4
ENDBRANCH   2   3
ENDBRANCH   1   2
BRANCH   1  25
ATOM     25  O   UNL     1       2.679  -5.802  -2.469  1.00  0.00    -0.377 OA
BRANCH  25  26
ATOM     26  C   UNL     1       3.255  -6.775  -3.324  1.00  0.00     0.188 C 
BRANCH  26  27
ATOM     27  C   UNL     1       4.741  -7.164  -3.163  1.00  0.00     0.188 C 
BRANCH  27  28
ATOM     28  O   UNL     1       5.445  -6.452  -2.162  1.00  0.00    -0.376 OA
BRANCH  28  29
ATOM     29  C   UNL     1       6.360  -5.443  -2.542  1.00  0.00     0.202 C 
BRANCH  29  30
ATOM     30  C   UNL     1       5.801  -4.200  -3.250  1.00  0.00     0.261 C 
BRANCH  30  31
ATOM     31  O   UNL     1       4.946  -4.449  -4.373  1.00  0.00    -0.460 OA
BRANCH  31  32
ATOM     32  C   UNL     1       5.515  -5.010  -5.458  1.00  0.00     0.338 C 
ATOM     33  O   UNL     1       6.686  -5.326  -5.601  1.00  0.00    -0.246 OA
BRANCH  32  34
ATOM     34  C   UNL     1       4.432  -5.370  -6.393  1.00  0.00     0.060 A 
ATOM     35  C   UNL     1       4.252  -6.721  -6.721  1.00  0.00     0.016 A 
ATOM     36  C   UNL     1       3.575  -4.393  -6.904  1.00  0.00     0.016 A 
ATOM     37  C   UNL     1       3.221  -7.095  -7.575  1.00  0.00     0.010 A 
ATOM     38  C   UNL     1       2.563  -4.766  -7.792  1.00  0.00     0.010 A 
ATOM     39  C   UNL     1       2.404  -6.115  -8.152  1.00  0.00    -0.014 A 
BRANCH  39  40
ATOM     40  C   UNL     1       1.529  -6.504  -9.279  1.00  0.00     0.031 A 
ATOM     41  C   UNL     1       2.045  -6.322 -10.678  1.00  0.00     0.074 A 
ATOM     42  C   UNL     1       0.330  -7.071  -9.066  1.00  0.00     0.049 A 
ATOM     43  N   UNL     1       1.496  -6.657 -11.816  1.00  0.00    -0.248 NA
ATOM     44  C   UNL     1       3.361  -5.675 -10.806  1.00  0.00     0.031 C 
ATOM     45  C   UNL     1      -0.265  -7.327  -7.756  1.00  0.00     0.029 A 
ATOM     46  N   UNL     1      -0.598  -7.539  -9.960  1.00  0.00    -0.354 N 
ATOM     47  C   UNL     1       2.396  -6.257 -12.796  1.00  0.00     0.074 A 
ATOM     48  C   UNL     1       3.508  -5.625 -12.120  1.00  0.00     0.031 C 
ATOM     49  C   UNL     1      -1.466  -7.905  -7.933  1.00  0.00     0.029 A 
ATOM     50  C   UNL     1      -1.730  -8.036  -9.365  1.00  0.00     0.049 A 
ATOM     51  H   UNL     1      -0.466  -7.520 -10.935  1.00  0.00     0.167 HD
ATOM     52  C   UNL     1       2.307  -6.405 -14.139  1.00  0.00     0.031 A 
ATOM     53  C   UNL     1      -2.856  -8.527  -9.915  1.00  0.00     0.031 A 
ATOM     54  C   UNL     1       1.185  -7.008 -14.810  1.00  0.00     0.049 A 
ATOM     55  C   UNL     1      -2.959  -8.634 -11.413  1.00  0.00     0.074 A 
ATOM     56  C   UNL     1       1.008  -7.232 -16.163  1.00  0.00     0.029 A 
ATOM     57  N   UNL     1       0.038  -7.462 -14.176  1.00  0.00    -0.354 N 
ATOM     58  N   UNL     1      -2.081  -8.303 -12.330  1.00  0.00    -0.248 NA
ATOM     59  C   UNL     1      -4.204  -9.201 -11.949  1.00  0.00     0.031 C 
ATOM     60  C   UNL     1      -0.277  -7.751 -16.355  1.00  0.00     0.029 A 
ATOM     61  C   UNL     1      -0.870  -7.926 -15.114  1.00  0.00     0.049 A 
ATOM     62  H   UNL     1      -0.110  -7.455 -13.203  1.00  0.00     0.167 HD
ATOM     63  C   UNL     1      -2.659  -8.637 -13.549  1.00  0.00     0.074 A 
ATOM     64  C   UNL     1      -3.950  -9.224 -13.249  1.00  0.00     0.031 C 
ATOM     65  C   UNL     1      -2.166  -8.477 -14.804  1.00  0.00     0.031 A 
BRANCH  52  66
ATOM     66  C   UNL     1       3.432  -5.843 -14.965  1.00  0.00    -0.014 A 
ATOM     67  C   UNL     1       4.723  -6.395 -14.932  1.00  0.00     0.009 A 
ATOM     68  C   UNL     1       3.194  -4.730 -15.786  1.00  0.00     0.009 A 
ATOM     69  C   UNL     1       5.761  -5.814 -15.665  1.00  0.00     0.001 A 
ATOM     70  C   UNL     1       4.224  -4.172 -16.545  1.00  0.00     0.001 A 
ATOM     71  C   UNL     1       5.509  -4.705 -16.473  1.00  0.00     0.000 A 
ENDBRANCH  52  66
BRANCH  53  72
ATOM     72  C   UNL     1      -3.984  -8.937  -9.038  1.00  0.00    -0.014 A 
ATOM     73  C   UNL     1      -4.343 -10.286  -8.899  1.00  0.00     0.009 A 
ATOM     74  C   UNL     1      -4.705  -7.966  -8.323  1.00  0.00     0.009 A 
ATOM     75  C   UNL     1      -5.412 -10.651  -8.075  1.00  0.00     0.001 A 
ATOM     76  C   UNL     1      -5.752  -8.337  -7.478  1.00  0.00     0.001 A 
ATOM     77  C   UNL     1      -6.109  -9.678  -7.360  1.00  0.00     0.000 A 
ENDBRANCH  53  72
BRANCH  65  78
ATOM     78  C   UNL     1      -3.027  -8.959 -15.942  1.00  0.00    -0.014 A 
ATOM     79  C   UNL     1      -4.239  -8.326 -16.267  1.00  0.00     0.009 A 
ATOM     80  C   UNL     1      -2.617 -10.063 -16.706  1.00  0.00     0.009 A 
ATOM     81  C   UNL     1      -5.046  -8.824 -17.292  1.00  0.00     0.001 A 
ATOM     82  C   UNL     1      -3.407 -10.535 -17.756  1.00  0.00     0.001 A 
ATOM     83  C   UNL     1      -4.629  -9.926 -18.036  1.00  0.00     0.000 A 
ENDBRANCH  65  78
ENDBRANCH  39  40
ENDBRANCH  32  34
ENDBRANCH  31  32
ENDBRANCH  30  31
ENDBRANCH  29  30
ENDBRANCH  28  29
ENDBRANCH  27  28
ENDBRANCH  26  27
ENDBRANCH  25  26
ENDBRANCH   1  25
TORSDOF 24
