REMARK SMILES CCC[N@H+](CC)[C@H]1CC[C@]([NH2+]C)(C(=O)OCCOCCOCCOCCOC(=O)c2ccc(-c3c4nc(c(-c5ccccc5)c5ccc([nH]5)c(-c5ccccc5)c5nc(c(-c6ccccc6)c6ccc3[nH]6)C=C5)C=C4)cc2)C1
REMARK SMILES IDX 20 1 19 2 18 3 17 4 16 5 15 6 13 7 14 8 10 9 7 10 8 11 78 12
REMARK SMILES IDX 9 13 4 14 3 16 2 17 1 18 5 19 6 20 11 21 12 22 21 25 22 26
REMARK SMILES IDX 23 27 24 28 25 29 26 30 27 31 28 32 29 33 30 34 31 35 77 36
REMARK SMILES IDX 32 37 76 38 33 39 34 40 35 41 70 42 36 43 75 44 69 45 71 46
REMARK SMILES IDX 37 47 74 48 68 49 67 50 38 52 60 53 45 54 59 55 46 56 49 57
REMARK SMILES IDX 58 58 72 59 47 60 48 61 57 63 73 64 50 65 39 66 40 67 44 68
REMARK SMILES IDX 41 69 43 70 42 71 61 72 62 73 66 74 63 75 65 76 64 77 51 78
REMARK SMILES IDX 52 79 56 80 53 81 55 82 54 83
REMARK H PARENT 4 15 11 23 11 24 71 51 49 62
REMARK Flexibility Score: inf
ROOT
ATOM      1  C   UNL     1       0.309  -1.540  -2.721  1.00  0.00     0.188 C 
ENDROOT
BRANCH   1   2
ATOM      2  C   UNL     1      -1.188  -1.237  -2.530  1.00  0.00     0.188 C 
BRANCH   2   3
ATOM      3  O   UNL     1      -2.077  -1.720  -3.513  1.00  0.00    -0.376 OA
BRANCH   3   4
ATOM      4  C   UNL     1      -2.290  -1.024  -4.730  1.00  0.00     0.202 C 
BRANCH   4   5
ATOM      5  C   UNL     1      -1.637   0.312  -5.129  1.00  0.00     0.261 C 
BRANCH   5   6
ATOM      6  O   UNL     1      -0.501   0.726  -4.371  1.00  0.00    -0.459 OA
BRANCH   6   7
ATOM      7  C   UNL     1      -0.625   1.855  -3.623  1.00  0.00     0.368 C 
ATOM      8  O   UNL     1      -1.674   2.487  -3.526  1.00  0.00    -0.245 OA
BRANCH   7   9
ATOM      9  C   UNL     1       0.645   2.187  -2.793  1.00  0.00     0.200 C 
ATOM     10  C   UNL     1       1.000   2.748  -0.384  1.00  0.00     0.191 C 
ATOM     11  C   UNL     1       0.530   4.003  -1.157  1.00  0.00     0.072 C 
ATOM     12  C   UNL     1       0.376   1.722  -1.330  1.00  0.00     0.146 C 
ATOM     13  C   UNL     1       0.798   3.716  -2.636  1.00  0.00     0.087 C 
BRANCH  10  14
ATOM     14  N   UNL     1       2.469   2.554  -0.160  1.00  0.00    -0.333 N 
ATOM     15  H   UNL     1       2.882   2.310  -1.060  1.00  0.00     0.348 HD
BRANCH  14  16
ATOM     16  C   UNL     1       2.762   1.440   0.793  1.00  0.00     0.262 C 
BRANCH  16  17
ATOM     17  C   UNL     1       2.783  -0.015   0.287  1.00  0.00     0.058 C 
ATOM     18  C   UNL     1       3.767  -0.279  -0.844  1.00  0.00     0.010 C 
ENDBRANCH  16  17
ENDBRANCH  14  16
BRANCH  14  19
ATOM     19  C   UNL     1       3.055   3.809   0.374  1.00  0.00     0.258 C 
ATOM     20  C   UNL     1       4.580   3.841   0.470  1.00  0.00     0.071 C 
ENDBRANCH  14  19
ENDBRANCH  10  14
BRANCH   9  21
ATOM     21  N   UNL     1       1.927   1.638  -3.297  1.00  0.00    -0.334 N 
ATOM     22  C   UNL     1       2.161   1.607  -4.726  1.00  0.00     0.331 C 
ATOM     23  H   UNL     1       1.993   0.677  -2.961  1.00  0.00     0.347 HD
ATOM     24  H   UNL     1       2.629   2.290  -2.947  1.00  0.00     0.347 HD
ENDBRANCH   9  21
ENDBRANCH   7   9
ENDBRANCH   6   7
ENDBRANCH   5   6
ENDBRANCH   4   5
ENDBRANCH   3   4
ENDBRANCH   2   3
ENDBRANCH   1   2
BRANCH   1  25
ATOM     25  O   UNL     1       0.780  -1.750  -4.032  1.00  0.00    -0.377 OA
BRANCH  25  26
ATOM     26  C   UNL     1       0.434  -2.949  -4.702  1.00  0.00     0.188 C 
BRANCH  26  27
ATOM     27  C   UNL     1      -0.385  -4.071  -4.026  1.00  0.00     0.188 C 
BRANCH  27  28
ATOM     28  O   UNL     1      -0.386  -4.072  -2.608  1.00  0.00    -0.376 OA
BRANCH  28  29
ATOM     29  C   UNL     1       0.428  -5.018  -1.933  1.00  0.00     0.202 C 
BRANCH  29  30
ATOM     30  C   UNL     1       1.949  -4.850  -2.069  1.00  0.00     0.261 C 
BRANCH  30  31
ATOM     31  O   UNL     1       2.456  -4.837  -3.411  1.00  0.00    -0.460 OA
BRANCH  31  32
ATOM     32  C   UNL     1       2.299  -5.962  -4.139  1.00  0.00     0.338 C 
ATOM     33  O   UNL     1       1.777  -7.007  -3.788  1.00  0.00    -0.246 OA
BRANCH  32  34
ATOM     34  C   UNL     1       2.710  -5.656  -5.522  1.00  0.00     0.060 A 
ATOM     35  C   UNL     1       1.755  -5.704  -6.546  1.00  0.00     0.016 A 
ATOM     36  C   UNL     1       4.031  -5.297  -5.796  1.00  0.00     0.016 A 
ATOM     37  C   UNL     1       2.125  -5.410  -7.858  1.00  0.00     0.010 A 
ATOM     38  C   UNL     1       4.407  -5.034  -7.114  1.00  0.00     0.010 A 
ATOM     39  C   UNL     1       3.462  -5.117  -8.153  1.00  0.00    -0.014 A 
BRANCH  39  40
ATOM     40  C   UNL     1       3.924  -5.106  -9.560  1.00  0.00     0.031 A 
ATOM     41  C   UNL     1       4.556  -6.356 -10.106  1.00  0.00     0.074 A 
ATOM     42  C   UNL     1       3.789  -4.018 -10.338  1.00  0.00     0.049 A 
ATOM     43  N   UNL     1       5.113  -6.565 -11.270  1.00  0.00    -0.248 NA
ATOM     44  C   UNL     1       4.564  -7.526  -9.212  1.00  0.00     0.031 C 
ATOM     45  C   UNL     1       3.145  -2.767  -9.946  1.00  0.00     0.029 A 
ATOM     46  N   UNL     1       4.207  -3.796 -11.627  1.00  0.00    -0.354 N 
ATOM     47  C   UNL     1       5.551  -7.883 -11.242  1.00  0.00     0.074 A 
ATOM     48  C   UNL     1       5.219  -8.417  -9.940  1.00  0.00     0.031 C 
ATOM     49  C   UNL     1       3.224  -1.899 -10.971  1.00  0.00     0.029 A 
ATOM     50  C   UNL     1       3.961  -2.520 -12.071  1.00  0.00     0.049 A 
ATOM     51  H   UNL     1       4.643  -4.484 -12.179  1.00  0.00     0.167 HD
ATOM     52  C   UNL     1       6.175  -8.588 -12.215  1.00  0.00     0.031 A 
ATOM     53  C   UNL     1       4.318  -1.916 -13.222  1.00  0.00     0.031 A 
ATOM     54  C   UNL     1       6.524  -8.050 -13.502  1.00  0.00     0.049 A 
ATOM     55  C   UNL     1       5.098  -2.692 -14.253  1.00  0.00     0.074 A 
ATOM     56  C   UNL     1       7.148  -8.685 -14.560  1.00  0.00     0.029 A 
ATOM     57  N   UNL     1       6.291  -6.742 -13.898  1.00  0.00    -0.354 N 
ATOM     58  N   UNL     1       5.488  -3.945 -14.228  1.00  0.00    -0.248 NA
ATOM     59  C   UNL     1       5.483  -1.970 -15.475  1.00  0.00     0.031 C 
ATOM     60  C   UNL     1       7.354  -7.743 -15.572  1.00  0.00     0.029 A 
ATOM     61  C   UNL     1       6.789  -6.542 -15.174  1.00  0.00     0.049 A 
ATOM     62  H   UNL     1       5.839  -6.058 -13.354  1.00  0.00     0.167 HD
ATOM     63  C   UNL     1       6.129  -4.168 -15.442  1.00  0.00     0.074 A 
ATOM     64  C   UNL     1       6.066  -2.926 -16.183  1.00  0.00     0.031 C 
ATOM     65  C   UNL     1       6.714  -5.302 -15.903  1.00  0.00     0.031 A 
BRANCH  52  66
ATOM     66  C   UNL     1       6.561 -10.007 -11.902  1.00  0.00    -0.014 A 
ATOM     67  C   UNL     1       5.596 -11.015 -11.752  1.00  0.00     0.009 A 
ATOM     68  C   UNL     1       7.919 -10.343 -11.780  1.00  0.00     0.009 A 
ATOM     69  C   UNL     1       5.982 -12.324 -11.452  1.00  0.00     0.001 A 
ATOM     70  C   UNL     1       8.303 -11.658 -11.513  1.00  0.00     0.001 A 
ATOM     71  C   UNL     1       7.334 -12.645 -11.339  1.00  0.00     0.000 A 
ENDBRANCH  52  66
BRANCH  53  72
ATOM     72  C   UNL     1       3.972  -0.488 -13.457  1.00  0.00    -0.014 A 
ATOM     73  C   UNL     1       3.062  -0.127 -14.463  1.00  0.00     0.009 A 
ATOM     74  C   UNL     1       4.575   0.525 -12.696  1.00  0.00     0.009 A 
ATOM     75  C   UNL     1       2.787   1.219 -14.720  1.00  0.00     0.001 A 
ATOM     76  C   UNL     1       4.273   1.868 -12.932  1.00  0.00     0.001 A 
ATOM     77  C   UNL     1       3.388   2.215 -13.951  1.00  0.00     0.000 A 
ENDBRANCH  53  72
BRANCH  65  78
ATOM     78  C   UNL     1       7.287  -5.275 -17.294  1.00  0.00    -0.014 A 
ATOM     79  C   UNL     1       8.452  -4.554 -17.598  1.00  0.00     0.009 A 
ATOM     80  C   UNL     1       6.677  -6.035 -18.306  1.00  0.00     0.009 A 
ATOM     81  C   UNL     1       8.974  -4.569 -18.894  1.00  0.00     0.001 A 
ATOM     82  C   UNL     1       7.220  -6.077 -19.590  1.00  0.00     0.001 A 
ATOM     83  C   UNL     1       8.363  -5.336 -19.886  1.00  0.00     0.000 A 
ENDBRANCH  65  78
ENDBRANCH  39  40
ENDBRANCH  32  34
ENDBRANCH  31  32
ENDBRANCH  30  31
ENDBRANCH  29  30
ENDBRANCH  28  29
ENDBRANCH  27  28
ENDBRANCH  26  27
ENDBRANCH  25  26
ENDBRANCH   1  25
TORSDOF 25
