REMARK SMILES Cc1cccc(N2C(=O)/C(=C/c3ccc(C(=O)OCCOCCOCCOCCOC(=O)c4ccc(-c5c6nc(c(-c7ccccc7)c7ccc([nH]7)c(-c7ccccc7)c7nc(c(-c8ccccc8)c8ccc5[nH]8)C=C7)C=C6)cc4)cc3)c3ccccc3C2=O)c1
REMARK SMILES IDX 24 1 23 2 22 3 21 4 20 5 19 6 18 7 16 8 17 9 15 10 12 11
REMARK SMILES IDX 13 12 82 13 14 14 81 15 11 16 7 17 8 18 89 19 9 20 10 21
REMARK SMILES IDX 88 22 90 23 83 24 87 25 84 26 86 27 85 28 6 29 1 30 2 31
REMARK SMILES IDX 3 32 91 33 4 34 5 35 25 36 26 37 27 38 28 39 29 40 30 41
REMARK SMILES IDX 31 42 32 43 33 44 34 45 80 46 35 47 79 48 36 49 37 50 38 51
REMARK SMILES IDX 73 52 39 53 78 54 72 55 74 56 40 57 77 58 71 59 70 60 41 62
REMARK SMILES IDX 63 63 48 64 62 65 49 66 52 67 61 68 75 69 50 70 51 71 60 73
REMARK SMILES IDX 76 74 53 75 42 76 43 77 47 78 44 79 46 80 45 81 64 82 65 83
REMARK SMILES IDX 69 84 66 85 68 86 67 87 54 88 55 89 59 90 56 91 58 92 57 93
REMARK H PARENT 74 61 52 72
REMARK Flexibility Score: inf
ROOT
ATOM      1  O   UNL     1      -2.888  10.832   1.486  1.00  0.00    -0.377 OA
ENDROOT
BRANCH   1   2
ATOM      2  C   UNL     1      -1.527  10.612   1.124  1.00  0.00     0.188 C 
BRANCH   2   3
ATOM      3  C   UNL     1      -1.175  11.049  -0.294  1.00  0.00     0.188 C 
BRANCH   3   4
ATOM      4  O   UNL     1      -1.262  12.432  -0.617  1.00  0.00    -0.376 OA
BRANCH   4   5
ATOM      5  C   UNL     1      -2.559  12.856  -1.031  1.00  0.00     0.202 C 
BRANCH   5   6
ATOM      6  C   UNL     1      -2.967  12.425  -2.440  1.00  0.00     0.261 C 
BRANCH   6   7
ATOM      7  O   UNL     1      -3.269  11.033  -2.488  1.00  0.00    -0.460 OA
BRANCH   7   8
ATOM      8  C   UNL     1      -2.630  10.341  -3.454  1.00  0.00     0.338 C 
ATOM      9  O   UNL     1      -2.058  10.762  -4.436  1.00  0.00    -0.246 OA
BRANCH   8  10
ATOM     10  C   UNL     1      -2.415   9.005  -2.879  1.00  0.00     0.060 A 
ATOM     11  C   UNL     1      -1.716   6.772  -1.379  1.00  0.00    -0.025 A 
ATOM     12  C   UNL     1      -0.735   7.509  -2.060  1.00  0.00     0.009 A 
ATOM     13  C   UNL     1      -3.059   7.158  -1.469  1.00  0.00     0.009 A 
ATOM     14  C   UNL     1      -1.081   8.607  -2.826  1.00  0.00     0.016 A 
ATOM     15  C   UNL     1      -3.410   8.298  -2.196  1.00  0.00     0.016 A 
BRANCH  11  16
ATOM     16  C   UNL     1      -1.226   5.569  -0.709  1.00  0.00     0.022 C 
ATOM     17  N   UNL     1      -1.658   2.457   0.624  1.00  0.00    -0.242 N 
ATOM     18  C   UNL     1      -0.876   3.620   0.564  1.00  0.00     0.265 C 
ATOM     19  C   UNL     1      -3.032   2.556   0.960  1.00  0.00     0.265 C 
ATOM     20  O   UNL     1       0.341   3.748   0.664  1.00  0.00    -0.268 OA
ATOM     21  C   UNL     1      -1.672   4.860   0.341  1.00  0.00     0.049 C 
ATOM     22  C   UNL     1      -3.522   3.863   1.495  1.00  0.00     0.048 A 
ATOM     23  O   UNL     1      -3.888   1.677   0.884  1.00  0.00    -0.268 OA
ATOM     24  C   UNL     1      -2.833   5.035   1.189  1.00  0.00    -0.000 A 
ATOM     25  C   UNL     1      -4.667   3.917   2.299  1.00  0.00     0.014 A 
ATOM     26  C   UNL     1      -3.237   6.252   1.749  1.00  0.00     0.010 A 
ATOM     27  C   UNL     1      -5.091   5.138   2.829  1.00  0.00     0.001 A 
ATOM     28  C   UNL     1      -4.370   6.302   2.563  1.00  0.00     0.001 A 
BRANCH  17  29
ATOM     29  C   UNL     1      -1.030   1.155   0.367  1.00  0.00     0.053 A 
ATOM     30  C   UNL     1       2.501  -0.302  -0.060  1.00  0.00     0.044 C 
ATOM     31  C   UNL     1       1.003  -0.227   0.018  1.00  0.00    -0.049 A 
ATOM     32  C   UNL     1       0.230  -1.376  -0.083  1.00  0.00     0.003 A 
ATOM     33  C   UNL     1       0.368   1.010   0.234  1.00  0.00     0.030 A 
ATOM     34  C   UNL     1      -1.152  -1.276   0.011  1.00  0.00     0.002 A 
ATOM     35  C   UNL     1      -1.768  -0.032   0.229  1.00  0.00     0.027 A 
ENDBRANCH  17  29
ENDBRANCH  11  16
ENDBRANCH   8  10
ENDBRANCH   7   8
ENDBRANCH   6   7
ENDBRANCH   5   6
ENDBRANCH   4   5
ENDBRANCH   3   4
ENDBRANCH   2   3
ENDBRANCH   1   2
BRANCH   1  36
ATOM     36  C   UNL     1      -2.999  11.384   2.797  1.00  0.00     0.188 C 
BRANCH  36  37
ATOM     37  C   UNL     1      -2.885  12.899   2.755  1.00  0.00     0.188 C 
BRANCH  37  38
ATOM     38  O   UNL     1      -1.702  13.437   2.185  1.00  0.00    -0.376 OA
BRANCH  38  39
ATOM     39  C   UNL     1      -0.551  13.616   3.001  1.00  0.00     0.202 C 
BRANCH  39  40
ATOM     40  C   UNL     1      -0.781  14.374   4.316  1.00  0.00     0.261 C 
BRANCH  40  41
ATOM     41  O   UNL     1      -1.388  15.652   4.039  1.00  0.00    -0.460 OA
BRANCH  41  42
ATOM     42  C   UNL     1      -2.664  15.814   4.487  1.00  0.00     0.338 C 
ATOM     43  O   UNL     1      -3.072  15.486   5.589  1.00  0.00    -0.246 OA
BRANCH  42  44
ATOM     44  C   UNL     1      -3.561  16.105   3.325  1.00  0.00     0.060 A 
ATOM     45  C   UNL     1      -4.943  15.871   3.450  1.00  0.00     0.016 A 
ATOM     46  C   UNL     1      -2.998  16.195   2.058  1.00  0.00     0.016 A 
ATOM     47  C   UNL     1      -5.702  15.504   2.325  1.00  0.00     0.010 A 
ATOM     48  C   UNL     1      -3.734  15.746   0.976  1.00  0.00     0.010 A 
ATOM     49  C   UNL     1      -5.070  15.320   1.098  1.00  0.00    -0.014 A 
BRANCH  49  50
ATOM     50  C   UNL     1      -5.594  14.497  -0.025  1.00  0.00     0.031 A 
ATOM     51  C   UNL     1      -5.443  15.006  -1.432  1.00  0.00     0.074 A 
ATOM     52  C   UNL     1      -5.857  13.178   0.203  1.00  0.00     0.049 A 
ATOM     53  N   UNL     1      -5.793  14.374  -2.502  1.00  0.00    -0.248 NA
ATOM     54  C   UNL     1      -4.854  16.309  -1.760  1.00  0.00     0.031 C 
ATOM     55  C   UNL     1      -5.760  12.056  -0.740  1.00  0.00     0.029 A 
ATOM     56  N   UNL     1      -6.253  12.534   1.375  1.00  0.00    -0.354 N 
ATOM     57  C   UNL     1      -5.138  14.952  -3.580  1.00  0.00     0.074 A 
ATOM     58  C   UNL     1      -4.659  16.213  -3.080  1.00  0.00     0.031 C 
ATOM     59  C   UNL     1      -6.127  10.903  -0.157  1.00  0.00     0.029 A 
ATOM     60  C   UNL     1      -6.803  11.277   1.055  1.00  0.00     0.049 A 
ATOM     61  H   UNL     1      -6.163  12.901   2.284  1.00  0.00     0.167 HD
ATOM     62  C   UNL     1      -4.925  14.217  -4.716  1.00  0.00     0.031 A 
ATOM     63  C   UNL     1      -8.146  11.059   1.219  1.00  0.00     0.031 A 
ATOM     64  C   UNL     1      -5.654  12.935  -4.686  1.00  0.00     0.049 A 
ATOM     65  C   UNL     1      -8.880  11.005  -0.125  1.00  0.00     0.074 A 
ATOM     66  C   UNL     1      -5.319  11.614  -4.924  1.00  0.00     0.029 A 
ATOM     67  N   UNL     1      -6.952  12.903  -4.180  1.00  0.00    -0.354 N 
ATOM     68  N   UNL     1      -8.399  11.534  -1.228  1.00  0.00    -0.248 NA
ATOM     69  C   UNL     1     -10.102  10.247  -0.394  1.00  0.00     0.031 C 
ATOM     70  C   UNL     1      -6.345  10.791  -4.375  1.00  0.00     0.029 A 
ATOM     71  C   UNL     1      -7.368  11.616  -3.932  1.00  0.00     0.049 A 
ATOM     72  H   UNL     1      -7.504  13.703  -4.020  1.00  0.00     0.167 HD
ATOM     73  C   UNL     1      -9.121  11.123  -2.313  1.00  0.00     0.074 A 
ATOM     74  C   UNL     1     -10.214  10.363  -1.734  1.00  0.00     0.031 C 
ATOM     75  C   UNL     1      -8.765  11.367  -3.611  1.00  0.00     0.031 A 
BRANCH  62  76
ATOM     76  C   UNL     1      -3.865  14.528  -5.778  1.00  0.00    -0.014 A 
ATOM     77  C   UNL     1      -3.767  13.714  -6.926  1.00  0.00     0.009 A 
ATOM     78  C   UNL     1      -2.865  15.515  -5.666  1.00  0.00     0.009 A 
ATOM     79  C   UNL     1      -2.737  13.852  -7.875  1.00  0.00     0.001 A 
ATOM     80  C   UNL     1      -1.857  15.691  -6.635  1.00  0.00     0.001 A 
ATOM     81  C   UNL     1      -1.785  14.850  -7.734  1.00  0.00     0.000 A 
ENDBRANCH  62  76
BRANCH  63  82
ATOM     82  C   UNL     1      -8.560  11.495   2.596  1.00  0.00    -0.014 A 
ATOM     83  C   UNL     1      -7.949  10.736   3.628  1.00  0.00     0.009 A 
ATOM     84  C   UNL     1      -8.811  12.854   2.853  1.00  0.00     0.009 A 
ATOM     85  C   UNL     1      -7.314  11.370   4.704  1.00  0.00     0.001 A 
ATOM     86  C   UNL     1      -8.218  13.474   3.970  1.00  0.00     0.001 A 
ATOM     87  C   UNL     1      -7.401  12.749   4.841  1.00  0.00     0.000 A 
ENDBRANCH  63  82
BRANCH  75  88
ATOM     88  C   UNL     1      -9.713  11.416  -4.790  1.00  0.00    -0.014 A 
ATOM     89  C   UNL     1     -11.096  11.555  -4.657  1.00  0.00     0.009 A 
ATOM     90  C   UNL     1      -9.181  11.591  -6.095  1.00  0.00     0.009 A 
ATOM     91  C   UNL     1     -11.902  11.842  -5.766  1.00  0.00     0.001 A 
ATOM     92  C   UNL     1      -9.973  11.926  -7.191  1.00  0.00     0.001 A 
ATOM     93  C   UNL     1     -11.341  12.046  -7.025  1.00  0.00     0.000 A 
ENDBRANCH  75  88
ENDBRANCH  49  50
ENDBRANCH  42  44
ENDBRANCH  41  42
ENDBRANCH  40  41
ENDBRANCH  39  40
ENDBRANCH  38  39
ENDBRANCH  37  38
ENDBRANCH  36  37
ENDBRANCH   1  36
TORSDOF 22
