REMARK SMILES O=C(C[C@H](C(=O)OC[C@H]1CCCO1)[NH+]1CCOCC1)OCCOCCOCCOCCOC(=O)c1ccc(-c2c3nc(c(-c4ccccc4)c4ccc([nH]4)c(-c4ccccc4)c4nc(c(-c5ccccc5)c5ccc2[nH]5)C=C4)C=C3)cc1
REMARK SMILES IDX 24 1 23 2 22 3 21 4 20 5 2 6 1 7 3 8 4 9 14 10 15 11 19 12
REMARK SMILES IDX 16 14 18 15 17 16 5 17 6 18 7 19 8 20 9 21 10 22 13 23 11 24
REMARK SMILES IDX 12 25 25 26 26 27 27 28 28 29 29 30 30 31 31 32 32 33 33 34
REMARK SMILES IDX 34 35 35 36 36 37 82 38 37 39 81 40 38 41 39 42 40 43 75 44
REMARK SMILES IDX 41 45 80 46 74 47 76 48 42 49 79 50 73 51 72 52 43 54 65 55
REMARK SMILES IDX 50 56 64 57 51 58 54 59 63 60 77 61 52 62 53 63 62 65 78 66
REMARK SMILES IDX 55 67 44 68 45 69 49 70 46 71 48 72 47 73 66 74 67 75 71 76
REMARK SMILES IDX 68 77 70 78 69 79 56 80 57 81 61 82 58 83 60 84 59 85
REMARK H PARENT 14 13 76 53 54 64
REMARK Flexibility Score: inf
ROOT
ATOM      1  C   UNL     1       5.364   3.070  -0.114  1.00  0.00     0.188 C 
ENDROOT
BRANCH   1   2
ATOM      2  O   UNL     1       4.904   2.262   0.955  1.00  0.00    -0.376 OA
BRANCH   2   3
ATOM      3  C   UNL     1       5.846   1.638   1.818  1.00  0.00     0.202 C 
BRANCH   3   4
ATOM      4  C   UNL     1       7.314   1.458   1.417  1.00  0.00     0.261 C 
BRANCH   4   5
ATOM      5  O   UNL     1       7.584   1.039   0.075  1.00  0.00    -0.463 OA
BRANCH   5   6
ATOM      6  C   UNL     1       7.363  -0.210  -0.374  1.00  0.00     0.312 C 
ATOM      7  O   UNL     1       8.023  -0.652  -1.312  1.00  0.00    -0.252 OA
BRANCH   6   8
ATOM      8  C   UNL     1       6.241  -0.991   0.229  1.00  0.00     0.200 C 
BRANCH   8   9
ATOM      9  C   UNL     1       6.528  -2.022   1.346  1.00  0.00     0.306 C 
BRANCH   9  10
ATOM     10  N   UNL     1       7.469  -1.808   2.503  1.00  0.00    -0.319 N 
ATOM     11  C   UNL     1       8.868  -1.550   2.114  1.00  0.00     0.291 C 
ATOM     12  C   UNL     1       7.028  -1.163   3.745  1.00  0.00     0.291 C 
ATOM     13  H   UNL     1       7.424  -2.757   2.874  1.00  0.00     0.348 HD
ATOM     14  C   UNL     1       9.841  -1.036   3.198  1.00  0.00     0.221 C 
ATOM     15  C   UNL     1       8.141  -0.851   4.759  1.00  0.00     0.221 C 
ATOM     16  O   UNL     1       9.211  -0.154   4.129  1.00  0.00    -0.370 OA
ENDBRANCH   9  10
BRANCH   9  17
ATOM     17  C   UNL     1       5.119  -2.578   1.694  1.00  0.00     0.365 C 
ATOM     18  O   UNL     1       4.409  -3.137   0.861  1.00  0.00    -0.245 OA
BRANCH  17  19
ATOM     19  O   UNL     1       4.716  -2.329   2.958  1.00  0.00    -0.459 OA
BRANCH  19  20
ATOM     20  C   UNL     1       3.404  -2.771   3.338  1.00  0.00     0.265 C 
BRANCH  20  21
ATOM     21  C   UNL     1       2.305  -1.741   3.012  1.00  0.00     0.156 C 
ATOM     22  C   UNL     1       1.383  -1.487   4.204  1.00  0.00     0.038 C 
ATOM     23  O   UNL     1       2.877  -0.464   2.666  1.00  0.00    -0.375 OA
ATOM     24  C   UNL     1       2.005  -0.264   4.838  1.00  0.00     0.031 C 
ATOM     25  C   UNL     1       2.447   0.514   3.620  1.00  0.00     0.161 C 
ENDBRANCH  20  21
ENDBRANCH  19  20
ENDBRANCH  17  19
ENDBRANCH   9  17
ENDBRANCH   8   9
ENDBRANCH   6   8
ENDBRANCH   5   6
ENDBRANCH   4   5
ENDBRANCH   3   4
ENDBRANCH   2   3
ENDBRANCH   1   2
BRANCH   1  26
ATOM     26  C   UNL     1       6.120   4.340   0.275  1.00  0.00     0.188 C 
BRANCH  26  27
ATOM     27  O   UNL     1       6.829   4.179   1.486  1.00  0.00    -0.377 OA
BRANCH  27  28
ATOM     28  C   UNL     1       6.363   4.911   2.602  1.00  0.00     0.188 C 
BRANCH  28  29
ATOM     29  C   UNL     1       4.961   4.623   3.191  1.00  0.00     0.188 C 
BRANCH  29  30
ATOM     30  O   UNL     1       3.813   4.640   2.376  1.00  0.00    -0.376 OA
BRANCH  30  31
ATOM     31  C   UNL     1       3.362   5.770   1.662  1.00  0.00     0.202 C 
BRANCH  31  32
ATOM     32  C   UNL     1       3.752   7.231   1.959  1.00  0.00     0.261 C 
BRANCH  32  33
ATOM     33  O   UNL     1       5.000   7.462   2.615  1.00  0.00    -0.460 OA
BRANCH  33  34
ATOM     34  C   UNL     1       4.933   7.716   3.950  1.00  0.00     0.338 C 
ATOM     35  O   UNL     1       3.932   7.837   4.617  1.00  0.00    -0.246 OA
BRANCH  34  36
ATOM     36  C   UNL     1       6.295   7.577   4.535  1.00  0.00     0.060 A 
ATOM     37  C   UNL     1       6.447   6.727   5.642  1.00  0.00     0.016 A 
ATOM     38  C   UNL     1       7.406   8.236   4.001  1.00  0.00     0.016 A 
ATOM     39  C   UNL     1       7.694   6.572   6.249  1.00  0.00     0.010 A 
ATOM     40  C   UNL     1       8.651   8.107   4.631  1.00  0.00     0.010 A 
ATOM     41  C   UNL     1       8.788   7.311   5.784  1.00  0.00    -0.014 A 
BRANCH  41  42
ATOM     42  C   UNL     1       9.963   7.495   6.673  1.00  0.00     0.031 A 
ATOM     43  C   UNL     1       9.934   8.669   7.618  1.00  0.00     0.074 A 
ATOM     44  C   UNL     1      11.009   6.651   6.684  1.00  0.00     0.049 A 
ATOM     45  N   UNL     1      10.839   9.078   8.470  1.00  0.00    -0.248 NA
ATOM     46  C   UNL     1       8.713   9.492   7.595  1.00  0.00     0.031 C 
ATOM     47  C   UNL     1      11.141   5.442   5.874  1.00  0.00     0.029 A 
ATOM     48  N   UNL     1      12.173   6.697   7.414  1.00  0.00    -0.354 N 
ATOM     49  C   UNL     1      10.297  10.205   9.076  1.00  0.00     0.074 A 
ATOM     50  C   UNL     1       9.001  10.432   8.479  1.00  0.00     0.031 C 
ATOM     51  C   UNL     1      12.328   4.867   6.144  1.00  0.00     0.029 A 
ATOM     52  C   UNL     1      13.051   5.682   7.119  1.00  0.00     0.049 A 
ATOM     53  H   UNL     1      12.359   7.391   8.086  1.00  0.00     0.167 HD
ATOM     54  C   UNL     1      10.827  10.987  10.045  1.00  0.00     0.031 A 
ATOM     55  C   UNL     1      14.301   5.456   7.570  1.00  0.00     0.031 A 
ATOM     56  C   UNL     1      12.126  10.788  10.623  1.00  0.00     0.049 A 
ATOM     57  C   UNL     1      14.914   6.401   8.575  1.00  0.00     0.074 A 
ATOM     58  C   UNL     1      12.752  11.529  11.609  1.00  0.00     0.029 A 
ATOM     59  N   UNL     1      13.002   9.780  10.256  1.00  0.00    -0.354 N 
ATOM     60  N   UNL     1      14.386   7.452   9.156  1.00  0.00    -0.248 NA
ATOM     61  C   UNL     1      16.299   6.124   8.987  1.00  0.00     0.031 C 
ATOM     62  C   UNL     1      14.034  11.003  11.798  1.00  0.00     0.029 A 
ATOM     63  C   UNL     1      14.179   9.897  10.975  1.00  0.00     0.049 A 
ATOM     64  H   UNL     1      12.816   9.085   9.585  1.00  0.00     0.167 HD
ATOM     65  C   UNL     1      15.360   7.940  10.021  1.00  0.00     0.074 A 
ATOM     66  C   UNL     1      16.505   7.064   9.899  1.00  0.00     0.031 C 
ATOM     67  C   UNL     1      15.310   9.016  10.844  1.00  0.00     0.031 A 
BRANCH  54  68
ATOM     68  C   UNL     1      10.007  12.160  10.499  1.00  0.00    -0.014 A 
ATOM     69  C   UNL     1       8.846  11.986  11.270  1.00  0.00     0.009 A 
ATOM     70  C   UNL     1      10.404  13.460  10.151  1.00  0.00     0.009 A 
ATOM     71  C   UNL     1       8.080  13.089  11.651  1.00  0.00     0.001 A 
ATOM     72  C   UNL     1       9.652  14.563  10.559  1.00  0.00     0.001 A 
ATOM     73  C   UNL     1       8.486  14.376  11.299  1.00  0.00     0.000 A 
ENDBRANCH  54  68
BRANCH  55  74
ATOM     74  C   UNL     1      15.089   4.302   7.057  1.00  0.00    -0.014 A 
ATOM     75  C   UNL     1      15.421   3.228   7.898  1.00  0.00     0.009 A 
ATOM     76  C   UNL     1      15.555   4.292   5.732  1.00  0.00     0.009 A 
ATOM     77  C   UNL     1      16.225   2.184   7.431  1.00  0.00     0.001 A 
ATOM     78  C   UNL     1      16.333   3.233   5.260  1.00  0.00     0.001 A 
ATOM     79  C   UNL     1      16.676   2.185   6.112  1.00  0.00     0.000 A 
ENDBRANCH  55  74
BRANCH  67  80
ATOM     80  C   UNL     1      16.509   9.288  11.709  1.00  0.00    -0.014 A 
ATOM     81  C   UNL     1      17.703   9.788  11.168  1.00  0.00     0.009 A 
ATOM     82  C   UNL     1      16.421   9.093  13.097  1.00  0.00     0.009 A 
ATOM     83  C   UNL     1      18.794  10.059  11.998  1.00  0.00     0.001 A 
ATOM     84  C   UNL     1      17.502   9.393  13.927  1.00  0.00     0.001 A 
ATOM     85  C   UNL     1      18.691   9.867  13.375  1.00  0.00     0.000 A 
ENDBRANCH  67  80
ENDBRANCH  41  42
ENDBRANCH  34  36
ENDBRANCH  33  34
ENDBRANCH  32  33
ENDBRANCH  31  32
ENDBRANCH  30  31
ENDBRANCH  29  30
ENDBRANCH  28  29
ENDBRANCH  27  28
ENDBRANCH  26  27
ENDBRANCH   1  26
TORSDOF 26
