REMARK SMILES O=C(OCCOCCOCCOCCOC(=O)[C@@H]1CC=CC[C@H]1C(=O)Nc1ccc(C(=O)N2CCOCC2)c(Cl)c1)c1ccc(-c2c3nc(c(-c4ccccc4)c4ccc([nH]4)c(-c4ccccc4)c4nc(c(-c5ccccc5)c5ccc2[nH]5)C=C4)C=C3)cc1
REMARK SMILES IDX 10 1 9 2 8 3 7 4 6 5 5 6 4 7 3 8 2 9 1 10 42 11 43 12 89 13
REMARK SMILES IDX 44 14 88 15 45 16 46 17 47 18 82 19 48 20 87 21 81 22 83 23
REMARK SMILES IDX 49 24 86 25 80 26 79 27 50 29 72 30 57 31 71 32 58 33 61 34
REMARK SMILES IDX 70 35 84 36 59 37 60 38 69 40 85 41 62 42 51 43 52 44 56 45
REMARK SMILES IDX 53 46 55 47 54 48 73 49 74 50 78 51 75 52 77 53 76 54 63 55
REMARK SMILES IDX 64 56 68 57 65 58 67 59 66 60 11 61 12 62 13 63 14 64 15 65
REMARK SMILES IDX 16 66 17 67 18 68 19 69 23 70 20 71 22 72 21 73 24 74 25 75
REMARK SMILES IDX 26 76 27 78 28 79 41 80 29 81 39 82 30 83 40 84 31 85 32 86
REMARK SMILES IDX 33 87 34 88 38 89 35 90 37 91 36 92
REMARK H PARENT 83 28 61 39 26 77
REMARK Flexibility Score: inf
ROOT
ATOM      1  C   UNL     1       4.934  -7.354   2.290  1.00  0.00     0.188 C 
ENDROOT
BRANCH   1   2
ATOM      2  O   UNL     1       5.011  -8.771   2.219  1.00  0.00    -0.377 OA
BRANCH   2   3
ATOM      3  C   UNL     1       4.817  -9.459   3.448  1.00  0.00     0.188 C 
BRANCH   3   4
ATOM      4  C   UNL     1       5.828  -9.059   4.516  1.00  0.00     0.188 C 
BRANCH   4   5
ATOM      5  O   UNL     1       5.555  -7.725   4.962  1.00  0.00    -0.376 OA
BRANCH   5   6
ATOM      6  C   UNL     1       6.698  -6.884   5.104  1.00  0.00     0.202 C 
BRANCH   6   7
ATOM      7  C   UNL     1       7.264  -6.871   6.520  1.00  0.00     0.261 C 
BRANCH   7   8
ATOM      8  O   UNL     1       7.254  -8.168   7.125  1.00  0.00    -0.460 OA
BRANCH   8   9
ATOM      9  C   UNL     1       6.219  -8.835   7.689  1.00  0.00     0.338 C 
ATOM     10  O   UNL     1       6.444  -9.978   8.092  1.00  0.00    -0.246 OA
BRANCH   9  11
ATOM     11  C   UNL     1       4.815  -8.309   7.858  1.00  0.00     0.060 A 
ATOM     12  C   UNL     1       4.312  -7.077   7.417  1.00  0.00     0.016 A 
ATOM     13  C   UNL     1       3.921  -9.161   8.539  1.00  0.00     0.016 A 
ATOM     14  C   UNL     1       3.006  -6.676   7.684  1.00  0.00     0.010 A 
ATOM     15  C   UNL     1       2.619  -8.759   8.843  1.00  0.00     0.010 A 
ATOM     16  C   UNL     1       2.186  -7.489   8.458  1.00  0.00    -0.014 A 
BRANCH  16  17
ATOM     17  C   UNL     1       1.031  -6.868   9.124  1.00  0.00     0.031 A 
ATOM     18  C   UNL     1       1.282  -6.250  10.467  1.00  0.00     0.074 A 
ATOM     19  C   UNL     1      -0.164  -6.799   8.522  1.00  0.00     0.049 A 
ATOM     20  N   UNL     1       0.439  -5.720  11.311  1.00  0.00    -0.248 NA
ATOM     21  C   UNL     1       2.687  -6.213  10.915  1.00  0.00     0.031 C 
ATOM     22  C   UNL     1      -0.457  -7.257   7.165  1.00  0.00     0.029 A 
ATOM     23  N   UNL     1      -1.356  -6.314   8.986  1.00  0.00    -0.354 N 
ATOM     24  C   UNL     1       1.208  -5.314  12.394  1.00  0.00     0.074 A 
ATOM     25  C   UNL     1       2.582  -5.644  12.102  1.00  0.00     0.031 C 
ATOM     26  C   UNL     1      -1.761  -7.053   6.913  1.00  0.00     0.029 A 
ATOM     27  C   UNL     1      -2.394  -6.502   8.109  1.00  0.00     0.049 A 
ATOM     28  H   UNL     1      -1.459  -5.875   9.861  1.00  0.00     0.167 HD
ATOM     29  C   UNL     1       0.794  -4.742  13.546  1.00  0.00     0.031 A 
ATOM     30  C   UNL     1      -3.712  -6.293   8.288  1.00  0.00     0.031 A 
ATOM     31  C   UNL     1      -0.586  -4.483  13.833  1.00  0.00     0.049 A 
ATOM     32  C   UNL     1      -4.172  -5.758   9.618  1.00  0.00     0.074 A 
ATOM     33  C   UNL     1      -1.155  -3.982  14.987  1.00  0.00     0.029 A 
ATOM     34  N   UNL     1      -1.620  -4.728  12.939  1.00  0.00    -0.354 N 
ATOM     35  N   UNL     1      -3.452  -5.418  10.664  1.00  0.00    -0.248 NA
ATOM     36  C   UNL     1      -5.619  -5.588   9.803  1.00  0.00     0.031 C 
ATOM     37  C   UNL     1      -2.543  -3.972  14.806  1.00  0.00     0.029 A 
ATOM     38  C   UNL     1      -2.831  -4.413  13.521  1.00  0.00     0.049 A 
ATOM     39  H   UNL     1      -1.506  -5.076  12.025  1.00  0.00     0.167 HD
ATOM     40  C   UNL     1      -4.353  -4.983  11.625  1.00  0.00     0.074 A 
ATOM     41  C   UNL     1      -5.673  -5.091  11.033  1.00  0.00     0.031 C 
ATOM     42  C   UNL     1      -4.118  -4.535  12.884  1.00  0.00     0.031 A 
BRANCH  29  43
ATOM     43  C   UNL     1       1.849  -4.490  14.584  1.00  0.00    -0.014 A 
ATOM     44  C   UNL     1       2.813  -3.480  14.426  1.00  0.00     0.009 A 
ATOM     45  C   UNL     1       1.938  -5.345  15.693  1.00  0.00     0.009 A 
ATOM     46  C   UNL     1       3.873  -3.368  15.330  1.00  0.00     0.001 A 
ATOM     47  C   UNL     1       2.984  -5.214  16.608  1.00  0.00     0.001 A 
ATOM     48  C   UNL     1       3.959  -4.237  16.417  1.00  0.00     0.000 A 
ENDBRANCH  29  43
BRANCH  30  49
ATOM     49  C   UNL     1      -4.669  -6.660   7.211  1.00  0.00    -0.014 A 
ATOM     50  C   UNL     1      -5.363  -5.677   6.491  1.00  0.00     0.009 A 
ATOM     51  C   UNL     1      -4.861  -8.009   6.869  1.00  0.00     0.009 A 
ATOM     52  C   UNL     1      -6.231  -6.039   5.456  1.00  0.00     0.001 A 
ATOM     53  C   UNL     1      -5.709  -8.367   5.818  1.00  0.00     0.001 A 
ATOM     54  C   UNL     1      -6.397  -7.381   5.115  1.00  0.00     0.000 A 
ENDBRANCH  30  49
BRANCH  42  55
ATOM     55  C   UNL     1      -5.306  -4.102  13.690  1.00  0.00    -0.014 A 
ATOM     56  C   UNL     1      -6.146  -5.043  14.302  1.00  0.00     0.009 A 
ATOM     57  C   UNL     1      -5.516  -2.734  13.924  1.00  0.00     0.009 A 
ATOM     58  C   UNL     1      -7.187  -4.617  15.128  1.00  0.00     0.001 A 
ATOM     59  C   UNL     1      -6.542  -2.314  14.768  1.00  0.00     0.001 A 
ATOM     60  C   UNL     1      -7.378  -3.255  15.367  1.00  0.00     0.000 A 
ENDBRANCH  42  55
ENDBRANCH  16  17
ENDBRANCH   9  11
ENDBRANCH   8   9
ENDBRANCH   7   8
ENDBRANCH   6   7
ENDBRANCH   5   6
ENDBRANCH   4   5
ENDBRANCH   3   4
ENDBRANCH   2   3
ENDBRANCH   1   2
BRANCH   1  61
ATOM     61  C   UNL     1       3.645  -6.718   2.827  1.00  0.00     0.188 C 
BRANCH  61  62
ATOM     62  O   UNL     1       2.523  -7.594   2.820  1.00  0.00    -0.376 OA
BRANCH  62  63
ATOM     63  C   UNL     1       1.685  -7.494   1.674  1.00  0.00     0.202 C 
BRANCH  63  64
ATOM     64  C   UNL     1       2.231  -8.206   0.423  1.00  0.00     0.261 C 
BRANCH  64  65
ATOM     65  O   UNL     1       3.420  -7.645  -0.178  1.00  0.00    -0.463 OA
BRANCH  65  66
ATOM     66  C   UNL     1       3.388  -6.344  -0.532  1.00  0.00     0.310 C 
ATOM     67  O   UNL     1       2.380  -5.653  -0.430  1.00  0.00    -0.252 OA
BRANCH  66  68
ATOM     68  C   UNL     1       4.730  -5.798  -1.022  1.00  0.00     0.116 C 
ATOM     69  C   UNL     1       5.819  -6.865  -1.290  1.00  0.00     0.043 C 
ATOM     70  C   UNL     1       5.268  -4.668  -0.114  1.00  0.00     0.097 C 
ATOM     71  C   UNL     1       7.192  -6.282  -1.485  1.00  0.00    -0.030 C 
ATOM     72  C   UNL     1       6.515  -3.998  -0.714  1.00  0.00     0.041 C 
ATOM     73  C   UNL     1       7.501  -4.999  -1.244  1.00  0.00    -0.030 C 
BRANCH  70  74
ATOM     74  C   UNL     1       4.289  -3.639   0.483  1.00  0.00     0.228 C 
ATOM     75  O   UNL     1       4.254  -3.506   1.714  1.00  0.00    -0.274 OA
ATOM     76  N   UNL     1       3.539  -2.764  -0.253  1.00  0.00    -0.326 N 
ATOM     77  H   UNL     1       2.895  -2.210   0.246  1.00  0.00     0.169 HD
BRANCH  76  78
ATOM     78  C   UNL     1       3.589  -2.570  -1.630  1.00  0.00     0.042 A 
ATOM     79  C   UNL     1       3.111  -3.521  -2.517  1.00  0.00     0.027 A 
ATOM     80  C   UNL     1       4.225  -1.436  -2.110  1.00  0.00     0.047 A 
ATOM     81  C   UNL     1       3.534  -3.508  -3.838  1.00  0.00     0.017 A 
ATOM     82  C   UNL     1       4.623  -1.387  -3.450  1.00  0.00     0.055 A 
ATOM     83  C   UNL     1       4.356  -2.475  -4.297  1.00  0.00     0.058 A 
ATOM     84  Cl  UNL     1       5.529   0.012  -3.880  1.00  0.00    -0.083 Cl
BRANCH  83  85
ATOM     85  C   UNL     1       4.947  -2.708  -5.636  1.00  0.00     0.255 C 
ATOM     86  O   UNL     1       5.297  -3.836  -5.969  1.00  0.00    -0.269 OA
ATOM     87  N   UNL     1       4.938  -1.642  -6.497  1.00  0.00    -0.334 N 
ATOM     88  C   UNL     1       6.210  -1.045  -6.887  1.00  0.00     0.148 C 
ATOM     89  C   UNL     1       3.983  -1.679  -7.595  1.00  0.00     0.148 C 
ATOM     90  C   UNL     1       5.953   0.365  -7.422  1.00  0.00     0.181 C 
ATOM     91  C   UNL     1       3.771  -0.263  -8.125  1.00  0.00     0.181 C 
ATOM     92  O   UNL     1       5.020   0.335  -8.520  1.00  0.00    -0.378 OA
ENDBRANCH  83  85
ENDBRANCH  76  78
ENDBRANCH  70  74
ENDBRANCH  66  68
ENDBRANCH  65  66
ENDBRANCH  64  65
ENDBRANCH  63  64
ENDBRANCH  62  63
ENDBRANCH  61  62
ENDBRANCH   1  61
TORSDOF 23
