REMARK SMILES COc1ccc(C(=O)Nc2ccccc2C(=O)N[C@@H](C(=O)OCCOCCOCCOCCOC(=O)c2ccc(-c3c4nc(c(-c5ccccc5)c5ccc([nH]5)c(-c5ccccc5)c5nc(c(-c6ccccc6)c6ccc3[nH]6)C=C5)C=C4)cc2)C(C)C)cc1
REMARK SMILES IDX 26 1 25 2 24 3 23 4 22 5 20 6 21 7 19 8 18 9 16 10 17 11
REMARK SMILES IDX 15 13 10 14 11 15 12 16 14 17 13 18 9 19 7 20 8 21 6 23 3 24
REMARK SMILES IDX 4 25 89 26 5 27 88 28 2 29 1 30 85 31 86 32 87 33 27 34
REMARK SMILES IDX 28 35 29 36 30 37 31 38 32 39 33 40 34 41 35 42 36 43 37 44
REMARK SMILES IDX 38 45 84 46 39 47 83 48 40 49 41 50 42 51 77 52 43 53 82 54
REMARK SMILES IDX 76 55 78 56 44 57 81 58 75 59 74 60 45 62 67 63 52 64 66 65
REMARK SMILES IDX 53 66 56 67 65 68 79 69 54 70 55 71 64 73 80 74 57 75 46 76
REMARK SMILES IDX 47 77 51 78 48 79 50 80 49 81 68 82 69 83 73 84 70 85 72 86
REMARK SMILES IDX 71 87 58 88 59 89 63 90 60 91 62 92 61 93
REMARK H PARENT 18 12 9 22 78 61 56 72
REMARK Flexibility Score: inf
ROOT
ATOM      1  C   UNL     1       0.273  -4.490  -8.588  1.00  0.00     0.188 C 
ENDROOT
BRANCH   1   2
ATOM      2  O   UNL     1       0.911  -5.377  -9.489  1.00  0.00    -0.376 OA
BRANCH   2   3
ATOM      3  C   UNL     1       2.033  -4.923 -10.231  1.00  0.00     0.202 C 
BRANCH   3   4
ATOM      4  C   UNL     1       3.225  -4.220  -9.552  1.00  0.00     0.261 C 
BRANCH   4   5
ATOM      5  O   UNL     1       2.902  -3.418  -8.412  1.00  0.00    -0.462 OA
BRANCH   5   6
ATOM      6  C   UNL     1       2.754  -2.079  -8.575  1.00  0.00     0.328 C 
ATOM      7  O   UNL     1       2.893  -1.501  -9.646  1.00  0.00    -0.250 OA
BRANCH   6   8
ATOM      8  C   UNL     1       2.210  -1.406  -7.279  1.00  0.00     0.195 C 
BRANCH   8   9
ATOM      9  N   UNL     1       2.636  -2.275  -6.122  1.00  0.00    -0.338 N 
ATOM     10  C   UNL     1       3.670  -2.394  -5.210  1.00  0.00     0.254 C 
ATOM     11  O   UNL     1       3.669  -3.443  -4.553  1.00  0.00    -0.269 OA
ATOM     12  H   UNL     1       1.968  -2.981  -5.966  1.00  0.00     0.164 HD
BRANCH  10  13
ATOM     13  C   UNL     1       4.798  -1.444  -4.947  1.00  0.00     0.063 A 
ATOM     14  C   UNL     1       4.929  -0.164  -5.468  1.00  0.00     0.054 A 
ATOM     15  C   UNL     1       6.182   0.468  -5.506  1.00  0.00     0.027 A 
ATOM     16  C   UNL     1       7.219  -0.009  -4.713  1.00  0.00     0.002 A 
ATOM     17  C   UNL     1       5.838  -1.884  -4.099  1.00  0.00     0.016 A 
ATOM     18  C   UNL     1       7.014  -1.142  -3.937  1.00  0.00     0.001 A 
BRANCH  14  19
ATOM     19  N   UNL     1       3.855   0.696  -5.699  1.00  0.00    -0.321 N 
ATOM     20  C   UNL     1       2.708   0.822  -4.944  1.00  0.00     0.255 C 
ATOM     21  O   UNL     1       1.897   1.695  -5.245  1.00  0.00    -0.269 OA
ATOM     22  H   UNL     1       3.923   1.279  -6.489  1.00  0.00     0.170 HD
BRANCH  20  23
ATOM     23  C   UNL     1       2.483   0.063  -3.689  1.00  0.00     0.040 A 
ATOM     24  C   UNL     1       1.633  -0.897  -1.222  1.00  0.00     0.118 A 
ATOM     25  C   UNL     1       1.059  -1.406  -2.372  1.00  0.00     0.047 A 
ATOM     26  C   UNL     1       2.729  -0.032  -1.302  1.00  0.00     0.047 A 
ATOM     27  C   UNL     1       1.497  -0.927  -3.598  1.00  0.00     0.017 A 
ATOM     28  C   UNL     1       3.146   0.468  -2.537  1.00  0.00     0.017 A 
BRANCH  24  29
ATOM     29  O   UNL     1       1.060  -1.266  -0.038  1.00  0.00    -0.497 OA
ATOM     30  C   UNL     1       0.760  -0.117   0.757  1.00  0.00     0.278 C 
ENDBRANCH  24  29
ENDBRANCH  20  23
ENDBRANCH  14  19
ENDBRANCH  10  13
ENDBRANCH   8   9
BRANCH   8  31
ATOM     31  C   UNL     1       0.623  -1.178  -7.423  1.00  0.00     0.017 C 
ATOM     32  C   UNL     1      -0.123  -0.198  -6.500  1.00  0.00     0.010 C 
ATOM     33  C   UNL     1       0.237  -0.683  -8.832  1.00  0.00     0.010 C 
ENDBRANCH   8  31
ENDBRANCH   6   8
ENDBRANCH   5   6
ENDBRANCH   4   5
ENDBRANCH   3   4
ENDBRANCH   2   3
ENDBRANCH   1   2
BRANCH   1  34
ATOM     34  C   UNL     1       0.578  -4.806  -7.115  1.00  0.00     0.188 C 
BRANCH  34  35
ATOM     35  O   UNL     1       1.828  -5.430  -6.898  1.00  0.00    -0.377 OA
BRANCH  35  36
ATOM     36  C   UNL     1       1.946  -6.814  -7.240  1.00  0.00     0.188 C 
BRANCH  36  37
ATOM     37  C   UNL     1       0.764  -7.607  -7.861  1.00  0.00     0.188 C 
BRANCH  37  38
ATOM     38  O   UNL     1      -0.536  -7.189  -7.481  1.00  0.00    -0.376 OA
BRANCH  38  39
ATOM     39  C   UNL     1      -1.175  -7.828  -6.386  1.00  0.00     0.202 C 
BRANCH  39  40
ATOM     40  C   UNL     1      -0.451  -7.862  -5.030  1.00  0.00     0.261 C 
BRANCH  40  41
ATOM     41  O   UNL     1       0.835  -8.499  -5.007  1.00  0.00    -0.460 OA
BRANCH  41  42
ATOM     42  C   UNL     1       0.927  -9.767  -5.468  1.00  0.00     0.338 C 
ATOM     43  O   UNL     1       0.027 -10.489  -5.836  1.00  0.00    -0.246 OA
BRANCH  42  44
ATOM     44  C   UNL     1       2.365 -10.059  -5.657  1.00  0.00     0.060 A 
ATOM     45  C   UNL     1       2.831 -10.385  -6.938  1.00  0.00     0.016 A 
ATOM     46  C   UNL     1       3.244 -10.009  -4.574  1.00  0.00     0.016 A 
ATOM     47  C   UNL     1       4.172 -10.705  -7.134  1.00  0.00     0.010 A 
ATOM     48  C   UNL     1       4.581 -10.363  -4.763  1.00  0.00     0.010 A 
ATOM     49  C   UNL     1       5.037 -10.752  -6.035  1.00  0.00    -0.014 A 
BRANCH  49  50
ATOM     50  C   UNL     1       6.342 -11.437  -6.174  1.00  0.00     0.031 A 
ATOM     51  C   UNL     1       6.424 -12.883  -5.771  1.00  0.00     0.074 A 
ATOM     52  C   UNL     1       7.420 -10.805  -6.665  1.00  0.00     0.049 A 
ATOM     53  N   UNL     1       7.456 -13.685  -5.757  1.00  0.00    -0.248 NA
ATOM     54  C   UNL     1       5.168 -13.506  -5.318  1.00  0.00     0.031 C 
ATOM     55  C   UNL     1       7.454  -9.423  -7.136  1.00  0.00     0.029 A 
ATOM     56  N   UNL     1       8.705 -11.256  -6.838  1.00  0.00    -0.354 N 
ATOM     57  C   UNL     1       6.979 -14.898  -5.278  1.00  0.00     0.074 A 
ATOM     58  C   UNL     1       5.573 -14.722  -4.990  1.00  0.00     0.031 C 
ATOM     59  C   UNL     1       8.706  -9.130  -7.528  1.00  0.00     0.029 A 
ATOM     60  C   UNL     1       9.565 -10.292  -7.301  1.00  0.00     0.049 A 
ATOM     61  H   UNL     1       8.983 -12.181  -6.647  1.00  0.00     0.167 HD
ATOM     62  C   UNL     1       7.652 -16.057  -5.091  1.00  0.00     0.031 A 
ATOM     63  C   UNL     1      10.898 -10.336  -7.489  1.00  0.00     0.031 A 
ATOM     64  C   UNL     1       9.055 -16.224  -5.360  1.00  0.00     0.049 A 
ATOM     65  C   UNL     1      11.643 -11.614  -7.204  1.00  0.00     0.074 A 
ATOM     66  C   UNL     1       9.827 -17.364  -5.228  1.00  0.00     0.029 A 
ATOM     67  N   UNL     1       9.898 -15.215  -5.799  1.00  0.00    -0.354 N 
ATOM     68  N   UNL     1      11.179 -12.768  -6.785  1.00  0.00    -0.248 NA
ATOM     69  C   UNL     1      13.096 -11.598  -7.427  1.00  0.00     0.031 C 
ATOM     70  C   UNL     1      11.152 -17.027  -5.519  1.00  0.00     0.029 A 
ATOM     71  C   UNL     1      11.192 -15.697  -5.907  1.00  0.00     0.049 A 
ATOM     72  H   UNL     1       9.619 -14.294  -6.004  1.00  0.00     0.167 HD
ATOM     73  C   UNL     1      12.275 -13.620  -6.721  1.00  0.00     0.074 A 
ATOM     74  C   UNL     1      13.424 -12.854  -7.160  1.00  0.00     0.031 C 
ATOM     75  C   UNL     1      12.327 -14.920  -6.339  1.00  0.00     0.031 A 
BRANCH  62  76
ATOM     76  C   UNL     1       6.886 -17.215  -4.514  1.00  0.00    -0.014 A 
ATOM     77  C   UNL     1       5.886 -17.877  -5.244  1.00  0.00     0.009 A 
ATOM     78  C   UNL     1       7.179 -17.655  -3.214  1.00  0.00     0.009 A 
ATOM     79  C   UNL     1       5.169 -18.928  -4.668  1.00  0.00     0.001 A 
ATOM     80  C   UNL     1       6.485 -18.728  -2.653  1.00  0.00     0.001 A 
ATOM     81  C   UNL     1       5.472 -19.356  -3.376  1.00  0.00     0.000 A 
ENDBRANCH  62  76
BRANCH  63  82
ATOM     82  C   UNL     1      11.622  -9.118  -7.939  1.00  0.00    -0.014 A 
ATOM     83  C   UNL     1      12.204  -9.054  -9.214  1.00  0.00     0.009 A 
ATOM     84  C   UNL     1      11.739  -8.009  -7.085  1.00  0.00     0.009 A 
ATOM     85  C   UNL     1      12.907  -7.914  -9.614  1.00  0.00     0.001 A 
ATOM     86  C   UNL     1      12.414  -6.860  -7.500  1.00  0.00     0.001 A 
ATOM     87  C   UNL     1      13.005  -6.816  -8.760  1.00  0.00     0.000 A 
ENDBRANCH  63  82
BRANCH  75  88
ATOM     88  C   UNL     1      13.660 -15.614  -6.412  1.00  0.00    -0.014 A 
ATOM     89  C   UNL     1      14.699 -15.306  -5.519  1.00  0.00     0.009 A 
ATOM     90  C   UNL     1      13.860 -16.630  -7.361  1.00  0.00     0.009 A 
ATOM     91  C   UNL     1      15.921 -15.978  -5.599  1.00  0.00     0.001 A 
ATOM     92  C   UNL     1      15.070 -17.323  -7.416  1.00  0.00     0.001 A 
ATOM     93  C   UNL     1      16.103 -16.989  -6.543  1.00  0.00     0.000 A 
ENDBRANCH  75  88
ENDBRANCH  49  50
ENDBRANCH  42  44
ENDBRANCH  41  42
ENDBRANCH  40  41
ENDBRANCH  39  40
ENDBRANCH  38  39
ENDBRANCH  37  38
ENDBRANCH  36  37
ENDBRANCH  35  36
ENDBRANCH  34  35
ENDBRANCH   1  34
TORSDOF 26
