REMARK SMILES C[C@H](C(=O)OCCOCCOCCOCCOC(=O)c1ccc(-c2c3nc(c(-c4ccccc4)c4ccc([nH]4)c(-c4ccccc4)c4nc(c(-c5ccccc5)c5ccc2[nH]5)C=C4)C=C3)cc1)c1ccc2c3cc(Cl)ccc3n(C(=O)c3cocn3)c2c1
REMARK SMILES IDX 10 1 9 2 8 3 7 4 6 5 5 6 3 7 4 8 2 9 1 10 68 11 69 12 88 13
REMARK SMILES IDX 70 14 87 15 71 16 79 17 72 18 78 19 73 20 77 21 74 22 76 23
REMARK SMILES IDX 75 24 80 25 81 26 82 27 83 28 86 29 84 30 85 31 11 32 12 33
REMARK SMILES IDX 13 34 14 35 15 36 16 37 17 38 18 39 19 40 20 41 21 42 67 43
REMARK SMILES IDX 22 44 66 45 23 46 24 47 25 48 60 49 26 50 65 51 59 52 61 53
REMARK SMILES IDX 27 54 64 55 58 56 57 57 28 59 50 60 35 61 49 62 36 63 39 64
REMARK SMILES IDX 48 65 62 66 37 67 38 68 47 70 63 71 40 72 29 73 30 74 34 75
REMARK SMILES IDX 31 76 33 77 32 78 51 79 52 80 56 81 53 82 55 83 54 84 41 85
REMARK SMILES IDX 42 86 46 87 43 88 45 89 44 90
REMARK H PARENT 61 58 39 69
REMARK Flexibility Score: inf
ROOT
ATOM      1  C   UNL     1       1.251  -1.836  -0.941  1.00  0.00     0.188 C 
ENDROOT
BRANCH   1   2
ATOM      2  C   UNL     1       2.627  -1.254  -0.557  1.00  0.00     0.188 C 
BRANCH   2   3
ATOM      3  O   UNL     1       3.074  -1.131   0.791  1.00  0.00    -0.376 OA
BRANCH   3   4
ATOM      4  C   UNL     1       2.199  -1.397   1.872  1.00  0.00     0.202 C 
BRANCH   4   5
ATOM      5  C   UNL     1       1.122  -0.345   2.162  1.00  0.00     0.261 C 
BRANCH   5   6
ATOM      6  O   UNL     1       0.474   0.211   1.008  1.00  0.00    -0.463 OA
BRANCH   6   7
ATOM      7  C   UNL     1       0.943   1.399   0.557  1.00  0.00     0.313 C 
ATOM      8  O   UNL     1       1.913   1.980   1.038  1.00  0.00    -0.252 OA
BRANCH   7   9
ATOM      9  C   UNL     1       0.205   1.955  -0.657  1.00  0.00     0.126 C 
ATOM     10  C   UNL     1       0.933   1.660  -1.971  1.00  0.00     0.025 C 
BRANCH   9  11
ATOM     11  C   UNL     1      -1.298   1.722  -0.811  1.00  0.00    -0.032 A 
ATOM     12  C   UNL     1      -2.066   2.810  -1.241  1.00  0.00     0.005 A 
ATOM     13  C   UNL     1      -1.936   0.477  -0.636  1.00  0.00     0.032 A 
ATOM     14  C   UNL     1      -3.436   2.692  -1.469  1.00  0.00     0.011 A 
ATOM     15  C   UNL     1      -3.336   0.362  -0.824  1.00  0.00     0.058 A 
ATOM     16  C   UNL     1      -4.081   1.462  -1.245  1.00  0.00     0.008 A 
ATOM     17  N   UNL     1      -4.217  -0.732  -0.699  1.00  0.00    -0.274 N 
ATOM     18  C   UNL     1      -5.442   1.070  -1.308  1.00  0.00     0.009 A 
ATOM     19  C   UNL     1      -5.529  -0.243  -0.839  1.00  0.00     0.057 A 
ATOM     20  C   UNL     1      -6.616   1.776  -1.647  1.00  0.00     0.031 A 
ATOM     21  C   UNL     1      -6.790  -0.813  -0.566  1.00  0.00     0.029 A 
ATOM     22  C   UNL     1      -7.857   1.180  -1.441  1.00  0.00     0.041 A 
ATOM     23  C   UNL     1      -7.946  -0.087  -0.884  1.00  0.00     0.023 A 
ATOM     24  Cl  UNL     1      -9.289   2.049  -1.833  1.00  0.00    -0.084 Cl
BRANCH  17  25
ATOM     25  C   UNL     1      -3.830  -2.082  -0.442  1.00  0.00     0.284 C 
ATOM     26  O   UNL     1      -2.686  -2.262  -0.035  1.00  0.00    -0.266 OA
BRANCH  25  27
ATOM     27  C   UNL     1      -4.693  -3.244  -0.655  1.00  0.00     0.167 A 
ATOM     28  C   UNL     1      -5.556  -3.498  -1.701  1.00  0.00     0.231 A 
ATOM     29  N   UNL     1      -4.686  -4.347   0.183  1.00  0.00    -0.211 NA
ATOM     30  O   UNL     1      -6.120  -4.725  -1.509  1.00  0.00    -0.451 OA
ATOM     31  C   UNL     1      -5.547  -5.174  -0.360  1.00  0.00     0.308 A 
ENDBRANCH  25  27
ENDBRANCH  17  25
ENDBRANCH   9  11
ENDBRANCH   7   9
ENDBRANCH   6   7
ENDBRANCH   5   6
ENDBRANCH   4   5
ENDBRANCH   3   4
ENDBRANCH   2   3
ENDBRANCH   1   2
BRANCH   1  32
ATOM     32  O   UNL     1       0.692  -2.731   0.002  1.00  0.00    -0.377 OA
BRANCH  32  33
ATOM     33  C   UNL     1       0.808  -4.107  -0.322  1.00  0.00     0.188 C 
BRANCH  33  34
ATOM     34  C   UNL     1       2.253  -4.580  -0.527  1.00  0.00     0.188 C 
BRANCH  34  35
ATOM     35  O   UNL     1       2.833  -4.016  -1.704  1.00  0.00    -0.376 OA
BRANCH  35  36
ATOM     36  C   UNL     1       2.964  -4.876  -2.830  1.00  0.00     0.202 C 
BRANCH  36  37
ATOM     37  C   UNL     1       1.672  -5.051  -3.641  1.00  0.00     0.261 C 
BRANCH  37  38
ATOM     38  O   UNL     1       0.588  -5.693  -2.948  1.00  0.00    -0.460 OA
BRANCH  38  39
ATOM     39  C   UNL     1       0.811  -6.914  -2.421  1.00  0.00     0.338 C 
ATOM     40  O   UNL     1       1.815  -7.599  -2.537  1.00  0.00    -0.246 OA
BRANCH  39  41
ATOM     41  C   UNL     1      -0.302  -7.221  -1.503  1.00  0.00     0.060 A 
ATOM     42  C   UNL     1      -0.010  -7.584  -0.181  1.00  0.00     0.016 A 
ATOM     43  C   UNL     1      -1.625  -7.152  -1.943  1.00  0.00     0.016 A 
ATOM     44  C   UNL     1      -1.043  -7.914   0.696  1.00  0.00     0.010 A 
ATOM     45  C   UNL     1      -2.656  -7.504  -1.071  1.00  0.00     0.010 A 
ATOM     46  C   UNL     1      -2.368  -7.919   0.242  1.00  0.00    -0.014 A 
BRANCH  46  47
ATOM     47  C   UNL     1      -3.430  -8.560   1.051  1.00  0.00     0.031 A 
ATOM     48  C   UNL     1      -3.806  -9.980   0.726  1.00  0.00     0.074 A 
ATOM     49  C   UNL     1      -4.066  -7.905   2.038  1.00  0.00     0.049 A 
ATOM     50  N   UNL     1      -4.751 -10.727   1.235  1.00  0.00    -0.248 NA
ATOM     51  C   UNL     1      -3.010 -10.642  -0.322  1.00  0.00     0.031 C 
ATOM     52  C   UNL     1      -3.782  -6.541   2.475  1.00  0.00     0.029 A 
ATOM     53  N   UNL     1      -5.113  -8.304   2.832  1.00  0.00    -0.354 N 
ATOM     54  C   UNL     1      -4.660 -11.945   0.574  1.00  0.00     0.074 A 
ATOM     55  C   UNL     1      -3.603 -11.822  -0.406  1.00  0.00     0.031 C 
ATOM     56  C   UNL     1      -4.658  -6.202   3.438  1.00  0.00     0.029 A 
ATOM     57  C   UNL     1      -5.571  -7.318   3.671  1.00  0.00     0.049 A 
ATOM     58  H   UNL     1      -5.498  -9.210   2.802  1.00  0.00     0.167 HD
ATOM     59  C   UNL     1      -5.377 -13.076   0.774  1.00  0.00     0.031 A 
ATOM     60  C   UNL     1      -6.624  -7.312   4.512  1.00  0.00     0.031 A 
ATOM     61  C   UNL     1      -6.436 -13.202   1.736  1.00  0.00     0.049 A 
ATOM     62  C   UNL     1      -7.470  -8.550   4.653  1.00  0.00     0.074 A 
ATOM     63  C   UNL     1      -7.203 -14.315   2.034  1.00  0.00     0.029 A 
ATOM     64  N   UNL     1      -6.881 -12.176   2.553  1.00  0.00    -0.354 N 
ATOM     65  N   UNL     1      -7.348  -9.710   4.052  1.00  0.00    -0.248 NA
ATOM     66  C   UNL     1      -8.592  -8.482   5.602  1.00  0.00     0.031 C 
ATOM     67  C   UNL     1      -8.148 -13.946   2.998  1.00  0.00     0.029 A 
ATOM     68  C   UNL     1      -7.931 -12.620   3.337  1.00  0.00     0.049 A 
ATOM     69  H   UNL     1      -6.507 -11.265   2.572  1.00  0.00     0.167 HD
ATOM     70  C   UNL     1      -8.347 -10.519   4.582  1.00  0.00     0.074 A 
ATOM     71  C   UNL     1      -9.068  -9.718   5.549  1.00  0.00     0.031 C 
ATOM     72  C   UNL     1      -8.634 -11.813   4.300  1.00  0.00     0.031 A 
BRANCH  59  73
ATOM     73  C   UNL     1      -5.043 -14.259  -0.089  1.00  0.00    -0.014 A 
ATOM     74  C   UNL     1      -3.845 -14.970   0.090  1.00  0.00     0.009 A 
ATOM     75  C   UNL     1      -5.939 -14.673  -1.085  1.00  0.00     0.009 A 
ATOM     76  C   UNL     1      -3.535 -16.050  -0.740  1.00  0.00     0.001 A 
ATOM     77  C   UNL     1      -5.639 -15.770  -1.894  1.00  0.00     0.001 A 
ATOM     78  C   UNL     1      -4.433 -16.450  -1.728  1.00  0.00     0.000 A 
ENDBRANCH  59  73
BRANCH  60  79
ATOM     79  C   UNL     1      -6.960  -6.085   5.279  1.00  0.00    -0.014 A 
ATOM     80  C   UNL     1      -6.763  -6.030   6.667  1.00  0.00     0.009 A 
ATOM     81  C   UNL     1      -7.513  -4.971   4.627  1.00  0.00     0.009 A 
ATOM     82  C   UNL     1      -7.141  -4.896   7.391  1.00  0.00     0.001 A 
ATOM     83  C   UNL     1      -7.867  -3.830   5.350  1.00  0.00     0.001 A 
ATOM     84  C   UNL     1      -7.690  -3.797   6.732  1.00  0.00     0.000 A 
ENDBRANCH  60  79
BRANCH  72  85
ATOM     85  C   UNL     1      -9.740 -12.464   5.083  1.00  0.00    -0.014 A 
ATOM     86  C   UNL     1     -11.087 -12.160   4.840  1.00  0.00     0.009 A 
ATOM     87  C   UNL     1      -9.423 -13.436   6.046  1.00  0.00     0.009 A 
ATOM     88  C   UNL     1     -12.095 -12.797   5.568  1.00  0.00     0.001 A 
ATOM     89  C   UNL     1     -10.433 -14.089   6.753  1.00  0.00     0.001 A 
ATOM     90  C   UNL     1     -11.768 -13.764   6.519  1.00  0.00     0.000 A 
ENDBRANCH  72  85
ENDBRANCH  46  47
ENDBRANCH  39  41
ENDBRANCH  38  39
ENDBRANCH  37  38
ENDBRANCH  36  37
ENDBRANCH  35  36
ENDBRANCH  34  35
ENDBRANCH  33  34
ENDBRANCH  32  33
ENDBRANCH   1  32
TORSDOF 23
