REMARK SMILES Cc1ccc(C(=O)N2C[C@@H](C(=O)OCCOCCOCCOCCOC(=O)c3ccc(-c4c5nc(c(-c6ccccc6)c6ccc([nH]6)c(-c6ccccc6)c6nc(c(-c7ccccc7)c7ccc4[nH]7)C=C6)C=C5)cc3)C[C@H](C(=O)N3CCOCC3)C2)cc1F
REMARK SMILES IDX 19 1 18 2 17 3 16 4 15 5 14 6 13 7 11 8 12 9 10 10 8 11 9 12
REMARK SMILES IDX 86 13 77 14 76 15 6 16 7 17 5 18 1 19 2 20 3 21 88 22 4 23
REMARK SMILES IDX 87 24 89 25 78 26 79 27 80 28 81 29 85 30 82 31 84 32 83 33
REMARK SMILES IDX 20 34 21 35 22 36 23 37 24 38 25 39 26 40 27 41 28 42 29 43
REMARK SMILES IDX 75 44 30 45 74 46 31 47 32 48 33 49 68 50 34 51 73 52 67 53
REMARK SMILES IDX 69 54 35 55 72 56 66 57 65 58 36 60 58 61 43 62 57 63 44 64
REMARK SMILES IDX 47 65 56 66 70 67 45 68 46 69 55 71 71 72 48 73 37 74 38 75
REMARK SMILES IDX 42 76 39 77 41 78 40 79 59 80 60 81 64 82 61 83 63 84 62 85
REMARK SMILES IDX 49 86 50 87 54 88 51 89 53 90 52 91
REMARK H PARENT 69 59 47 70
REMARK Flexibility Score: inf
ROOT
ATOM      1  O   UNL     1     -10.823  -0.997   0.064  1.00  0.00    -0.377 OA
ENDROOT
BRANCH   1   2
ATOM      2  C   UNL     1      -9.656  -1.782   0.226  1.00  0.00     0.188 C 
BRANCH   2   3
ATOM      3  C   UNL     1      -9.562  -3.014   1.161  1.00  0.00     0.188 C 
BRANCH   3   4
ATOM      4  O   UNL     1     -10.254  -2.887   2.388  1.00  0.00    -0.376 OA
BRANCH   4   5
ATOM      5  C   UNL     1      -9.658  -2.391   3.570  1.00  0.00     0.202 C 
BRANCH   5   6
ATOM      6  C   UNL     1      -8.728  -1.167   3.574  1.00  0.00     0.261 C 
BRANCH   6   7
ATOM      7  O   UNL     1      -7.852  -1.011   2.452  1.00  0.00    -0.463 OA
BRANCH   7   8
ATOM      8  C   UNL     1      -6.790  -1.842   2.420  1.00  0.00     0.310 C 
ATOM      9  O   UNL     1      -6.543  -2.674   3.283  1.00  0.00    -0.252 OA
BRANCH   8  10
ATOM     10  C   UNL     1      -5.918  -1.634   1.205  1.00  0.00     0.119 C 
ATOM     11  N   UNL     1      -3.896  -0.622   0.447  1.00  0.00    -0.337 N 
ATOM     12  C   UNL     1      -4.898  -0.573   1.494  1.00  0.00     0.135 C 
ATOM     13  C   UNL     1      -4.329  -0.395  -0.935  1.00  0.00     0.133 C 
ATOM     14  C   UNL     1      -5.569  -1.227  -1.315  1.00  0.00     0.099 C 
ATOM     15  C   UNL     1      -6.559  -1.358  -0.160  1.00  0.00     0.032 C 
BRANCH  11  16
ATOM     16  C   UNL     1      -2.655  -1.138   0.767  1.00  0.00     0.254 C 
ATOM     17  O   UNL     1      -2.491  -2.040   1.580  1.00  0.00    -0.269 OA
BRANCH  16  18
ATOM     18  C   UNL     1      -1.487  -0.400   0.249  1.00  0.00     0.042 A 
ATOM     19  C   UNL     1       2.078   1.906  -0.234  1.00  0.00     0.047 C 
ATOM     20  C   UNL     1       0.817   1.104  -0.169  1.00  0.00    -0.015 A 
ATOM     21  C   UNL     1      -0.424   1.743  -0.107  1.00  0.00     0.007 A 
ATOM     22  C   UNL     1       0.876  -0.293  -0.083  1.00  0.00     0.126 A 
ATOM     23  C   UNL     1      -1.573   0.993   0.107  1.00  0.00     0.014 A 
ATOM     24  C   UNL     1      -0.264  -1.054   0.130  1.00  0.00     0.053 A 
ATOM     25  F   UNL     1       2.063  -0.912  -0.146  1.00  0.00    -0.207 F 
ENDBRANCH  16  18
ENDBRANCH  11  16
BRANCH  14  26
ATOM     26  C   UNL     1      -5.155  -2.483  -2.098  1.00  0.00     0.227 C 
ATOM     27  O   UNL     1      -4.957  -2.360  -3.314  1.00  0.00    -0.275 OA
ATOM     28  N   UNL     1      -4.765  -3.628  -1.446  1.00  0.00    -0.338 N 
ATOM     29  C   UNL     1      -5.557  -4.455  -0.526  1.00  0.00     0.148 C 
ATOM     30  C   UNL     1      -3.614  -4.360  -1.975  1.00  0.00     0.148 C 
ATOM     31  C   UNL     1      -4.666  -5.016   0.596  1.00  0.00     0.181 C 
ATOM     32  C   UNL     1      -2.768  -4.862  -0.802  1.00  0.00     0.181 C 
ATOM     33  O   UNL     1      -3.545  -5.727   0.045  1.00  0.00    -0.378 OA
ENDBRANCH  14  26
ENDBRANCH   8  10
ENDBRANCH   7   8
ENDBRANCH   6   7
ENDBRANCH   5   6
ENDBRANCH   4   5
ENDBRANCH   3   4
ENDBRANCH   2   3
ENDBRANCH   1   2
BRANCH   1  34
ATOM     34  C   UNL     1     -11.662  -0.885   1.193  1.00  0.00     0.188 C 
BRANCH  34  35
ATOM     35  C   UNL     1     -12.678  -2.034   1.233  1.00  0.00     0.188 C 
BRANCH  35  36
ATOM     36  O   UNL     1     -12.286  -3.137   0.416  1.00  0.00    -0.376 OA
BRANCH  36  37
ATOM     37  C   UNL     1     -12.900  -3.244  -0.863  1.00  0.00     0.202 C 
BRANCH  37  38
ATOM     38  C   UNL     1     -12.598  -2.174  -1.934  1.00  0.00     0.261 C 
BRANCH  38  39
ATOM     39  O   UNL     1     -12.893  -0.804  -1.607  1.00  0.00    -0.460 OA
BRANCH  39  40
ATOM     40  C   UNL     1     -14.158  -0.495  -1.248  1.00  0.00     0.338 C 
ATOM     41  O   UNL     1     -15.120  -1.224  -1.252  1.00  0.00    -0.246 OA
BRANCH  40  42
ATOM     42  C   UNL     1     -14.132   0.854  -0.628  1.00  0.00     0.060 A 
ATOM     43  C   UNL     1     -14.625   0.987   0.677  1.00  0.00     0.016 A 
ATOM     44  C   UNL     1     -13.617   1.964  -1.301  1.00  0.00     0.016 A 
ATOM     45  C   UNL     1     -14.622   2.230   1.305  1.00  0.00     0.010 A 
ATOM     46  C   UNL     1     -13.652   3.222  -0.685  1.00  0.00     0.010 A 
ATOM     47  C   UNL     1     -14.183   3.363   0.609  1.00  0.00    -0.014 A 
BRANCH  47  48
ATOM     48  C   UNL     1     -14.486   4.700   1.173  1.00  0.00     0.031 A 
ATOM     49  C   UNL     1     -15.740   5.396   0.717  1.00  0.00     0.074 A 
ATOM     50  C   UNL     1     -13.717   5.252   2.128  1.00  0.00     0.049 A 
ATOM     51  N   UNL     1     -16.248   6.536   1.109  1.00  0.00    -0.248 NA
ATOM     52  C   UNL     1     -16.531   4.706  -0.316  1.00  0.00     0.031 C 
ATOM     53  C   UNL     1     -12.508   4.656   2.693  1.00  0.00     0.029 A 
ATOM     54  N   UNL     1     -13.854   6.442   2.799  1.00  0.00    -0.354 N 
ATOM     55  C   UNL     1     -17.415   6.699   0.373  1.00  0.00     0.074 A 
ATOM     56  C   UNL     1     -17.523   5.561  -0.513  1.00  0.00     0.031 C 
ATOM     57  C   UNL     1     -12.014   5.484   3.631  1.00  0.00     0.029 A 
ATOM     58  C   UNL     1     -12.855   6.678   3.711  1.00  0.00     0.049 A 
ATOM     59  H   UNL     1     -14.598   7.067   2.641  1.00  0.00     0.167 HD
ATOM     60  C   UNL     1     -18.323   7.702   0.433  1.00  0.00     0.031 A 
ATOM     61  C   UNL     1     -12.640   7.742   4.509  1.00  0.00     0.031 A 
ATOM     62  C   UNL     1     -18.205   8.848   1.294  1.00  0.00     0.049 A 
ATOM     63  C   UNL     1     -13.618   8.888   4.492  1.00  0.00     0.074 A 
ATOM     64  C   UNL     1     -19.074   9.917   1.431  1.00  0.00     0.029 A 
ATOM     65  N   UNL     1     -17.144   9.082   2.155  1.00  0.00    -0.354 N 
ATOM     66  N   UNL     1     -14.733   9.018   3.813  1.00  0.00    -0.248 NA
ATOM     67  C   UNL     1     -13.311  10.030   5.366  1.00  0.00     0.031 C 
ATOM     68  C   UNL     1     -18.504  10.830   2.324  1.00  0.00     0.029 A 
ATOM     69  C   UNL     1     -17.319  10.294   2.802  1.00  0.00     0.049 A 
ATOM     70  H   UNL     1     -16.379   8.476   2.287  1.00  0.00     0.167 HD
ATOM     71  C   UNL     1     -15.274  10.240   4.200  1.00  0.00     0.074 A 
ATOM     72  C   UNL     1     -14.376  10.798   5.190  1.00  0.00     0.031 C 
ATOM     73  C   UNL     1     -16.411  10.845   3.776  1.00  0.00     0.031 A 
BRANCH  60  74
ATOM     74  C   UNL     1     -19.503   7.621  -0.497  1.00  0.00    -0.014 A 
ATOM     75  C   UNL     1     -20.512   6.661  -0.321  1.00  0.00     0.009 A 
ATOM     76  C   UNL     1     -19.616   8.537  -1.554  1.00  0.00     0.009 A 
ATOM     77  C   UNL     1     -21.591   6.599  -1.206  1.00  0.00     0.001 A 
ATOM     78  C   UNL     1     -20.712   8.494  -2.417  1.00  0.00     0.001 A 
ATOM     79  C   UNL     1     -21.693   7.519  -2.249  1.00  0.00     0.000 A 
ENDBRANCH  60  74
BRANCH  61  80
ATOM     80  C   UNL     1     -11.437   7.791   5.384  1.00  0.00    -0.014 A 
ATOM     81  C   UNL     1     -11.558   7.763   6.782  1.00  0.00     0.009 A 
ATOM     82  C   UNL     1     -10.156   7.904   4.820  1.00  0.00     0.009 A 
ATOM     83  C   UNL     1     -10.427   7.877   7.595  1.00  0.00     0.001 A 
ATOM     84  C   UNL     1      -9.024   7.984   5.633  1.00  0.00     0.001 A 
ATOM     85  C   UNL     1      -9.161   7.982   7.020  1.00  0.00     0.000 A 
ENDBRANCH  61  80
BRANCH  73  86
ATOM     86  C   UNL     1     -16.765  12.165   4.410  1.00  0.00    -0.014 A 
ATOM     87  C   UNL     1     -16.005  13.322   4.176  1.00  0.00     0.009 A 
ATOM     88  C   UNL     1     -17.889  12.252   5.248  1.00  0.00     0.009 A 
ATOM     89  C   UNL     1     -16.331  14.523   4.809  1.00  0.00     0.001 A 
ATOM     90  C   UNL     1     -18.235  13.463   5.849  1.00  0.00     0.001 A 
ATOM     91  C   UNL     1     -17.447  14.594   5.642  1.00  0.00     0.000 A 
ENDBRANCH  73  86
ENDBRANCH  47  48
ENDBRANCH  40  42
ENDBRANCH  39  40
ENDBRANCH  38  39
ENDBRANCH  37  38
ENDBRANCH  36  37
ENDBRANCH  35  36
ENDBRANCH  34  35
ENDBRANCH   1  34
TORSDOF 23
