REMARK SMILES Cc1ccc(C(=O)OCCOCCOCCOCCOC(=O)c2ccc(-c3c4nc(c(-c5ccccc5)c5ccc([nH]5)c(-c5ccccc5)c5nc(c(-c6ccccc6)c6ccc3[nH]6)C=C5)C=C4)cc2)c(Oc2cccc(F)c2C(N)=O)c1
REMARK SMILES IDX 13 1 12 2 11 3 10 4 9 5 8 6 6 7 7 8 5 9 1 10 2 11 3 12 83 13
REMARK SMILES IDX 4 14 71 15 72 16 73 17 74 18 79 19 75 20 77 21 76 22 78 23
REMARK SMILES IDX 80 24 81 25 82 26 14 29 15 30 16 31 17 32 18 33 19 34 20 35
REMARK SMILES IDX 21 36 22 37 23 38 24 39 70 40 25 41 69 42 26 43 27 44 28 45
REMARK SMILES IDX 63 46 29 47 68 48 62 49 64 50 30 51 67 52 61 53 60 54 31 56
REMARK SMILES IDX 53 57 38 58 52 59 39 60 42 61 51 62 65 63 40 64 41 65 50 67
REMARK SMILES IDX 66 68 43 69 32 70 33 71 37 72 34 73 36 74 35 75 54 76 55 77
REMARK SMILES IDX 59 78 56 79 58 80 57 81 44 82 45 83 49 84 46 85 48 86 47 87
REMARK H PARENT 81 27 81 28 64 55 42 66
REMARK Flexibility Score: inf
ROOT
ATOM      1  C   UNL     1      -1.814  -0.663  -2.751  1.00  0.00     0.188 C 
ENDROOT
BRANCH   1   2
ATOM      2  C   UNL     1      -2.219  -2.003  -2.121  1.00  0.00     0.188 C 
BRANCH   2   3
ATOM      3  O   UNL     1      -3.592  -2.323  -1.992  1.00  0.00    -0.376 OA
BRANCH   3   4
ATOM      4  C   UNL     1      -4.279  -1.659  -0.935  1.00  0.00     0.202 C 
BRANCH   4   5
ATOM      5  C   UNL     1      -3.573  -1.565   0.406  1.00  0.00     0.261 C 
BRANCH   5   6
ATOM      6  O   UNL     1      -2.588  -0.527   0.316  1.00  0.00    -0.460 OA
BRANCH   6   7
ATOM      7  C   UNL     1      -1.636  -0.586   1.247  1.00  0.00     0.342 C 
ATOM      8  O   UNL     1      -1.675  -1.191   2.320  1.00  0.00    -0.246 OA
BRANCH   7   9
ATOM      9  C   UNL     1      -0.357  -0.271   0.615  1.00  0.00     0.102 A 
ATOM     10  C   UNL     1       3.782   0.108  -0.273  1.00  0.00     0.044 C 
ATOM     11  C   UNL     1       2.307  -0.025  -0.064  1.00  0.00    -0.047 A 
ATOM     12  C   UNL     1       1.761  -1.298   0.074  1.00  0.00     0.004 A 
ATOM     13  C   UNL     1       1.485   1.113   0.024  1.00  0.00     0.051 A 
ATOM     14  C   UNL     1       0.443  -1.418   0.459  1.00  0.00     0.020 A 
ATOM     15  C   UNL     1       0.115   1.005   0.277  1.00  0.00     0.142 A 
BRANCH  15  16
ATOM     16  O   UNL     1      -0.773   2.058   0.192  1.00  0.00    -0.455 OA
BRANCH  16  17
ATOM     17  C   UNL     1      -0.331   3.342  -0.086  1.00  0.00     0.143 A 
ATOM     18  C   UNL     1      -0.618   4.276   0.923  1.00  0.00     0.048 A 
ATOM     19  C   UNL     1       0.298   3.791  -1.266  1.00  0.00     0.117 A 
ATOM     20  C   UNL     1      -0.222   5.612   0.805  1.00  0.00     0.007 A 
ATOM     21  C   UNL     1       0.697   5.133  -1.361  1.00  0.00     0.139 A 
ATOM     22  C   UNL     1       0.451   6.036  -0.334  1.00  0.00     0.040 A 
ATOM     23  F   UNL     1       1.298   5.605  -2.463  1.00  0.00    -0.206 F 
BRANCH  19  24
ATOM     24  C   UNL     1       0.597   2.974  -2.459  1.00  0.00     0.255 C 
ATOM     25  N   UNL     1      -0.353   2.098  -2.856  1.00  0.00    -0.365 N 
ATOM     26  O   UNL     1       1.637   3.086  -3.095  1.00  0.00    -0.269 OA
ATOM     27  H   UNL     1      -1.188   2.011  -2.341  1.00  0.00     0.159 HD
ATOM     28  H   UNL     1      -0.211   1.548  -3.659  1.00  0.00     0.159 HD
ENDBRANCH  19  24
ENDBRANCH  16  17
ENDBRANCH  15  16
ENDBRANCH   7   9
ENDBRANCH   6   7
ENDBRANCH   5   6
ENDBRANCH   4   5
ENDBRANCH   3   4
ENDBRANCH   2   3
ENDBRANCH   1   2
BRANCH   1  29
ATOM     29  O   UNL     1      -2.376   0.542  -2.249  1.00  0.00    -0.377 OA
BRANCH  29  30
ATOM     30  C   UNL     1      -3.452   1.169  -2.955  1.00  0.00     0.188 C 
BRANCH  30  31
ATOM     31  C   UNL     1      -3.673   0.832  -4.418  1.00  0.00     0.188 C 
BRANCH  31  32
ATOM     32  O   UNL     1      -4.144  -0.511  -4.477  1.00  0.00    -0.376 OA
BRANCH  32  33
ATOM     33  C   UNL     1      -3.923  -1.188  -5.706  1.00  0.00     0.202 C 
BRANCH  33  34
ATOM     34  C   UNL     1      -4.628  -0.526  -6.894  1.00  0.00     0.261 C 
BRANCH  34  35
ATOM     35  O   UNL     1      -6.056  -0.592  -6.694  1.00  0.00    -0.460 OA
BRANCH  35  36
ATOM     36  C   UNL     1      -6.651   0.575  -6.326  1.00  0.00     0.338 C 
ATOM     37  O   UNL     1      -6.503   1.651  -6.884  1.00  0.00    -0.246 OA
BRANCH  36  38
ATOM     38  C   UNL     1      -7.275   0.427  -4.978  1.00  0.00     0.060 A 
ATOM     39  C   UNL     1      -7.789   1.551  -4.311  1.00  0.00     0.016 A 
ATOM     40  C   UNL     1      -7.025  -0.732  -4.259  1.00  0.00     0.016 A 
ATOM     41  C   UNL     1      -7.848   1.571  -2.907  1.00  0.00     0.010 A 
ATOM     42  C   UNL     1      -6.973  -0.657  -2.882  1.00  0.00     0.010 A 
ATOM     43  C   UNL     1      -7.321   0.507  -2.182  1.00  0.00    -0.014 A 
BRANCH  43  44
ATOM     44  C   UNL     1      -6.938   0.551  -0.751  1.00  0.00     0.031 A 
ATOM     45  C   UNL     1      -7.325  -0.600   0.139  1.00  0.00     0.074 A 
ATOM     46  C   UNL     1      -5.931   1.388  -0.370  1.00  0.00     0.049 A 
ATOM     47  N   UNL     1      -6.946  -0.755   1.361  1.00  0.00    -0.248 NA
ATOM     48  C   UNL     1      -8.123  -1.742  -0.312  1.00  0.00     0.031 C 
ATOM     49  C   UNL     1      -5.042   1.239   0.783  1.00  0.00     0.029 A 
ATOM     50  N   UNL     1      -5.397   2.526  -0.951  1.00  0.00    -0.354 N 
ATOM     51  C   UNL     1      -7.063  -2.090   1.694  1.00  0.00     0.074 A 
ATOM     52  C   UNL     1      -7.894  -2.641   0.654  1.00  0.00     0.031 C 
ATOM     53  C   UNL     1      -4.197   2.274   0.899  1.00  0.00     0.029 A 
ATOM     54  C   UNL     1      -4.714   3.277   0.012  1.00  0.00     0.049 A 
ATOM     55  H   UNL     1      -5.486   2.770  -1.901  1.00  0.00     0.167 HD
ATOM     56  C   UNL     1      -6.303  -2.588   2.720  1.00  0.00     0.031 A 
ATOM     57  C   UNL     1      -5.203   4.469   0.476  1.00  0.00     0.031 A 
ATOM     58  C   UNL     1      -5.614  -1.507   3.463  1.00  0.00     0.049 A 
ATOM     59  C   UNL     1      -5.655   4.277   1.935  1.00  0.00     0.074 A 
ATOM     60  C   UNL     1      -4.300  -1.270   3.827  1.00  0.00     0.029 A 
ATOM     61  N   UNL     1      -6.298  -0.321   3.765  1.00  0.00    -0.354 N 
ATOM     62  N   UNL     1      -6.151   3.149   2.404  1.00  0.00    -0.248 NA
ATOM     63  C   UNL     1      -5.294   5.201   3.013  1.00  0.00     0.031 C 
ATOM     64  C   UNL     1      -4.168   0.117   4.133  1.00  0.00     0.029 A 
ATOM     65  C   UNL     1      -5.424   0.706   4.070  1.00  0.00     0.049 A 
ATOM     66  H   UNL     1      -7.279  -0.230   3.760  1.00  0.00     0.167 HD
ATOM     67  C   UNL     1      -5.954   3.101   3.764  1.00  0.00     0.074 A 
ATOM     68  C   UNL     1      -5.506   4.445   4.108  1.00  0.00     0.031 C 
ATOM     69  C   UNL     1      -5.915   1.986   4.564  1.00  0.00     0.031 A 
BRANCH  56  70
ATOM     70  C   UNL     1      -5.973  -4.074   2.925  1.00  0.00    -0.014 A 
ATOM     71  C   UNL     1      -5.069  -4.463   3.938  1.00  0.00     0.009 A 
ATOM     72  C   UNL     1      -6.436  -5.134   2.120  1.00  0.00     0.009 A 
ATOM     73  C   UNL     1      -4.631  -5.790   4.109  1.00  0.00     0.001 A 
ATOM     74  C   UNL     1      -6.030  -6.471   2.305  1.00  0.00     0.001 A 
ATOM     75  C   UNL     1      -5.117  -6.799   3.293  1.00  0.00     0.000 A 
ENDBRANCH  56  70
BRANCH  57  76
ATOM     76  C   UNL     1      -5.742   5.271  -0.671  1.00  0.00    -0.014 A 
ATOM     77  C   UNL     1      -4.747   5.662  -1.607  1.00  0.00     0.009 A 
ATOM     78  C   UNL     1      -7.041   5.052  -1.159  1.00  0.00     0.009 A 
ATOM     79  C   UNL     1      -4.966   5.543  -2.986  1.00  0.00     0.001 A 
ATOM     80  C   UNL     1      -7.266   4.996  -2.550  1.00  0.00     0.001 A 
ATOM     81  C   UNL     1      -6.215   5.159  -3.456  1.00  0.00     0.000 A 
ENDBRANCH  57  76
BRANCH  69  82
ATOM     82  C   UNL     1      -6.317   2.005   6.020  1.00  0.00    -0.014 A 
ATOM     83  C   UNL     1      -7.071   3.041   6.579  1.00  0.00     0.009 A 
ATOM     84  C   UNL     1      -6.161   0.832   6.800  1.00  0.00     0.009 A 
ATOM     85  C   UNL     1      -7.628   2.914   7.855  1.00  0.00     0.001 A 
ATOM     86  C   UNL     1      -6.754   0.684   8.050  1.00  0.00     0.001 A 
ATOM     87  C   UNL     1      -7.486   1.733   8.580  1.00  0.00     0.000 A 
ENDBRANCH  69  82
ENDBRANCH  43  44
ENDBRANCH  36  38
ENDBRANCH  35  36
ENDBRANCH  34  35
ENDBRANCH  33  34
ENDBRANCH  32  33
ENDBRANCH  31  32
ENDBRANCH  30  31
ENDBRANCH  29  30
ENDBRANCH   1  29
TORSDOF 23
