REMARK SMILES Cc1ccc(-c2nn(-c3ccccc3)cc2[C@@H]2[NH2+][C@H](C(=O)OCCOCCOCCOCCOC(=O)c3ccc(-c4c5nc(c(-c6ccccc6)c6ccc([nH]6)c(-c6ccccc6)c6nc(c(-c7ccccc7)c7ccc4[nH]7)C=C6)C=C5)cc3)CS2)cc1
REMARK SMILES IDX 28 1 27 2 26 3 25 4 24 5 23 6 22 7 20 8 21 9 19 10 17 11
REMARK SMILES IDX 18 12 86 13 85 16 16 17 6 18 7 19 8 20 15 21 5 22 1 23 2 24
REMARK SMILES IDX 3 25 88 26 4 27 87 28 9 29 10 30 14 31 11 32 13 33 12 34
REMARK SMILES IDX 29 35 30 36 31 37 32 38 33 39 34 40 35 41 36 42 37 43 38 44
REMARK SMILES IDX 84 45 39 46 83 47 40 48 41 49 42 50 77 51 43 52 82 53 76 54
REMARK SMILES IDX 78 55 44 56 81 57 75 58 74 59 45 61 67 62 52 63 66 64 53 65
REMARK SMILES IDX 56 66 65 67 79 68 54 69 55 70 64 72 80 73 57 74 46 75 47 76
REMARK SMILES IDX 51 77 48 78 50 79 49 80 68 81 69 82 73 83 70 84 72 85 71 86
REMARK SMILES IDX 58 87 59 88 63 89 60 90 62 91 61 92
REMARK H PARENT 18 14 18 15 78 60 56 71
REMARK Flexibility Score: inf
ROOT
ATOM      1  O   UNL     1      -2.997  -4.571   0.961  1.00  0.00    -0.377 OA
ENDROOT
BRANCH   1   2
ATOM      2  C   UNL     1      -3.450  -5.817   1.518  1.00  0.00     0.188 C 
BRANCH   2   3
ATOM      3  C   UNL     1      -4.863  -5.850   2.122  1.00  0.00     0.188 C 
BRANCH   3   4
ATOM      4  O   UNL     1      -5.923  -6.351   1.324  1.00  0.00    -0.376 OA
BRANCH   4   5
ATOM      5  C   UNL     1      -7.045  -5.463   1.185  1.00  0.00     0.202 C 
BRANCH   5   6
ATOM      6  C   UNL     1      -7.651  -4.790   2.440  1.00  0.00     0.261 C 
BRANCH   6   7
ATOM      7  O   UNL     1      -6.910  -3.580   2.715  1.00  0.00    -0.459 OA
BRANCH   7   8
ATOM      8  C   UNL     1      -6.158  -3.410   3.829  1.00  0.00     0.365 C 
ATOM      9  O   UNL     1      -6.332  -3.999   4.886  1.00  0.00    -0.245 OA
BRANCH   8  10
ATOM     10  C   UNL     1      -4.918  -2.526   3.500  1.00  0.00     0.304 C 
ATOM     11  C   UNL     1      -3.825  -1.460   1.568  1.00  0.00     0.278 C 
ATOM     12  N   UNL     1      -4.634  -2.574   2.026  1.00  0.00    -0.319 N 
ATOM     13  S   UNL     1      -4.011  -0.142   2.875  1.00  0.00    -0.087 SA
ATOM     14  H   UNL     1      -4.141  -3.442   1.817  1.00  0.00     0.348 HD
ATOM     15  H   UNL     1      -5.530  -2.519   1.541  1.00  0.00     0.348 HD
ATOM     16  C   UNL     1      -5.077  -1.106   3.980  1.00  0.00     0.153 C 
BRANCH  11  17
ATOM     17  C   UNL     1      -3.962  -0.885  -0.092  1.00  0.00     0.067 A 
ATOM     18  C   UNL     1      -3.401   0.986   0.053  1.00  0.00     0.103 A 
ATOM     19  N   UNL     1      -4.361   1.966  -0.968  1.00  0.00    -0.167 NA
ATOM     20  N   UNL     1      -5.557   0.916  -1.954  1.00  0.00    -0.240 N 
ATOM     21  C   UNL     1      -5.175  -0.915  -1.541  1.00  0.00     0.126 A 
BRANCH  18  22
ATOM     22  C   UNL     1      -1.821   1.192   0.431  1.00  0.00     0.003 A 
ATOM     23  C   UNL     1       2.567   0.594   0.038  1.00  0.00     0.044 C 
ATOM     24  C   UNL     1       1.108   0.887   0.277  1.00  0.00    -0.051 A 
ATOM     25  C   UNL     1       0.324  -0.116   0.792  1.00  0.00     0.004 A 
ATOM     26  C   UNL     1       0.442   2.073  -0.087  1.00  0.00     0.004 A 
ATOM     27  C   UNL     1      -1.066   0.075   0.907  1.00  0.00     0.011 A 
ATOM     28  C   UNL     1      -0.999   2.221  -0.032  1.00  0.00     0.011 A 
ENDBRANCH  18  22
BRANCH  20  29
ATOM     29  C   UNL     1      -6.604   1.534  -2.780  1.00  0.00     0.065 A 
ATOM     30  C   UNL     1      -7.236   0.831  -3.812  1.00  0.00     0.028 A 
ATOM     31  C   UNL     1      -7.074   2.808  -2.443  1.00  0.00     0.028 A 
ATOM     32  C   UNL     1      -8.402   1.324  -4.396  1.00  0.00     0.002 A 
ATOM     33  C   UNL     1      -8.331   3.212  -2.909  1.00  0.00     0.002 A 
ATOM     34  C   UNL     1      -9.002   2.461  -3.872  1.00  0.00     0.000 A 
ENDBRANCH  20  29
ENDBRANCH  11  17
ENDBRANCH   8  10
ENDBRANCH   7   8
ENDBRANCH   6   7
ENDBRANCH   5   6
ENDBRANCH   4   5
ENDBRANCH   3   4
ENDBRANCH   2   3
ENDBRANCH   1   2
BRANCH   1  35
ATOM     35  C   UNL     1      -3.620  -4.098  -0.231  1.00  0.00     0.188 C 
BRANCH  35  36
ATOM     36  C   UNL     1      -3.377  -4.858  -1.487  1.00  0.00     0.188 C 
BRANCH  36  37
ATOM     37  O   UNL     1      -4.022  -6.110  -1.366  1.00  0.00    -0.376 OA
BRANCH  37  38
ATOM     38  C   UNL     1      -3.235  -7.220  -1.764  1.00  0.00     0.202 C 
BRANCH  38  39
ATOM     39  C   UNL     1      -2.698  -7.096  -3.192  1.00  0.00     0.261 C 
BRANCH  39  40
ATOM     40  O   UNL     1      -3.817  -7.007  -4.099  1.00  0.00    -0.460 OA
BRANCH  40  41
ATOM     41  C   UNL     1      -4.034  -5.775  -4.639  1.00  0.00     0.338 C 
ATOM     42  O   UNL     1      -3.195  -5.119  -5.234  1.00  0.00    -0.246 OA
BRANCH  41  43
ATOM     43  C   UNL     1      -5.349  -5.224  -4.171  1.00  0.00     0.060 A 
ATOM     44  C   UNL     1      -5.647  -3.872  -4.371  1.00  0.00     0.016 A 
ATOM     45  C   UNL     1      -6.102  -5.938  -3.242  1.00  0.00     0.016 A 
ATOM     46  C   UNL     1      -6.562  -3.218  -3.520  1.00  0.00     0.010 A 
ATOM     47  C   UNL     1      -6.904  -5.253  -2.331  1.00  0.00     0.010 A 
ATOM     48  C   UNL     1      -7.110  -3.870  -2.406  1.00  0.00    -0.014 A 
BRANCH  48  49
ATOM     49  C   UNL     1      -7.945  -3.224  -1.339  1.00  0.00     0.031 A 
ATOM     50  C   UNL     1      -9.367  -3.627  -1.248  1.00  0.00     0.074 A 
ATOM     51  C   UNL     1      -7.463  -2.520  -0.268  1.00  0.00     0.049 A 
ATOM     52  N   UNL     1     -10.236  -3.040  -0.504  1.00  0.00    -0.248 NA
ATOM     53  C   UNL     1      -9.900  -4.852  -1.842  1.00  0.00     0.031 C 
ATOM     54  C   UNL     1      -8.054  -1.904   0.901  1.00  0.00     0.029 A 
ATOM     55  N   UNL     1      -6.182  -2.142   0.022  1.00  0.00    -0.354 N 
ATOM     56  C   UNL     1     -11.065  -4.039  -0.052  1.00  0.00     0.074 A 
ATOM     57  C   UNL     1     -10.957  -5.073  -1.053  1.00  0.00     0.031 C 
ATOM     58  C   UNL     1      -7.297  -0.890   1.396  1.00  0.00     0.029 A 
ATOM     59  C   UNL     1      -6.178  -0.741   0.477  1.00  0.00     0.049 A 
ATOM     60  H   UNL     1      -5.386  -2.716  -0.060  1.00  0.00     0.167 HD
ATOM     61  C   UNL     1     -11.536  -3.962   1.230  1.00  0.00     0.031 A 
ATOM     62  C   UNL     1      -5.344   0.399  -0.205  1.00  0.00     0.031 A 
ATOM     63  C   UNL     1     -11.225  -2.653   1.886  1.00  0.00     0.049 A 
ATOM     64  C   UNL     1      -6.921   1.274   0.038  1.00  0.00     0.074 A 
ATOM     65  C   UNL     1     -10.752  -2.270   3.134  1.00  0.00     0.029 A 
ATOM     66  N   UNL     1     -11.174  -1.470   1.112  1.00  0.00    -0.354 N 
ATOM     67  N   UNL     1      -8.139   0.748  -0.220  1.00  0.00    -0.248 NA
ATOM     68  C   UNL     1      -7.088   2.510   0.825  1.00  0.00     0.031 C 
ATOM     69  C   UNL     1     -10.292  -0.910   3.045  1.00  0.00     0.029 A 
ATOM     70  C   UNL     1     -10.448  -0.453   1.733  1.00  0.00     0.049 A 
ATOM     71  H   UNL     1     -11.603  -1.374   0.231  1.00  0.00     0.167 HD
ATOM     72  C   UNL     1      -9.141   1.389   0.536  1.00  0.00     0.074 A 
ATOM     73  C   UNL     1      -8.427   2.571   1.037  1.00  0.00     0.031 C 
ATOM     74  C   UNL     1     -10.319   0.886   1.110  1.00  0.00     0.031 A 
BRANCH  61  75
ATOM     75  C   UNL     1     -12.079  -5.181   1.982  1.00  0.00    -0.014 A 
ATOM     76  C   UNL     1     -12.664  -5.016   3.250  1.00  0.00     0.009 A 
ATOM     77  C   UNL     1     -11.986  -6.522   1.542  1.00  0.00     0.009 A 
ATOM     78  C   UNL     1     -13.126  -6.100   4.019  1.00  0.00     0.001 A 
ATOM     79  C   UNL     1     -12.488  -7.608   2.283  1.00  0.00     0.001 A 
ATOM     80  C   UNL     1     -13.053  -7.397   3.529  1.00  0.00     0.000 A 
ENDBRANCH  61  75
BRANCH  62  81
ATOM     81  C   UNL     1      -3.812   0.247  -1.748  1.00  0.00    -0.014 A 
ATOM     82  C   UNL     1      -2.430  -0.506  -1.803  1.00  0.00     0.009 A 
ATOM     83  C   UNL     1      -3.987   0.122  -3.362  1.00  0.00     0.009 A 
ATOM     84  C   UNL     1      -1.658  -1.143  -2.856  1.00  0.00     0.001 A 
ATOM     85  C   UNL     1      -3.283  -0.583  -4.404  1.00  0.00     0.001 A 
ATOM     86  C   UNL     1      -2.118  -1.237  -4.142  1.00  0.00     0.000 A 
ENDBRANCH  62  81
BRANCH  74  87
ATOM     87  C   UNL     1     -11.624   1.689   1.230  1.00  0.00    -0.014 A 
ATOM     88  C   UNL     1     -11.833   2.933   0.641  1.00  0.00     0.009 A 
ATOM     89  C   UNL     1     -12.779   1.066   1.796  1.00  0.00     0.009 A 
ATOM     90  C   UNL     1     -13.117   3.510   0.620  1.00  0.00     0.001 A 
ATOM     91  C   UNL     1     -14.060   1.610   1.735  1.00  0.00     0.001 A 
ATOM     92  C   UNL     1     -14.227   2.845   1.146  1.00  0.00     0.000 A 
ENDBRANCH  74  87
ENDBRANCH  48  49
ENDBRANCH  41  43
ENDBRANCH  40  41
ENDBRANCH  39  40
ENDBRANCH  38  39
ENDBRANCH  37  38
ENDBRANCH  36  37
ENDBRANCH  35  36
ENDBRANCH   1  35
TORSDOF 23
