REMARK SMILES CC(=O)N[C@@H](Cc1c(OCC(C)C)ccc2ccccc12)C(=O)OCCOCCOCCOCCOC(=O)c1ccc(-c2c3nc(c(-c4ccccc4)c4ccc([nH]4)c(-c4ccccc4)c4nc(c(-c5ccccc5)c5ccc2[nH]5)C=C4)C=C3)cc1
REMARK SMILES IDX 28 1 27 2 26 3 25 4 24 5 22 6 23 7 5 8 4 9 1 10 2 11 3 12
REMARK SMILES IDX 6 14 7 15 8 16 21 17 14 18 16 19 20 20 15 21 17 22 19 23
REMARK SMILES IDX 18 24 9 25 10 26 11 27 12 28 13 29 29 30 30 31 31 32 32 33
REMARK SMILES IDX 33 34 34 35 35 36 36 37 37 38 38 39 39 40 40 41 86 42 41 43
REMARK SMILES IDX 85 44 42 45 43 46 44 47 79 48 45 49 84 50 78 51 80 52 46 53
REMARK SMILES IDX 83 54 77 55 76 56 47 58 69 59 54 60 68 61 55 62 58 63 67 64
REMARK SMILES IDX 81 65 56 66 57 67 66 69 82 70 59 71 48 72 49 73 53 74 50 75
REMARK SMILES IDX 52 76 51 77 70 78 71 79 75 80 72 81 74 82 73 83 60 84 61 85
REMARK SMILES IDX 65 86 62 87 64 88 63 89
REMARK H PARENT 4 13 80 57 58 68
REMARK Flexibility Score: inf
ROOT
ATOM      1  C   UNL     1      -0.928  -2.317   3.198  1.00  0.00     0.188 C 
ENDROOT
BRANCH   1   2
ATOM      2  O   UNL     1      -1.094  -3.046   4.407  1.00  0.00    -0.376 OA
BRANCH   2   3
ATOM      3  C   UNL     1      -0.814  -2.432   5.652  1.00  0.00     0.202 C 
BRANCH   3   4
ATOM      4  C   UNL     1       0.488  -1.657   5.857  1.00  0.00     0.261 C 
BRANCH   4   5
ATOM      5  O   UNL     1       0.879  -0.741   4.817  1.00  0.00    -0.462 OA
BRANCH   5   6
ATOM      6  C   UNL     1       1.946  -1.098   4.062  1.00  0.00     0.329 C 
ATOM      7  O   UNL     1       2.543  -2.166   4.172  1.00  0.00    -0.250 OA
BRANCH   6   8
ATOM      8  C   UNL     1       2.468   0.031   3.157  1.00  0.00     0.196 C 
BRANCH   8   9
ATOM      9  N   UNL     1       1.531   1.044   2.652  1.00  0.00    -0.343 N 
ATOM     10  C   UNL     1       1.320   0.142   0.356  1.00  0.00     0.114 C 
ATOM     11  C   UNL     1       1.016   1.192   1.394  1.00  0.00     0.217 C 
ATOM     12  O   UNL     1       0.280   2.143   1.138  1.00  0.00    -0.275 OA
ATOM     13  H   UNL     1       1.231   1.710   3.312  1.00  0.00     0.164 HD
ENDBRANCH   8   9
BRANCH   8  14
ATOM     14  C   UNL     1       3.675   0.685   3.865  1.00  0.00     0.077 C 
BRANCH  14  15
ATOM     15  C   UNL     1       3.364   1.628   5.032  1.00  0.00     0.005 A 
ATOM     16  C   UNL     1       3.287   3.019   4.783  1.00  0.00     0.123 A 
ATOM     17  C   UNL     1       3.129   1.142   6.365  1.00  0.00    -0.011 A 
ATOM     18  C   UNL     1       3.167   3.897   5.853  1.00  0.00     0.047 A 
ATOM     19  C   UNL     1       2.721   2.064   7.358  1.00  0.00    -0.018 A 
ATOM     20  C   UNL     1       3.242  -0.203   6.790  1.00  0.00     0.009 A 
ATOM     21  C   UNL     1       2.812   3.429   7.110  1.00  0.00     0.012 A 
ATOM     22  C   UNL     1       2.236   1.628   8.601  1.00  0.00     0.009 A 
ATOM     23  C   UNL     1       2.787  -0.631   8.045  1.00  0.00     0.001 A 
ATOM     24  C   UNL     1       2.230   0.280   8.929  1.00  0.00     0.001 A 
BRANCH  16  25
ATOM     25  O   UNL     1       3.249   3.423   3.474  1.00  0.00    -0.493 OA
BRANCH  25  26
ATOM     26  C   UNL     1       3.263   4.819   3.156  1.00  0.00     0.232 C 
BRANCH  26  27
ATOM     27  C   UNL     1       1.883   5.519   3.065  1.00  0.00     0.020 C 
ATOM     28  C   UNL     1       1.021   5.503   4.329  1.00  0.00     0.011 C 
ATOM     29  C   UNL     1       2.104   6.980   2.653  1.00  0.00     0.011 C 
ENDBRANCH  26  27
ENDBRANCH  25  26
ENDBRANCH  16  25
ENDBRANCH  14  15
ENDBRANCH   8  14
ENDBRANCH   6   8
ENDBRANCH   5   6
ENDBRANCH   4   5
ENDBRANCH   3   4
ENDBRANCH   2   3
ENDBRANCH   1   2
BRANCH   1  30
ATOM     30  C   UNL     1      -1.325  -0.829   3.105  1.00  0.00     0.188 C 
BRANCH  30  31
ATOM     31  O   UNL     1      -1.662  -0.208   4.332  1.00  0.00    -0.377 OA
BRANCH  31  32
ATOM     32  C   UNL     1      -3.047  -0.102   4.626  1.00  0.00     0.188 C 
BRANCH  32  33
ATOM     33  C   UNL     1      -3.921  -1.328   4.301  1.00  0.00     0.188 C 
BRANCH  33  34
ATOM     34  O   UNL     1      -3.765  -1.808   2.973  1.00  0.00    -0.376 OA
BRANCH  34  35
ATOM     35  C   UNL     1      -4.669  -1.380   1.966  1.00  0.00     0.202 C 
BRANCH  35  36
ATOM     36  C   UNL     1      -4.718   0.117   1.609  1.00  0.00     0.261 C 
BRANCH  36  37
ATOM     37  O   UNL     1      -5.016   1.027   2.679  1.00  0.00    -0.460 OA
BRANCH  37  38
ATOM     38  C   UNL     1      -6.158   0.842   3.364  1.00  0.00     0.338 C 
ATOM     39  O   UNL     1      -7.035   0.023   3.128  1.00  0.00    -0.246 OA
BRANCH  38  40
ATOM     40  C   UNL     1      -6.096   1.652   4.598  1.00  0.00     0.060 A 
ATOM     41  C   UNL     1      -6.258   1.004   5.829  1.00  0.00     0.016 A 
ATOM     42  C   UNL     1      -5.905   3.036   4.549  1.00  0.00     0.016 A 
ATOM     43  C   UNL     1      -6.300   1.743   7.007  1.00  0.00     0.010 A 
ATOM     44  C   UNL     1      -5.970   3.781   5.731  1.00  0.00     0.010 A 
ATOM     45  C   UNL     1      -6.220   3.141   6.957  1.00  0.00    -0.014 A 
BRANCH  45  46
ATOM     46  C   UNL     1      -6.623   3.911   8.158  1.00  0.00     0.031 A 
ATOM     47  C   UNL     1      -8.031   4.442   8.229  1.00  0.00     0.074 A 
ATOM     48  C   UNL     1      -5.794   4.051   9.207  1.00  0.00     0.049 A 
ATOM     49  N   UNL     1      -8.636   5.067   9.207  1.00  0.00    -0.248 NA
ATOM     50  C   UNL     1      -8.872   4.234   7.038  1.00  0.00     0.031 C 
ATOM     51  C   UNL     1      -4.427   3.538   9.280  1.00  0.00     0.029 A 
ATOM     52  N   UNL     1      -5.996   4.655  10.422  1.00  0.00    -0.354 N 
ATOM     53  C   UNL     1      -9.923   5.326   8.749  1.00  0.00     0.074 A 
ATOM     54  C   UNL     1     -10.000   4.828   7.394  1.00  0.00     0.031 C 
ATOM     55  C   UNL     1      -3.914   3.842  10.485  1.00  0.00     0.029 A 
ATOM     56  C   UNL     1      -4.906   4.592  11.254  1.00  0.00     0.049 A 
ATOM     57  H   UNL     1      -6.841   5.093  10.673  1.00  0.00     0.167 HD
ATOM     58  C   UNL     1     -10.953   5.917   9.400  1.00  0.00     0.031 A 
ATOM     59  C   UNL     1      -4.729   5.089  12.493  1.00  0.00     0.031 A 
ATOM     60  C   UNL     1     -10.871   6.431  10.741  1.00  0.00     0.049 A 
ATOM     61  C   UNL     1      -5.867   5.811  13.167  1.00  0.00     0.074 A 
ATOM     62  C   UNL     1     -11.860   7.041  11.493  1.00  0.00     0.029 A 
ATOM     63  N   UNL     1      -9.730   6.404  11.527  1.00  0.00    -0.354 N 
ATOM     64  N   UNL     1      -7.087   6.024  12.735  1.00  0.00    -0.248 NA
ATOM     65  C   UNL     1      -5.604   6.345  14.511  1.00  0.00     0.031 C 
ATOM     66  C   UNL     1     -11.297   7.445  12.709  1.00  0.00     0.029 A 
ATOM     67  C   UNL     1      -9.980   7.016  12.745  1.00  0.00     0.049 A 
ATOM     68  H   UNL     1      -8.868   6.010  11.260  1.00  0.00     0.167 HD
ATOM     69  C   UNL     1      -7.745   6.689  13.764  1.00  0.00     0.074 A 
ATOM     70  C   UNL     1      -6.794   6.818  14.850  1.00  0.00     0.031 C 
ATOM     71  C   UNL     1      -9.020   7.150  13.811  1.00  0.00     0.031 A 
BRANCH  58  72
ATOM     72  C   UNL     1     -12.247   6.075   8.648  1.00  0.00    -0.014 A 
ATOM     73  C   UNL     1     -13.048   4.968   8.321  1.00  0.00     0.009 A 
ATOM     74  C   UNL     1     -12.684   7.357   8.281  1.00  0.00     0.009 A 
ATOM     75  C   UNL     1     -14.240   5.141   7.613  1.00  0.00     0.001 A 
ATOM     76  C   UNL     1     -13.891   7.530   7.602  1.00  0.00     0.001 A 
ATOM     77  C   UNL     1     -14.663   6.421   7.260  1.00  0.00     0.000 A 
ENDBRANCH  58  72
BRANCH  59  78
ATOM     78  C   UNL     1      -3.419   4.934  13.182  1.00  0.00    -0.014 A 
ATOM     79  C   UNL     1      -3.298   4.143  14.335  1.00  0.00     0.009 A 
ATOM     80  C   UNL     1      -2.285   5.609  12.703  1.00  0.00     0.009 A 
ATOM     81  C   UNL     1      -2.078   4.057  15.010  1.00  0.00     0.001 A 
ATOM     82  C   UNL     1      -1.059   5.495  13.360  1.00  0.00     0.001 A 
ATOM     83  C   UNL     1      -0.959   4.728  14.519  1.00  0.00     0.000 A 
ENDBRANCH  59  78
BRANCH  71  84
ATOM     84  C   UNL     1      -9.466   7.801  15.094  1.00  0.00    -0.014 A 
ATOM     85  C   UNL     1      -8.941   9.033  15.516  1.00  0.00     0.009 A 
ATOM     86  C   UNL     1     -10.433   7.169  15.892  1.00  0.00     0.009 A 
ATOM     87  C   UNL     1      -9.330   9.586  16.738  1.00  0.00     0.001 A 
ATOM     88  C   UNL     1     -10.849   7.743  17.094  1.00  0.00     0.001 A 
ATOM     89  C   UNL     1     -10.285   8.942  17.524  1.00  0.00     0.000 A 
ENDBRANCH  71  84
ENDBRANCH  45  46
ENDBRANCH  38  40
ENDBRANCH  37  38
ENDBRANCH  36  37
ENDBRANCH  35  36
ENDBRANCH  34  35
ENDBRANCH  33  34
ENDBRANCH  32  33
ENDBRANCH  31  32
ENDBRANCH  30  31
ENDBRANCH   1  30
TORSDOF 26
