REMARK SMILES O=C(C[C@@H]1C(=O)NCCN1C(=O)OCC1c2ccccc2-c2ccccc21)OCCOCCOCCOCCOC(=O)c1ccc(-c2c3nc(c(-c4ccccc4)c4ccc([nH]4)c(-c4ccccc4)c4nc(c(-c5ccccc5)c5ccc2[nH]5)C=C4)C=C3)cc1
REMARK SMILES IDX 32 1 31 2 30 3 29 4 28 5 2 6 1 7 3 8 4 9 5 10 10 11 6 12
REMARK SMILES IDX 7 13 9 14 8 15 11 17 12 18 13 19 14 20 15 21 16 22 27 23
REMARK SMILES IDX 17 24 21 25 22 26 26 27 18 28 20 29 23 30 25 31 19 32 24 33
REMARK SMILES IDX 33 34 34 35 35 36 36 37 37 38 38 39 39 40 40 41 41 42 42 43
REMARK SMILES IDX 43 44 44 45 90 46 45 47 89 48 46 49 47 50 48 51 83 52 49 53
REMARK SMILES IDX 88 54 82 55 84 56 50 57 87 58 81 59 80 60 51 62 73 63 58 64
REMARK SMILES IDX 72 65 59 66 62 67 71 68 85 69 60 70 61 71 70 73 86 74 63 75
REMARK SMILES IDX 52 76 53 77 57 78 54 79 56 80 55 81 74 82 75 83 79 84 76 85
REMARK SMILES IDX 78 86 77 87 64 88 65 89 69 90 66 91 68 92 67 93
REMARK H PARENT 7 16 84 61 62 72
REMARK Flexibility Score: inf
ROOT
ATOM      1  C   UNL     1       5.121  -1.097   0.382  1.00  0.00     0.188 C 
ENDROOT
BRANCH   1   2
ATOM      2  O   UNL     1       5.914   0.071  -0.006  1.00  0.00    -0.376 OA
BRANCH   2   3
ATOM      3  C   UNL     1       5.632   1.524   0.188  1.00  0.00     0.202 C 
BRANCH   3   4
ATOM      4  C   UNL     1       4.454   2.692  -0.592  1.00  0.00     0.261 C 
BRANCH   4   5
ATOM      5  O   UNL     1       2.979   2.351  -1.517  1.00  0.00    -0.463 OA
BRANCH   5   6
ATOM      6  C   UNL     1       2.068   1.423  -2.144  1.00  0.00     0.308 C 
ATOM      7  O   UNL     1       1.030   1.914  -2.613  1.00  0.00    -0.252 OA
BRANCH   6   8
ATOM      8  C   UNL     1       2.126  -0.310  -2.184  1.00  0.00     0.158 C 
BRANCH   8   9
ATOM      9  C   UNL     1       3.335  -1.186  -2.731  1.00  0.00     0.189 C 
ATOM     10  C   UNL     1       3.677  -2.681  -2.287  1.00  0.00     0.243 C 
ATOM     11  N   UNL     1       4.532  -0.547  -2.380  1.00  0.00    -0.294 N 
ATOM     12  O   UNL     1       2.813  -3.524  -2.051  1.00  0.00    -0.273 OA
ATOM     13  N   UNL     1       5.025  -3.109  -2.329  1.00  0.00    -0.353 N 
ATOM     14  C   UNL     1       5.797  -0.891  -3.021  1.00  0.00     0.145 C 
ATOM     15  C   UNL     1       6.202  -2.236  -2.467  1.00  0.00     0.137 C 
ATOM     16  H   UNL     1       5.191  -4.077  -2.260  1.00  0.00     0.163 HD
BRANCH  11  17
ATOM     17  C   UNL     1       4.408   0.586  -1.690  1.00  0.00     0.410 C 
ATOM     18  O   UNL     1       4.984   1.499  -2.301  1.00  0.00    -0.224 OA
BRANCH  17  19
ATOM     19  O   UNL     1       3.504   0.563  -0.341  1.00  0.00    -0.448 OA
BRANCH  19  20
ATOM     20  C   UNL     1       2.669   1.478   0.949  1.00  0.00     0.248 C 
BRANCH  20  21
ATOM     21  C   UNL     1       3.314   2.114   2.422  1.00  0.00     0.088 C 
ATOM     22  C   UNL     1       2.740   3.607   2.764  1.00  0.00    -0.029 A 
ATOM     23  C   UNL     1       3.192   1.481   3.871  1.00  0.00    -0.029 A 
ATOM     24  C   UNL     1       3.002   4.757   2.006  1.00  0.00     0.005 A 
ATOM     25  C   UNL     1       2.195   3.794   4.083  1.00  0.00    -0.014 A 
ATOM     26  C   UNL     1       2.178   2.557   4.844  1.00  0.00    -0.014 A 
ATOM     27  C   UNL     1       3.923   0.061   4.710  1.00  0.00     0.005 A 
ATOM     28  C   UNL     1       2.870   6.034   2.566  1.00  0.00     0.000 A 
ATOM     29  C   UNL     1       2.061   5.077   4.628  1.00  0.00     0.009 A 
ATOM     30  C   UNL     1       1.788   2.201   6.565  1.00  0.00     0.009 A 
ATOM     31  C   UNL     1       3.486  -0.425   6.465  1.00  0.00     0.000 A 
ATOM     32  C   UNL     1       2.439   6.193   3.880  1.00  0.00     0.001 A 
ATOM     33  C   UNL     1       2.410   0.711   7.383  1.00  0.00     0.001 A 
ENDBRANCH  20  21
ENDBRANCH  19  20
ENDBRANCH  17  19
ENDBRANCH  11  17
ENDBRANCH   8   9
ENDBRANCH   6   8
ENDBRANCH   5   6
ENDBRANCH   4   5
ENDBRANCH   3   4
ENDBRANCH   2   3
ENDBRANCH   1   2
BRANCH   1  34
ATOM     34  C   UNL     1       4.304  -1.062   1.612  1.00  0.00     0.188 C 
BRANCH  34  35
ATOM     35  O   UNL     1       5.159  -0.418   2.509  1.00  0.00    -0.377 OA
BRANCH  35  36
ATOM     36  C   UNL     1       5.983  -1.343   3.213  1.00  0.00     0.188 C 
BRANCH  36  37
ATOM     37  C   UNL     1       5.198  -2.440   4.097  1.00  0.00     0.188 C 
BRANCH  37  38
ATOM     38  O   UNL     1       3.749  -2.613   3.827  1.00  0.00    -0.376 OA
BRANCH  38  39
ATOM     39  C   UNL     1       2.669  -2.313   4.791  1.00  0.00     0.202 C 
BRANCH  39  40
ATOM     40  C   UNL     1       1.756  -0.845   4.914  1.00  0.00     0.261 C 
BRANCH  40  41
ATOM     41  O   UNL     1       2.380   0.731   5.456  1.00  0.00    -0.460 OA
BRANCH  41  42
ATOM     42  C   UNL     1       3.944   1.606   6.100  1.00  0.00     0.338 C 
ATOM     43  O   UNL     1       4.909   1.096   6.760  1.00  0.00    -0.246 OA
BRANCH  42  44
ATOM     44  C   UNL     1       4.517   2.952   5.878  1.00  0.00     0.060 A 
ATOM     45  C   UNL     1       5.652   3.014   5.037  1.00  0.00     0.016 A 
ATOM     46  C   UNL     1       4.272   3.934   6.835  1.00  0.00     0.016 A 
ATOM     47  C   UNL     1       6.488   4.103   5.098  1.00  0.00     0.010 A 
ATOM     48  C   UNL     1       5.016   5.082   6.792  1.00  0.00     0.010 A 
ATOM     49  C   UNL     1       6.133   5.152   5.942  1.00  0.00    -0.014 A 
BRANCH  49  50
ATOM     50  C   UNL     1       6.927   6.373   6.019  1.00  0.00     0.031 A 
ATOM     51  C   UNL     1       7.452   6.758   7.360  1.00  0.00     0.074 A 
ATOM     52  C   UNL     1       6.914   7.169   4.941  1.00  0.00     0.049 A 
ATOM     53  N   UNL     1       7.777   7.937   7.802  1.00  0.00    -0.248 NA
ATOM     54  C   UNL     1       7.512   5.685   8.373  1.00  0.00     0.031 C 
ATOM     55  C   UNL     1       6.382   6.813   3.620  1.00  0.00     0.029 A 
ATOM     56  N   UNL     1       7.300   8.467   4.808  1.00  0.00    -0.354 N 
ATOM     57  C   UNL     1       8.020   7.760   9.157  1.00  0.00     0.074 A 
ATOM     58  C   UNL     1       7.725   6.383   9.477  1.00  0.00     0.031 C 
ATOM     59  C   UNL     1       6.462   7.877   2.811  1.00  0.00     0.029 A 
ATOM     60  C   UNL     1       6.981   8.993   3.582  1.00  0.00     0.049 A 
ATOM     61  H   UNL     1       7.758   8.975   5.516  1.00  0.00     0.167 HD
ATOM     62  C   UNL     1       8.471   8.682  10.035  1.00  0.00     0.031 A 
ATOM     63  C   UNL     1       7.068  10.262   3.159  1.00  0.00     0.031 A 
ATOM     64  C   UNL     1       8.764  10.029   9.627  1.00  0.00     0.049 A 
ATOM     65  C   UNL     1       7.595  11.263   4.139  1.00  0.00     0.074 A 
ATOM     66  C   UNL     1       9.318  11.061  10.355  1.00  0.00     0.029 A 
ATOM     67  N   UNL     1       8.528  10.517   8.342  1.00  0.00    -0.354 N 
ATOM     68  N   UNL     1       7.886  11.095   5.410  1.00  0.00    -0.248 NA
ATOM     69  C   UNL     1       7.838  12.611   3.628  1.00  0.00     0.031 C 
ATOM     70  C   UNL     1       9.374  12.186   9.522  1.00  0.00     0.029 A 
ATOM     71  C   UNL     1       8.916  11.838   8.257  1.00  0.00     0.049 A 
ATOM     72  H   UNL     1       8.141   9.994   7.604  1.00  0.00     0.167 HD
ATOM     73  C   UNL     1       8.397  12.306   5.845  1.00  0.00     0.074 A 
ATOM     74  C   UNL     1       8.373  13.193   4.692  1.00  0.00     0.031 C 
ATOM     75  C   UNL     1       8.857  12.662   7.072  1.00  0.00     0.031 A 
BRANCH  62  76
ATOM     76  C   UNL     1       8.657   8.247  11.464  1.00  0.00    -0.014 A 
ATOM     77  C   UNL     1       9.561   7.225  11.808  1.00  0.00     0.009 A 
ATOM     78  C   UNL     1       7.892   8.833  12.483  1.00  0.00     0.009 A 
ATOM     79  C   UNL     1       9.642   6.753  13.120  1.00  0.00     0.001 A 
ATOM     80  C   UNL     1       8.004   8.387  13.803  1.00  0.00     0.001 A 
ATOM     81  C   UNL     1       8.865   7.337  14.118  1.00  0.00     0.000 A 
ENDBRANCH  62  76
BRANCH  63  82
ATOM     82  C   UNL     1       6.719  10.595   1.757  1.00  0.00    -0.014 A 
ATOM     83  C   UNL     1       7.740  10.858   0.832  1.00  0.00     0.009 A 
ATOM     84  C   UNL     1       5.389  10.565   1.309  1.00  0.00     0.009 A 
ATOM     85  C   UNL     1       7.436  11.114  -0.506  1.00  0.00     0.001 A 
ATOM     86  C   UNL     1       5.090  10.794  -0.037  1.00  0.00     0.001 A 
ATOM     87  C   UNL     1       6.112  11.078  -0.941  1.00  0.00     0.000 A 
ENDBRANCH  63  82
BRANCH  75  88
ATOM     88  C   UNL     1       9.410  14.050   7.188  1.00  0.00    -0.014 A 
ATOM     89  C   UNL     1       8.572  15.174   7.156  1.00  0.00     0.009 A 
ATOM     90  C   UNL     1      10.790  14.222   7.372  1.00  0.00     0.009 A 
ATOM     91  C   UNL     1       9.116  16.452   7.267  1.00  0.00     0.001 A 
ATOM     92  C   UNL     1      11.324  15.498   7.525  1.00  0.00     0.001 A 
ATOM     93  C   UNL     1      10.489  16.612   7.459  1.00  0.00     0.000 A 
ENDBRANCH  75  88
ENDBRANCH  49  50
ENDBRANCH  42  44
ENDBRANCH  41  42
ENDBRANCH  40  41
ENDBRANCH  39  40
ENDBRANCH  38  39
ENDBRANCH  37  38
ENDBRANCH  36  37
ENDBRANCH  35  36
ENDBRANCH  34  35
ENDBRANCH   1  34
TORSDOF 25
