REMARK SMILES C[C@@H](Cc1cccs1)[NH2+][C@H](C)[C@@H](C)C(=O)OCCOCCOCCOCCOC(=O)c1ccc(-c2c3nc(c(-c4ccccc4)c4ccc([nH]4)c(-c4ccccc4)c4nc(c(-c5ccccc5)c5ccc2[nH]5)C=C4)C=C3)cc1
REMARK SMILES IDX 20 1 19 2 18 3 17 4 16 5 14 6 15 7 12 8 13 9 10 10 11 11
REMARK SMILES IDX 9 12 2 15 1 16 3 17 4 18 5 19 8 20 6 21 7 22 21 23 22 24
REMARK SMILES IDX 23 25 24 26 25 27 26 28 27 29 28 30 29 31 30 32 31 33 32 34
REMARK SMILES IDX 78 35 33 36 77 37 34 38 35 39 36 40 71 41 37 42 76 43 70 44
REMARK SMILES IDX 72 45 38 46 75 47 69 48 68 49 39 51 61 52 46 53 60 54 47 55
REMARK SMILES IDX 50 56 59 57 73 58 48 59 49 60 58 62 74 63 51 64 40 65 41 66
REMARK SMILES IDX 45 67 42 68 44 69 43 70 62 71 63 72 67 73 64 74 66 75 65 76
REMARK SMILES IDX 52 77 53 78 57 79 54 80 56 81 55 82
REMARK H PARENT 9 13 9 14 72 50 50 61
REMARK Flexibility Score: inf
ROOT
ATOM      1  C   UNL     1      -3.035   0.163  -6.222  1.00  0.00     0.188 C 
ENDROOT
BRANCH   1   2
ATOM      2  O   UNL     1      -3.742   0.995  -7.116  1.00  0.00    -0.376 OA
BRANCH   2   3
ATOM      3  C   UNL     1      -4.587   2.022  -6.645  1.00  0.00     0.202 C 
BRANCH   3   4
ATOM      4  C   UNL     1      -4.395   2.788  -5.321  1.00  0.00     0.261 C 
BRANCH   4   5
ATOM      5  O   UNL     1      -3.632   2.215  -4.246  1.00  0.00    -0.463 OA
BRANCH   5   6
ATOM      6  C   UNL     1      -4.230   1.285  -3.463  1.00  0.00     0.314 C 
ATOM      7  O   UNL     1      -5.355   0.845  -3.673  1.00  0.00    -0.252 OA
BRANCH   6   8
ATOM      8  C   UNL     1      -3.428   0.950  -2.203  1.00  0.00     0.154 C 
ATOM      9  C   UNL     1      -3.714   2.116  -1.245  1.00  0.00     0.026 C 
BRANCH   8  10
ATOM     10  C   UNL     1      -1.897   0.667  -2.337  1.00  0.00     0.193 C 
ATOM     11  C   UNL     1      -1.169   0.677  -0.978  1.00  0.00     0.076 C 
BRANCH  10  12
ATOM     12  N   UNL     1      -1.420  -0.520  -3.067  1.00  0.00    -0.341 N 
ATOM     13  H   UNL     1      -1.228  -0.207  -4.018  1.00  0.00     0.346 HD
ATOM     14  H   UNL     1      -0.656  -0.833  -2.468  1.00  0.00     0.346 HD
BRANCH  12  15
ATOM     15  C   UNL     1      -2.208  -1.746  -3.198  1.00  0.00     0.184 C 
ATOM     16  C   UNL     1      -1.569  -2.645  -4.288  1.00  0.00     0.075 C 
BRANCH  15  17
ATOM     17  C   UNL     1      -2.468  -2.525  -1.894  1.00  0.00     0.111 C 
BRANCH  17  18
ATOM     18  C   UNL     1      -1.331  -3.337  -1.321  1.00  0.00     0.010 A 
ATOM     19  C   UNL     1      -1.437  -4.595  -0.755  1.00  0.00     0.015 A 
ATOM     20  S   UNL     1       0.288  -2.778  -1.270  1.00  0.00    -0.149 S 
ATOM     21  C   UNL     1      -0.180  -5.121  -0.346  1.00  0.00     0.012 A 
ATOM     22  C   UNL     1       0.849  -4.245  -0.599  1.00  0.00     0.065 A 
ENDBRANCH  17  18
ENDBRANCH  15  17
ENDBRANCH  12  15
ENDBRANCH  10  12
ENDBRANCH   8  10
ENDBRANCH   6   8
ENDBRANCH   5   6
ENDBRANCH   4   5
ENDBRANCH   3   4
ENDBRANCH   2   3
ENDBRANCH   1   2
BRANCH   1  23
ATOM     23  C   UNL     1      -1.657   0.722  -5.806  1.00  0.00     0.188 C 
BRANCH  23  24
ATOM     24  O   UNL     1      -0.707   1.241  -6.723  1.00  0.00    -0.377 OA
BRANCH  24  25
ATOM     25  C   UNL     1      -1.206   1.769  -7.926  1.00  0.00     0.188 C 
BRANCH  25  26
ATOM     26  C   UNL     1      -1.361   0.687  -9.002  1.00  0.00     0.188 C 
BRANCH  26  27
ATOM     27  O   UNL     1      -1.569  -0.610  -8.473  1.00  0.00    -0.376 OA
BRANCH  27  28
ATOM     28  C   UNL     1      -0.489  -1.504  -8.250  1.00  0.00     0.202 C 
BRANCH  28  29
ATOM     29  C   UNL     1       0.878  -1.129  -7.639  1.00  0.00     0.261 C 
BRANCH  29  30
ATOM     30  O   UNL     1       1.418   0.165  -7.894  1.00  0.00    -0.460 OA
BRANCH  30  31
ATOM     31  C   UNL     1       1.867   0.444  -9.127  1.00  0.00     0.338 C 
ATOM     32  O   UNL     1       1.898  -0.294 -10.098  1.00  0.00    -0.246 OA
BRANCH  31  33
ATOM     33  C   UNL     1       2.117   1.897  -9.144  1.00  0.00     0.060 A 
ATOM     34  C   UNL     1       1.382   2.691 -10.034  1.00  0.00     0.016 A 
ATOM     35  C   UNL     1       3.012   2.478  -8.239  1.00  0.00     0.016 A 
ATOM     36  C   UNL     1       1.535   4.072 -10.020  1.00  0.00     0.010 A 
ATOM     37  C   UNL     1       3.210   3.857  -8.265  1.00  0.00     0.010 A 
ATOM     38  C   UNL     1       2.493   4.649  -9.178  1.00  0.00    -0.014 A 
BRANCH  38  39
ATOM     39  C   UNL     1       2.955   6.015  -9.486  1.00  0.00     0.031 A 
ATOM     40  C   UNL     1       4.101   6.139 -10.451  1.00  0.00     0.074 A 
ATOM     41  C   UNL     1       2.347   7.099  -8.978  1.00  0.00     0.049 A 
ATOM     42  N   UNL     1       4.721   7.208 -10.871  1.00  0.00    -0.248 NA
ATOM     43  C   UNL     1       4.612   4.879 -11.024  1.00  0.00     0.031 C 
ATOM     44  C   UNL     1       1.179   7.087  -8.099  1.00  0.00     0.029 A 
ATOM     45  N   UNL     1       2.637   8.428  -9.138  1.00  0.00    -0.354 N 
ATOM     46  C   UNL     1       5.692   6.748 -11.753  1.00  0.00     0.074 A 
ATOM     47  C   UNL     1       5.602   5.308 -11.787  1.00  0.00     0.031 C 
ATOM     48  C   UNL     1       0.858   8.356  -7.788  1.00  0.00     0.029 A 
ATOM     49  C   UNL     1       1.819   9.260  -8.415  1.00  0.00     0.049 A 
ATOM     50  H   UNL     1       3.363   8.756  -9.717  1.00  0.00     0.167 HD
ATOM     51  C   UNL     1       6.579   7.468 -12.475  1.00  0.00     0.031 A 
ATOM     52  C   UNL     1       1.871  10.597  -8.264  1.00  0.00     0.031 A 
ATOM     53  C   UNL     1       6.680   8.898 -12.406  1.00  0.00     0.049 A 
ATOM     54  C   UNL     1       2.948  11.366  -8.988  1.00  0.00     0.074 A 
ATOM     55  C   UNL     1       7.558   9.733 -13.070  1.00  0.00     0.029 A 
ATOM     56  N   UNL     1       5.872   9.701 -11.616  1.00  0.00    -0.354 N 
ATOM     57  N   UNL     1       3.865  10.928  -9.819  1.00  0.00    -0.248 NA
ATOM     58  C   UNL     1       2.994  12.817  -8.757  1.00  0.00     0.031 C 
ATOM     59  C   UNL     1       7.320  11.040 -12.635  1.00  0.00     0.029 A 
ATOM     60  C   UNL     1       6.245  11.024 -11.759  1.00  0.00     0.049 A 
ATOM     61  H   UNL     1       5.143   9.377 -11.039  1.00  0.00     0.167 HD
ATOM     62  C   UNL     1       4.565  12.051 -10.242  1.00  0.00     0.074 A 
ATOM     63  C   UNL     1       3.961  13.191  -9.583  1.00  0.00     0.031 C 
ATOM     64  C   UNL     1       5.611  12.138 -11.101  1.00  0.00     0.031 A 
BRANCH  51  65
ATOM     65  C   UNL     1       7.531   6.710 -13.354  1.00  0.00    -0.014 A 
ATOM     66  C   UNL     1       7.090   6.053 -14.514  1.00  0.00     0.009 A 
ATOM     67  C   UNL     1       8.894   6.663 -13.024  1.00  0.00     0.009 A 
ATOM     68  C   UNL     1       7.990   5.341 -15.310  1.00  0.00     0.001 A 
ATOM     69  C   UNL     1       9.797   5.977 -13.838  1.00  0.00     0.001 A 
ATOM     70  C   UNL     1       9.344   5.311 -14.975  1.00  0.00     0.000 A 
ENDBRANCH  51  65
BRANCH  52  71
ATOM     71  C   UNL     1       0.907  11.299  -7.374  1.00  0.00    -0.014 A 
ATOM     72  C   UNL     1      -0.019  12.216  -7.896  1.00  0.00     0.009 A 
ATOM     73  C   UNL     1       0.939  11.091  -5.985  1.00  0.00     0.009 A 
ATOM     74  C   UNL     1      -0.863  12.936  -7.045  1.00  0.00     0.001 A 
ATOM     75  C   UNL     1       0.072  11.787  -5.140  1.00  0.00     0.001 A 
ATOM     76  C   UNL     1      -0.818  12.719  -5.669  1.00  0.00     0.000 A 
ENDBRANCH  52  71
BRANCH  64  77
ATOM     77  C   UNL     1       6.123  13.512 -11.431  1.00  0.00    -0.014 A 
ATOM     78  C   UNL     1       6.840  14.275 -10.497  1.00  0.00     0.009 A 
ATOM     79  C   UNL     1       5.934  14.021 -12.726  1.00  0.00     0.009 A 
ATOM     80  C   UNL     1       7.326  15.536 -10.845  1.00  0.00     0.001 A 
ATOM     81  C   UNL     1       6.452  15.265 -13.082  1.00  0.00     0.001 A 
ATOM     82  C   UNL     1       7.138  16.026 -12.138  1.00  0.00     0.000 A 
ENDBRANCH  64  77
ENDBRANCH  38  39
ENDBRANCH  31  33
ENDBRANCH  30  31
ENDBRANCH  29  30
ENDBRANCH  28  29
ENDBRANCH  27  28
ENDBRANCH  26  27
ENDBRANCH  25  26
ENDBRANCH  24  25
ENDBRANCH  23  24
ENDBRANCH   1  23
TORSDOF 25
