REMARK SMILES CC[C@H]1SC[C@@H](C(=O)OCCOCCOCCOCCOC(=O)c2ccc(-c3c4nc(c(-c5ccccc5)c5ccc([nH]5)c(-c5ccccc5)c5nc(c(-c6ccccc6)c6ccc3[nH]6)C=C5)C=C4)cc2)N1C(=O)N[C@@H]1CCCCC1(C)C
REMARK SMILES IDX 15 1 14 2 13 3 12 4 11 5 10 6 9 7 7 8 8 9 6 10 3 11 4 12
REMARK SMILES IDX 72 13 5 14 2 15 1 16 73 17 74 18 75 19 76 21 77 22 81 23
REMARK SMILES IDX 78 24 80 25 82 26 83 27 79 28 16 29 17 30 18 31 19 32 20 33
REMARK SMILES IDX 21 34 22 35 23 36 24 37 25 38 71 39 26 40 70 41 27 42 28 43
REMARK SMILES IDX 29 44 64 45 30 46 69 47 63 48 65 49 31 50 68 51 62 52 61 53
REMARK SMILES IDX 32 55 54 56 39 57 53 58 40 59 43 60 52 61 66 62 41 63 42 64
REMARK SMILES IDX 51 66 67 67 44 68 33 69 34 70 38 71 35 72 37 73 36 74 55 75
REMARK SMILES IDX 56 76 60 77 57 78 59 79 58 80 45 81 46 82 50 83 47 84 49 85
REMARK SMILES IDX 48 86
REMARK H PARENT 75 20 65 54 43 65
REMARK Flexibility Score: inf
ROOT
ATOM      1  O   UNL     1       0.911   2.230   1.496  1.00  0.00    -0.377 OA
ENDROOT
BRANCH   1   2
ATOM      2  C   UNL     1       2.141   1.584   1.782  1.00  0.00     0.188 C 
BRANCH   2   3
ATOM      3  C   UNL     1       3.538   2.230   1.655  1.00  0.00     0.188 C 
BRANCH   3   4
ATOM      4  O   UNL     1       3.791   3.070   0.545  1.00  0.00    -0.376 OA
BRANCH   4   5
ATOM      5  C   UNL     1       4.077   2.630  -0.765  1.00  0.00     0.202 C 
BRANCH   5   6
ATOM      6  C   UNL     1       4.063   1.179  -1.250  1.00  0.00     0.261 C 
BRANCH   6   7
ATOM      7  O   UNL     1       3.609   0.207  -0.317  1.00  0.00    -0.462 OA
BRANCH   7   8
ATOM      8  C   UNL     1       4.529  -0.604   0.251  1.00  0.00     0.329 C 
ATOM      9  O   UNL     1       5.736  -0.511   0.058  1.00  0.00    -0.250 OA
BRANCH   8  10
ATOM     10  C   UNL     1       3.890  -1.713   1.108  1.00  0.00     0.208 C 
ATOM     11  C   UNL     1       1.709  -2.396   0.292  1.00  0.00     0.145 C 
ATOM     12  S   UNL     1       2.724  -3.911   0.079  1.00  0.00    -0.134 SA
ATOM     13  N   UNL     1       2.408  -1.714   1.371  1.00  0.00    -0.298 N 
ATOM     14  C   UNL     1       4.272  -3.052   0.465  1.00  0.00     0.109 C 
BRANCH  11  15
ATOM     15  C   UNL     1       1.601  -1.764  -1.120  1.00  0.00     0.033 C 
ATOM     16  C   UNL     1       0.848  -0.450  -1.291  1.00  0.00     0.007 C 
ENDBRANCH  11  15
BRANCH  13  17
ATOM     17  C   UNL     1       2.036  -1.438   2.657  1.00  0.00     0.319 C 
ATOM     18  O   UNL     1       2.896  -0.990   3.438  1.00  0.00    -0.249 OA
ATOM     19  N   UNL     1       0.864  -1.553   3.286  1.00  0.00    -0.335 N 
ATOM     20  H   UNL     1       1.094  -1.356   4.223  1.00  0.00     0.165 HD
BRANCH  19  21
ATOM     21  C   UNL     1      -0.631  -1.821   3.349  1.00  0.00     0.089 C 
ATOM     22  C   UNL     1      -0.936  -2.595   4.655  1.00  0.00     0.025 C 
ATOM     23  C   UNL     1      -1.300  -2.545   2.170  1.00  0.00    -0.015 C 
ATOM     24  C   UNL     1      -0.405  -4.030   4.612  1.00  0.00     0.002 C 
ATOM     25  C   UNL     1      -0.603  -3.931   2.077  1.00  0.00     0.008 C 
ATOM     26  C   UNL     1      -2.824  -2.815   2.305  1.00  0.00     0.013 C 
ATOM     27  C   UNL     1      -1.248  -1.563   0.989  1.00  0.00     0.013 C 
ATOM     28  C   UNL     1      -0.784  -4.788   3.337  1.00  0.00     0.001 C 
ENDBRANCH  19  21
ENDBRANCH  13  17
ENDBRANCH   8  10
ENDBRANCH   7   8
ENDBRANCH   6   7
ENDBRANCH   5   6
ENDBRANCH   4   5
ENDBRANCH   3   4
ENDBRANCH   2   3
ENDBRANCH   1   2
BRANCH   1  29
ATOM     29  C   UNL     1       0.934   3.254   0.528  1.00  0.00     0.188 C 
BRANCH  29  30
ATOM     30  C   UNL     1       1.341   4.599   1.141  1.00  0.00     0.188 C 
BRANCH  30  31
ATOM     31  O   UNL     1       1.945   4.457   2.421  1.00  0.00    -0.376 OA
BRANCH  31  32
ATOM     32  C   UNL     1       1.121   4.631   3.568  1.00  0.00     0.202 C 
BRANCH  32  33
ATOM     33  C   UNL     1      -0.085   3.698   3.804  1.00  0.00     0.261 C 
BRANCH  33  34
ATOM     34  O   UNL     1      -1.084   3.623   2.772  1.00  0.00    -0.460 OA
BRANCH  34  35
ATOM     35  C   UNL     1      -1.687   4.755   2.372  1.00  0.00     0.338 C 
ATOM     36  O   UNL     1      -1.535   5.880   2.818  1.00  0.00    -0.246 OA
BRANCH  35  37
ATOM     37  C   UNL     1      -2.451   4.437   1.149  1.00  0.00     0.060 A 
ATOM     38  C   UNL     1      -2.118   5.088  -0.047  1.00  0.00     0.016 A 
ATOM     39  C   UNL     1      -3.479   3.491   1.177  1.00  0.00     0.016 A 
ATOM     40  C   UNL     1      -2.824   4.807  -1.216  1.00  0.00     0.010 A 
ATOM     41  C   UNL     1      -4.209   3.236   0.014  1.00  0.00     0.010 A 
ATOM     42  C   UNL     1      -3.904   3.917  -1.179  1.00  0.00    -0.014 A 
BRANCH  42  43
ATOM     43  C   UNL     1      -4.851   3.880  -2.317  1.00  0.00     0.031 A 
ATOM     44  C   UNL     1      -6.077   4.747  -2.241  1.00  0.00     0.074 A 
ATOM     45  C   UNL     1      -4.617   3.134  -3.410  1.00  0.00     0.049 A 
ATOM     46  N   UNL     1      -7.056   4.883  -3.098  1.00  0.00    -0.248 NA
ATOM     47  C   UNL     1      -6.214   5.573  -1.030  1.00  0.00     0.031 C 
ATOM     48  C   UNL     1      -3.435   2.306  -3.637  1.00  0.00     0.029 A 
ATOM     49  N   UNL     1      -5.373   2.963  -4.542  1.00  0.00    -0.354 N 
ATOM     50  C   UNL     1      -7.923   5.808  -2.529  1.00  0.00     0.074 A 
ATOM     51  C   UNL     1      -7.378   6.167  -1.239  1.00  0.00     0.031 C 
ATOM     52  C   UNL     1      -3.544   1.715  -4.840  1.00  0.00     0.029 A 
ATOM     53  C   UNL     1      -4.818   2.095  -5.449  1.00  0.00     0.049 A 
ATOM     54  H   UNL     1      -6.233   3.420  -4.690  1.00  0.00     0.167 HD
ATOM     55  C   UNL     1      -9.070   6.320  -3.036  1.00  0.00     0.031 A 
ATOM     56  C   UNL     1      -5.295   1.650  -6.628  1.00  0.00     0.031 A 
ATOM     57  C   UNL     1      -9.633   5.936  -4.302  1.00  0.00     0.049 A 
ATOM     58  C   UNL     1      -6.635   2.139  -7.117  1.00  0.00     0.074 A 
ATOM     59  C   UNL     1     -10.794   6.386  -4.903  1.00  0.00     0.029 A 
ATOM     60  N   UNL     1      -9.079   4.993  -5.155  1.00  0.00    -0.354 N 
ATOM     61  N   UNL     1      -7.442   3.023  -6.580  1.00  0.00    -0.248 NA
ATOM     62  C   UNL     1      -7.125   1.569  -8.380  1.00  0.00     0.031 C 
ATOM     63  C   UNL     1     -10.978   5.668  -6.089  1.00  0.00     0.029 A 
ATOM     64  C   UNL     1      -9.892   4.824  -6.263  1.00  0.00     0.049 A 
ATOM     65  H   UNL     1      -8.233   4.516  -4.997  1.00  0.00     0.167 HD
ATOM     66  C   UNL     1      -8.515   3.141  -7.456  1.00  0.00     0.074 A 
ATOM     67  C   UNL     1      -8.249   2.247  -8.564  1.00  0.00     0.031 C 
ATOM     68  C   UNL     1      -9.617   3.926  -7.357  1.00  0.00     0.031 A 
BRANCH  55  69
ATOM     69  C   UNL     1      -9.808   7.314  -2.181  1.00  0.00    -0.014 A 
ATOM     70  C   UNL     1      -9.280   8.590  -1.918  1.00  0.00     0.009 A 
ATOM     71  C   UNL     1     -11.045   6.965  -1.618  1.00  0.00     0.009 A 
ATOM     72  C   UNL     1      -9.950   9.472  -1.067  1.00  0.00     0.001 A 
ATOM     73  C   UNL     1     -11.730   7.862  -0.798  1.00  0.00     0.001 A 
ATOM     74  C   UNL     1     -11.176   9.108  -0.511  1.00  0.00     0.000 A 
ENDBRANCH  55  69
BRANCH  56  75
ATOM     75  C   UNL     1      -4.505   0.682  -7.436  1.00  0.00    -0.014 A 
ATOM     76  C   UNL     1      -3.951   1.066  -8.667  1.00  0.00     0.009 A 
ATOM     77  C   UNL     1      -4.317  -0.636  -6.991  1.00  0.00     0.009 A 
ATOM     78  C   UNL     1      -3.243   0.146  -9.444  1.00  0.00     0.001 A 
ATOM     79  C   UNL     1      -3.583  -1.546  -7.756  1.00  0.00     0.001 A 
ATOM     80  C   UNL     1      -3.054  -1.157  -8.985  1.00  0.00     0.000 A 
ENDBRANCH  56  75
BRANCH  68  81
ATOM     81  C   UNL     1     -10.601   3.888  -8.496  1.00  0.00    -0.014 A 
ATOM     82  C   UNL     1     -11.409   2.765  -8.733  1.00  0.00     0.009 A 
ATOM     83  C   UNL     1     -10.749   5.016  -9.319  1.00  0.00     0.009 A 
ATOM     84  C   UNL     1     -12.319   2.762  -9.794  1.00  0.00     0.001 A 
ATOM     85  C   UNL     1     -11.684   5.023 -10.356  1.00  0.00     0.001 A 
ATOM     86  C   UNL     1     -12.460   3.891 -10.599  1.00  0.00     0.000 A 
ENDBRANCH  68  81
ENDBRANCH  42  43
ENDBRANCH  35  37
ENDBRANCH  34  35
ENDBRANCH  33  34
ENDBRANCH  32  33
ENDBRANCH  31  32
ENDBRANCH  30  31
ENDBRANCH  29  30
ENDBRANCH   1  29
TORSDOF 23
