REMARK SMILES CCc1ncc(C[N@H+]2CCC[C@@H](c3cccc(C(=O)OCCOCCOCCOCCOC(=O)c4ccc(-c5c6nc(c(-c7ccccc7)c7ccc([nH]7)c(-c7ccccc7)c7nc(c(-c8ccccc8)c8ccc5[nH]8)C=C7)C=C6)cc4)c3)C2)cn1
REMARK SMILES IDX 25 1 24 2 23 3 22 4 21 5 20 6 18 7 19 8 17 9 13 10 14 11
REMARK SMILES IDX 83 12 15 13 16 14 12 15 8 16 9 17 84 18 10 20 11 21 7 22
REMARK SMILES IDX 6 23 3 24 4 25 86 26 5 27 85 28 2 29 1 30 26 31 27 32 28 33
REMARK SMILES IDX 29 34 30 35 31 36 32 37 33 38 34 39 35 40 36 41 82 42 37 43
REMARK SMILES IDX 81 44 38 45 39 46 40 47 75 48 41 49 80 50 74 51 76 52 42 53
REMARK SMILES IDX 79 54 73 55 72 56 43 58 65 59 50 60 64 61 51 62 54 63 63 64
REMARK SMILES IDX 77 65 52 66 53 67 62 69 78 70 55 71 44 72 45 73 49 74 46 75
REMARK SMILES IDX 48 76 47 77 66 78 67 79 71 80 68 81 70 82 69 83 56 84 57 85
REMARK SMILES IDX 61 86 58 87 60 88 59 89
REMARK H PARENT 8 19 76 57 54 68
REMARK Flexibility Score: inf
ROOT
ATOM      1  C   UNL     1      10.502   5.030   4.639  1.00  0.00     0.188 C 
ENDROOT
BRANCH   1   2
ATOM      2  C   UNL     1      11.562   4.284   3.802  1.00  0.00     0.188 C 
BRANCH   2   3
ATOM      3  O   UNL     1      12.666   5.097   3.442  1.00  0.00    -0.376 OA
BRANCH   3   4
ATOM      4  C   UNL     1      12.817   5.510   2.098  1.00  0.00     0.202 C 
BRANCH   4   5
ATOM      5  C   UNL     1      11.688   6.286   1.401  1.00  0.00     0.261 C 
BRANCH   5   6
ATOM      6  O   UNL     1      10.354   5.852   1.681  1.00  0.00    -0.460 OA
BRANCH   6   7
ATOM      7  C   UNL     1       9.913   4.740   1.052  1.00  0.00     0.338 C 
ATOM      8  O   UNL     1      10.516   4.082   0.223  1.00  0.00    -0.246 OA
BRANCH   7   9
ATOM      9  C   UNL     1       8.666   4.316   1.737  1.00  0.00     0.060 A 
ATOM     10  C   UNL     1       6.592   4.842   2.903  1.00  0.00    -0.038 A 
ATOM     11  C   UNL     1       6.476   3.483   3.245  1.00  0.00     0.004 A 
ATOM     12  C   UNL     1       7.708   5.251   2.154  1.00  0.00     0.020 A 
ATOM     13  C   UNL     1       7.434   2.553   2.835  1.00  0.00     0.001 A 
ATOM     14  C   UNL     1       8.521   2.964   2.067  1.00  0.00     0.016 A 
BRANCH  10  15
ATOM     15  C   UNL     1       5.463   5.836   3.158  1.00  0.00     0.074 C 
ATOM     16  N   UNL     1       3.210   6.414   2.146  1.00  0.00    -0.331 N 
ATOM     17  C   UNL     1       2.572   6.270   3.459  1.00  0.00     0.262 C 
ATOM     18  C   UNL     1       4.424   5.598   2.046  1.00  0.00     0.270 C 
ATOM     19  H   UNL     1       3.485   7.393   2.071  1.00  0.00     0.348 HD
ATOM     20  C   UNL     1       3.545   6.616   4.592  1.00  0.00     0.062 C 
ATOM     21  C   UNL     1       4.799   5.741   4.540  1.00  0.00     0.020 C 
BRANCH  16  22
ATOM     22  C   UNL     1       2.287   6.165   1.016  1.00  0.00     0.302 C 
BRANCH  22  23
ATOM     23  C   UNL     1       1.721   4.777   0.907  1.00  0.00     0.043 A 
ATOM     24  C   UNL     1       0.781   2.221   0.925  1.00  0.00     0.127 A 
ATOM     25  N   UNL     1      -0.031   3.194   1.381  1.00  0.00    -0.241 NA
ATOM     26  N   UNL     1       2.012   2.434   0.427  1.00  0.00    -0.241 NA
ATOM     27  C   UNL     1       0.459   4.451   1.355  1.00  0.00     0.124 A 
ATOM     28  C   UNL     1       2.439   3.710   0.407  1.00  0.00     0.124 A 
BRANCH  24  29
ATOM     29  C   UNL     1       0.320   0.798   1.087  1.00  0.00     0.074 C 
ATOM     30  C   UNL     1       0.772  -0.112  -0.046  1.00  0.00     0.012 C 
ENDBRANCH  24  29
ENDBRANCH  22  23
ENDBRANCH  16  22
ENDBRANCH  10  15
ENDBRANCH   7   9
ENDBRANCH   6   7
ENDBRANCH   5   6
ENDBRANCH   4   5
ENDBRANCH   3   4
ENDBRANCH   2   3
ENDBRANCH   1   2
BRANCH   1  31
ATOM     31  O   UNL     1      10.572   6.448   4.694  1.00  0.00    -0.377 OA
BRANCH  31  32
ATOM     32  C   UNL     1      11.781   7.081   5.110  1.00  0.00     0.188 C 
BRANCH  32  33
ATOM     33  C   UNL     1      12.899   6.326   5.873  1.00  0.00     0.188 C 
BRANCH  33  34
ATOM     34  O   UNL     1      12.544   5.040   6.348  1.00  0.00    -0.376 OA
BRANCH  34  35
ATOM     35  C   UNL     1      12.351   4.869   7.739  1.00  0.00     0.202 C 
BRANCH  35  36
ATOM     36  C   UNL     1      11.183   5.638   8.373  1.00  0.00     0.261 C 
BRANCH  36  37
ATOM     37  O   UNL     1      11.170   7.055   8.142  1.00  0.00    -0.460 OA
BRANCH  37  38
ATOM     38  C   UNL     1      12.171   7.768   8.696  1.00  0.00     0.338 C 
ATOM     39  O   UNL     1      13.088   7.344   9.385  1.00  0.00    -0.246 OA
BRANCH  38  40
ATOM     40  C   UNL     1      12.093   9.147   8.180  1.00  0.00     0.060 A 
ATOM     41  C   UNL     1      13.188   9.670   7.481  1.00  0.00     0.016 A 
ATOM     42  C   UNL     1      10.951   9.924   8.394  1.00  0.00     0.016 A 
ATOM     43  C   UNL     1      13.165  10.992   7.042  1.00  0.00     0.010 A 
ATOM     44  C   UNL     1      10.936  11.254   7.967  1.00  0.00     0.010 A 
ATOM     45  C   UNL     1      12.060  11.806   7.328  1.00  0.00    -0.014 A 
BRANCH  45  46
ATOM     46  C   UNL     1      12.176  13.269   7.121  1.00  0.00     0.031 A 
ATOM     47  C   UNL     1      12.493  14.143   8.306  1.00  0.00     0.074 A 
ATOM     48  C   UNL     1      12.077  13.807   5.893  1.00  0.00     0.049 A 
ATOM     49  N   UNL     1      12.705  15.434   8.354  1.00  0.00    -0.248 NA
ATOM     50  C   UNL     1      12.589  13.469   9.612  1.00  0.00     0.031 C 
ATOM     51  C   UNL     1      11.812  13.064   4.661  1.00  0.00     0.029 A 
ATOM     52  N   UNL     1      12.205  15.110   5.481  1.00  0.00    -0.354 N 
ATOM     53  C   UNL     1      12.962  15.724   9.689  1.00  0.00     0.074 A 
ATOM     54  C   UNL     1      12.836  14.485  10.424  1.00  0.00     0.031 C 
ATOM     55  C   UNL     1      11.810  13.924   3.627  1.00  0.00     0.029 A 
ATOM     56  C   UNL     1      12.044  15.277   4.128  1.00  0.00     0.049 A 
ATOM     57  H   UNL     1      12.394  15.854   6.098  1.00  0.00     0.167 HD
ATOM     58  C   UNL     1      13.287  16.912  10.252  1.00  0.00     0.031 A 
ATOM     59  C   UNL     1      12.077  16.398   3.381  1.00  0.00     0.031 A 
ATOM     60  C   UNL     1      13.392  18.149   9.526  1.00  0.00     0.049 A 
ATOM     61  C   UNL     1      12.363  17.719   4.047  1.00  0.00     0.074 A 
ATOM     62  C   UNL     1      13.717  19.406  10.005  1.00  0.00     0.029 A 
ATOM     63  N   UNL     1      13.165  18.287   8.165  1.00  0.00    -0.354 N 
ATOM     64  N   UNL     1      12.633  17.975   5.304  1.00  0.00    -0.248 NA
ATOM     65  C   UNL     1      12.366  18.905   3.178  1.00  0.00     0.031 C 
ATOM     66  C   UNL     1      13.626  20.316   8.946  1.00  0.00     0.029 A 
ATOM     67  C   UNL     1      13.319  19.613   7.793  1.00  0.00     0.049 A 
ATOM     68  H   UNL     1      12.930  17.552   7.554  1.00  0.00     0.167 HD
ATOM     69  C   UNL     1      12.873  19.343   5.370  1.00  0.00     0.074 A 
ATOM     70  C   UNL     1      12.743  19.854   4.022  1.00  0.00     0.031 C 
ATOM     71  C   UNL     1      13.177  20.109   6.448  1.00  0.00     0.031 A 
BRANCH  58  72
ATOM     72  C   UNL     1      13.521  16.932  11.739  1.00  0.00    -0.014 A 
ATOM     73  C   UNL     1      14.649  16.321  12.310  1.00  0.00     0.009 A 
ATOM     74  C   UNL     1      12.617  17.602  12.577  1.00  0.00     0.009 A 
ATOM     75  C   UNL     1      14.849  16.354  13.692  1.00  0.00     0.001 A 
ATOM     76  C   UNL     1      12.836  17.661  13.955  1.00  0.00     0.001 A 
ATOM     77  C   UNL     1      13.946  17.030  14.512  1.00  0.00     0.000 A 
ENDBRANCH  58  72
BRANCH  59  78
ATOM     78  C   UNL     1      11.826  16.334   1.915  1.00  0.00    -0.014 A 
ATOM     79  C   UNL     1      12.840  16.649   0.997  1.00  0.00     0.009 A 
ATOM     80  C   UNL     1      10.553  16.003   1.427  1.00  0.00     0.009 A 
ATOM     81  C   UNL     1      12.573  16.672  -0.375  1.00  0.00     0.001 A 
ATOM     82  C   UNL     1      10.297  15.992   0.054  1.00  0.00     0.001 A 
ATOM     83  C   UNL     1      11.303  16.340  -0.844  1.00  0.00     0.000 A 
ENDBRANCH  59  78
BRANCH  71  84
ATOM     84  C   UNL     1      13.435  21.572   6.196  1.00  0.00    -0.014 A 
ATOM     85  C   UNL     1      12.413  22.442   5.785  1.00  0.00     0.009 A 
ATOM     86  C   UNL     1      14.730  22.086   6.372  1.00  0.00     0.009 A 
ATOM     87  C   UNL     1      12.696  23.778   5.492  1.00  0.00     0.001 A 
ATOM     88  C   UNL     1      15.002  23.431   6.118  1.00  0.00     0.001 A 
ATOM     89  C   UNL     1      13.989  24.272   5.661  1.00  0.00     0.000 A 
ENDBRANCH  71  84
ENDBRANCH  45  46
ENDBRANCH  38  40
ENDBRANCH  37  38
ENDBRANCH  36  37
ENDBRANCH  35  36
ENDBRANCH  34  35
ENDBRANCH  33  34
ENDBRANCH  32  33
ENDBRANCH  31  32
ENDBRANCH   1  31
TORSDOF 24
