REMARK SMILES N#Cc1cccnc1N1CC[NH+]([C@@H](C(=O)OCCOCCOCCOCCOC(=O)c2ccc(-c3c4nc(c(-c5ccccc5)c5ccc([nH]5)c(-c5ccccc5)c5nc(c(-c6ccccc6)c6ccc3[nH]6)C=C5)C=C4)cc2)c2c[nH]c3cc(CO)ccc23)CC1
REMARK SMILES IDX 21 1 20 2 19 3 18 4 17 5 16 6 14 7 15 8 13 9 12 10 9 11
REMARK SMILES IDX 10 12 91 13 11 14 90 15 8 17 3 18 4 19 5 20 7 21 6 22 2 23
REMARK SMILES IDX 1 24 79 25 80 26 89 27 81 28 82 29 88 30 83 32 87 33 84 34
REMARK SMILES IDX 85 35 86 36 22 38 23 39 24 40 25 41 26 42 27 43 28 44 29 45
REMARK SMILES IDX 30 46 31 47 32 48 78 49 33 50 77 51 34 52 35 53 36 54 71 55
REMARK SMILES IDX 37 56 76 57 70 58 72 59 38 60 75 61 69 62 68 63 39 65 61 66
REMARK SMILES IDX 46 67 60 68 47 69 50 70 59 71 73 72 48 73 49 74 58 76 74 77
REMARK SMILES IDX 51 78 40 79 41 80 45 81 42 82 44 83 43 84 62 85 63 86 67 87
REMARK SMILES IDX 64 88 66 89 65 90 52 91 53 92 57 93 54 94 56 95 55 96
REMARK H PARENT 12 16 81 31 86 37 72 64 50 75
REMARK Flexibility Score: inf
ROOT
ATOM      1  C   UNL     1      -3.367  -4.346   0.148  1.00  0.00     0.188 C 
ENDROOT
BRANCH   1   2
ATOM      2  C   UNL     1      -3.327  -5.606   1.012  1.00  0.00     0.188 C 
BRANCH   2   3
ATOM      3  O   UNL     1      -3.527  -5.423   2.407  1.00  0.00    -0.376 OA
BRANCH   3   4
ATOM      4  C   UNL     1      -2.612  -4.562   3.079  1.00  0.00     0.202 C 
BRANCH   4   5
ATOM      5  C   UNL     1      -1.114  -4.901   2.992  1.00  0.00     0.261 C 
BRANCH   5   6
ATOM      6  O   UNL     1      -0.548  -4.882   1.655  1.00  0.00    -0.459 OA
BRANCH   6   7
ATOM      7  C   UNL     1      -0.121  -6.074   1.146  1.00  0.00     0.370 C 
ATOM      8  O   UNL     1      -0.305  -7.144   1.727  1.00  0.00    -0.245 OA
BRANCH   7   9
ATOM      9  C   UNL     1       0.685  -5.985  -0.162  1.00  0.00     0.328 C 
BRANCH   9  10
ATOM     10  N   UNL     1       1.893  -5.063  -0.186  1.00  0.00    -0.316 N 
ATOM     11  N   UNL     1       1.405  -2.154  -0.079  1.00  0.00    -0.344 N 
ATOM     12  C   UNL     1       1.089  -2.989  -1.224  1.00  0.00     0.179 C 
ATOM     13  C   UNL     1       1.657  -2.834   1.199  1.00  0.00     0.179 C 
ATOM     14  C   UNL     1       2.060  -4.153  -1.311  1.00  0.00     0.285 C 
ATOM     15  C   UNL     1       2.234  -4.292   1.033  1.00  0.00     0.285 C 
ATOM     16  H   UNL     1       2.544  -5.842  -0.281  1.00  0.00     0.349 HD
BRANCH  11  17
ATOM     17  C   UNL     1       0.903  -0.844  -0.052  1.00  0.00     0.146 A 
ATOM     18  C   UNL     1       2.056   0.378   0.305  1.00  0.00     0.095 A 
ATOM     19  C   UNL     1       1.491   2.049   0.329  1.00  0.00     0.025 A 
ATOM     20  C   UNL     1      -0.448   2.471  -0.097  1.00  0.00     0.022 A 
ATOM     21  N   UNL     1      -0.780  -0.508  -0.375  1.00  0.00    -0.238 NA
ATOM     22  C   UNL     1      -1.504   1.084  -0.407  1.00  0.00     0.113 A 
BRANCH  18  23
ATOM     23  C   UNL     1       3.433   0.091   0.523  1.00  0.00     0.103 C 
ATOM     24  N   UNL     1       4.559  -0.116   0.710  1.00  0.00    -0.192 NA
ENDBRANCH  18  23
ENDBRANCH  11  17
ENDBRANCH   9  10
BRANCH   9  25
ATOM     25  C   UNL     1       0.044  -6.397  -1.552  1.00  0.00     0.046 A 
ATOM     26  C   UNL     1       0.743  -7.164  -2.481  1.00  0.00     0.094 A 
ATOM     27  C   UNL     1      -0.934  -5.840  -2.471  1.00  0.00     0.009 A 
ATOM     28  N   UNL     1       0.918  -6.328  -3.556  1.00  0.00    -0.361 N 
ATOM     29  C   UNL     1      -0.219  -5.557  -3.640  1.00  0.00     0.046 A 
ATOM     30  C   UNL     1      -2.338  -5.786  -2.646  1.00  0.00     0.011 A 
ATOM     31  H   UNL     1       1.702  -6.289  -4.150  1.00  0.00     0.166 HD
ATOM     32  C   UNL     1      -0.706  -4.761  -4.684  1.00  0.00     0.032 A 
ATOM     33  C   UNL     1      -2.891  -5.066  -3.735  1.00  0.00     0.007 A 
ATOM     34  C   UNL     1      -2.069  -4.432  -4.673  1.00  0.00    -0.021 A 
BRANCH  34  35
ATOM     35  C   UNL     1      -2.615  -3.465  -5.701  1.00  0.00     0.191 C 
BRANCH  35  36
ATOM     36  O   UNL     1      -3.686  -2.667  -5.204  1.00  0.00    -0.392 OA
ATOM     37  H   UNL     1      -4.426  -3.240  -4.950  1.00  0.00     0.211 HD
ENDBRANCH  35  36
ENDBRANCH  34  35
ENDBRANCH   9  25
ENDBRANCH   7   9
ENDBRANCH   6   7
ENDBRANCH   5   6
ENDBRANCH   4   5
ENDBRANCH   3   4
ENDBRANCH   2   3
ENDBRANCH   1   2
BRANCH   1  38
ATOM     38  O   UNL     1      -2.497  -3.295   0.526  1.00  0.00    -0.377 OA
BRANCH  38  39
ATOM     39  C   UNL     1      -3.145  -2.023   0.571  1.00  0.00     0.188 C 
BRANCH  39  40
ATOM     40  C   UNL     1      -3.793  -1.524  -0.747  1.00  0.00     0.188 C 
BRANCH  40  41
ATOM     41  O   UNL     1      -2.985  -1.077  -1.846  1.00  0.00    -0.376 OA
BRANCH  41  42
ATOM     42  C   UNL     1      -1.975  -1.987  -2.274  1.00  0.00     0.202 C 
BRANCH  42  43
ATOM     43  C   UNL     1      -1.024  -1.356  -3.323  1.00  0.00     0.261 C 
BRANCH  43  44
ATOM     44  O   UNL     1       0.095  -0.689  -2.697  1.00  0.00    -0.460 OA
BRANCH  44  45
ATOM     45  C   UNL     1      -0.091   0.612  -2.444  1.00  0.00     0.338 C 
ATOM     46  O   UNL     1      -0.722   1.367  -3.180  1.00  0.00    -0.246 OA
BRANCH  45  47
ATOM     47  C   UNL     1       0.526   1.151  -1.080  1.00  0.00     0.060 A 
ATOM     48  C   UNL     1       0.066   0.935   0.898  1.00  0.00     0.016 A 
ATOM     49  C   UNL     1       1.061   2.790  -1.613  1.00  0.00     0.016 A 
ATOM     50  C   UNL     1       0.104   2.361   1.957  1.00  0.00     0.010 A 
ATOM     51  C   UNL     1       1.112   4.091  -0.438  1.00  0.00     0.010 A 
ATOM     52  C   UNL     1       0.642   3.892   1.276  1.00  0.00    -0.014 A 
BRANCH  52  53
ATOM     53  C   UNL     1       0.702   5.063   2.168  1.00  0.00     0.031 A 
ATOM     54  C   UNL     1       0.337   6.402   1.613  1.00  0.00     0.074 A 
ATOM     55  C   UNL     1       1.142   4.906   3.430  1.00  0.00     0.049 A 
ATOM     56  N   UNL     1       0.732   7.578   2.012  1.00  0.00    -0.248 NA
ATOM     57  C   UNL     1      -0.463   6.429   0.377  1.00  0.00     0.031 C 
ATOM     58  C   UNL     1       1.573   3.651   4.057  1.00  0.00     0.029 A 
ATOM     59  N   UNL     1       1.286   5.818   4.436  1.00  0.00    -0.354 N 
ATOM     60  C   UNL     1       0.355   8.451   0.999  1.00  0.00     0.074 A 
ATOM     61  C   UNL     1      -0.237   7.661  -0.052  1.00  0.00     0.031 C 
ATOM     62  C   UNL     1       1.778   3.840   5.365  1.00  0.00     0.029 A 
ATOM     63  C   UNL     1       1.700   5.262   5.624  1.00  0.00     0.049 A 
ATOM     64  H   UNL     1       1.112   6.780   4.323  1.00  0.00     0.167 HD
ATOM     65  C   UNL     1       0.469   9.797   0.983  1.00  0.00     0.031 A 
ATOM     66  C   UNL     1       2.056   5.853   6.774  1.00  0.00     0.031 A 
ATOM     67  C   UNL     1       0.912  10.530   2.137  1.00  0.00     0.049 A 
ATOM     68  C   UNL     1       2.076   7.351   6.765  1.00  0.00     0.074 A 
ATOM     69  C   UNL     1       1.015  11.894   2.318  1.00  0.00     0.029 A 
ATOM     70  N   UNL     1       1.258   9.930   3.345  1.00  0.00    -0.354 N 
ATOM     71  N   UNL     1       1.802   8.172   5.777  1.00  0.00    -0.248 NA
ATOM     72  C   UNL     1       2.471   8.004   8.012  1.00  0.00     0.031 C 
ATOM     73  C   UNL     1       1.429  12.118   3.637  1.00  0.00     0.029 A 
ATOM     74  C   UNL     1       1.540  10.896   4.288  1.00  0.00     0.049 A 
ATOM     75  H   UNL     1       1.296   8.959   3.502  1.00  0.00     0.167 HD
ATOM     76  C   UNL     1       1.974   9.447   6.287  1.00  0.00     0.074 A 
ATOM     77  C   UNL     1       2.333   9.280   7.686  1.00  0.00     0.031 C 
ATOM     78  C   UNL     1       1.870  10.649   5.669  1.00  0.00     0.031 A 
BRANCH  65  79
ATOM     79  C   UNL     1       0.080  10.521  -0.278  1.00  0.00    -0.014 A 
ATOM     80  C   UNL     1      -1.241  10.509  -0.757  1.00  0.00     0.009 A 
ATOM     81  C   UNL     1       1.054  11.207  -1.021  1.00  0.00     0.009 A 
ATOM     82  C   UNL     1      -1.566  11.110  -1.976  1.00  0.00     0.001 A 
ATOM     83  C   UNL     1       0.719  11.845  -2.219  1.00  0.00     0.001 A 
ATOM     84  C   UNL     1      -0.586  11.783  -2.703  1.00  0.00     0.000 A 
ENDBRANCH  65  79
BRANCH  66  85
ATOM     85  C   UNL     1       2.461   5.054   7.962  1.00  0.00    -0.014 A 
ATOM     86  C   UNL     1       1.704   5.107   9.142  1.00  0.00     0.009 A 
ATOM     87  C   UNL     1       3.597   4.227   7.933  1.00  0.00     0.009 A 
ATOM     88  C   UNL     1       2.100   4.393  10.277  1.00  0.00     0.001 A 
ATOM     89  C   UNL     1       3.965   3.476   9.053  1.00  0.00     0.001 A 
ATOM     90  C   UNL     1       3.227   3.575  10.230  1.00  0.00     0.000 A 
ENDBRANCH  66  85
BRANCH  78  91
ATOM     91  C   UNL     1       2.082  11.845   6.544  1.00  0.00    -0.014 A 
ATOM     92  C   UNL     1       3.355  12.173   7.032  1.00  0.00     0.009 A 
ATOM     93  C   UNL     1       0.982  12.648   6.879  1.00  0.00     0.009 A 
ATOM     94  C   UNL     1       3.513  13.258   7.890  1.00  0.00     0.001 A 
ATOM     95  C   UNL     1       1.152  13.758   7.702  1.00  0.00     0.001 A 
ATOM     96  C   UNL     1       2.413  14.052   8.219  1.00  0.00     0.000 A 
ENDBRANCH  78  91
ENDBRANCH  52  53
ENDBRANCH  45  47
ENDBRANCH  44  45
ENDBRANCH  43  44
ENDBRANCH  42  43
ENDBRANCH  41  42
ENDBRANCH  40  41
ENDBRANCH  39  40
ENDBRANCH  38  39
ENDBRANCH   1  38
TORSDOF 26
