REMARK SMILES O=C(CS(=O)(=O)NCc1ccc(N2CCOCC2)nc1)OCCOCCOCCOCCOC(=O)c1ccc(-c2c3nc(c(-c4ccccc4)c4ccc([nH]4)c(-c4ccccc4)c4nc(c(-c5ccccc5)c5ccc2[nH]5)C=C4)C=C3)cc1
REMARK SMILES IDX 25 1 24 2 23 3 22 4 21 5 2 6 1 7 3 8 4 9 5 10 6 11 7 12 8 14
REMARK SMILES IDX 9 15 10 16 20 17 11 18 19 19 12 20 13 21 14 22 18 23 15 24
REMARK SMILES IDX 17 25 16 26 26 27 27 28 28 29 29 30 30 31 31 32 32 33 33 34
REMARK SMILES IDX 34 35 35 36 36 37 37 38 83 39 38 40 82 41 39 42 40 43 41 44
REMARK SMILES IDX 76 45 42 46 81 47 75 48 77 49 43 50 80 51 74 52 73 53 44 55
REMARK SMILES IDX 66 56 51 57 65 58 52 59 55 60 64 61 78 62 53 63 54 64 63 66
REMARK SMILES IDX 79 67 56 68 45 69 46 70 50 71 47 72 49 73 48 74 67 75 68 76
REMARK SMILES IDX 72 77 69 78 71 79 70 80 57 81 58 82 62 83 59 84 61 85 60 86
REMARK H PARENT 7 13 77 54 55 65
REMARK Flexibility Score: inf
ROOT
ATOM      1  C   UNL     1       2.738   1.908  -0.959  1.00  0.00     0.188 C 
ENDROOT
BRANCH   1   2
ATOM      2  O   UNL     1       4.146   1.798  -0.889  1.00  0.00    -0.376 OA
BRANCH   2   3
ATOM      3  C   UNL     1       4.839   0.892  -0.059  1.00  0.00     0.202 C 
BRANCH   3   4
ATOM      4  C   UNL     1       4.415  -0.568  -0.054  1.00  0.00     0.261 C 
BRANCH   4   5
ATOM      5  O   UNL     1       3.051  -0.868   0.313  1.00  0.00    -0.462 OA
BRANCH   5   6
ATOM      6  C   UNL     1       2.254  -0.416   1.289  1.00  0.00     0.322 C 
ATOM      7  O   UNL     1       1.072  -0.769   1.270  1.00  0.00    -0.251 OA
BRANCH   6   8
ATOM      8  C   UNL     1       2.689   0.561   2.308  1.00  0.00     0.276 C 
BRANCH   8   9
ATOM      9  S   UNL     1       3.829  -0.043   3.495  1.00  0.00     0.222 S 
ATOM     10  O   UNL     1       5.096  -0.273   2.841  1.00  0.00    -0.212 OA
ATOM     11  O   UNL     1       3.801   0.884   4.608  1.00  0.00    -0.212 OA
BRANCH   9  12
ATOM     12  N   UNL     1       3.276  -1.468   4.130  1.00  0.00    -0.210 NA
ATOM     13  H   UNL     1       2.523  -1.195   4.761  1.00  0.00     0.141 HD
BRANCH  12  14
ATOM     14  C   UNL     1       2.753  -2.638   3.410  1.00  0.00     0.135 C 
BRANCH  14  15
ATOM     15  C   UNL     1       3.660  -3.416   2.507  1.00  0.00    -0.015 A 
ATOM     16  C   UNL     1       5.019  -3.190   2.390  1.00  0.00     0.010 A 
ATOM     17  C   UNL     1       3.158  -4.455   1.727  1.00  0.00     0.118 A 
ATOM     18  C   UNL     1       5.773  -3.906   1.470  1.00  0.00     0.047 A 
ATOM     19  N   UNL     1       3.894  -5.210   0.866  1.00  0.00    -0.239 NA
ATOM     20  C   UNL     1       5.211  -4.946   0.743  1.00  0.00     0.128 A 
BRANCH  20  21
ATOM     21  N   UNL     1       5.987  -5.687  -0.111  1.00  0.00    -0.352 N 
ATOM     22  C   UNL     1       7.420  -5.914   0.099  1.00  0.00     0.146 C 
ATOM     23  C   UNL     1       5.402  -6.520  -1.160  1.00  0.00     0.146 C 
ATOM     24  C   UNL     1       8.149  -5.673  -1.226  1.00  0.00     0.181 C 
ATOM     25  C   UNL     1       6.235  -6.317  -2.439  1.00  0.00     0.181 C 
ATOM     26  O   UNL     1       7.641  -6.554  -2.239  1.00  0.00    -0.378 OA
ENDBRANCH  20  21
ENDBRANCH  14  15
ENDBRANCH  12  14
ENDBRANCH   9  12
ENDBRANCH   8   9
ENDBRANCH   6   8
ENDBRANCH   5   6
ENDBRANCH   4   5
ENDBRANCH   3   4
ENDBRANCH   2   3
ENDBRANCH   1   2
BRANCH   1  27
ATOM     27  C   UNL     1       2.110   1.206  -2.172  1.00  0.00     0.188 C 
BRANCH  27  28
ATOM     28  O   UNL     1       2.751   1.440  -3.423  1.00  0.00    -0.377 OA
BRANCH  28  29
ATOM     29  C   UNL     1       4.118   1.059  -3.476  1.00  0.00     0.188 C 
BRANCH  29  30
ATOM     30  C   UNL     1       5.142   2.220  -3.402  1.00  0.00     0.188 C 
BRANCH  30  31
ATOM     31  O   UNL     1       4.753   3.559  -3.137  1.00  0.00    -0.376 OA
BRANCH  31  32
ATOM     32  C   UNL     1       3.553   4.075  -3.686  1.00  0.00     0.202 C 
BRANCH  32  33
ATOM     33  C   UNL     1       3.258   3.965  -5.192  1.00  0.00     0.261 C 
BRANCH  33  34
ATOM     34  O   UNL     1       3.621   2.732  -5.830  1.00  0.00    -0.460 OA
BRANCH  34  35
ATOM     35  C   UNL     1       4.786   2.734  -6.520  1.00  0.00     0.338 C 
ATOM     36  O   UNL     1       5.543   3.675  -6.696  1.00  0.00    -0.246 OA
BRANCH  35  37
ATOM     37  C   UNL     1       5.127   1.336  -6.867  1.00  0.00     0.060 A 
ATOM     38  C   UNL     1       6.329   0.792  -6.384  1.00  0.00     0.016 A 
ATOM     39  C   UNL     1       4.257   0.553  -7.626  1.00  0.00     0.016 A 
ATOM     40  C   UNL     1       6.653  -0.539  -6.637  1.00  0.00     0.010 A 
ATOM     41  C   UNL     1       4.611  -0.764  -7.930  1.00  0.00     0.010 A 
ATOM     42  C   UNL     1       5.815  -1.312  -7.447  1.00  0.00    -0.014 A 
BRANCH  42  43
ATOM     43  C   UNL     1       6.277  -2.624  -7.954  1.00  0.00     0.031 A 
ATOM     44  C   UNL     1       6.996  -2.658  -9.271  1.00  0.00     0.074 A 
ATOM     45  C   UNL     1       6.022  -3.764  -7.288  1.00  0.00     0.049 A 
ATOM     46  N   UNL     1       7.381  -3.689  -9.977  1.00  0.00    -0.248 NA
ATOM     47  C   UNL     1       7.308  -1.355  -9.883  1.00  0.00     0.031 C 
ATOM     48  C   UNL     1       5.347  -3.853  -5.996  1.00  0.00     0.029 A 
ATOM     49  N   UNL     1       6.275  -5.071  -7.628  1.00  0.00    -0.354 N 
ATOM     50  C   UNL     1       7.949  -3.161 -11.128  1.00  0.00     0.074 A 
ATOM     51  C   UNL     1       7.864  -1.721 -11.028  1.00  0.00     0.031 C 
ATOM     52  C   UNL     1       5.207  -5.151  -5.671  1.00  0.00     0.029 A 
ATOM     53  C   UNL     1       5.770  -5.984  -6.732  1.00  0.00     0.049 A 
ATOM     54  H   UNL     1       6.771  -5.330  -8.439  1.00  0.00     0.167 HD
ATOM     55  C   UNL     1       8.479  -3.820 -12.183  1.00  0.00     0.031 A 
ATOM     56  C   UNL     1       5.740  -7.332  -6.782  1.00  0.00     0.031 A 
ATOM     57  C   UNL     1       8.550  -5.252 -12.288  1.00  0.00     0.049 A 
ATOM     58  C   UNL     1       6.307  -8.034  -7.992  1.00  0.00     0.074 A 
ATOM     59  C   UNL     1       9.101  -6.010 -13.306  1.00  0.00     0.029 A 
ATOM     60  N   UNL     1       8.043  -6.138 -11.354  1.00  0.00    -0.354 N 
ATOM     61  N   UNL     1       6.897  -7.524  -9.046  1.00  0.00    -0.248 NA
ATOM     62  C   UNL     1       6.186  -9.500  -8.025  1.00  0.00     0.031 C 
ATOM     63  C   UNL     1       8.864  -7.357 -13.022  1.00  0.00     0.029 A 
ATOM     64  C   UNL     1       8.227  -7.437 -11.794  1.00  0.00     0.049 A 
ATOM     65  H   UNL     1       7.615  -5.883 -10.505  1.00  0.00     0.167 HD
ATOM     66  C   UNL     1       7.225  -8.605  -9.856  1.00  0.00     0.074 A 
ATOM     67  C   UNL     1       6.807  -9.800  -9.155  1.00  0.00     0.031 C 
ATOM     68  C   UNL     1       7.803  -8.612 -11.081  1.00  0.00     0.031 A 
BRANCH  55  69
ATOM     69  C   UNL     1       8.980  -3.005 -13.338  1.00  0.00    -0.014 A 
ATOM     70  C   UNL     1      10.173  -2.272 -13.255  1.00  0.00     0.009 A 
ATOM     71  C   UNL     1       8.279  -3.034 -14.555  1.00  0.00     0.009 A 
ATOM     72  C   UNL     1      10.647  -1.573 -14.367  1.00  0.00     0.001 A 
ATOM     73  C   UNL     1       8.769  -2.356 -15.671  1.00  0.00     0.001 A 
ATOM     74  C   UNL     1       9.951  -1.624 -15.575  1.00  0.00     0.000 A 
ENDBRANCH  55  69
BRANCH  56  75
ATOM     75  C   UNL     1       5.117  -8.132  -5.689  1.00  0.00    -0.014 A 
ATOM     76  C   UNL     1       5.885  -9.038  -4.936  1.00  0.00     0.009 A 
ATOM     77  C   UNL     1       3.743  -8.036  -5.420  1.00  0.00     0.009 A 
ATOM     78  C   UNL     1       5.289  -9.841  -3.960  1.00  0.00     0.001 A 
ATOM     79  C   UNL     1       3.155  -8.813  -4.418  1.00  0.00     0.001 A 
ATOM     80  C   UNL     1       3.926  -9.723  -3.697  1.00  0.00     0.000 A 
ENDBRANCH  56  75
BRANCH  68  81
ATOM     81  C   UNL     1       8.027  -9.947 -11.733  1.00  0.00    -0.014 A 
ATOM     82  C   UNL     1       6.952 -10.700 -12.232  1.00  0.00     0.009 A 
ATOM     83  C   UNL     1       9.333 -10.434 -11.898  1.00  0.00     0.009 A 
ATOM     84  C   UNL     1       7.179 -11.929 -12.854  1.00  0.00     0.001 A 
ATOM     85  C   UNL     1       9.560 -11.647 -12.550  1.00  0.00     0.001 A 
ATOM     86  C   UNL     1       8.482 -12.397 -13.020  1.00  0.00     0.000 A 
ENDBRANCH  68  81
ENDBRANCH  42  43
ENDBRANCH  35  37
ENDBRANCH  34  35
ENDBRANCH  33  34
ENDBRANCH  32  33
ENDBRANCH  31  32
ENDBRANCH  30  31
ENDBRANCH  29  30
ENDBRANCH  28  29
ENDBRANCH  27  28
ENDBRANCH   1  27
TORSDOF 25
