REMARK SMILES O=C(Cn1cc(NC(=O)N2CC[N@@H+]3CCC[C@@H]3C2)cn1)OCCOCCOCCOCCOC(=O)c1ccc(-c2c3nc(c(-c4ccccc4)c4ccc([nH]4)c(-c4ccccc4)c4nc(c(-c5ccccc5)c5ccc2[nH]5)C=C4)C=C3)cc1
REMARK SMILES IDX 26 1 25 2 24 3 23 4 22 5 21 6 2 7 1 8 3 9 4 10 5 11 20 12
REMARK SMILES IDX 6 13 19 14 7 15 8 16 9 18 10 19 11 20 18 21 12 22 17 23
REMARK SMILES IDX 13 24 16 25 14 26 15 28 27 29 28 30 29 31 30 32 31 33 32 34
REMARK SMILES IDX 33 35 34 36 35 37 36 38 37 39 83 40 38 41 82 42 39 43 40 44
REMARK SMILES IDX 41 45 76 46 42 47 81 48 75 49 77 50 43 51 80 52 74 53 73 54
REMARK SMILES IDX 44 56 66 57 51 58 65 59 52 60 55 61 64 62 78 63 53 64 54 65
REMARK SMILES IDX 63 67 79 68 56 69 45 70 46 71 50 72 47 73 49 74 48 75 67 76
REMARK SMILES IDX 68 77 72 78 69 79 71 80 70 81 57 82 58 83 62 84 59 85 61 86
REMARK SMILES IDX 60 87
REMARK H PARENT 7 17 13 27 77 55 55 66
REMARK Flexibility Score: inf
ROOT
ATOM      1  C   UNL     1       2.040  -3.009   0.890  1.00  0.00     0.188 C 
ENDROOT
BRANCH   1   2
ATOM      2  C   UNL     1       2.230  -1.595   0.343  1.00  0.00     0.188 C 
BRANCH   2   3
ATOM      3  O   UNL     1       3.378  -1.427  -0.467  1.00  0.00    -0.376 OA
BRANCH   3   4
ATOM      4  C   UNL     1       4.333  -0.423  -0.137  1.00  0.00     0.202 C 
BRANCH   4   5
ATOM      5  C   UNL     1       3.905   0.785   0.708  1.00  0.00     0.261 C 
BRANCH   5   6
ATOM      6  O   UNL     1       2.567   1.330   0.562  1.00  0.00    -0.462 OA
BRANCH   6   7
ATOM      7  C   UNL     1       1.783   1.497  -0.518  1.00  0.00     0.327 C 
ATOM      8  O   UNL     1       0.578   1.696  -0.350  1.00  0.00    -0.250 OA
BRANCH   7   9
ATOM      9  C   UNL     1       2.341   1.427  -1.902  1.00  0.00     0.266 C 
BRANCH   9  10
ATOM     10  N   UNL     1       3.449   2.330  -2.077  1.00  0.00    -0.259 N 
ATOM     11  C   UNL     1       3.433   3.681  -2.277  1.00  0.00     0.135 A 
ATOM     12  N   UNL     1       4.685   1.834  -1.969  1.00  0.00    -0.179 NA
ATOM     13  C   UNL     1       4.745   4.083  -2.156  1.00  0.00     0.081 A 
ATOM     14  C   UNL     1       5.448   2.907  -1.840  1.00  0.00     0.161 A 
BRANCH  13  15
ATOM     15  N   UNL     1       5.213   5.373  -2.260  1.00  0.00    -0.305 N 
ATOM     16  C   UNL     1       6.519   5.755  -2.114  1.00  0.00     0.322 C 
ATOM     17  H   UNL     1       4.555   6.079  -2.456  1.00  0.00     0.171 HD
ATOM     18  O   UNL     1       6.769   6.862  -1.638  1.00  0.00    -0.248 OA
BRANCH  16  19
ATOM     19  N   UNL     1       7.505   4.860  -2.474  1.00  0.00    -0.313 N 
ATOM     20  C   UNL     1       7.511   4.196  -3.798  1.00  0.00     0.183 C 
ATOM     21  C   UNL     1       8.794   4.918  -1.790  1.00  0.00     0.186 C 
ATOM     22  C   UNL     1       8.829   3.451  -4.088  1.00  0.00     0.284 C 
ATOM     23  C   UNL     1       9.930   5.227  -2.774  1.00  0.00     0.204 C 
ATOM     24  N   UNL     1       9.988   4.343  -3.965  1.00  0.00    -0.330 N 
ATOM     25  C   UNL     1      11.307   5.132  -2.123  1.00  0.00     0.073 C 
ATOM     26  C   UNL     1      11.265   3.632  -3.951  1.00  0.00     0.262 C 
ATOM     27  H   UNL     1       9.936   4.919  -4.806  1.00  0.00     0.348 HD
ATOM     28  C   UNL     1      12.189   4.601  -3.237  1.00  0.00     0.068 C 
ENDBRANCH  16  19
ENDBRANCH  13  15
ENDBRANCH   9  10
ENDBRANCH   7   9
ENDBRANCH   6   7
ENDBRANCH   5   6
ENDBRANCH   4   5
ENDBRANCH   3   4
ENDBRANCH   2   3
ENDBRANCH   1   2
BRANCH   1  29
ATOM     29  O   UNL     1       3.057  -3.613   1.673  1.00  0.00    -0.377 OA
BRANCH  29  30
ATOM     30  C   UNL     1       4.397  -3.179   1.579  1.00  0.00     0.188 C 
BRANCH  30  31
ATOM     31  C   UNL     1       5.353  -3.757   0.504  1.00  0.00     0.188 C 
BRANCH  31  32
ATOM     32  O   UNL     1       5.091  -3.852  -0.886  1.00  0.00    -0.376 OA
BRANCH  32  33
ATOM     33  C   UNL     1       3.917  -4.417  -1.444  1.00  0.00     0.202 C 
BRANCH  33  34
ATOM     34  C   UNL     1       3.464  -5.840  -1.110  1.00  0.00     0.261 C 
BRANCH  34  35
ATOM     35  O   UNL     1       3.355  -6.057   0.285  1.00  0.00    -0.460 OA
BRANCH  35  36
ATOM     36  C   UNL     1       4.441  -6.641   0.832  1.00  0.00     0.338 C 
ATOM     37  O   UNL     1       5.409  -7.093   0.246  1.00  0.00    -0.246 OA
BRANCH  36  38
ATOM     38  C   UNL     1       4.316  -6.624   2.297  1.00  0.00     0.060 A 
ATOM     39  C   UNL     1       5.402  -7.122   3.020  1.00  0.00     0.016 A 
ATOM     40  C   UNL     1       3.106  -6.289   2.923  1.00  0.00     0.016 A 
ATOM     41  C   UNL     1       5.184  -7.557   4.306  1.00  0.00     0.010 A 
ATOM     42  C   UNL     1       2.895  -6.682   4.222  1.00  0.00     0.010 A 
ATOM     43  C   UNL     1       3.889  -7.454   4.819  1.00  0.00    -0.014 A 
BRANCH  43  44
ATOM     44  C   UNL     1       3.490  -8.480   5.760  1.00  0.00     0.031 A 
ATOM     45  C   UNL     1       3.740  -8.232   7.184  1.00  0.00     0.074 A 
ATOM     46  C   UNL     1       2.833  -9.567   5.306  1.00  0.00     0.049 A 
ATOM     47  N   UNL     1       4.434  -8.954   7.998  1.00  0.00    -0.248 NA
ATOM     48  C   UNL     1       3.177  -7.006   7.764  1.00  0.00     0.031 C 
ATOM     49  C   UNL     1       2.271  -9.774   3.963  1.00  0.00     0.029 A 
ATOM     50  N   UNL     1       2.407 -10.662   5.992  1.00  0.00    -0.354 N 
ATOM     51  C   UNL     1       4.265  -8.366   9.242  1.00  0.00     0.074 A 
ATOM     52  C   UNL     1       3.585  -7.111   9.027  1.00  0.00     0.031 C 
ATOM     53  C   UNL     1       1.382 -10.786   4.007  1.00  0.00     0.029 A 
ATOM     54  C   UNL     1       1.414 -11.371   5.336  1.00  0.00     0.049 A 
ATOM     55  H   UNL     1       2.769 -10.924   6.869  1.00  0.00     0.167 HD
ATOM     56  C   UNL     1       4.481  -9.043  10.398  1.00  0.00     0.031 A 
ATOM     57  C   UNL     1       0.604 -12.310   5.872  1.00  0.00     0.031 A 
ATOM     58  C   UNL     1       5.263 -10.233  10.224  1.00  0.00     0.049 A 
ATOM     59  C   UNL     1       1.226 -12.791   7.126  1.00  0.00     0.074 A 
ATOM     60  C   UNL     1       6.535 -10.501   9.760  1.00  0.00     0.029 A 
ATOM     61  N   UNL     1       4.605 -11.439  10.241  1.00  0.00    -0.354 N 
ATOM     62  N   UNL     1       2.317 -13.501   7.170  1.00  0.00    -0.248 NA
ATOM     63  C   UNL     1       0.848 -12.160   8.381  1.00  0.00     0.031 C 
ATOM     64  C   UNL     1       6.444 -11.769   9.116  1.00  0.00     0.029 A 
ATOM     65  C   UNL     1       5.122 -12.204   9.226  1.00  0.00     0.049 A 
ATOM     66  H   UNL     1       3.893 -11.705  10.867  1.00  0.00     0.167 HD
ATOM     67  C   UNL     1       2.975 -13.075   8.315  1.00  0.00     0.074 A 
ATOM     68  C   UNL     1       1.964 -12.361   9.086  1.00  0.00     0.031 C 
ATOM     69  C   UNL     1       4.339 -13.092   8.391  1.00  0.00     0.031 A 
BRANCH  56  70
ATOM     70  C   UNL     1       3.662  -8.775  11.622  1.00  0.00    -0.014 A 
ATOM     71  C   UNL     1       4.120  -9.194  12.877  1.00  0.00     0.009 A 
ATOM     72  C   UNL     1       2.330  -8.317  11.536  1.00  0.00     0.009 A 
ATOM     73  C   UNL     1       3.282  -9.145  13.997  1.00  0.00     0.001 A 
ATOM     74  C   UNL     1       1.507  -8.227  12.657  1.00  0.00     0.001 A 
ATOM     75  C   UNL     1       1.981  -8.655  13.888  1.00  0.00     0.000 A 
ENDBRANCH  56  70
BRANCH  57  76
ATOM     76  C   UNL     1      -0.793 -12.601   5.493  1.00  0.00    -0.014 A 
ATOM     77  C   UNL     1      -1.405 -13.806   5.862  1.00  0.00     0.009 A 
ATOM     78  C   UNL     1      -1.610 -11.590   4.948  1.00  0.00     0.009 A 
ATOM     79  C   UNL     1      -2.786 -13.984   5.706  1.00  0.00     0.001 A 
ATOM     80  C   UNL     1      -2.985 -11.771   4.781  1.00  0.00     0.001 A 
ATOM     81  C   UNL     1      -3.575 -12.966   5.172  1.00  0.00     0.000 A 
ENDBRANCH  57  76
BRANCH  69  82
ATOM     82  C   UNL     1       5.087 -13.838   7.313  1.00  0.00    -0.014 A 
ATOM     83  C   UNL     1       5.030 -13.459   5.959  1.00  0.00     0.009 A 
ATOM     84  C   UNL     1       5.982 -14.854   7.680  1.00  0.00     0.009 A 
ATOM     85  C   UNL     1       5.813 -14.103   4.998  1.00  0.00     0.001 A 
ATOM     86  C   UNL     1       6.780 -15.484   6.721  1.00  0.00     0.001 A 
ATOM     87  C   UNL     1       6.691 -15.114   5.380  1.00  0.00     0.000 A 
ENDBRANCH  69  82
ENDBRANCH  43  44
ENDBRANCH  36  38
ENDBRANCH  35  36
ENDBRANCH  34  35
ENDBRANCH  33  34
ENDBRANCH  32  33
ENDBRANCH  31  32
ENDBRANCH  30  31
ENDBRANCH  29  30
ENDBRANCH   1  29
TORSDOF 23
