REMARK SMILES C=CC[C@@]1(C(=O)OCCOCCOCCOCCOC(=O)c2ccc(-c3c4nc(c(-c5ccccc5)c5ccc([nH]5)c(-c5ccccc5)c5nc(c(-c6ccccc6)c6ccc3[nH]6)C=C5)C=C4)cc2)CCCN(C(=O)c2ccc3c(c2)OCO3)C1
REMARK SMILES IDX 13 1 12 2 11 3 10 4 9 5 8 6 7 7 5 8 6 9 4 10 70 11 85 12
REMARK SMILES IDX 71 13 73 14 72 15 3 16 2 17 1 18 74 19 75 20 76 21 77 22
REMARK SMILES IDX 81 23 78 24 80 25 79 26 82 27 84 28 83 29 14 30 15 31 16 32
REMARK SMILES IDX 17 33 18 34 19 35 20 36 21 37 22 38 23 39 69 40 24 41 68 42
REMARK SMILES IDX 25 43 26 44 27 45 62 46 28 47 67 48 61 49 63 50 29 51 66 52
REMARK SMILES IDX 60 53 59 54 30 56 52 57 37 58 51 59 38 60 41 61 50 62 64 63
REMARK SMILES IDX 39 64 40 65 49 67 65 68 42 69 31 70 32 71 36 72 33 73 35 74
REMARK SMILES IDX 34 75 53 76 54 77 58 78 55 79 57 80 56 81 43 82 44 83 48 84
REMARK SMILES IDX 45 85 47 86 46 87
REMARK H PARENT 63 55 41 66
REMARK Flexibility Score: inf
ROOT
ATOM      1  O   UNL     1      -0.893  -1.200   0.536  1.00  0.00    -0.377 OA
ENDROOT
BRANCH   1   2
ATOM      2  C   UNL     1      -1.415  -2.027  -0.494  1.00  0.00     0.188 C 
BRANCH   2   3
ATOM      3  C   UNL     1      -1.122  -1.442  -1.871  1.00  0.00     0.188 C 
BRANCH   3   4
ATOM      4  O   UNL     1       0.243  -1.372  -2.280  1.00  0.00    -0.376 OA
BRANCH   4   5
ATOM      5  C   UNL     1       1.230  -0.950  -1.343  1.00  0.00     0.202 C 
BRANCH   5   6
ATOM      6  C   UNL     1       1.306   0.540  -0.956  1.00  0.00     0.261 C 
BRANCH   6   7
ATOM      7  O   UNL     1       0.179   1.109  -0.255  1.00  0.00    -0.463 OA
BRANCH   7   8
ATOM      8  C   UNL     1      -0.749   1.685  -1.060  1.00  0.00     0.314 C 
ATOM      9  O   UNL     1      -0.762   1.511  -2.278  1.00  0.00    -0.252 OA
BRANCH   8  10
ATOM     10  C   UNL     1      -1.672   2.709  -0.376  1.00  0.00     0.089 C 
ATOM     11  C   UNL     1      -2.391   3.493  -1.526  1.00  0.00     0.023 C 
ATOM     12  C   UNL     1      -0.792   3.692   0.405  1.00  0.00     0.138 C 
ATOM     13  C   UNL     1      -1.450   4.323  -2.395  1.00  0.00     0.023 C 
ATOM     14  N   UNL     1       0.098   4.457  -0.450  1.00  0.00    -0.337 N 
ATOM     15  C   UNL     1      -0.529   5.196  -1.558  1.00  0.00     0.120 C 
BRANCH  10  16
ATOM     16  C   UNL     1      -2.815   2.223   0.563  1.00  0.00     0.047 C 
BRANCH  16  17
ATOM     17  C   UNL     1      -2.740   0.973   1.372  1.00  0.00    -0.034 C 
ATOM     18  C   UNL     1      -2.354   0.905   2.652  1.00  0.00     0.004 C 
ENDBRANCH  16  17
ENDBRANCH  10  16
BRANCH  14  19
ATOM     19  C   UNL     1       1.430   4.583  -0.057  1.00  0.00     0.254 C 
ATOM     20  O   UNL     1       2.017   3.833   0.714  1.00  0.00    -0.269 OA
BRANCH  19  21
ATOM     21  C   UNL     1       2.133   5.770  -0.560  1.00  0.00     0.043 A 
ATOM     22  C   UNL     1       3.165   5.628  -1.504  1.00  0.00     0.018 A 
ATOM     23  C   UNL     1       1.596   7.016  -0.217  1.00  0.00     0.064 A 
ATOM     24  C   UNL     1       3.612   6.754  -2.198  1.00  0.00     0.051 A 
ATOM     25  C   UNL     1       2.015   8.084  -0.962  1.00  0.00     0.166 A 
ATOM     26  C   UNL     1       2.982   7.956  -1.936  1.00  0.00     0.165 A 
ATOM     27  O   UNL     1       1.472   9.329  -0.921  1.00  0.00    -0.454 OA
ATOM     28  O   UNL     1       3.156   9.118  -2.624  1.00  0.00    -0.454 OA
ATOM     29  C   UNL     1       2.032   9.879  -2.130  1.00  0.00     0.468 C 
ENDBRANCH  19  21
ENDBRANCH  14  19
ENDBRANCH   8  10
ENDBRANCH   7   8
ENDBRANCH   6   7
ENDBRANCH   5   6
ENDBRANCH   4   5
ENDBRANCH   3   4
ENDBRANCH   2   3
ENDBRANCH   1   2
BRANCH   1  30
ATOM     30  C   UNL     1      -0.200  -1.782   1.636  1.00  0.00     0.188 C 
BRANCH  30  31
ATOM     31  C   UNL     1      -0.245  -3.301   1.768  1.00  0.00     0.188 C 
BRANCH  31  32
ATOM     32  O   UNL     1      -1.537  -3.902   1.856  1.00  0.00    -0.376 OA
BRANCH  32  33
ATOM     33  C   UNL     1      -2.580  -3.169   2.495  1.00  0.00     0.202 C 
BRANCH  33  34
ATOM     34  C   UNL     1      -2.565  -3.174   4.024  1.00  0.00     0.261 C 
BRANCH  34  35
ATOM     35  O   UNL     1      -1.404  -2.527   4.573  1.00  0.00    -0.460 OA
BRANCH  35  36
ATOM     36  C   UNL     1      -0.433  -3.368   4.991  1.00  0.00     0.338 C 
ATOM     37  O   UNL     1      -0.454  -4.596   4.972  1.00  0.00    -0.246 OA
BRANCH  36  38
ATOM     38  C   UNL     1       0.776  -2.612   5.347  1.00  0.00     0.060 A 
ATOM     39  C   UNL     1       1.990  -3.011   4.772  1.00  0.00     0.016 A 
ATOM     40  C   UNL     1       0.742  -1.601   6.311  1.00  0.00     0.016 A 
ATOM     41  C   UNL     1       3.181  -2.437   5.195  1.00  0.00     0.010 A 
ATOM     42  C   UNL     1       1.944  -1.038   6.750  1.00  0.00     0.010 A 
ATOM     43  C   UNL     1       3.167  -1.487   6.223  1.00  0.00    -0.014 A 
BRANCH  43  44
ATOM     44  C   UNL     1       4.455  -1.115   6.847  1.00  0.00     0.031 A 
ATOM     45  C   UNL     1       4.870  -1.799   8.120  1.00  0.00     0.074 A 
ATOM     46  C   UNL     1       5.281  -0.251   6.233  1.00  0.00     0.049 A 
ATOM     47  N   UNL     1       5.980  -1.681   8.802  1.00  0.00    -0.248 NA
ATOM     48  C   UNL     1       3.906  -2.750   8.700  1.00  0.00     0.031 C 
ATOM     49  C   UNL     1       5.004   0.428   4.968  1.00  0.00     0.029 A 
ATOM     50  N   UNL     1       6.530   0.186   6.588  1.00  0.00    -0.354 N 
ATOM     51  C   UNL     1       5.847  -2.537   9.889  1.00  0.00     0.074 A 
ATOM     52  C   UNL     1       4.537  -3.142   9.796  1.00  0.00     0.031 C 
ATOM     53  C   UNL     1       6.060   1.194   4.647  1.00  0.00     0.029 A 
ATOM     54  C   UNL     1       7.069   1.080   5.697  1.00  0.00     0.049 A 
ATOM     55  H   UNL     1       6.996  -0.113   7.402  1.00  0.00     0.167 HD
ATOM     56  C   UNL     1       6.740  -2.798  10.872  1.00  0.00     0.031 A 
ATOM     57  C   UNL     1       8.242   1.740   5.736  1.00  0.00     0.031 A 
ATOM     58  C   UNL     1       8.035  -2.176  10.970  1.00  0.00     0.049 A 
ATOM     59  C   UNL     1       9.184   1.486   6.881  1.00  0.00     0.074 A 
ATOM     60  C   UNL     1       9.018  -2.373  11.923  1.00  0.00     0.029 A 
ATOM     61  N   UNL     1       8.522  -1.228  10.082  1.00  0.00    -0.354 N 
ATOM     62  N   UNL     1       9.058   0.660   7.893  1.00  0.00    -0.248 NA
ATOM     63  C   UNL     1      10.439   2.248   6.879  1.00  0.00     0.031 C 
ATOM     64  C   UNL     1      10.073  -1.495  11.650  1.00  0.00     0.029 A 
ATOM     65  C   UNL     1       9.779  -0.805  10.484  1.00  0.00     0.049 A 
ATOM     66  H   UNL     1       8.045  -0.902   9.285  1.00  0.00     0.167 HD
ATOM     67  C   UNL     1      10.227   0.785   8.633  1.00  0.00     0.074 A 
ATOM     68  C   UNL     1      11.060   1.743   7.934  1.00  0.00     0.031 C 
ATOM     69  C   UNL     1      10.584   0.165   9.786  1.00  0.00     0.031 A 
BRANCH  56  70
ATOM     70  C   UNL     1       6.324  -3.766  11.947  1.00  0.00    -0.014 A 
ATOM     71  C   UNL     1       6.178  -5.138  11.686  1.00  0.00     0.009 A 
ATOM     72  C   UNL     1       6.097  -3.298  13.251  1.00  0.00     0.009 A 
ATOM     73  C   UNL     1       5.782  -6.014  12.700  1.00  0.00     0.001 A 
ATOM     74  C   UNL     1       5.731  -4.180  14.270  1.00  0.00     0.001 A 
ATOM     75  C   UNL     1       5.564  -5.535  13.991  1.00  0.00     0.000 A 
ENDBRANCH  56  70
BRANCH  57  76
ATOM     76  C   UNL     1       8.585   2.715   4.667  1.00  0.00    -0.014 A 
ATOM     77  C   UNL     1       9.646   2.473   3.783  1.00  0.00     0.009 A 
ATOM     78  C   UNL     1       7.857   3.909   4.541  1.00  0.00     0.009 A 
ATOM     79  C   UNL     1       9.992   3.421   2.815  1.00  0.00     0.001 A 
ATOM     80  C   UNL     1       8.182   4.839   3.551  1.00  0.00     0.001 A 
ATOM     81  C   UNL     1       9.257   4.599   2.697  1.00  0.00     0.000 A 
ENDBRANCH  57  76
BRANCH  69  82
ATOM     82  C   UNL     1      11.946   0.490  10.338  1.00  0.00    -0.014 A 
ATOM     83  C   UNL     1      12.243   1.760  10.857  1.00  0.00     0.009 A 
ATOM     84  C   UNL     1      12.950  -0.492  10.333  1.00  0.00     0.009 A 
ATOM     85  C   UNL     1      13.533   2.058  11.303  1.00  0.00     0.001 A 
ATOM     86  C   UNL     1      14.227  -0.203  10.815  1.00  0.00     0.001 A 
ATOM     87  C   UNL     1      14.522   1.076  11.283  1.00  0.00     0.000 A 
ENDBRANCH  69  82
ENDBRANCH  43  44
ENDBRANCH  36  38
ENDBRANCH  35  36
ENDBRANCH  34  35
ENDBRANCH  33  34
ENDBRANCH  32  33
ENDBRANCH  31  32
ENDBRANCH  30  31
ENDBRANCH   1  30
TORSDOF 24
