REMARK SMILES O=C(OCCOCCOCCOCCOC(=O)c1ccc(-c2c3nc(c(-c4ccccc4)c4ccc([nH]4)c(-c4ccccc4)c4nc(c(-c5ccccc5)c5ccc2[nH]5)C=C4)C=C3)cc1)C1=Cc2cc(Cl)c(Cl)cc2O[C@@H]1C(F)(F)F
REMARK SMILES IDX 10 1 9 2 8 3 7 4 6 5 5 6 4 7 3 8 2 9 1 10 66 11 67 12 77 13
REMARK SMILES IDX 68 14 76 15 69 16 75 17 70 18 74 19 71 20 72 21 73 22 78 23
REMARK SMILES IDX 79 24 80 25 81 26 11 27 12 28 13 29 14 30 15 31 16 32 17 33
REMARK SMILES IDX 18 34 19 35 65 36 20 37 64 38 21 39 22 40 23 41 58 42 24 43
REMARK SMILES IDX 63 44 57 45 59 46 25 47 62 48 56 49 55 50 26 52 48 53 33 54
REMARK SMILES IDX 47 55 34 56 37 57 46 58 60 59 35 60 36 61 45 63 61 64 38 65
REMARK SMILES IDX 27 66 28 67 32 68 29 69 31 70 30 71 49 72 50 73 54 74 51 75
REMARK SMILES IDX 53 76 52 77 39 78 40 79 44 80 41 81 43 82 42 83
REMARK H PARENT 59 51 37 62
REMARK Flexibility Score: inf
ROOT
ATOM      1  C   UNL     1       4.250   2.420   2.756  1.00  0.00     0.188 C 
ENDROOT
BRANCH   1   2
ATOM      2  O   UNL     1       2.921   2.503   3.209  1.00  0.00    -0.377 OA
BRANCH   2   3
ATOM      3  C   UNL     1       2.042   1.740   2.414  1.00  0.00     0.188 C 
BRANCH   3   4
ATOM      4  C   UNL     1       2.348   0.234   2.341  1.00  0.00     0.188 C 
BRANCH   4   5
ATOM      5  O   UNL     1       3.669  -0.329   2.019  1.00  0.00    -0.376 OA
BRANCH   5   6
ATOM      6  C   UNL     1       4.409  -0.743   0.586  1.00  0.00     0.202 C 
BRANCH   6   7
ATOM      7  C   UNL     1       3.673  -0.387  -1.424  1.00  0.00     0.261 C 
BRANCH   7   8
ATOM      8  O   UNL     1       2.767  -1.294  -2.231  1.00  0.00    -0.460 OA
BRANCH   8   9
ATOM      9  C   UNL     1       2.985  -2.588  -1.965  1.00  0.00     0.338 C 
ATOM     10  O   UNL     1       2.338  -3.541  -2.320  1.00  0.00    -0.246 OA
BRANCH   9  11
ATOM     11  C   UNL     1       3.850  -2.393  -0.811  1.00  0.00     0.087 C 
ATOM     12  C   UNL     1       5.227  -1.997  -1.153  1.00  0.00     0.027 C 
ATOM     13  C   UNL     1       2.577  -1.260   0.079  1.00  0.00     0.316 C 
ATOM     14  C   UNL     1       5.869  -0.318  -1.010  1.00  0.00     0.019 A 
ATOM     15  O   UNL     1       3.192   0.587   0.128  1.00  0.00    -0.475 OA
ATOM     16  C   UNL     1       7.142  -0.036  -1.427  1.00  0.00     0.034 A 
ATOM     17  C   UNL     1       4.880   0.994  -0.472  1.00  0.00     0.129 A 
ATOM     18  C   UNL     1       7.527   1.321  -1.345  1.00  0.00     0.060 A 
ATOM     19  C   UNL     1       5.322   2.292  -0.434  1.00  0.00     0.069 A 
ATOM     20  Cl  UNL     1       9.154   1.640  -1.891  1.00  0.00    -0.083 Cl
ATOM     21  C   UNL     1       6.671   2.419  -0.867  1.00  0.00     0.063 A 
ATOM     22  Cl  UNL     1       7.330   4.034  -0.798  1.00  0.00    -0.083 Cl
BRANCH  13  23
ATOM     23  C   UNL     1       2.271  -2.361   1.288  1.00  0.00     0.430 C 
ATOM     24  F   UNL     1       1.381  -2.026   2.238  1.00  0.00    -0.167 F 
ATOM     25  F   UNL     1       1.714  -3.454   0.682  1.00  0.00    -0.167 F 
ATOM     26  F   UNL     1       3.373  -2.850   1.909  1.00  0.00    -0.167 F 
ENDBRANCH  13  23
ENDBRANCH   9  11
ENDBRANCH   8   9
ENDBRANCH   7   8
ENDBRANCH   6   7
ENDBRANCH   5   6
ENDBRANCH   4   5
ENDBRANCH   3   4
ENDBRANCH   2   3
ENDBRANCH   1   2
BRANCH   1  27
ATOM     27  C   UNL     1       5.242   1.696   3.673  1.00  0.00     0.188 C 
BRANCH  27  28
ATOM     28  O   UNL     1       4.839   0.831   4.719  1.00  0.00    -0.376 OA
BRANCH  28  29
ATOM     29  C   UNL     1       3.644   1.044   5.447  1.00  0.00     0.202 C 
BRANCH  29  30
ATOM     30  C   UNL     1       3.376   2.345   6.218  1.00  0.00     0.261 C 
BRANCH  30  31
ATOM     31  O   UNL     1       3.610   3.565   5.506  1.00  0.00    -0.460 OA
BRANCH  31  32
ATOM     32  C   UNL     1       4.853   4.078   5.623  1.00  0.00     0.338 C 
ATOM     33  O   UNL     1       5.758   3.667   6.328  1.00  0.00    -0.246 OA
BRANCH  32  34
ATOM     34  C   UNL     1       5.038   5.142   4.612  1.00  0.00     0.060 A 
ATOM     35  C   UNL     1       6.192   5.113   3.810  1.00  0.00     0.016 A 
ATOM     36  C   UNL     1       4.107   6.171   4.471  1.00  0.00     0.016 A 
ATOM     37  C   UNL     1       6.449   6.135   2.902  1.00  0.00     0.010 A 
ATOM     38  C   UNL     1       4.389   7.224   3.602  1.00  0.00     0.010 A 
ATOM     39  C   UNL     1       5.586   7.231   2.859  1.00  0.00    -0.014 A 
BRANCH  39  40
ATOM     40  C   UNL     1       6.067   8.511   2.298  1.00  0.00     0.031 A 
ATOM     41  C   UNL     1       6.612   9.526   3.264  1.00  0.00     0.074 A 
ATOM     42  C   UNL     1       6.013   8.776   0.984  1.00  0.00     0.049 A 
ATOM     43  N   UNL     1       6.944  10.773   3.063  1.00  0.00    -0.248 NA
ATOM     44  C   UNL     1       6.788   9.069   4.654  1.00  0.00     0.031 C 
ATOM     45  C   UNL     1       5.584   7.843  -0.054  1.00  0.00     0.029 A 
ATOM     46  N   UNL     1       6.303   9.933   0.308  1.00  0.00    -0.354 N 
ATOM     47  C   UNL     1       7.333  11.258   4.305  1.00  0.00     0.074 A 
ATOM     48  C   UNL     1       7.171  10.183   5.256  1.00  0.00     0.031 C 
ATOM     49  C   UNL     1       5.609   8.477  -1.239  1.00  0.00     0.029 A 
ATOM     50  C   UNL     1       6.007   9.868  -1.030  1.00  0.00     0.049 A 
ATOM     51  H   UNL     1       6.685  10.731   0.740  1.00  0.00     0.167 HD
ATOM     52  C   UNL     1       7.779  12.495   4.626  1.00  0.00     0.031 A 
ATOM     53  C   UNL     1       6.016  10.838  -1.964  1.00  0.00     0.031 A 
ATOM     54  C   UNL     1       7.911  13.564   3.673  1.00  0.00     0.049 A 
ATOM     55  C   UNL     1       6.421  12.235  -1.572  1.00  0.00     0.074 A 
ATOM     56  C   UNL     1       8.364  14.853   3.882  1.00  0.00     0.029 A 
ATOM     57  N   UNL     1       7.574  13.467   2.331  1.00  0.00    -0.354 N 
ATOM     58  N   UNL     1       6.791  12.693  -0.399  1.00  0.00    -0.248 NA
ATOM     59  C   UNL     1       6.417  13.249  -2.636  1.00  0.00     0.031 C 
ATOM     60  C   UNL     1       8.222  15.560   2.685  1.00  0.00     0.029 A 
ATOM     61  C   UNL     1       7.775  14.685   1.707  1.00  0.00     0.049 A 
ATOM     62  H   UNL     1       7.241  12.653   1.889  1.00  0.00     0.167 HD
ATOM     63  C   UNL     1       7.106  14.033  -0.593  1.00  0.00     0.074 A 
ATOM     64  C   UNL     1       6.883  14.313  -1.997  1.00  0.00     0.031 C 
ATOM     65  C   UNL     1       7.552  14.945   0.306  1.00  0.00     0.031 A 
BRANCH  52  66
ATOM     66  C   UNL     1       8.087  12.766   6.074  1.00  0.00    -0.014 A 
ATOM     67  C   UNL     1       9.142  12.123   6.741  1.00  0.00     0.009 A 
ATOM     68  C   UNL     1       7.298  13.683   6.786  1.00  0.00     0.009 A 
ATOM     69  C   UNL     1       9.365  12.353   8.101  1.00  0.00     0.001 A 
ATOM     70  C   UNL     1       7.549  13.943   8.133  1.00  0.00     0.001 A 
ATOM     71  C   UNL     1       8.572  13.266   8.794  1.00  0.00     0.000 A 
ENDBRANCH  52  66
BRANCH  53  72
ATOM     72  C   UNL     1       5.604  10.522  -3.358  1.00  0.00    -0.014 A 
ATOM     73  C   UNL     1       6.539  10.548  -4.403  1.00  0.00     0.009 A 
ATOM     74  C   UNL     1       4.272  10.185  -3.649  1.00  0.00     0.009 A 
ATOM     75  C   UNL     1       6.145  10.264  -5.713  1.00  0.00     0.001 A 
ATOM     76  C   UNL     1       3.889   9.867  -4.953  1.00  0.00     0.001 A 
ATOM     77  C   UNL     1       4.823   9.916  -5.985  1.00  0.00     0.000 A 
ENDBRANCH  53  72
BRANCH  65  78
ATOM     78  C   UNL     1       7.901  16.319  -0.203  1.00  0.00    -0.014 A 
ATOM     79  C   UNL     1       6.919  17.224  -0.635  1.00  0.00     0.009 A 
ATOM     80  C   UNL     1       9.243  16.736  -0.178  1.00  0.00     0.009 A 
ATOM     81  C   UNL     1       7.280  18.505  -1.060  1.00  0.00     0.001 A 
ATOM     82  C   UNL     1       9.595  18.028  -0.566  1.00  0.00     0.001 A 
ATOM     83  C   UNL     1       8.614  18.909  -1.017  1.00  0.00     0.000 A 
ENDBRANCH  65  78
ENDBRANCH  39  40
ENDBRANCH  32  34
ENDBRANCH  31  32
ENDBRANCH  30  31
ENDBRANCH  29  30
ENDBRANCH  28  29
ENDBRANCH  27  28
ENDBRANCH   1  27
TORSDOF 21
