REMARK SMILES COc1ccc(-c2[nH]nc3nc(-c4ccc(C(F)(F)F)cc4)cc(C(=O)OCCOCCOCCOCCOC(=O)c4ccc(-c5c6nc(c(-c7ccccc7)c7ccc([nH]7)c(-c7ccccc7)c7nc(c(-c8ccccc8)c8ccc5[nH]8)C=C7)C=C6)cc4)c23)cc1
REMARK SMILES IDX 33 1 32 2 31 3 30 4 29 5 28 6 27 7 25 8 26 9 24 10 7 11 8 12
REMARK SMILES IDX 90 13 9 14 10 16 11 17 23 18 12 19 6 20 3 21 4 22 92 23 5 24
REMARK SMILES IDX 91 25 2 26 1 27 13 28 14 29 22 30 15 31 21 32 16 33 17 34
REMARK SMILES IDX 18 35 19 36 20 37 34 38 35 39 36 40 37 41 38 42 39 43 40 44
REMARK SMILES IDX 41 45 42 46 43 47 89 48 44 49 88 50 45 51 46 52 47 53 82 54
REMARK SMILES IDX 48 55 87 56 81 57 83 58 49 59 86 60 80 61 79 62 50 64 72 65
REMARK SMILES IDX 57 66 71 67 58 68 61 69 70 70 84 71 59 72 60 73 69 75 85 76
REMARK SMILES IDX 62 77 51 78 52 79 56 80 53 81 55 82 54 83 73 84 74 85 78 86
REMARK SMILES IDX 75 87 77 88 76 89 63 90 64 91 68 92 65 93 67 94 66 95
REMARK H PARENT 8 15 83 63 61 74
REMARK Flexibility Score: inf
ROOT
ATOM      1  O   UNL     1       7.409   4.188  -1.975  1.00  0.00    -0.377 OA
ENDROOT
BRANCH   1   2
ATOM      2  C   UNL     1       6.171   4.763  -1.563  1.00  0.00     0.188 C 
BRANCH   2   3
ATOM      3  C   UNL     1       4.990   4.537  -2.500  1.00  0.00     0.188 C 
BRANCH   3   4
ATOM      4  O   UNL     1       4.692   3.185  -2.787  1.00  0.00    -0.376 OA
BRANCH   4   5
ATOM      5  C   UNL     1       3.799   2.850  -3.839  1.00  0.00     0.202 C 
BRANCH   5   6
ATOM      6  C   UNL     1       3.716   3.785  -5.054  1.00  0.00     0.261 C 
BRANCH   6   7
ATOM      7  O   UNL     1       3.526   5.178  -4.734  1.00  0.00    -0.460 OA
BRANCH   7   8
ATOM      8  C   UNL     1       2.455   5.520  -3.983  1.00  0.00     0.339 C 
ATOM      9  O   UNL     1       1.423   4.875  -3.901  1.00  0.00    -0.246 OA
BRANCH   8  10
ATOM     10  C   UNL     1       2.811   6.733  -3.209  1.00  0.00     0.075 A 
ATOM     11  C   UNL     1       1.613   6.375  -1.007  1.00  0.00     0.075 A 
ATOM     12  N   UNL     1       1.435   7.248   0.043  1.00  0.00    -0.275 N 
ATOM     13  C   UNL     1       2.346   7.098  -1.936  1.00  0.00     0.061 A 
ATOM     14  N   UNL     1       2.152   8.378  -0.041  1.00  0.00    -0.154 NA
ATOM     15  H   UNL     1       0.828   7.058   0.795  1.00  0.00     0.190 HD
ATOM     16  C   UNL     1       2.753   8.281  -1.226  1.00  0.00     0.182 A 
ATOM     17  N   UNL     1       3.680   9.145  -1.705  1.00  0.00    -0.226 NA
ATOM     18  C   UNL     1       3.801   7.641  -3.652  1.00  0.00     0.045 A 
ATOM     19  C   UNL     1       4.195   8.790  -2.913  1.00  0.00     0.074 A 
BRANCH  11  20
ATOM     20  C   UNL     1       1.209   4.981  -0.871  1.00  0.00     0.001 A 
ATOM     21  C   UNL     1       0.537   2.253  -0.645  1.00  0.00     0.118 A 
ATOM     22  C   UNL     1      -0.310   3.150  -1.302  1.00  0.00     0.047 A 
ATOM     23  C   UNL     1       1.710   2.732  -0.066  1.00  0.00     0.047 A 
ATOM     24  C   UNL     1       0.012   4.508  -1.404  1.00  0.00     0.014 A 
ATOM     25  C   UNL     1       2.039   4.089  -0.174  1.00  0.00     0.014 A 
BRANCH  21  26
ATOM     26  O   UNL     1       0.118   0.952  -0.659  1.00  0.00    -0.497 OA
ATOM     27  C   UNL     1       0.898   0.011   0.070  1.00  0.00     0.278 C 
ENDBRANCH  21  26
ENDBRANCH  11  20
BRANCH  19  28
ATOM     28  C   UNL     1       5.212   9.728  -3.457  1.00  0.00     0.000 A 
ATOM     29  C   UNL     1       6.134  10.397  -2.630  1.00  0.00     0.011 A 
ATOM     30  C   UNL     1       5.264  10.013  -4.833  1.00  0.00     0.011 A 
ATOM     31  C   UNL     1       7.059  11.314  -3.156  1.00  0.00     0.014 A 
ATOM     32  C   UNL     1       6.183  10.925  -5.362  1.00  0.00     0.014 A 
ATOM     33  C   UNL     1       7.088  11.591  -4.530  1.00  0.00     0.056 A 
BRANCH  33  34
ATOM     34  C   UNL     1       8.057  12.600  -5.098  1.00  0.00     0.416 C 
ATOM     35  F   UNL     1       7.875  13.849  -4.586  1.00  0.00    -0.166 F 
ATOM     36  F   UNL     1       9.357  12.278  -4.848  1.00  0.00    -0.166 F 
ATOM     37  F   UNL     1       7.965  12.738  -6.451  1.00  0.00    -0.166 F 
ENDBRANCH  33  34
ENDBRANCH  19  28
ENDBRANCH   8  10
ENDBRANCH   7   8
ENDBRANCH   6   7
ENDBRANCH   5   6
ENDBRANCH   4   5
ENDBRANCH   3   4
ENDBRANCH   2   3
ENDBRANCH   1   2
BRANCH   1  38
ATOM     38  C   UNL     1       7.342   2.859  -2.497  1.00  0.00     0.188 C 
BRANCH  38  39
ATOM     39  C   UNL     1       6.774   1.732  -1.589  1.00  0.00     0.188 C 
BRANCH  39  40
ATOM     40  O   UNL     1       5.750   2.132  -0.689  1.00  0.00    -0.376 OA
BRANCH  40  41
ATOM     41  C   UNL     1       5.952   2.269   0.707  1.00  0.00     0.202 C 
BRANCH  41  42
ATOM     42  C   UNL     1       7.124   3.051   1.307  1.00  0.00     0.261 C 
BRANCH  42  43
ATOM     43  O   UNL     1       8.223   3.243   0.450  1.00  0.00    -0.460 OA
BRANCH  43  44
ATOM     44  C   UNL     1       9.038   2.184   0.339  1.00  0.00     0.338 C 
ATOM     45  O   UNL     1       8.865   1.068   0.798  1.00  0.00    -0.246 OA
BRANCH  44  46
ATOM     46  C   UNL     1      10.259   2.621  -0.339  1.00  0.00     0.060 A 
ATOM     47  C   UNL     1      11.192   1.621  -0.599  1.00  0.00     0.016 A 
ATOM     48  C   UNL     1      10.596   3.982  -0.300  1.00  0.00     0.016 A 
ATOM     49  C   UNL     1      12.517   1.957  -0.494  1.00  0.00     0.010 A 
ATOM     50  C   UNL     1      11.918   4.312  -0.168  1.00  0.00     0.010 A 
ATOM     51  C   UNL     1      12.845   3.277  -0.159  1.00  0.00    -0.014 A 
BRANCH  51  52
ATOM     52  C   UNL     1      14.235   3.577   0.074  1.00  0.00     0.031 A 
ATOM     53  C   UNL     1      14.979   3.609  -1.196  1.00  0.00     0.074 A 
ATOM     54  C   UNL     1      14.735   3.842   1.294  1.00  0.00     0.049 A 
ATOM     55  N   UNL     1      15.762   2.693  -1.653  1.00  0.00    -0.248 NA
ATOM     56  C   UNL     1      14.612   4.644  -2.178  1.00  0.00     0.031 C 
ATOM     57  C   UNL     1      13.998   4.078   2.540  1.00  0.00     0.029 A 
ATOM     58  N   UNL     1      16.026   4.062   1.656  1.00  0.00    -0.354 N 
ATOM     59  C   UNL     1      16.189   3.173  -2.882  1.00  0.00     0.074 A 
ATOM     60  C   UNL     1      15.271   4.216  -3.254  1.00  0.00     0.031 C 
ATOM     61  C   UNL     1      14.831   4.643   3.448  1.00  0.00     0.029 A 
ATOM     62  C   UNL     1      16.175   4.673   2.895  1.00  0.00     0.049 A 
ATOM     63  H   UNL     1      16.790   3.810   1.089  1.00  0.00     0.167 HD
ATOM     64  C   UNL     1      17.467   2.947  -3.287  1.00  0.00     0.031 A 
ATOM     65  C   UNL     1      17.319   5.213   3.384  1.00  0.00     0.031 A 
ATOM     66  C   UNL     1      18.073   1.886  -2.519  1.00  0.00     0.049 A 
ATOM     67  C   UNL     1      18.443   4.631   2.619  1.00  0.00     0.074 A 
ATOM     68  C   UNL     1      17.879   0.531  -2.363  1.00  0.00     0.029 A 
ATOM     69  N   UNL     1      18.785   2.322  -1.429  1.00  0.00    -0.354 N 
ATOM     70  N   UNL     1      18.806   3.386   2.717  1.00  0.00    -0.248 NA
ATOM     71  C   UNL     1      18.942   5.336   1.446  1.00  0.00     0.031 C 
ATOM     72  C   UNL     1      18.259   0.238  -1.018  1.00  0.00     0.029 A 
ATOM     73  C   UNL     1      18.729   1.407  -0.416  1.00  0.00     0.049 A 
ATOM     74  H   UNL     1      19.269   3.178  -1.383  1.00  0.00     0.167 HD
ATOM     75  C   UNL     1      19.170   3.032   1.429  1.00  0.00     0.074 A 
ATOM     76  C   UNL     1      19.403   4.298   0.742  1.00  0.00     0.031 C 
ATOM     77  C   UNL     1      18.940   1.766   0.972  1.00  0.00     0.031 A 
BRANCH  64  78
ATOM     78  C   UNL     1      18.314   4.041  -3.909  1.00  0.00    -0.014 A 
ATOM     79  C   UNL     1      19.651   3.743  -4.223  1.00  0.00     0.009 A 
ATOM     80  C   UNL     1      17.962   5.407  -3.906  1.00  0.00     0.009 A 
ATOM     81  C   UNL     1      20.592   4.756  -4.441  1.00  0.00     0.001 A 
ATOM     82  C   UNL     1      18.888   6.420  -4.158  1.00  0.00     0.001 A 
ATOM     83  C   UNL     1      20.212   6.094  -4.400  1.00  0.00     0.000 A 
ENDBRANCH  64  78
BRANCH  65  84
ATOM     84  C   UNL     1      17.526   6.373   4.277  1.00  0.00    -0.014 A 
ATOM     85  C   UNL     1      18.773   6.579   4.894  1.00  0.00     0.009 A 
ATOM     86  C   UNL     1      16.613   7.440   4.277  1.00  0.00     0.009 A 
ATOM     87  C   UNL     1      19.116   7.826   5.433  1.00  0.00     0.001 A 
ATOM     88  C   UNL     1      16.954   8.685   4.819  1.00  0.00     0.001 A 
ATOM     89  C   UNL     1      18.212   8.884   5.378  1.00  0.00     0.000 A 
ENDBRANCH  65  84
BRANCH  77  90
ATOM     90  C   UNL     1      18.718   0.691   2.002  1.00  0.00    -0.014 A 
ATOM     91  C   UNL     1      17.643   0.675   2.907  1.00  0.00     0.009 A 
ATOM     92  C   UNL     1      19.602  -0.399   1.996  1.00  0.00     0.009 A 
ATOM     93  C   UNL     1      17.483  -0.388   3.803  1.00  0.00     0.001 A 
ATOM     94  C   UNL     1      19.428  -1.469   2.873  1.00  0.00     0.001 A 
ATOM     95  C   UNL     1      18.374  -1.460   3.782  1.00  0.00     0.000 A 
ENDBRANCH  77  90
ENDBRANCH  51  52
ENDBRANCH  44  46
ENDBRANCH  43  44
ENDBRANCH  42  43
ENDBRANCH  41  42
ENDBRANCH  40  41
ENDBRANCH  39  40
ENDBRANCH  38  39
ENDBRANCH   1  38
TORSDOF 24
