REMARK SMILES O=C(OCCOCCOCCOCCOC(=O)c1ccc(-c2c3nc(c(-c4ccccc4)c4ccc([nH]4)c(-c4ccccc4)c4nc(c(-c5ccccc5)c5ccc2[nH]5)C=C4)C=C3)cc1)c1ccc(/C=C2/SC(=O)N(c3ccc(F)cc3)C2=O)cc1
REMARK SMILES IDX 9 1 8 2 7 3 6 4 5 5 4 6 3 7 2 8 1 9 66 10 67 11 86 12 68 13
REMARK SMILES IDX 85 14 69 15 70 16 71 17 72 18 83 19 73 20 75 21 84 22 74 23
REMARK SMILES IDX 76 24 77 25 82 26 78 27 81 28 79 29 80 30 10 31 11 32 12 33
REMARK SMILES IDX 13 34 14 35 15 36 16 37 17 38 18 39 19 40 65 41 20 42 64 43
REMARK SMILES IDX 21 44 22 45 23 46 58 47 24 48 63 49 57 50 59 51 25 52 62 53
REMARK SMILES IDX 56 54 55 55 26 57 48 58 33 59 47 60 34 61 37 62 46 63 60 64
REMARK SMILES IDX 35 65 36 66 45 68 61 69 38 70 27 71 28 72 32 73 29 74 31 75
REMARK SMILES IDX 30 76 49 77 50 78 54 79 51 80 53 81 52 82 39 83 40 84 44 85
REMARK SMILES IDX 41 86 43 87 42 88
REMARK H PARENT 59 56 37 67
REMARK Flexibility Score: inf
ROOT
ATOM      1  O   UNL     1       2.632  -3.195   2.467  1.00  0.00    -0.377 OA
ENDROOT
BRANCH   1   2
ATOM      2  C   UNL     1       1.898  -2.424   1.515  1.00  0.00     0.188 C 
BRANCH   2   3
ATOM      3  C   UNL     1       2.368  -0.977   1.366  1.00  0.00     0.188 C 
BRANCH   3   4
ATOM      4  O   UNL     1       3.612  -0.953   0.661  1.00  0.00    -0.376 OA
BRANCH   4   5
ATOM      5  C   UNL     1       4.540   0.049   1.063  1.00  0.00     0.202 C 
BRANCH   5   6
ATOM      6  C   UNL     1       4.268   1.432   0.478  1.00  0.00     0.261 C 
BRANCH   6   7
ATOM      7  O   UNL     1       2.898   1.613   0.100  1.00  0.00    -0.460 OA
BRANCH   7   8
ATOM      8  C   UNL     1       2.309   1.218  -1.055  1.00  0.00     0.338 C 
ATOM      9  O   UNL     1       1.091   1.348  -1.173  1.00  0.00    -0.246 OA
BRANCH   8  10
ATOM     10  C   UNL     1       3.065   0.742  -2.248  1.00  0.00     0.060 A 
ATOM     11  C   UNL     1       4.066  -0.238  -2.260  1.00  0.00     0.016 A 
ATOM     12  C   UNL     1       2.636   1.266  -3.474  1.00  0.00     0.016 A 
ATOM     13  C   UNL     1       4.707  -0.602  -3.449  1.00  0.00     0.009 A 
ATOM     14  C   UNL     1       3.260   0.898  -4.665  1.00  0.00     0.009 A 
ATOM     15  C   UNL     1       4.338   0.006  -4.644  1.00  0.00    -0.024 A 
BRANCH  15  16
ATOM     16  C   UNL     1       5.202  -0.081  -5.820  1.00  0.00     0.029 C 
ATOM     17  C   UNL     1       6.097   0.892  -6.056  1.00  0.00     0.083 C 
ATOM     18  S   UNL     1       6.886   1.135  -7.557  1.00  0.00    -0.022 SA
ATOM     19  C   UNL     1       6.383   2.052  -5.153  1.00  0.00     0.272 C 
ATOM     20  C   UNL     1       7.120   2.853  -7.218  1.00  0.00     0.298 C 
ATOM     21  N   UNL     1       6.769   3.139  -5.914  1.00  0.00    -0.236 N 
ATOM     22  O   UNL     1       6.262   1.996  -3.936  1.00  0.00    -0.268 OA
ATOM     23  O   UNL     1       7.569   3.600  -8.073  1.00  0.00    -0.260 OA
BRANCH  21  24
ATOM     24  C   UNL     1       6.772   4.466  -5.383  1.00  0.00     0.053 A 
ATOM     25  C   UNL     1       7.027   4.719  -4.022  1.00  0.00     0.030 A 
ATOM     26  C   UNL     1       6.426   5.556  -6.200  1.00  0.00     0.030 A 
ATOM     27  C   UNL     1       6.932   6.011  -3.496  1.00  0.00     0.041 A 
ATOM     28  C   UNL     1       6.309   6.845  -5.669  1.00  0.00     0.041 A 
ATOM     29  C   UNL     1       6.564   7.061  -4.322  1.00  0.00     0.123 A 
ATOM     30  F   UNL     1       6.446   8.294  -3.814  1.00  0.00    -0.207 F 
ENDBRANCH  21  24
ENDBRANCH  15  16
ENDBRANCH   8  10
ENDBRANCH   7   8
ENDBRANCH   6   7
ENDBRANCH   5   6
ENDBRANCH   4   5
ENDBRANCH   3   4
ENDBRANCH   2   3
ENDBRANCH   1   2
BRANCH   1  31
ATOM     31  C   UNL     1       4.049  -3.102   2.396  1.00  0.00     0.188 C 
BRANCH  31  32
ATOM     32  C   UNL     1       4.761  -3.594   1.117  1.00  0.00     0.188 C 
BRANCH  32  33
ATOM     33  O   UNL     1       3.902  -3.985   0.053  1.00  0.00    -0.376 OA
BRANCH  33  34
ATOM     34  C   UNL     1       3.836  -5.389  -0.187  1.00  0.00     0.202 C 
BRANCH  34  35
ATOM     35  C   UNL     1       2.986  -6.165   0.829  1.00  0.00     0.261 C 
BRANCH  35  36
ATOM     36  O   UNL     1       3.465  -6.107   2.184  1.00  0.00    -0.460 OA
BRANCH  36  37
ATOM     37  C   UNL     1       4.688  -6.614   2.449  1.00  0.00     0.338 C 
ATOM     38  O   UNL     1       5.414  -7.224   1.684  1.00  0.00    -0.246 OA
BRANCH  37  39
ATOM     39  C   UNL     1       5.112  -6.077   3.764  1.00  0.00     0.060 A 
ATOM     40  C   UNL     1       6.388  -5.504   3.871  1.00  0.00     0.016 A 
ATOM     41  C   UNL     1       4.222  -6.016   4.843  1.00  0.00     0.016 A 
ATOM     42  C   UNL     1       6.780  -4.885   5.061  1.00  0.00     0.010 A 
ATOM     43  C   UNL     1       4.622  -5.414   6.039  1.00  0.00     0.010 A 
ATOM     44  C   UNL     1       5.913  -4.872   6.163  1.00  0.00    -0.014 A 
BRANCH  44  45
ATOM     45  C   UNL     1       6.444  -4.549   7.509  1.00  0.00     0.031 A 
ATOM     46  C   UNL     1       6.974  -5.693   8.330  1.00  0.00     0.074 A 
ATOM     47  C   UNL     1       6.469  -3.298   8.002  1.00  0.00     0.049 A 
ATOM     48  N   UNL     1       7.486  -5.688   9.534  1.00  0.00    -0.248 NA
ATOM     49  C   UNL     1       6.916  -7.025   7.703  1.00  0.00     0.031 C 
ATOM     50  C   UNL     1       6.013  -2.095   7.309  1.00  0.00     0.029 A 
ATOM     51  N   UNL     1       6.900  -2.839   9.224  1.00  0.00    -0.354 N 
ATOM     52  C   UNL     1       7.809  -7.011   9.804  1.00  0.00     0.074 A 
ATOM     53  C   UNL     1       7.409  -7.796   8.658  1.00  0.00     0.031 C 
ATOM     54  C   UNL     1       6.183  -1.035   8.121  1.00  0.00     0.029 A 
ATOM     55  C   UNL     1       6.736  -1.486   9.398  1.00  0.00     0.049 A 
ATOM     56  H   UNL     1       7.291  -3.426   9.911  1.00  0.00     0.167 HD
ATOM     57  C   UNL     1       8.394  -7.534  10.905  1.00  0.00     0.031 A 
ATOM     58  C   UNL     1       6.989  -0.710  10.471  1.00  0.00     0.031 A 
ATOM     59  C   UNL     1       8.766  -6.772  12.063  1.00  0.00     0.049 A 
ATOM     60  C   UNL     1       7.567  -1.328  11.720  1.00  0.00     0.074 A 
ATOM     61  C   UNL     1       9.372  -7.213  13.226  1.00  0.00     0.029 A 
ATOM     62  N   UNL     1       8.550  -5.412  12.210  1.00  0.00    -0.354 N 
ATOM     63  N   UNL     1       7.914  -2.572  11.946  1.00  0.00    -0.248 NA
ATOM     64  C   UNL     1       7.797  -0.427  12.861  1.00  0.00     0.031 C 
ATOM     65  C   UNL     1       9.474  -6.126  14.100  1.00  0.00     0.029 A 
ATOM     66  C   UNL     1       8.987  -5.000  13.456  1.00  0.00     0.049 A 
ATOM     67  H   UNL     1       8.147  -4.826  11.529  1.00  0.00     0.167 HD
ATOM     68  C   UNL     1       8.429  -2.597  13.238  1.00  0.00     0.074 A 
ATOM     69  C   UNL     1       8.362  -1.242  13.742  1.00  0.00     0.031 C 
ATOM     70  C   UNL     1       8.917  -3.647  13.943  1.00  0.00     0.031 A 
BRANCH  57  71
ATOM     71  C   UNL     1       8.629  -9.017  10.913  1.00  0.00    -0.014 A 
ATOM     72  C   UNL     1       9.621  -9.600  10.109  1.00  0.00     0.009 A 
ATOM     73  C   UNL     1       7.850  -9.839  11.741  1.00  0.00     0.009 A 
ATOM     74  C   UNL     1       9.806 -10.983  10.110  1.00  0.00     0.001 A 
ATOM     75  C   UNL     1       8.057 -11.218  11.761  1.00  0.00     0.001 A 
ATOM     76  C   UNL     1       9.027 -11.790  10.939  1.00  0.00     0.000 A 
ENDBRANCH  57  71
BRANCH  58  77
ATOM     77  C   UNL     1       6.684   0.747  10.434  1.00  0.00    -0.014 A 
ATOM     78  C   UNL     1       7.717   1.697  10.445  1.00  0.00     0.009 A 
ATOM     79  C   UNL     1       5.354   1.194  10.437  1.00  0.00     0.009 A 
ATOM     80  C   UNL     1       7.424   3.063  10.486  1.00  0.00     0.001 A 
ATOM     81  C   UNL     1       5.064   2.561  10.451  1.00  0.00     0.001 A 
ATOM     82  C   UNL     1       6.098   3.494  10.486  1.00  0.00     0.000 A 
ENDBRANCH  58  77
BRANCH  70  83
ATOM     83  C   UNL     1       9.456  -3.373  15.320  1.00  0.00    -0.014 A 
ATOM     84  C   UNL     1       8.604  -3.084  16.396  1.00  0.00     0.009 A 
ATOM     85  C   UNL     1      10.838  -3.467  15.553  1.00  0.00     0.009 A 
ATOM     86  C   UNL     1       9.128  -2.863  17.672  1.00  0.00     0.001 A 
ATOM     87  C   UNL     1      11.356  -3.275  16.834  1.00  0.00     0.001 A 
ATOM     88  C   UNL     1      10.502  -2.965  17.891  1.00  0.00     0.000 A 
ENDBRANCH  70  83
ENDBRANCH  44  45
ENDBRANCH  37  39
ENDBRANCH  36  37
ENDBRANCH  35  36
ENDBRANCH  34  35
ENDBRANCH  33  34
ENDBRANCH  32  33
ENDBRANCH  31  32
ENDBRANCH   1  31
TORSDOF 22
