REMARK SMILES Cc1nnc(SCCC(=O)OCCOCCOCCOCCOC(=O)c2ccc(-c3c4nc(c(-c5ccccc5)c5ccc([nH]5)c(-c5ccccc5)c5nc(c(-c6ccccc6)c6ccc3[nH]6)C=C5)C=C4)cc2)s1
REMARK SMILES IDX 16 1 15 2 14 3 13 4 12 5 11 6 9 7 10 8 8 9 7 10 6 11 5 12
REMARK SMILES IDX 1 13 2 14 3 15 74 16 4 17 17 18 18 19 19 20 20 21 21 22
REMARK SMILES IDX 22 23 23 24 24 25 25 26 26 27 27 28 73 29 28 30 72 31 29 32
REMARK SMILES IDX 30 33 31 34 66 35 32 36 71 37 65 38 67 39 33 40 70 41 64 42
REMARK SMILES IDX 63 43 34 45 56 46 41 47 55 48 42 49 45 50 54 51 68 52 43 53
REMARK SMILES IDX 44 54 53 56 69 57 46 58 35 59 36 60 40 61 37 62 39 63 38 64
REMARK SMILES IDX 57 65 58 66 62 67 59 68 61 69 60 70 47 71 48 72 52 73 49 74
REMARK SMILES IDX 51 75 50 76
REMARK H PARENT 67 44 45 55
REMARK Flexibility Score: inf
ROOT
ATOM      1  C   UNL     1       2.860  -3.215  -0.958  1.00  0.00     0.188 C 
ENDROOT
BRANCH   1   2
ATOM      2  C   UNL     1       2.326  -3.929   0.294  1.00  0.00     0.188 C 
BRANCH   2   3
ATOM      3  O   UNL     1       0.925  -4.015   0.482  1.00  0.00    -0.376 OA
BRANCH   3   4
ATOM      4  C   UNL     1       0.295  -3.141   1.428  1.00  0.00     0.202 C 
BRANCH   4   5
ATOM      5  C   UNL     1       1.122  -2.564   2.577  1.00  0.00     0.261 C 
BRANCH   5   6
ATOM      6  O   UNL     1       2.059  -1.593   2.072  1.00  0.00    -0.463 OA
BRANCH   6   7
ATOM      7  C   UNL     1       3.143  -1.380   2.856  1.00  0.00     0.306 C 
ATOM      8  O   UNL     1       3.321  -1.911   3.946  1.00  0.00    -0.252 OA
BRANCH   7   9
ATOM      9  C   UNL     1       4.195  -0.513   2.207  1.00  0.00     0.134 C 
BRANCH   9  10
ATOM     10  C   UNL     1       3.773   0.343   1.019  1.00  0.00     0.089 C 
BRANCH  10  11
ATOM     11  S   UNL     1       2.754   1.773   1.511  1.00  0.00    -0.093 SA
BRANCH  11  12
ATOM     12  C   UNL     1       1.174   1.304   0.934  1.00  0.00     0.174 A 
ATOM     13  C   UNL     1      -2.596   0.699   0.586  1.00  0.00     0.081 C 
ATOM     14  C   UNL     1      -1.122   0.850   0.548  1.00  0.00     0.115 A 
ATOM     15  N   UNL     1      -0.340   0.174  -0.262  1.00  0.00    -0.143 NA
ATOM     16  S   UNL     1      -0.284   1.927   1.591  1.00  0.00    -0.091 S 
ATOM     17  N   UNL     1       0.993   0.438  -0.035  1.00  0.00    -0.132 NA
ENDBRANCH  11  12
ENDBRANCH  10  11
ENDBRANCH   9  10
ENDBRANCH   7   9
ENDBRANCH   6   7
ENDBRANCH   5   6
ENDBRANCH   4   5
ENDBRANCH   3   4
ENDBRANCH   2   3
ENDBRANCH   1   2
BRANCH   1  18
ATOM     18  O   UNL     1       2.164  -2.160  -1.595  1.00  0.00    -0.377 OA
BRANCH  18  19
ATOM     19  C   UNL     1       0.783  -2.308  -1.911  1.00  0.00     0.188 C 
BRANCH  19  20
ATOM     20  C   UNL     1       0.306  -3.605  -2.575  1.00  0.00     0.188 C 
BRANCH  20  21
ATOM     21  O   UNL     1       0.477  -3.675  -3.991  1.00  0.00    -0.376 OA
BRANCH  21  22
ATOM     22  C   UNL     1       1.817  -3.568  -4.448  1.00  0.00     0.202 C 
BRANCH  22  23
ATOM     23  C   UNL     1       2.037  -2.331  -5.325  1.00  0.00     0.261 C 
BRANCH  23  24
ATOM     24  O   UNL     1       1.274  -1.190  -4.903  1.00  0.00    -0.460 OA
BRANCH  24  25
ATOM     25  C   UNL     1       0.000  -1.174  -5.372  1.00  0.00     0.338 C 
ATOM     26  O   UNL     1      -0.518  -1.953  -6.152  1.00  0.00    -0.246 OA
BRANCH  25  27
ATOM     27  C   UNL     1      -0.739  -0.035  -4.795  1.00  0.00     0.060 A 
ATOM     28  C   UNL     1      -1.974  -0.276  -4.183  1.00  0.00     0.016 A 
ATOM     29  C   UNL     1      -0.291   1.271  -5.006  1.00  0.00     0.016 A 
ATOM     30  C   UNL     1      -2.796   0.799  -3.836  1.00  0.00     0.010 A 
ATOM     31  C   UNL     1      -1.119   2.345  -4.668  1.00  0.00     0.010 A 
ATOM     32  C   UNL     1      -2.393   2.112  -4.123  1.00  0.00    -0.014 A 
BRANCH  32  33
ATOM     33  C   UNL     1      -3.370   3.224  -4.019  1.00  0.00     0.031 A 
ATOM     34  C   UNL     1      -4.148   3.626  -5.240  1.00  0.00     0.074 A 
ATOM     35  C   UNL     1      -3.577   3.862  -2.854  1.00  0.00     0.049 A 
ATOM     36  N   UNL     1      -5.039   4.575  -5.379  1.00  0.00    -0.248 NA
ATOM     37  C   UNL     1      -3.879   2.866  -6.471  1.00  0.00     0.031 C 
ATOM     38  C   UNL     1      -2.885   3.568  -1.604  1.00  0.00     0.029 A 
ATOM     39  N   UNL     1      -4.435   4.883  -2.533  1.00  0.00    -0.354 N 
ATOM     40  C   UNL     1      -5.423   4.537  -6.713  1.00  0.00     0.074 A 
ATOM     41  C   UNL     1      -4.662   3.481  -7.345  1.00  0.00     0.031 C 
ATOM     42  C   UNL     1      -3.376   4.361  -0.635  1.00  0.00     0.029 A 
ATOM     43  C   UNL     1      -4.373   5.261  -1.214  1.00  0.00     0.049 A 
ATOM     44  H   UNL     1      -5.038   5.306  -3.187  1.00  0.00     0.167 HD
ATOM     45  C   UNL     1      -6.323   5.317  -7.358  1.00  0.00     0.031 A 
ATOM     46  C   UNL     1      -5.029   6.237  -0.556  1.00  0.00     0.031 A 
ATOM     47  C   UNL     1      -7.066   6.382  -6.741  1.00  0.00     0.049 A 
ATOM     48  C   UNL     1      -5.991   7.119  -1.307  1.00  0.00     0.074 A 
ATOM     49  C   UNL     1      -8.001   7.227  -7.315  1.00  0.00     0.029 A 
ATOM     50  N   UNL     1      -6.952   6.755  -5.412  1.00  0.00    -0.354 N 
ATOM     51  N   UNL     1      -6.359   7.059  -2.564  1.00  0.00    -0.248 NA
ATOM     52  C   UNL     1      -6.617   8.213  -0.549  1.00  0.00     0.031 C 
ATOM     53  C   UNL     1      -8.419   8.141  -6.343  1.00  0.00     0.029 A 
ATOM     54  C   UNL     1      -7.784   7.831  -5.151  1.00  0.00     0.049 A 
ATOM     55  H   UNL     1      -6.367   6.319  -4.750  1.00  0.00     0.167 HD
ATOM     56  C   UNL     1      -7.268   8.095  -2.743  1.00  0.00     0.074 A 
ATOM     57  C   UNL     1      -7.414   8.752  -1.461  1.00  0.00     0.031 C 
ATOM     58  C   UNL     1      -7.920   8.472  -3.870  1.00  0.00     0.031 A 
BRANCH  45  59
ATOM     59  C   UNL     1      -6.520   5.069  -8.825  1.00  0.00    -0.014 A 
ATOM     60  C   UNL     1      -7.221   3.943  -9.286  1.00  0.00     0.009 A 
ATOM     61  C   UNL     1      -6.019   5.989  -9.759  1.00  0.00     0.009 A 
ATOM     62  C   UNL     1      -7.390   3.730 -10.656  1.00  0.00     0.001 A 
ATOM     63  C   UNL     1      -6.211   5.786 -11.126  1.00  0.00     0.001 A 
ATOM     64  C   UNL     1      -6.889   4.653 -11.574  1.00  0.00     0.000 A 
ENDBRANCH  45  59
BRANCH  46  65
ATOM     65  C   UNL     1      -4.778   6.465   0.892  1.00  0.00    -0.014 A 
ATOM     66  C   UNL     1      -5.781   6.210   1.841  1.00  0.00     0.009 A 
ATOM     67  C   UNL     1      -3.545   6.974   1.330  1.00  0.00     0.009 A 
ATOM     68  C   UNL     1      -5.562   6.484   3.193  1.00  0.00     0.001 A 
ATOM     69  C   UNL     1      -3.319   7.218   2.686  1.00  0.00     0.001 A 
ATOM     70  C   UNL     1      -4.331   6.983   3.615  1.00  0.00     0.000 A 
ENDBRANCH  46  65
BRANCH  58  71
ATOM     71  C   UNL     1      -8.875   9.627  -3.761  1.00  0.00    -0.014 A 
ATOM     72  C   UNL     1      -8.412  10.946  -3.639  1.00  0.00     0.009 A 
ATOM     73  C   UNL     1     -10.257   9.394  -3.827  1.00  0.00     0.009 A 
ATOM     74  C   UNL     1      -9.317  12.007  -3.557  1.00  0.00     0.001 A 
ATOM     75  C   UNL     1     -11.159  10.458  -3.770  1.00  0.00     0.001 A 
ATOM     76  C   UNL     1     -10.688  11.762  -3.627  1.00  0.00     0.000 A 
ENDBRANCH  58  71
ENDBRANCH  32  33
ENDBRANCH  25  27
ENDBRANCH  24  25
ENDBRANCH  23  24
ENDBRANCH  22  23
ENDBRANCH  21  22
ENDBRANCH  20  21
ENDBRANCH  19  20
ENDBRANCH  18  19
ENDBRANCH   1  18
TORSDOF 23
