REMARK SMILES O=C(OCCOCCOCCOCCOC(=O)c1cc(/C=C/c2cc(O)cc(O)c2)ccc1O)c1ccc(-c2c3nc(c(-c4ccccc4)c4ccc([nH]4)c(-c4ccccc4)c4nc(c(-c5ccccc5)c5ccc2[nH]5)C=C4)C=C3)cc1
REMARK SMILES IDX 10 1 9 2 8 3 7 4 6 5 5 6 4 7 3 8 2 9 1 10 35 11 36 12 82 13
REMARK SMILES IDX 37 14 81 15 38 16 39 17 40 18 75 19 41 20 80 21 74 22 76 23
REMARK SMILES IDX 42 24 79 25 73 26 72 27 43 29 65 30 50 31 64 32 51 33 54 34
REMARK SMILES IDX 63 35 77 36 52 37 53 38 62 40 78 41 55 42 44 43 45 44 49 45
REMARK SMILES IDX 46 46 48 47 47 48 66 49 67 50 71 51 68 52 70 53 69 54 56 55
REMARK SMILES IDX 57 56 61 57 58 58 60 59 59 60 11 61 12 62 13 63 14 64 15 65
REMARK SMILES IDX 16 66 17 67 18 68 19 69 33 70 20 71 32 72 31 73 34 74 21 76
REMARK SMILES IDX 22 77 23 78 24 79 30 80 25 81 28 82 27 83 26 84 29 86
REMARK H PARENT 76 28 54 39 34 75 26 85 29 87
REMARK Flexibility Score: inf
ROOT
ATOM      1  C   UNL     1       3.986  -3.821  -1.003  1.00  0.00     0.188 C 
ENDROOT
BRANCH   1   2
ATOM      2  O   UNL     1       2.564  -3.875  -1.013  1.00  0.00    -0.377 OA
BRANCH   2   3
ATOM      3  C   UNL     1       1.874  -2.628  -1.024  1.00  0.00     0.188 C 
BRANCH   3   4
ATOM      4  C   UNL     1       2.343  -1.626   0.029  1.00  0.00     0.188 C 
BRANCH   4   5
ATOM      5  O   UNL     1       3.655  -1.143  -0.277  1.00  0.00    -0.376 OA
BRANCH   5   6
ATOM      6  C   UNL     1       4.528  -0.988   0.841  1.00  0.00     0.202 C 
BRANCH   6   7
ATOM      7  C   UNL     1       4.348   0.325   1.603  1.00  0.00     0.261 C 
BRANCH   7   8
ATOM      8  O   UNL     1       2.980   0.743   1.652  1.00  0.00    -0.460 OA
BRANCH   8   9
ATOM      9  C   UNL     1       2.321   1.534   0.770  1.00  0.00     0.338 C 
ATOM     10  O   UNL     1       1.144   1.803   1.010  1.00  0.00    -0.246 OA
BRANCH   9  11
ATOM     11  C   UNL     1       2.923   2.117  -0.475  1.00  0.00     0.060 A 
ATOM     12  C   UNL     1       4.034   1.629  -1.171  1.00  0.00     0.016 A 
ATOM     13  C   UNL     1       2.257   3.232  -1.014  1.00  0.00     0.016 A 
ATOM     14  C   UNL     1       4.510   2.245  -2.323  1.00  0.00     0.010 A 
ATOM     15  C   UNL     1       2.724   3.861  -2.168  1.00  0.00     0.010 A 
ATOM     16  C   UNL     1       3.877   3.385  -2.800  1.00  0.00    -0.014 A 
BRANCH  16  17
ATOM     17  C   UNL     1       4.575   4.211  -3.794  1.00  0.00     0.031 A 
ATOM     18  C   UNL     1       5.329   5.396  -3.278  1.00  0.00     0.074 A 
ATOM     19  C   UNL     1       4.590   3.866  -5.090  1.00  0.00     0.049 A 
ATOM     20  N   UNL     1       5.879   6.380  -3.931  1.00  0.00    -0.248 NA
ATOM     21  C   UNL     1       5.479   5.479  -1.814  1.00  0.00     0.031 C 
ATOM     22  C   UNL     1       4.012   2.644  -5.648  1.00  0.00     0.029 A 
ATOM     23  N   UNL     1       5.115   4.520  -6.170  1.00  0.00    -0.354 N 
ATOM     24  C   UNL     1       6.391   7.226  -2.956  1.00  0.00     0.074 A 
ATOM     25  C   UNL     1       6.100   6.637  -1.671  1.00  0.00     0.031 C 
ATOM     26  C   UNL     1       4.199   2.646  -6.979  1.00  0.00     0.029 A 
ATOM     27  C   UNL     1       4.841   3.899  -7.363  1.00  0.00     0.049 A 
ATOM     28  H   UNL     1       5.637   5.352  -6.100  1.00  0.00     0.167 HD
ATOM     29  C   UNL     1       7.022   8.408  -3.130  1.00  0.00     0.031 A 
ATOM     30  C   UNL     1       5.036   4.338  -8.620  1.00  0.00     0.031 A 
ATOM     31  C   UNL     1       7.267   8.969  -4.428  1.00  0.00     0.049 A 
ATOM     32  C   UNL     1       5.654   5.699  -8.801  1.00  0.00     0.074 A 
ATOM     33  C   UNL     1       7.836  10.182  -4.760  1.00  0.00     0.029 A 
ATOM     34  N   UNL     1       6.940   8.332  -5.620  1.00  0.00    -0.354 N 
ATOM     35  N   UNL     1       6.069   6.543  -7.883  1.00  0.00    -0.248 NA
ATOM     36  C   UNL     1       5.818   6.178 -10.178  1.00  0.00     0.031 C 
ATOM     37  C   UNL     1       7.807  10.299  -6.154  1.00  0.00     0.029 A 
ATOM     38  C   UNL     1       7.278   9.133  -6.691  1.00  0.00     0.049 A 
ATOM     39  H   UNL     1       6.528   7.441  -5.689  1.00  0.00     0.167 HD
ATOM     40  C   UNL     1       6.562   7.644  -8.568  1.00  0.00     0.074 A 
ATOM     41  C   UNL     1       6.399   7.355  -9.982  1.00  0.00     0.031 C 
ATOM     42  C   UNL     1       7.103   8.789  -8.082  1.00  0.00     0.031 A 
BRANCH  29  43
ATOM     43  C   UNL     1       7.359   9.182  -1.887  1.00  0.00    -0.014 A 
ATOM     44  C   UNL     1       8.347   8.749  -0.986  1.00  0.00     0.009 A 
ATOM     45  C   UNL     1       6.605  10.321  -1.567  1.00  0.00     0.009 A 
ATOM     46  C   UNL     1       8.526   9.405   0.235  1.00  0.00     0.001 A 
ATOM     47  C   UNL     1       6.808  10.993  -0.360  1.00  0.00     0.001 A 
ATOM     48  C   UNL     1       7.755  10.525   0.548  1.00  0.00     0.000 A 
ENDBRANCH  29  43
BRANCH  30  49
ATOM     49  C   UNL     1       4.577   3.514  -9.769  1.00  0.00    -0.014 A 
ATOM     50  C   UNL     1       5.494   2.899 -10.632  1.00  0.00     0.009 A 
ATOM     51  C   UNL     1       3.204   3.295  -9.977  1.00  0.00     0.009 A 
ATOM     52  C   UNL     1       5.046   2.085 -11.678  1.00  0.00     0.001 A 
ATOM     53  C   UNL     1       2.760   2.460 -11.005  1.00  0.00     0.001 A 
ATOM     54  C   UNL     1       3.682   1.859 -11.858  1.00  0.00     0.000 A 
ENDBRANCH  30  49
BRANCH  42  55
ATOM     55  C   UNL     1       7.604   9.787  -9.082  1.00  0.00    -0.014 A 
ATOM     56  C   UNL     1       6.721  10.621  -9.782  1.00  0.00     0.009 A 
ATOM     57  C   UNL     1       8.988   9.962  -9.238  1.00  0.00     0.009 A 
ATOM     58  C   UNL     1       7.220  11.608 -10.633  1.00  0.00     0.001 A 
ATOM     59  C   UNL     1       9.482  10.966 -10.068  1.00  0.00     0.001 A 
ATOM     60  C   UNL     1       8.597  11.786 -10.768  1.00  0.00     0.000 A 
ENDBRANCH  42  55
ENDBRANCH  16  17
ENDBRANCH   9  11
ENDBRANCH   8   9
ENDBRANCH   7   8
ENDBRANCH   6   7
ENDBRANCH   5   6
ENDBRANCH   4   5
ENDBRANCH   3   4
ENDBRANCH   2   3
ENDBRANCH   1   2
BRANCH   1  61
ATOM     61  C   UNL     1       4.714  -3.086  -2.150  1.00  0.00     0.188 C 
BRANCH  61  62
ATOM     62  O   UNL     1       3.856  -2.508  -3.122  1.00  0.00    -0.376 OA
BRANCH  62  63
ATOM     63  C   UNL     1       3.794  -3.196  -4.368  1.00  0.00     0.202 C 
BRANCH  63  64
ATOM     64  C   UNL     1       3.143  -4.585  -4.339  1.00  0.00     0.261 C 
BRANCH  64  65
ATOM     65  O   UNL     1       3.726  -5.518  -3.413  1.00  0.00    -0.460 OA
BRANCH  65  66
ATOM     66  C   UNL     1       4.958  -6.025  -3.653  1.00  0.00     0.342 C 
ATOM     67  O   UNL     1       5.678  -5.771  -4.604  1.00  0.00    -0.246 OA
BRANCH  66  68
ATOM     68  C   UNL     1       5.396  -6.707  -2.406  1.00  0.00     0.102 A 
ATOM     69  C   UNL     1       6.536  -6.208  -1.740  1.00  0.00     0.027 A 
ATOM     70  C   UNL     1       4.597  -7.675  -1.789  1.00  0.00     0.130 A 
ATOM     71  C   UNL     1       6.834  -6.627  -0.434  1.00  0.00    -0.025 A 
ATOM     72  C   UNL     1       4.921  -8.140  -0.516  1.00  0.00     0.048 A 
ATOM     73  C   UNL     1       6.028  -7.612   0.156  1.00  0.00     0.012 A 
BRANCH  70  74
ATOM     74  O   UNL     1       3.490  -8.164  -2.421  1.00  0.00    -0.507 OA
ATOM     75  H   UNL     1       3.265  -7.857  -3.277  1.00  0.00     0.293 HD
ENDBRANCH  70  74
BRANCH  71  76
ATOM     76  C   UNL     1       7.968  -6.109   0.350  1.00  0.00     0.009 C 
ATOM     77  C   UNL     1       8.361  -4.825   0.420  1.00  0.00     0.009 C 
BRANCH  77  78
ATOM     78  C   UNL     1       9.502  -4.387   1.252  1.00  0.00    -0.018 A 
ATOM     79  C   UNL     1      10.679  -5.150   1.330  1.00  0.00     0.054 A 
ATOM     80  C   UNL     1       9.444  -3.165   1.942  1.00  0.00     0.054 A 
ATOM     81  C   UNL     1      11.753  -4.710   2.105  1.00  0.00     0.119 A 
ATOM     82  C   UNL     1      10.533  -2.744   2.711  1.00  0.00     0.119 A 
ATOM     83  C   UNL     1      11.687  -3.512   2.799  1.00  0.00     0.092 A 
BRANCH  81  84
ATOM     84  O   UNL     1      12.902  -5.440   2.201  1.00  0.00    -0.508 OA
ATOM     85  H   UNL     1      12.979  -6.254   1.745  1.00  0.00     0.293 HD
ENDBRANCH  81  84
BRANCH  82  86
ATOM     86  O   UNL     1      10.511  -1.568   3.403  1.00  0.00    -0.508 OA
ATOM     87  H   UNL     1      11.254  -1.309   3.912  1.00  0.00     0.293 HD
ENDBRANCH  82  86
ENDBRANCH  77  78
ENDBRANCH  71  76
ENDBRANCH  66  68
ENDBRANCH  65  66
ENDBRANCH  64  65
ENDBRANCH  63  64
ENDBRANCH  62  63
ENDBRANCH  61  62
ENDBRANCH   1  61
TORSDOF 25
