REMARK SMILES O=C1OC(c2ccc(Cl)cc2)=N/C1=C/Nc1ccc(O)c(C(=O)OCCOCCOCCOCCOC(=O)c2ccc(-c3c4nc(c(-c5ccccc5)c5ccc([nH]5)c(-c5ccccc5)c5nc(c(-c6ccccc6)c6ccc3[nH]6)C=C5)C=C4)cc2)c1
REMARK SMILES IDX 29 1 28 2 27 3 26 4 25 5 24 6 22 7 23 8 21 9 16 10 17 11
REMARK SMILES IDX 87 12 18 13 19 14 15 15 14 17 1 18 2 19 3 20 13 21 4 22
REMARK SMILES IDX 12 23 5 24 6 25 11 26 7 27 10 28 8 29 9 30 20 31 30 33 31 34
REMARK SMILES IDX 32 35 33 36 34 37 35 38 36 39 37 40 38 41 39 42 40 43 86 44
REMARK SMILES IDX 41 45 85 46 42 47 43 48 44 49 79 50 45 51 84 52 78 53 80 54
REMARK SMILES IDX 46 55 83 56 77 57 76 58 47 60 69 61 54 62 68 63 55 64 58 65
REMARK SMILES IDX 67 66 81 67 56 68 57 69 66 71 82 72 59 73 48 74 49 75 53 76
REMARK SMILES IDX 50 77 52 78 51 79 70 80 71 81 75 82 72 83 74 84 73 85 60 86
REMARK SMILES IDX 61 87 65 88 62 89 64 90 63 91
REMARK H PARENT 15 16 20 32 80 59 58 70
REMARK Flexibility Score: inf
ROOT
ATOM      1  C   UNL     1      -4.375  -6.971  -0.232  1.00  0.00     0.188 C 
ENDROOT
BRANCH   1   2
ATOM      2  C   UNL     1      -4.626  -6.587  -1.714  1.00  0.00     0.188 C 
BRANCH   2   3
ATOM      3  O   UNL     1      -5.140  -7.628  -2.524  1.00  0.00    -0.376 OA
BRANCH   3   4
ATOM      4  C   UNL     1      -4.333  -8.186  -3.540  1.00  0.00     0.202 C 
BRANCH   4   5
ATOM      5  C   UNL     1      -3.026  -8.871  -3.126  1.00  0.00     0.261 C 
BRANCH   5   6
ATOM      6  O   UNL     1      -2.291  -8.200  -2.101  1.00  0.00    -0.460 OA
BRANCH   6   7
ATOM      7  C   UNL     1      -1.498  -7.175  -2.486  1.00  0.00     0.342 C 
ATOM      8  O   UNL     1      -1.382  -6.739  -3.619  1.00  0.00    -0.246 OA
BRANCH   7   9
ATOM      9  C   UNL     1      -0.973  -6.496  -1.278  1.00  0.00     0.103 A 
ATOM     10  C   UNL     1      -0.653  -4.385  -0.111  1.00  0.00     0.039 A 
ATOM     11  C   UNL     1      -0.069  -5.087   0.951  1.00  0.00     0.030 A 
ATOM     12  C   UNL     1      -1.096  -5.098  -1.227  1.00  0.00     0.045 A 
ATOM     13  C   UNL     1       0.020  -6.481   0.928  1.00  0.00     0.049 A 
ATOM     14  C   UNL     1      -0.438  -7.184  -0.185  1.00  0.00     0.130 A 
BRANCH  10  15
ATOM     15  N   UNL     1      -0.721  -2.987  -0.101  1.00  0.00    -0.360 N 
ATOM     16  H   UNL     1      -1.609  -2.567  -0.164  1.00  0.00     0.166 HD
BRANCH  15  17
ATOM     17  C   UNL     1       0.375  -2.166  -0.009  1.00  0.00     0.119 C 
ATOM     18  O   UNL     1      -1.899  -0.169  -0.012  1.00  0.00    -0.244 OA
ATOM     19  C   UNL     1      -0.717   0.088   0.016  1.00  0.00     0.365 C 
ATOM     20  O   UNL     1      -0.128   1.321   0.071  1.00  0.00    -0.402 OA
ATOM     21  C   UNL     1       0.454  -0.832   0.001  1.00  0.00     0.168 C 
ATOM     22  C   UNL     1       1.205   1.098   0.038  1.00  0.00     0.231 C 
ATOM     23  N   UNL     1       1.625  -0.123  -0.004  1.00  0.00    -0.204 NA
BRANCH  22  24
ATOM     24  C   UNL     1       2.034   2.296  -0.004  1.00  0.00     0.037 A 
ATOM     25  C   UNL     1       1.933   3.262   1.000  1.00  0.00     0.015 A 
ATOM     26  C   UNL     1       2.964   2.433  -1.040  1.00  0.00     0.015 A 
ATOM     27  C   UNL     1       2.778   4.374   0.966  1.00  0.00     0.021 A 
ATOM     28  C   UNL     1       3.792   3.556  -1.079  1.00  0.00     0.021 A 
ATOM     29  C   UNL     1       3.700   4.518  -0.073  1.00  0.00     0.041 A 
ATOM     30  Cl  UNL     1       4.738   5.889  -0.109  1.00  0.00    -0.084 Cl
ENDBRANCH  22  24
ENDBRANCH  15  17
ENDBRANCH  10  15
BRANCH  14  31
ATOM     31  O   UNL     1      -0.346  -8.546  -0.189  1.00  0.00    -0.507 OA
ATOM     32  H   UNL     1       0.015  -8.994   0.551  1.00  0.00     0.293 HD
ENDBRANCH  14  31
ENDBRANCH   7   9
ENDBRANCH   6   7
ENDBRANCH   5   6
ENDBRANCH   4   5
ENDBRANCH   3   4
ENDBRANCH   2   3
ENDBRANCH   1   2
BRANCH   1  33
ATOM     33  O   UNL     1      -4.722  -8.241   0.318  1.00  0.00    -0.377 OA
BRANCH  33  34
ATOM     34  C   UNL     1      -5.649  -9.077  -0.359  1.00  0.00     0.188 C 
BRANCH  34  35
ATOM     35  C   UNL     1      -7.017  -8.474  -0.740  1.00  0.00     0.188 C 
BRANCH  35  36
ATOM     36  O   UNL     1      -7.104  -7.080  -0.499  1.00  0.00    -0.376 OA
BRANCH  36  37
ATOM     37  C   UNL     1      -7.799  -6.638   0.651  1.00  0.00     0.202 C 
BRANCH  37  38
ATOM     38  C   UNL     1      -7.419  -7.191   2.034  1.00  0.00     0.261 C 
BRANCH  38  39
ATOM     39  O   UNL     1      -7.242  -8.610   2.151  1.00  0.00    -0.460 OA
BRANCH  39  40
ATOM     40  C   UNL     1      -8.337  -9.392   2.046  1.00  0.00     0.338 C 
ATOM     41  O   UNL     1      -9.485  -9.039   1.854  1.00  0.00    -0.246 OA
BRANCH  40  42
ATOM     42  C   UNL     1      -7.867 -10.794   2.022  1.00  0.00     0.060 A 
ATOM     43  C   UNL     1      -8.091 -11.576   0.881  1.00  0.00     0.016 A 
ATOM     44  C   UNL     1      -7.192 -11.324   3.123  1.00  0.00     0.016 A 
ATOM     45  C   UNL     1      -7.668 -12.906   0.852  1.00  0.00     0.010 A 
ATOM     46  C   UNL     1      -6.793 -12.662   3.104  1.00  0.00     0.010 A 
ATOM     47  C   UNL     1      -7.061 -13.467   1.982  1.00  0.00    -0.014 A 
BRANCH  47  48
ATOM     48  C   UNL     1      -6.910 -14.937   2.086  1.00  0.00     0.031 A 
ATOM     49  C   UNL     1      -7.957 -15.702   2.849  1.00  0.00     0.074 A 
ATOM     50  C   UNL     1      -5.878 -15.585   1.516  1.00  0.00     0.049 A 
ATOM     51  N   UNL     1      -8.006 -16.974   3.147  1.00  0.00    -0.248 NA
ATOM     52  C   UNL     1      -9.101 -14.920   3.346  1.00  0.00     0.031 C 
ATOM     53  C   UNL     1      -4.832 -14.968   0.704  1.00  0.00     0.029 A 
ATOM     54  N   UNL     1      -5.542 -16.915   1.549  1.00  0.00    -0.354 N 
ATOM     55  C   UNL     1      -9.176 -17.141   3.878  1.00  0.00     0.074 A 
ATOM     56  C   UNL     1      -9.791 -15.838   4.004  1.00  0.00     0.031 C 
ATOM     57  C   UNL     1      -3.961 -15.920   0.324  1.00  0.00     0.029 A 
ATOM     58  C   UNL     1      -4.366 -17.201   0.900  1.00  0.00     0.049 A 
ATOM     59  H   UNL     1      -6.092 -17.599   1.995  1.00  0.00     0.167 HD
ATOM     60  C   UNL     1      -9.694 -18.278   4.398  1.00  0.00     0.031 A 
ATOM     61  C   UNL     1      -3.684 -18.359   0.810  1.00  0.00     0.031 A 
ATOM     62  C   UNL     1      -9.072 -19.569   4.288  1.00  0.00     0.049 A 
ATOM     63  C   UNL     1      -4.233 -19.595   1.478  1.00  0.00     0.074 A 
ATOM     64  C   UNL     1      -9.520 -20.785   4.772  1.00  0.00     0.029 A 
ATOM     65  N   UNL     1      -7.861 -19.809   3.658  1.00  0.00    -0.354 N 
ATOM     66  N   UNL     1      -5.347 -19.747   2.152  1.00  0.00    -0.248 NA
ATOM     67  C   UNL     1      -3.429 -20.821   1.365  1.00  0.00     0.031 C 
ATOM     68  C   UNL     1      -8.547 -21.750   4.494  1.00  0.00     0.029 A 
ATOM     69  C   UNL     1      -7.531 -21.149   3.767  1.00  0.00     0.049 A 
ATOM     70  H   UNL     1      -7.317 -19.128   3.200  1.00  0.00     0.167 HD
ATOM     71  C   UNL     1      -5.396 -21.090   2.510  1.00  0.00     0.074 A 
ATOM     72  C   UNL     1      -4.205 -21.710   1.968  1.00  0.00     0.031 C 
ATOM     73  C   UNL     1      -6.344 -21.753   3.218  1.00  0.00     0.031 A 
BRANCH  60  74
ATOM     74  C   UNL     1     -10.978 -18.162   5.173  1.00  0.00    -0.014 A 
ATOM     75  C   UNL     1     -12.194 -17.860   4.540  1.00  0.00     0.009 A 
ATOM     76  C   UNL     1     -10.971 -18.381   6.559  1.00  0.00     0.009 A 
ATOM     77  C   UNL     1     -13.370 -17.745   5.285  1.00  0.00     0.001 A 
ATOM     78  C   UNL     1     -12.153 -18.299   7.297  1.00  0.00     0.001 A 
ATOM     79  C   UNL     1     -13.349 -17.970   6.661  1.00  0.00     0.000 A 
ENDBRANCH  60  74
BRANCH  61  80
ATOM     80  C   UNL     1      -2.388 -18.410   0.080  1.00  0.00    -0.014 A 
ATOM     81  C   UNL     1      -2.260 -19.151  -1.105  1.00  0.00     0.009 A 
ATOM     82  C   UNL     1      -1.260 -17.744   0.585  1.00  0.00     0.009 A 
ATOM     83  C   UNL     1      -1.024 -19.247  -1.752  1.00  0.00     0.001 A 
ATOM     84  C   UNL     1      -0.034 -17.814  -0.081  1.00  0.00     0.001 A 
ATOM     85  C   UNL     1       0.085 -18.574  -1.242  1.00  0.00     0.000 A 
ENDBRANCH  61  80
BRANCH  73  86
ATOM     86  C   UNL     1      -6.166 -23.236   3.403  1.00  0.00    -0.014 A 
ATOM     87  C   UNL     1      -5.169 -23.760   4.240  1.00  0.00     0.009 A 
ATOM     88  C   UNL     1      -7.050 -24.121   2.765  1.00  0.00     0.009 A 
ATOM     89  C   UNL     1      -5.041 -25.142   4.405  1.00  0.00     0.001 A 
ATOM     90  C   UNL     1      -6.942 -25.498   2.959  1.00  0.00     0.001 A 
ATOM     91  C   UNL     1      -5.931 -26.008   3.770  1.00  0.00     0.000 A 
ENDBRANCH  73  86
ENDBRANCH  47  48
ENDBRANCH  40  42
ENDBRANCH  39  40
ENDBRANCH  38  39
ENDBRANCH  37  38
ENDBRANCH  36  37
ENDBRANCH  35  36
ENDBRANCH  34  35
ENDBRANCH  33  34
ENDBRANCH   1  33
TORSDOF 24
