REMARK SMILES CCc1ncc(S(=O)(=O)NCc2ccc(C(=O)OCCOCCOCCOCCOC(=O)c3ccc(-c4c5nc(c(-c6ccccc6)c6ccc([nH]6)c(-c6ccccc6)c6nc(c(-c7ccccc7)c7ccc4[nH]7)C=C6)C=C5)cc3)o2)[nH]1
REMARK SMILES IDX 22 1 21 2 20 3 19 4 18 5 16 6 17 7 15 8 12 9 13 10 81 11
REMARK SMILES IDX 14 12 11 13 10 14 7 16 8 17 9 18 6 19 3 20 4 21 82 22 5 23
REMARK SMILES IDX 2 25 1 26 23 27 24 28 25 29 26 30 27 31 28 32 29 33 30 34
REMARK SMILES IDX 31 35 32 36 33 37 34 38 80 39 35 40 79 41 36 42 37 43 38 44
REMARK SMILES IDX 73 45 39 46 78 47 72 48 74 49 40 50 77 51 71 52 70 53 41 55
REMARK SMILES IDX 63 56 48 57 62 58 49 59 52 60 61 61 75 62 50 63 51 64 60 66
REMARK SMILES IDX 76 67 53 68 42 69 43 70 47 71 44 72 46 73 45 74 64 75 65 76
REMARK SMILES IDX 69 77 66 78 68 79 67 80 54 81 55 82 59 83 56 84 58 85 57 86
REMARK H PARENT 10 15 82 24 74 54 52 65
REMARK Flexibility Score: inf
ROOT
ATOM      1  C   UNL     1      -2.286  10.787  -2.284  1.00  0.00     0.188 C 
ENDROOT
BRANCH   1   2
ATOM      2  O   UNL     1      -3.219  11.528  -3.069  1.00  0.00    -0.376 OA
BRANCH   2   3
ATOM      3  C   UNL     1      -3.085  11.453  -4.482  1.00  0.00     0.202 C 
BRANCH   3   4
ATOM      4  C   UNL     1      -3.445  10.118  -5.157  1.00  0.00     0.261 C 
BRANCH   4   5
ATOM      5  O   UNL     1      -2.721   8.962  -4.713  1.00  0.00    -0.457 OA
BRANCH   5   6
ATOM      6  C   UNL     1      -1.369   8.959  -4.835  1.00  0.00     0.374 C 
ATOM      7  O   UNL     1      -0.719   9.819  -5.417  1.00  0.00    -0.242 OA
BRANCH   6   8
ATOM      8  C   UNL     1      -0.848   7.868  -4.045  1.00  0.00     0.211 A 
ATOM      9  C   UNL     1       0.545   6.933  -2.610  1.00  0.00     0.119 A 
ATOM     10  C   UNL     1      -0.486   6.036  -2.794  1.00  0.00     0.048 A 
ATOM     11  O   UNL     1       0.348   8.034  -3.393  1.00  0.00    -0.453 OA
ATOM     12  C   UNL     1      -1.393   6.647  -3.689  1.00  0.00     0.058 A 
BRANCH   9  13
ATOM     13  C   UNL     1       1.790   6.896  -1.807  1.00  0.00     0.174 C 
BRANCH  13  14
ATOM     14  N   UNL     1       1.594   7.259  -0.398  1.00  0.00    -0.202 NA
ATOM     15  H   UNL     1       2.525   7.377   0.002  1.00  0.00     0.141 HD
BRANCH  14  16
ATOM     16  S   UNL     1       0.754   6.267   0.651  1.00  0.00     0.258 S 
ATOM     17  O   UNL     1      -0.633   6.220   0.250  1.00  0.00    -0.205 OA
ATOM     18  O   UNL     1       1.114   6.656   1.994  1.00  0.00    -0.205 OA
BRANCH  16  19
ATOM     19  C   UNL     1       1.293   4.612   0.511  1.00  0.00     0.167 A 
ATOM     20  C   UNL     1       1.148   2.390   0.658  1.00  0.00     0.106 A 
ATOM     21  N   UNL     1       2.340   2.630   0.151  1.00  0.00    -0.240 NA
ATOM     22  N   UNL     1       0.486   3.567   0.901  1.00  0.00    -0.332 N 
ATOM     23  C   UNL     1       2.446   3.995   0.081  1.00  0.00     0.153 A 
ATOM     24  H   UNL     1      -0.415   3.651   1.290  1.00  0.00     0.169 HD
BRANCH  20  25
ATOM     25  C   UNL     1       0.557   1.060   0.989  1.00  0.00     0.072 C 
ATOM     26  C   UNL     1       0.995  -0.025   0.018  1.00  0.00     0.012 C 
ENDBRANCH  20  25
ENDBRANCH  16  19
ENDBRANCH  14  16
ENDBRANCH  13  14
ENDBRANCH   9  13
ENDBRANCH   6   8
ENDBRANCH   5   6
ENDBRANCH   4   5
ENDBRANCH   3   4
ENDBRANCH   2   3
ENDBRANCH   1   2
BRANCH   1  27
ATOM     27  C   UNL     1      -2.910   9.529  -1.657  1.00  0.00     0.188 C 
BRANCH  27  28
ATOM     28  O   UNL     1      -4.181   9.222  -2.211  1.00  0.00    -0.377 OA
BRANCH  28  29
ATOM     29  C   UNL     1      -5.313   9.906  -1.675  1.00  0.00     0.188 C 
BRANCH  29  30
ATOM     30  C   UNL     1      -5.185  11.280  -0.973  1.00  0.00     0.188 C 
BRANCH  30  31
ATOM     31  O   UNL     1      -4.141  11.349  -0.004  1.00  0.00    -0.376 OA
BRANCH  31  32
ATOM     32  C   UNL     1      -4.538  11.397   1.360  1.00  0.00     0.202 C 
BRANCH  32  33
ATOM     33  C   UNL     1      -4.924  10.028   1.932  1.00  0.00     0.261 C 
BRANCH  33  34
ATOM     34  O   UNL     1      -6.084   9.433   1.330  1.00  0.00    -0.460 OA
BRANCH  34  35
ATOM     35  C   UNL     1      -7.244  10.118   1.420  1.00  0.00     0.338 C 
ATOM     36  O   UNL     1      -7.445  11.165   2.007  1.00  0.00    -0.246 OA
BRANCH  35  37
ATOM     37  C   UNL     1      -8.218   9.468   0.525  1.00  0.00     0.060 A 
ATOM     38  C   UNL     1      -8.857  10.237  -0.456  1.00  0.00     0.016 A 
ATOM     39  C   UNL     1      -8.504   8.108   0.665  1.00  0.00     0.016 A 
ATOM     40  C   UNL     1      -9.822   9.651  -1.275  1.00  0.00     0.010 A 
ATOM     41  C   UNL     1      -9.479   7.527  -0.145  1.00  0.00     0.010 A 
ATOM     42  C   UNL     1     -10.167   8.305  -1.092  1.00  0.00    -0.014 A 
BRANCH  42  43
ATOM     43  C   UNL     1     -11.381   7.754  -1.734  1.00  0.00     0.031 A 
ATOM     44  C   UNL     1     -12.660   7.748  -0.944  1.00  0.00     0.074 A 
ATOM     45  C   UNL     1     -11.352   7.258  -2.982  1.00  0.00     0.049 A 
ATOM     46  N   UNL     1     -13.833   7.267  -1.266  1.00  0.00    -0.248 NA
ATOM     47  C   UNL     1     -12.605   8.365   0.392  1.00  0.00     0.031 C 
ATOM     48  C   UNL     1     -10.187   7.241  -3.863  1.00  0.00     0.029 A 
ATOM     49  N   UNL     1     -12.344   6.659  -3.717  1.00  0.00    -0.354 N 
ATOM     50  C   UNL     1     -14.652   7.518  -0.172  1.00  0.00     0.074 A 
ATOM     51  C   UNL     1     -13.837   8.165   0.832  1.00  0.00     0.031 C 
ATOM     52  C   UNL     1     -10.530   6.652  -5.023  1.00  0.00     0.029 A 
ATOM     53  C   UNL     1     -11.926   6.223  -4.950  1.00  0.00     0.049 A 
ATOM     54  H   UNL     1     -13.267   6.553  -3.392  1.00  0.00     0.167 HD
ATOM     55  C   UNL     1     -15.967   7.238  -0.016  1.00  0.00     0.031 A 
ATOM     56  C   UNL     1     -12.592   5.538  -5.899  1.00  0.00     0.031 A 
ATOM     57  C   UNL     1     -16.772   6.569  -1.000  1.00  0.00     0.049 A 
ATOM     58  C   UNL     1     -14.031   5.158  -5.668  1.00  0.00     0.074 A 
ATOM     59  C   UNL     1     -18.116   6.246  -0.941  1.00  0.00     0.029 A 
ATOM     60  N   UNL     1     -16.302   6.110  -2.220  1.00  0.00    -0.354 N 
ATOM     61  N   UNL     1     -14.804   5.424  -4.643  1.00  0.00    -0.248 NA
ATOM     62  C   UNL     1     -14.690   4.384  -6.731  1.00  0.00     0.031 C 
ATOM     63  C   UNL     1     -18.446   5.543  -2.104  1.00  0.00     0.029 A 
ATOM     64  C   UNL     1     -17.322   5.480  -2.912  1.00  0.00     0.049 A 
ATOM     65  H   UNL     1     -15.379   6.215  -2.546  1.00  0.00     0.167 HD
ATOM     66  C   UNL     1     -16.046   4.880  -4.950  1.00  0.00     0.074 A 
ATOM     67  C   UNL     1     -15.925   4.275  -6.261  1.00  0.00     0.031 C 
ATOM     68  C   UNL     1     -17.185   4.885  -4.216  1.00  0.00     0.031 A 
BRANCH  55  69
ATOM     69  C   UNL     1     -16.596   7.623   1.292  1.00  0.00    -0.014 A 
ATOM     70  C   UNL     1     -16.836   8.968   1.617  1.00  0.00     0.009 A 
ATOM     71  C   UNL     1     -16.957   6.626   2.211  1.00  0.00     0.009 A 
ATOM     72  C   UNL     1     -17.388   9.308   2.854  1.00  0.00     0.001 A 
ATOM     73  C   UNL     1     -17.535   6.967   3.434  1.00  0.00     0.001 A 
ATOM     74  C   UNL     1     -17.740   8.308   3.760  1.00  0.00     0.000 A 
ENDBRANCH  55  69
BRANCH  56  75
ATOM     75  C   UNL     1     -11.903   5.149  -7.157  1.00  0.00    -0.014 A 
ATOM     76  C   UNL     1     -12.246   5.756  -8.375  1.00  0.00     0.009 A 
ATOM     77  C   UNL     1     -10.913   4.155  -7.150  1.00  0.00     0.009 A 
ATOM     78  C   UNL     1     -11.626   5.360  -9.562  1.00  0.00     0.001 A 
ATOM     79  C   UNL     1     -10.276   3.779  -8.335  1.00  0.00     0.001 A 
ATOM     80  C   UNL     1     -10.639   4.376  -9.541  1.00  0.00     0.000 A 
ENDBRANCH  56  75
BRANCH  68  81
ATOM     81  C   UNL     1     -18.406   4.255  -4.826  1.00  0.00    -0.014 A 
ATOM     82  C   UNL     1     -18.532   2.862  -4.938  1.00  0.00     0.009 A 
ATOM     83  C   UNL     1     -19.470   5.071  -5.245  1.00  0.00     0.009 A 
ATOM     84  C   UNL     1     -19.689   2.301  -5.483  1.00  0.00     0.001 A 
ATOM     85  C   UNL     1     -20.635   4.506  -5.763  1.00  0.00     0.001 A 
ATOM     86  C   UNL     1     -20.741   3.122  -5.890  1.00  0.00     0.000 A 
ENDBRANCH  68  81
ENDBRANCH  42  43
ENDBRANCH  35  37
ENDBRANCH  34  35
ENDBRANCH  33  34
ENDBRANCH  32  33
ENDBRANCH  31  32
ENDBRANCH  30  31
ENDBRANCH  29  30
ENDBRANCH  28  29
ENDBRANCH  27  28
ENDBRANCH   1  27
TORSDOF 25
