REMARK SMILES CC(C)(CC(=O)OCCOCCOCCOCCOC(=O)c1ccc(-c2c3nc(c(-c4ccccc4)c4ccc([nH]4)c(-c4ccccc4)c4nc(c(-c5ccccc5)c5ccc2[nH]5)C=C4)C=C3)cc1)c1c(F)cc(F)cc1F
REMARK SMILES IDX 13 1 12 2 11 3 10 4 9 5 8 6 7 7 5 8 6 9 4 10 2 11 1 12 3 13
REMARK SMILES IDX 70 14 71 15 77 16 72 17 73 18 76 19 78 20 74 21 75 22 14 23
REMARK SMILES IDX 15 24 16 25 17 26 18 27 19 28 20 29 21 30 22 31 23 32 69 33
REMARK SMILES IDX 24 34 68 35 25 36 26 37 27 38 62 39 28 40 67 41 61 42 63 43
REMARK SMILES IDX 29 44 66 45 60 46 59 47 30 49 52 50 37 51 51 52 38 53 41 54
REMARK SMILES IDX 50 55 64 56 39 57 40 58 49 60 65 61 42 62 31 63 32 64 36 65
REMARK SMILES IDX 33 66 35 67 34 68 53 69 54 70 58 71 55 72 57 73 56 74 43 75
REMARK SMILES IDX 44 76 48 77 45 78 47 79 46 80
REMARK H PARENT 63 48 41 59
REMARK Flexibility Score: inf
ROOT
ATOM      1  O   UNL     1       0.187  -3.013  -1.627  1.00  0.00    -0.377 OA
ENDROOT
BRANCH   1   2
ATOM      2  C   UNL     1      -0.056  -3.103  -0.239  1.00  0.00     0.188 C 
BRANCH   2   3
ATOM      3  C   UNL     1      -1.442  -3.648   0.141  1.00  0.00     0.188 C 
BRANCH   3   4
ATOM      4  O   UNL     1      -2.449  -3.763  -0.854  1.00  0.00    -0.376 OA
BRANCH   4   5
ATOM      5  C   UNL     1      -2.510  -2.803  -1.895  1.00  0.00     0.202 C 
BRANCH   5   6
ATOM      6  C   UNL     1      -2.603  -1.302  -1.558  1.00  0.00     0.261 C 
BRANCH   6   7
ATOM      7  O   UNL     1      -1.636  -0.739  -0.637  1.00  0.00    -0.463 OA
BRANCH   7   8
ATOM      8  C   UNL     1      -2.100  -0.434   0.603  1.00  0.00     0.306 C 
ATOM      9  O   UNL     1      -3.244  -0.682   0.976  1.00  0.00    -0.252 OA
BRANCH   8  10
ATOM     10  C   UNL     1      -1.161   0.415   1.459  1.00  0.00     0.134 C 
BRANCH  10  11
ATOM     11  C   UNL     1       0.358   0.133   1.750  1.00  0.00     0.006 C 
ATOM     12  C   UNL     1       1.161   0.350   0.439  1.00  0.00     0.017 C 
ATOM     13  C   UNL     1       0.785   1.280   2.717  1.00  0.00     0.017 C 
BRANCH  11  14
ATOM     14  C   UNL     1       0.749  -1.176   2.477  1.00  0.00     0.030 A 
ATOM     15  C   UNL     1      -0.184  -2.094   2.981  1.00  0.00     0.132 A 
ATOM     16  C   UNL     1       2.101  -1.507   2.719  1.00  0.00     0.132 A 
ATOM     17  F   UNL     1      -1.494  -1.844   2.903  1.00  0.00    -0.206 F 
ATOM     18  C   UNL     1       0.189  -3.310   3.562  1.00  0.00     0.079 A 
ATOM     19  C   UNL     1       2.495  -2.696   3.334  1.00  0.00     0.079 A 
ATOM     20  F   UNL     1       3.081  -0.657   2.382  1.00  0.00    -0.206 F 
ATOM     21  C   UNL     1       1.531  -3.604   3.724  1.00  0.00     0.129 A 
ATOM     22  F   UNL     1       1.899  -4.772   4.266  1.00  0.00    -0.207 F 
ENDBRANCH  11  14
ENDBRANCH  10  11
ENDBRANCH   8  10
ENDBRANCH   7   8
ENDBRANCH   6   7
ENDBRANCH   5   6
ENDBRANCH   4   5
ENDBRANCH   3   4
ENDBRANCH   2   3
ENDBRANCH   1   2
BRANCH   1  23
ATOM     23  C   UNL     1       0.946  -4.068  -2.187  1.00  0.00     0.188 C 
BRANCH  23  24
ATOM     24  C   UNL     1       0.579  -5.496  -1.754  1.00  0.00     0.188 C 
BRANCH  24  25
ATOM     25  O   UNL     1       0.663  -5.703  -0.344  1.00  0.00    -0.376 OA
BRANCH  25  26
ATOM     26  C   UNL     1       1.820  -6.354   0.168  1.00  0.00     0.202 C 
BRANCH  26  27
ATOM     27  C   UNL     1       3.056  -5.459   0.338  1.00  0.00     0.261 C 
BRANCH  27  28
ATOM     28  O   UNL     1       3.606  -4.919  -0.872  1.00  0.00    -0.460 OA
BRANCH  28  29
ATOM     29  C   UNL     1       3.954  -5.783  -1.849  1.00  0.00     0.338 C 
ATOM     30  O   UNL     1       3.947  -6.999  -1.806  1.00  0.00    -0.246 OA
BRANCH  29  31
ATOM     31  C   UNL     1       4.137  -4.986  -3.075  1.00  0.00     0.060 A 
ATOM     32  C   UNL     1       3.340  -5.279  -4.191  1.00  0.00     0.016 A 
ATOM     33  C   UNL     1       5.035  -3.916  -3.098  1.00  0.00     0.016 A 
ATOM     34  C   UNL     1       3.451  -4.506  -5.345  1.00  0.00     0.010 A 
ATOM     35  C   UNL     1       5.174  -3.168  -4.265  1.00  0.00     0.010 A 
ATOM     36  C   UNL     1       4.404  -3.481  -5.398  1.00  0.00    -0.014 A 
BRANCH  36  37
ATOM     37  C   UNL     1       4.799  -2.919  -6.706  1.00  0.00     0.031 A 
ATOM     38  C   UNL     1       5.924  -3.601  -7.431  1.00  0.00     0.074 A 
ATOM     39  C   UNL     1       4.201  -1.831  -7.218  1.00  0.00     0.049 A 
ATOM     40  N   UNL     1       6.531  -3.258  -8.535  1.00  0.00    -0.248 NA
ATOM     41  C   UNL     1       6.439  -4.839  -6.817  1.00  0.00     0.031 C 
ATOM     42  C   UNL     1       3.067  -1.125  -6.625  1.00  0.00     0.029 A 
ATOM     43  N   UNL     1       4.486  -1.121  -8.357  1.00  0.00    -0.354 N 
ATOM     44  C   UNL     1       7.502  -4.229  -8.741  1.00  0.00     0.074 A 
ATOM     45  C   UNL     1       7.421  -5.162  -7.642  1.00  0.00     0.031 C 
ATOM     46  C   UNL     1       2.764  -0.066  -7.398  1.00  0.00     0.029 A 
ATOM     47  C   UNL     1       3.708  -0.001  -8.513  1.00  0.00     0.049 A 
ATOM     48  H   UNL     1       5.181  -1.390  -9.000  1.00  0.00     0.167 HD
ATOM     49  C   UNL     1       8.388  -4.332  -9.757  1.00  0.00     0.031 A 
ATOM     50  C   UNL     1       3.779   0.978  -9.437  1.00  0.00     0.031 A 
ATOM     51  C   UNL     1       8.486  -3.377 -10.824  1.00  0.00     0.049 A 
ATOM     52  C   UNL     1       4.839   0.894 -10.507  1.00  0.00     0.074 A 
ATOM     53  C   UNL     1       9.347  -3.377 -11.905  1.00  0.00     0.029 A 
ATOM     54  N   UNL     1       7.698  -2.240 -10.932  1.00  0.00    -0.354 N 
ATOM     55  N   UNL     1       5.738  -0.040 -10.710  1.00  0.00    -0.248 NA
ATOM     56  C   UNL     1       4.893   1.999 -11.476  1.00  0.00     0.031 C 
ATOM     57  C   UNL     1       9.122  -2.206 -12.634  1.00  0.00     0.029 A 
ATOM     58  C   UNL     1       8.073  -1.515 -12.047  1.00  0.00     0.049 A 
ATOM     59  H   UNL     1       6.980  -1.988 -10.307  1.00  0.00     0.167 HD
ATOM     60  C   UNL     1       6.438   0.345 -11.848  1.00  0.00     0.074 A 
ATOM     61  C   UNL     1       5.857   1.595 -12.293  1.00  0.00     0.031 C 
ATOM     62  C   UNL     1       7.467  -0.280 -12.472  1.00  0.00     0.031 A 
BRANCH  49  63
ATOM     63  C   UNL     1       9.348  -5.486  -9.720  1.00  0.00    -0.014 A 
ATOM     64  C   UNL     1       8.916  -6.805  -9.933  1.00  0.00     0.009 A 
ATOM     65  C   UNL     1      10.708  -5.249  -9.470  1.00  0.00     0.009 A 
ATOM     66  C   UNL     1       9.822  -7.865  -9.862  1.00  0.00     0.001 A 
ATOM     67  C   UNL     1      11.616  -6.307  -9.430  1.00  0.00     0.001 A 
ATOM     68  C   UNL     1      11.171  -7.615  -9.615  1.00  0.00     0.000 A 
ENDBRANCH  49  63
BRANCH  50  69
ATOM     69  C   UNL     1       2.846   2.135  -9.379  1.00  0.00    -0.014 A 
ATOM     70  C   UNL     1       1.874   2.324 -10.373  1.00  0.00     0.009 A 
ATOM     71  C   UNL     1       2.936   3.072  -8.337  1.00  0.00     0.009 A 
ATOM     72  C   UNL     1       1.030   3.438 -10.339  1.00  0.00     0.001 A 
ATOM     73  C   UNL     1       2.072   4.169  -8.289  1.00  0.00     0.001 A 
ATOM     74  C   UNL     1       1.127   4.356  -9.295  1.00  0.00     0.000 A 
ENDBRANCH  50  69
BRANCH  62  75
ATOM     75  C   UNL     1       7.997   0.341 -13.734  1.00  0.00    -0.014 A 
ATOM     76  C   UNL     1       8.787   1.500 -13.704  1.00  0.00     0.009 A 
ATOM     77  C   UNL     1       7.773  -0.302 -14.962  1.00  0.00     0.009 A 
ATOM     78  C   UNL     1       9.326   2.013 -14.886  1.00  0.00     0.001 A 
ATOM     79  C   UNL     1       8.338   0.196 -16.136  1.00  0.00     0.001 A 
ATOM     80  C   UNL     1       9.108   1.356 -16.098  1.00  0.00     0.000 A 
ENDBRANCH  62  75
ENDBRANCH  36  37
ENDBRANCH  29  31
ENDBRANCH  28  29
ENDBRANCH  27  28
ENDBRANCH  26  27
ENDBRANCH  25  26
ENDBRANCH  24  25
ENDBRANCH  23  24
ENDBRANCH   1  23
TORSDOF 22
