REMARK SMILES C[C@@H](C(=O)OCCOCCOCCOCCOC(=O)c1ccc(-c2c3nc(c(-c4ccccc4)c4ccc([nH]4)c(-c4ccccc4)c4nc(c(-c5ccccc5)c5ccc2[nH]5)C=C4)C=C3)cc1)c1ccc(Cc2cccs2)cc1F
REMARK SMILES IDX 10 1 9 2 8 3 7 4 6 5 5 6 3 7 4 8 2 9 1 10 68 11 69 12 79 13
REMARK SMILES IDX 70 14 78 15 80 16 71 17 72 18 73 19 74 20 77 21 75 22 76 23
REMARK SMILES IDX 11 24 12 25 13 26 14 27 15 28 16 29 17 30 18 31 19 32 20 33
REMARK SMILES IDX 21 34 67 35 22 36 66 37 23 38 24 39 25 40 60 41 26 42 65 43
REMARK SMILES IDX 59 44 61 45 27 46 64 47 58 48 57 49 28 51 50 52 35 53 49 54
REMARK SMILES IDX 36 55 39 56 48 57 62 58 37 59 38 60 47 62 63 63 40 64 29 65
REMARK SMILES IDX 30 66 34 67 31 68 33 69 32 70 51 71 52 72 56 73 53 74 55 75
REMARK SMILES IDX 54 76 41 77 42 78 46 79 43 80 45 81 44 82
REMARK H PARENT 61 50 39 61
REMARK Flexibility Score: inf
ROOT
ATOM      1  C   UNL     1       0.741   1.103  -2.421  1.00  0.00     0.188 C 
ENDROOT
BRANCH   1   2
ATOM      2  C   UNL     1       0.090   2.494  -2.473  1.00  0.00     0.188 C 
BRANCH   2   3
ATOM      3  O   UNL     1       0.818   3.540  -3.084  1.00  0.00    -0.376 OA
BRANCH   3   4
ATOM      4  C   UNL     1       1.934   4.137  -2.440  1.00  0.00     0.202 C 
BRANCH   4   5
ATOM      5  C   UNL     1       2.416   3.844  -1.002  1.00  0.00     0.261 C 
BRANCH   5   6
ATOM      6  O   UNL     1       1.891   2.672  -0.372  1.00  0.00    -0.463 OA
BRANCH   6   7
ATOM      7  C   UNL     1       1.272   2.817   0.823  1.00  0.00     0.313 C 
ATOM      8  O   UNL     1       1.171   3.886   1.418  1.00  0.00    -0.252 OA
BRANCH   7   9
ATOM      9  C   UNL     1       0.606   1.522   1.310  1.00  0.00     0.129 C 
ATOM     10  C   UNL     1       1.486   0.288   1.043  1.00  0.00     0.025 C 
BRANCH   9  11
ATOM     11  C   UNL     1      -0.881   1.419   0.947  1.00  0.00     0.002 A 
ATOM     12  C   UNL     1      -1.647   2.583   0.756  1.00  0.00     0.008 A 
ATOM     13  C   UNL     1      -1.577   0.203   0.900  1.00  0.00     0.127 A 
ATOM     14  C   UNL     1      -3.027   2.532   0.539  1.00  0.00     0.004 A 
ATOM     15  C   UNL     1      -2.968   0.146   0.725  1.00  0.00     0.043 A 
ATOM     16  F   UNL     1      -0.928  -0.959   1.054  1.00  0.00    -0.207 F 
ATOM     17  C   UNL     1      -3.717   1.318   0.578  1.00  0.00    -0.040 A 
BRANCH  17  18
ATOM     18  C   UNL     1      -5.231   1.296   0.514  1.00  0.00     0.082 C 
BRANCH  18  19
ATOM     19  C   UNL     1      -5.890   1.865   1.752  1.00  0.00     0.009 A 
ATOM     20  C   UNL     1      -5.846   3.157   2.246  1.00  0.00     0.016 A 
ATOM     21  S   UNL     1      -6.882   0.869   2.739  1.00  0.00    -0.149 S 
ATOM     22  C   UNL     1      -6.596   3.319   3.445  1.00  0.00     0.012 A 
ATOM     23  C   UNL     1      -7.223   2.153   3.817  1.00  0.00     0.065 A 
ENDBRANCH  18  19
ENDBRANCH  17  18
ENDBRANCH   9  11
ENDBRANCH   7   9
ENDBRANCH   6   7
ENDBRANCH   5   6
ENDBRANCH   4   5
ENDBRANCH   3   4
ENDBRANCH   2   3
ENDBRANCH   1   2
BRANCH   1  24
ATOM     24  O   UNL     1       2.156   1.095  -2.444  1.00  0.00    -0.377 OA
BRANCH  24  25
ATOM     25  C   UNL     1       2.821   1.180  -3.698  1.00  0.00     0.188 C 
BRANCH  25  26
ATOM     26  C   UNL     1       2.067   1.590  -4.982  1.00  0.00     0.188 C 
BRANCH  26  27
ATOM     27  O   UNL     1       0.746   1.086  -5.093  1.00  0.00    -0.376 OA
BRANCH  27  28
ATOM     28  C   UNL     1       0.527  -0.093  -5.852  1.00  0.00     0.202 C 
BRANCH  28  29
ATOM     29  C   UNL     1       1.189  -1.390  -5.360  1.00  0.00     0.261 C 
BRANCH  29  30
ATOM     30  O   UNL     1       2.624  -1.381  -5.277  1.00  0.00    -0.460 OA
BRANCH  30  31
ATOM     31  C   UNL     1       3.322  -1.110  -6.397  1.00  0.00     0.338 C 
ATOM     32  O   UNL     1       2.879  -0.928  -7.520  1.00  0.00    -0.246 OA
BRANCH  31  33
ATOM     33  C   UNL     1       4.726  -0.873  -6.007  1.00  0.00     0.060 A 
ATOM     34  C   UNL     1       5.306   0.372  -6.284  1.00  0.00     0.016 A 
ATOM     35  C   UNL     1       5.466  -1.872  -5.372  1.00  0.00     0.016 A 
ATOM     36  C   UNL     1       6.644   0.607  -5.965  1.00  0.00     0.010 A 
ATOM     37  C   UNL     1       6.812  -1.643  -5.072  1.00  0.00     0.010 A 
ATOM     38  C   UNL     1       7.417  -0.417  -5.402  1.00  0.00    -0.014 A 
BRANCH  38  39
ATOM     39  C   UNL     1       8.893  -0.281  -5.352  1.00  0.00     0.031 A 
ATOM     40  C   UNL     1       9.705  -0.930  -6.439  1.00  0.00     0.074 A 
ATOM     41  C   UNL     1       9.504   0.422  -4.382  1.00  0.00     0.049 A 
ATOM     42  N   UNL     1      11.004  -0.994  -6.582  1.00  0.00    -0.248 NA
ATOM     43  C   UNL     1       8.947  -1.601  -7.509  1.00  0.00     0.031 C 
ATOM     44  C   UNL     1       8.832   1.143  -3.303  1.00  0.00     0.029 A 
ATOM     45  N   UNL     1      10.841   0.634  -4.150  1.00  0.00    -0.354 N 
ATOM     46  C   UNL     1      11.218  -1.716  -7.750  1.00  0.00     0.074 A 
ATOM     47  C   UNL     1       9.919  -2.099  -8.257  1.00  0.00     0.031 C 
ATOM     48  C   UNL     1       9.762   1.710  -2.515  1.00  0.00     0.029 A 
ATOM     49  C   UNL     1      11.092   1.360  -3.012  1.00  0.00     0.049 A 
ATOM     50  H   UNL     1      11.551   0.298  -4.743  1.00  0.00     0.167 HD
ATOM     51  C   UNL     1      12.389  -2.030  -8.351  1.00  0.00     0.031 A 
ATOM     52  C   UNL     1      12.262   1.681  -2.425  1.00  0.00     0.031 A 
ATOM     53  C   UNL     1      13.683  -1.669  -7.835  1.00  0.00     0.049 A 
ATOM     54  C   UNL     1      13.556   1.238  -3.061  1.00  0.00     0.074 A 
ATOM     55  C   UNL     1      14.930  -1.938  -8.372  1.00  0.00     0.029 A 
ATOM     56  N   UNL     1      13.895  -0.971  -6.657  1.00  0.00    -0.354 N 
ATOM     57  N   UNL     1      13.747   0.573  -4.175  1.00  0.00    -0.248 NA
ATOM     58  C   UNL     1      14.797   1.601  -2.360  1.00  0.00     0.031 C 
ATOM     59  C   UNL     1      15.898  -1.458  -7.485  1.00  0.00     0.029 A 
ATOM     60  C   UNL     1      15.254  -0.825  -6.434  1.00  0.00     0.049 A 
ATOM     61  H   UNL     1      13.185  -0.629  -6.067  1.00  0.00     0.167 HD
ATOM     62  C   UNL     1      15.125   0.466  -4.323  1.00  0.00     0.074 A 
ATOM     63  C   UNL     1      15.722   1.149  -3.195  1.00  0.00     0.031 C 
ATOM     64  C   UNL     1      15.834  -0.141  -5.307  1.00  0.00     0.031 A 
BRANCH  51  65
ATOM     65  C   UNL     1      12.322  -2.841  -9.616  1.00  0.00    -0.014 A 
ATOM     66  C   UNL     1      11.821  -2.296 -10.809  1.00  0.00     0.009 A 
ATOM     67  C   UNL     1      12.792  -4.163  -9.619  1.00  0.00     0.009 A 
ATOM     68  C   UNL     1      11.758  -3.072 -11.969  1.00  0.00     0.001 A 
ATOM     69  C   UNL     1      12.759  -4.926 -10.788  1.00  0.00     0.001 A 
ATOM     70  C   UNL     1      12.232  -4.383 -11.959  1.00  0.00     0.000 A 
ENDBRANCH  51  65
BRANCH  52  71
ATOM     71  C   UNL     1      12.274   2.437  -1.143  1.00  0.00    -0.014 A 
ATOM     72  C   UNL     1      12.787   3.741  -1.079  1.00  0.00     0.009 A 
ATOM     73  C   UNL     1      11.797   1.840   0.036  1.00  0.00     0.009 A 
ATOM     74  C   UNL     1      12.850   4.420   0.141  1.00  0.00     0.001 A 
ATOM     75  C   UNL     1      11.830   2.533   1.248  1.00  0.00     0.001 A 
ATOM     76  C   UNL     1      12.366   3.818   1.302  1.00  0.00     0.000 A 
ENDBRANCH  52  71
BRANCH  64  77
ATOM     77  C   UNL     1      17.335  -0.055  -5.237  1.00  0.00    -0.014 A 
ATOM     78  C   UNL     1      18.068  -0.754  -4.265  1.00  0.00     0.009 A 
ATOM     79  C   UNL     1      18.030   0.704  -6.193  1.00  0.00     0.009 A 
ATOM     80  C   UNL     1      19.462  -0.663  -4.230  1.00  0.00     0.001 A 
ATOM     81  C   UNL     1      19.424   0.764  -6.177  1.00  0.00     0.001 A 
ATOM     82  C   UNL     1      20.138   0.090  -5.189  1.00  0.00     0.000 A 
ENDBRANCH  64  77
ENDBRANCH  38  39
ENDBRANCH  31  33
ENDBRANCH  30  31
ENDBRANCH  29  30
ENDBRANCH  28  29
ENDBRANCH  27  28
ENDBRANCH  26  27
ENDBRANCH  25  26
ENDBRANCH  24  25
ENDBRANCH   1  24
TORSDOF 23
