REMARK SMILES O=C(OCCOCCOCCOCCOC(=O)c1oc2cccc3c2c1CCC3)c1ccc(-c2c3nc(c(-c4ccccc4)c4ccc([nH]4)c(-c4ccccc4)c4nc(c(-c5ccccc5)c5ccc2[nH]5)C=C4)C=C3)cc1
REMARK SMILES IDX 8 1 7 2 6 3 5 4 4 5 3 6 2 7 1 8 30 9 31 10 77 11 32 12 76 13
REMARK SMILES IDX 33 14 34 15 35 16 70 17 36 18 75 19 69 20 71 21 37 22 74 23
REMARK SMILES IDX 68 24 67 25 38 27 60 28 45 29 59 30 46 31 49 32 58 33 72 34
REMARK SMILES IDX 47 35 48 36 57 38 73 39 50 40 39 41 40 42 44 43 41 44 43 45
REMARK SMILES IDX 42 46 61 47 62 48 66 49 63 50 65 51 64 52 51 53 52 54 56 55
REMARK SMILES IDX 53 56 55 57 54 58 9 59 10 60 11 61 12 62 13 63 14 64 15 65
REMARK SMILES IDX 16 66 17 67 18 68 19 69 26 70 20 71 25 72 27 73 21 74 24 75
REMARK SMILES IDX 28 76 22 77 23 78 29 79
REMARK H PARENT 71 26 49 37
REMARK Flexibility Score: inf
ROOT
ATOM      1  C   UNL     1       2.292  -1.361   1.531  1.00  0.00     0.188 C 
ENDROOT
BRANCH   1   2
ATOM      2  C   UNL     1       2.979  -1.518   0.161  1.00  0.00     0.188 C 
BRANCH   2   3
ATOM      3  O   UNL     1       4.212  -0.923  -0.235  1.00  0.00    -0.376 OA
BRANCH   3   4
ATOM      4  C   UNL     1       4.963   0.064   0.437  1.00  0.00     0.202 C 
BRANCH   4   5
ATOM      5  C   UNL     1       4.391   1.453   0.729  1.00  0.00     0.261 C 
BRANCH   5   6
ATOM      6  O   UNL     1       2.983   1.525   0.924  1.00  0.00    -0.460 OA
BRANCH   6   7
ATOM      7  C   UNL     1       1.991   1.364   0.028  1.00  0.00     0.338 C 
ATOM      8  O   UNL     1       0.843   1.232   0.453  1.00  0.00    -0.246 OA
BRANCH   7   9
ATOM      9  C   UNL     1       2.183   1.364  -1.444  1.00  0.00     0.060 A 
ATOM     10  C   UNL     1       3.379   1.604  -2.117  1.00  0.00     0.016 A 
ATOM     11  C   UNL     1       0.999   1.210  -2.192  1.00  0.00     0.016 A 
ATOM     12  C   UNL     1       3.350   1.968  -3.443  1.00  0.00     0.010 A 
ATOM     13  C   UNL     1       0.963   1.545  -3.528  1.00  0.00     0.010 A 
ATOM     14  C   UNL     1       2.125   2.024  -4.103  1.00  0.00    -0.014 A 
BRANCH  14  15
ATOM     15  C   UNL     1       2.147   2.545  -5.445  1.00  0.00     0.031 A 
ATOM     16  C   UNL     1       2.832   1.655  -6.402  1.00  0.00     0.074 A 
ATOM     17  C   UNL     1       1.660   3.760  -5.745  1.00  0.00     0.049 A 
ATOM     18  N   UNL     1       4.005   1.827  -6.911  1.00  0.00    -0.248 NA
ATOM     19  C   UNL     1       2.228   0.344  -6.676  1.00  0.00     0.031 C 
ATOM     20  C   UNL     1       0.800   4.637  -4.950  1.00  0.00     0.029 A 
ATOM     21  N   UNL     1       1.807   4.444  -6.907  1.00  0.00    -0.354 N 
ATOM     22  C   UNL     1       4.223   0.723  -7.723  1.00  0.00     0.074 A 
ATOM     23  C   UNL     1       3.175  -0.221  -7.426  1.00  0.00     0.031 C 
ATOM     24  C   UNL     1       0.319   5.624  -5.746  1.00  0.00     0.029 A 
ATOM     25  C   UNL     1       0.959   5.531  -7.047  1.00  0.00     0.049 A 
ATOM     26  H   UNL     1       2.463   4.188  -7.595  1.00  0.00     0.167 HD
ATOM     27  C   UNL     1       5.106   0.774  -8.754  1.00  0.00     0.031 A 
ATOM     28  C   UNL     1       0.777   6.243  -8.187  1.00  0.00     0.031 A 
ATOM     29  C   UNL     1       6.049   1.850  -8.604  1.00  0.00     0.049 A 
ATOM     30  C   UNL     1       1.985   6.029  -9.022  1.00  0.00     0.074 A 
ATOM     31  C   UNL     1       7.022   2.159  -7.674  1.00  0.00     0.029 A 
ATOM     32  N   UNL     1       5.788   3.016  -9.284  1.00  0.00    -0.354 N 
ATOM     33  N   UNL     1       3.166   6.476  -8.700  1.00  0.00    -0.248 NA
ATOM     34  C   UNL     1       1.969   4.936  -9.983  1.00  0.00     0.031 C 
ATOM     35  C   UNL     1       6.952   3.574  -7.524  1.00  0.00     0.029 A 
ATOM     36  C   UNL     1       5.988   4.055  -8.412  1.00  0.00     0.049 A 
ATOM     37  H   UNL     1       5.509   3.091 -10.225  1.00  0.00     0.167 HD
ATOM     38  C   UNL     1       4.039   5.464  -9.070  1.00  0.00     0.074 A 
ATOM     39  C   UNL     1       3.256   4.581  -9.934  1.00  0.00     0.031 C 
ATOM     40  C   UNL     1       5.224   5.282  -8.420  1.00  0.00     0.031 A 
BRANCH  27  41
ATOM     41  C   UNL     1       4.825   0.118 -10.076  1.00  0.00    -0.014 A 
ATOM     42  C   UNL     1       5.804   0.155 -11.080  1.00  0.00     0.009 A 
ATOM     43  C   UNL     1       3.531  -0.287 -10.462  1.00  0.00     0.009 A 
ATOM     44  C   UNL     1       5.488  -0.149 -12.410  1.00  0.00     0.001 A 
ATOM     45  C   UNL     1       3.221  -0.629 -11.778  1.00  0.00     0.001 A 
ATOM     46  C   UNL     1       4.197  -0.537 -12.758  1.00  0.00     0.000 A 
ENDBRANCH  27  41
BRANCH  28  47
ATOM     47  C   UNL     1      -0.491   6.755  -8.759  1.00  0.00    -0.014 A 
ATOM     48  C   UNL     1      -0.468   7.526  -9.935  1.00  0.00     0.009 A 
ATOM     49  C   UNL     1      -1.732   6.242  -8.343  1.00  0.00     0.009 A 
ATOM     50  C   UNL     1      -1.625   7.711 -10.703  1.00  0.00     0.001 A 
ATOM     51  C   UNL     1      -2.891   6.435  -9.105  1.00  0.00     0.001 A 
ATOM     52  C   UNL     1      -2.832   7.149 -10.297  1.00  0.00     0.000 A 
ENDBRANCH  28  47
BRANCH  40  53
ATOM     53  C   UNL     1       5.656   6.328  -7.423  1.00  0.00    -0.014 A 
ATOM     54  C   UNL     1       4.998   6.523  -6.194  1.00  0.00     0.009 A 
ATOM     55  C   UNL     1       6.882   6.973  -7.636  1.00  0.00     0.009 A 
ATOM     56  C   UNL     1       5.565   7.335  -5.204  1.00  0.00     0.001 A 
ATOM     57  C   UNL     1       7.453   7.770  -6.642  1.00  0.00     0.001 A 
ATOM     58  C   UNL     1       6.798   7.947  -5.425  1.00  0.00     0.000 A 
ENDBRANCH  40  53
ENDBRANCH  14  15
ENDBRANCH   7   9
ENDBRANCH   6   7
ENDBRANCH   5   6
ENDBRANCH   4   5
ENDBRANCH   3   4
ENDBRANCH   2   3
ENDBRANCH   1   2
BRANCH   1  59
ATOM     59  O   UNL     1       2.772  -2.184   2.579  1.00  0.00    -0.377 OA
BRANCH  59  60
ATOM     60  C   UNL     1       4.105  -1.929   2.950  1.00  0.00     0.188 C 
BRANCH  60  61
ATOM     61  C   UNL     1       5.133  -2.893   2.325  1.00  0.00     0.188 C 
BRANCH  61  62
ATOM     62  O   UNL     1       4.758  -4.097   1.661  1.00  0.00    -0.376 OA
BRANCH  62  63
ATOM     63  C   UNL     1       3.496  -4.713   1.844  1.00  0.00     0.202 C 
BRANCH  63  64
ATOM     64  C   UNL     1       3.154  -5.314   3.211  1.00  0.00     0.261 C 
BRANCH  64  65
ATOM     65  O   UNL     1       3.447  -4.487   4.338  1.00  0.00    -0.457 OA
BRANCH  65  66
ATOM     66  C   UNL     1       4.718  -4.619   4.829  1.00  0.00     0.374 C 
ATOM     67  O   UNL     1       5.547  -5.405   4.433  1.00  0.00    -0.242 OA
BRANCH  66  68
ATOM     68  C   UNL     1       4.923  -3.610   5.843  1.00  0.00     0.216 A 
ATOM     69  O   UNL     1       6.061  -2.817   5.773  1.00  0.00    -0.449 OA
ATOM     70  C   UNL     1       4.175  -3.240   6.936  1.00  0.00     0.014 A 
ATOM     71  C   UNL     1       6.078  -2.035   6.897  1.00  0.00     0.135 A 
ATOM     72  C   UNL     1       4.976  -2.340   7.654  1.00  0.00     0.028 A 
ATOM     73  C   UNL     1       2.891  -3.684   7.533  1.00  0.00     0.041 C 
ATOM     74  C   UNL     1       7.030  -1.114   7.309  1.00  0.00     0.048 A 
ATOM     75  C   UNL     1       4.790  -1.865   8.950  1.00  0.00    -0.037 A 
ATOM     76  C   UNL     1       3.061  -3.734   9.076  1.00  0.00     0.010 C 
ATOM     77  C   UNL     1       6.832  -0.577   8.598  1.00  0.00     0.004 A 
ATOM     78  C   UNL     1       5.746  -0.957   9.415  1.00  0.00     0.004 A 
ATOM     79  C   UNL     1       3.607  -2.408   9.712  1.00  0.00     0.036 C 
ENDBRANCH  66  68
ENDBRANCH  65  66
ENDBRANCH  64  65
ENDBRANCH  63  64
ENDBRANCH  62  63
ENDBRANCH  61  62
ENDBRANCH  60  61
ENDBRANCH  59  60
ENDBRANCH   1  59
TORSDOF 20
