REMARK SMILES Cc1ccc(S(=O)(=O)N[C@@H](C)C(=O)Oc2csc(C(=O)OCCOCCOCCOCCOC(=O)c3ccc(-c4c5nc(c(-c6ccccc6)c6ccc([nH]6)c(-c6ccccc6)c6nc(c(-c7ccccc7)c7ccc4[nH]7)C=C6)C=C5)cc3)c2C)cc1
REMARK SMILES IDX 25 1 24 2 23 3 22 4 21 5 19 6 20 7 18 8 15 9 16 10 84 11
REMARK SMILES IDX 17 12 85 13 14 14 12 15 13 16 10 17 11 18 9 19 6 21 7 22
REMARK SMILES IDX 8 23 5 24 1 25 2 26 3 27 87 28 4 29 86 30 26 31 27 32 28 33
REMARK SMILES IDX 29 34 30 35 31 36 32 37 33 38 34 39 35 40 36 41 37 42 83 43
REMARK SMILES IDX 38 44 82 45 39 46 40 47 41 48 76 49 42 50 81 51 75 52 77 53
REMARK SMILES IDX 43 54 80 55 74 56 73 57 44 59 66 60 51 61 65 62 52 63 55 64
REMARK SMILES IDX 64 65 78 66 53 67 54 68 63 70 79 71 56 72 45 73 46 74 50 75
REMARK SMILES IDX 47 76 49 77 48 78 67 79 68 80 72 81 69 82 71 83 70 84 57 85
REMARK SMILES IDX 58 86 62 87 59 88 61 89 60 90
REMARK H PARENT 9 20 77 58 55 69
REMARK Flexibility Score: inf
ROOT
ATOM      1  C   UNL     1      -9.101   8.385  -3.883  1.00  0.00     0.188 C 
ENDROOT
BRANCH   1   2
ATOM      2  O   UNL     1      -7.898   8.953  -3.440  1.00  0.00    -0.376 OA
BRANCH   2   3
ATOM      3  C   UNL     1      -6.849   9.098  -4.370  1.00  0.00     0.202 C 
BRANCH   3   4
ATOM      4  C   UNL     1      -5.828   7.984  -4.321  1.00  0.00     0.261 C 
BRANCH   4   5
ATOM      5  O   UNL     1      -5.253   7.747  -3.036  1.00  0.00    -0.459 OA
BRANCH   5   6
ATOM      6  C   UNL     1      -6.062   7.921  -1.956  1.00  0.00     0.348 C 
ATOM      7  O   UNL     1      -6.254   8.985  -1.391  1.00  0.00    -0.245 OA
BRANCH   6   8
ATOM      8  C   UNL     1      -6.447   6.630  -1.456  1.00  0.00     0.119 A 
ATOM      9  C   UNL     1      -6.259   4.476  -0.780  1.00  0.00     0.145 A 
ATOM     10  C   UNL     1      -7.137   4.934   0.167  1.00  0.00     0.113 A 
ATOM     11  C   UNL     1      -6.050   5.370  -1.868  1.00  0.00     0.017 A 
ATOM     12  S   UNL     1      -7.500   6.576  -0.103  1.00  0.00    -0.133 S 
ATOM     13  C   UNL     1      -5.288   4.991  -3.101  1.00  0.00     0.050 C 
BRANCH   9  14
ATOM     14  O   UNL     1      -5.650   3.281  -0.678  1.00  0.00    -0.424 OA
BRANCH  14  15
ATOM     15  C   UNL     1      -4.282   3.323  -0.850  1.00  0.00     0.329 C 
ATOM     16  O   UNL     1      -3.546   4.288  -0.671  1.00  0.00    -0.250 OA
BRANCH  15  17
ATOM     17  C   UNL     1      -3.781   1.957  -1.263  1.00  0.00     0.177 C 
ATOM     18  C   UNL     1      -4.392   1.503  -2.575  1.00  0.00     0.038 C 
BRANCH  17  19
ATOM     19  N   UNL     1      -4.104   1.110  -0.119  1.00  0.00    -0.197 NA
ATOM     20  H   UNL     1      -3.828   1.643   0.706  1.00  0.00     0.142 HD
BRANCH  19  21
ATOM     21  S   UNL     1      -3.502  -0.405   0.108  1.00  0.00     0.241 S 
ATOM     22  O   UNL     1      -3.795  -1.160  -1.096  1.00  0.00    -0.207 OA
ATOM     23  O   UNL     1      -3.981  -0.820   1.399  1.00  0.00    -0.207 OA
BRANCH  21  24
ATOM     24  C   UNL     1      -1.745  -0.223   0.215  1.00  0.00     0.082 A 
ATOM     25  C   UNL     1       2.536  -0.004   0.002  1.00  0.00     0.044 C 
ATOM     26  C   UNL     1       1.040  -0.064   0.086  1.00  0.00    -0.051 A 
ATOM     27  C   UNL     1       0.395  -1.300  -0.046  1.00  0.00     0.005 A 
ATOM     28  C   UNL     1       0.279   1.089   0.317  1.00  0.00     0.005 A 
ATOM     29  C   UNL     1      -0.993  -1.378   0.002  1.00  0.00     0.022 A 
ATOM     30  C   UNL     1      -1.114   1.010   0.404  1.00  0.00     0.022 A 
ENDBRANCH  21  24
ENDBRANCH  19  21
ENDBRANCH  17  19
ENDBRANCH  15  17
ENDBRANCH  14  15
ENDBRANCH   9  14
ENDBRANCH   6   8
ENDBRANCH   5   6
ENDBRANCH   4   5
ENDBRANCH   3   4
ENDBRANCH   2   3
ENDBRANCH   1   2
BRANCH   1  31
ATOM     31  C   UNL     1      -9.040   6.933  -4.381  1.00  0.00     0.188 C 
BRANCH  31  32
ATOM     32  O   UNL     1      -7.999   6.542  -5.260  1.00  0.00    -0.377 OA
BRANCH  32  33
ATOM     33  C   UNL     1      -8.104   6.586  -6.670  1.00  0.00     0.188 C 
BRANCH  33  34
ATOM     34  C   UNL     1      -7.975   7.953  -7.322  1.00  0.00     0.188 C 
BRANCH  34  35
ATOM     35  O   UNL     1      -8.888   8.885  -6.770  1.00  0.00    -0.376 OA
BRANCH  35  36
ATOM     36  C   UNL     1     -10.193   8.902  -7.325  1.00  0.00     0.202 C 
BRANCH  36  37
ATOM     37  C   UNL     1     -10.171   9.485  -8.740  1.00  0.00     0.261 C 
BRANCH  37  38
ATOM     38  O   UNL     1      -9.464  10.745  -8.699  1.00  0.00    -0.460 OA
BRANCH  38  39
ATOM     39  C   UNL     1      -8.153  10.702  -9.071  1.00  0.00     0.338 C 
ATOM     40  O   UNL     1      -7.704  10.058 -10.005  1.00  0.00    -0.246 OA
BRANCH  39  41
ATOM     41  C   UNL     1      -7.290  11.350  -8.035  1.00  0.00     0.060 A 
ATOM     42  C   UNL     1      -5.886  11.305  -8.146  1.00  0.00     0.016 A 
ATOM     43  C   UNL     1      -7.861  11.776  -6.841  1.00  0.00     0.016 A 
ATOM     44  C   UNL     1      -5.061  11.633  -7.051  1.00  0.00     0.010 A 
ATOM     45  C   UNL     1      -7.046  12.031  -5.751  1.00  0.00     0.010 A 
ATOM     46  C   UNL     1      -5.640  11.979  -5.831  1.00  0.00    -0.014 A 
BRANCH  46  47
ATOM     47  C   UNL     1      -4.926  12.141  -4.545  1.00  0.00     0.031 A 
ATOM     48  C   UNL     1      -5.277  13.249  -3.606  1.00  0.00     0.074 A 
ATOM     49  C   UNL     1      -4.298  11.072  -4.002  1.00  0.00     0.049 A 
ATOM     50  N   UNL     1      -4.735  13.429  -2.446  1.00  0.00    -0.248 NA
ATOM     51  C   UNL     1      -6.273  14.278  -3.899  1.00  0.00     0.031 C 
ATOM     52  C   UNL     1      -4.257  10.763  -2.575  1.00  0.00     0.029 A 
ATOM     53  N   UNL     1      -3.719   9.955  -4.562  1.00  0.00    -0.354 N 
ATOM     54  C   UNL     1      -5.614  14.188  -1.711  1.00  0.00     0.074 A 
ATOM     55  C   UNL     1      -6.399  14.872  -2.708  1.00  0.00     0.031 C 
ATOM     56  C   UNL     1      -3.505   9.685  -2.348  1.00  0.00     0.029 A 
ATOM     57  C   UNL     1      -2.963   9.272  -3.619  1.00  0.00     0.049 A 
ATOM     58  H   UNL     1      -3.826   9.680  -5.501  1.00  0.00     0.167 HD
ATOM     59  C   UNL     1      -5.708  14.003  -0.359  1.00  0.00     0.031 A 
ATOM     60  C   UNL     1      -1.750   8.697  -3.774  1.00  0.00     0.031 A 
ATOM     61  C   UNL     1      -4.735  12.996   0.150  1.00  0.00     0.049 A 
ATOM     62  C   UNL     1      -0.877   9.460  -2.800  1.00  0.00     0.074 A 
ATOM     63  C   UNL     1      -4.860  11.817   0.870  1.00  0.00     0.029 A 
ATOM     64  N   UNL     1      -3.404  13.007  -0.302  1.00  0.00    -0.354 N 
ATOM     65  N   UNL     1      -1.188  10.693  -2.447  1.00  0.00    -0.248 NA
ATOM     66  C   UNL     1       0.135   8.871  -1.925  1.00  0.00     0.031 C 
ATOM     67  C   UNL     1      -3.616  11.106   0.790  1.00  0.00     0.029 A 
ATOM     68  C   UNL     1      -2.715  11.847   0.032  1.00  0.00     0.049 A 
ATOM     69  H   UNL     1      -3.003  13.755  -0.801  1.00  0.00     0.167 HD
ATOM     70  C   UNL     1      -0.733  10.896  -1.177  1.00  0.00     0.074 A 
ATOM     71  C   UNL     1       0.195   9.792  -0.943  1.00  0.00     0.031 C 
ATOM     72  C   UNL     1      -1.274  11.716  -0.224  1.00  0.00     0.031 A 
BRANCH  59  73
ATOM     73  C   UNL     1      -6.824  14.610   0.501  1.00  0.00    -0.014 A 
ATOM     74  C   UNL     1      -6.824  14.433   1.897  1.00  0.00     0.009 A 
ATOM     75  C   UNL     1      -7.918  15.355   0.007  1.00  0.00     0.009 A 
ATOM     76  C   UNL     1      -7.816  14.990   2.731  1.00  0.00     0.001 A 
ATOM     77  C   UNL     1      -8.892  15.945   0.830  1.00  0.00     0.001 A 
ATOM     78  C   UNL     1      -8.840  15.764   2.199  1.00  0.00     0.000 A 
ENDBRANCH  59  73
BRANCH  60  79
ATOM     79  C   UNL     1      -1.588   8.052  -5.103  1.00  0.00    -0.014 A 
ATOM     80  C   UNL     1      -2.137   6.747  -5.202  1.00  0.00     0.009 A 
ATOM     81  C   UNL     1      -1.583   8.839  -6.267  1.00  0.00     0.009 A 
ATOM     82  C   UNL     1      -2.821   6.327  -6.354  1.00  0.00     0.001 A 
ATOM     83  C   UNL     1      -2.306   8.430  -7.404  1.00  0.00     0.001 A 
ATOM     84  C   UNL     1      -2.952   7.193  -7.434  1.00  0.00     0.000 A 
ENDBRANCH  60  79
BRANCH  72  85
ATOM     85  C   UNL     1      -0.327  12.611   0.518  1.00  0.00    -0.014 A 
ATOM     86  C   UNL     1       1.020  12.747   0.151  1.00  0.00     0.009 A 
ATOM     87  C   UNL     1      -0.829  13.490   1.496  1.00  0.00     0.009 A 
ATOM     88  C   UNL     1       1.840  13.688   0.767  1.00  0.00     0.001 A 
ATOM     89  C   UNL     1      -0.025  14.466   2.076  1.00  0.00     0.001 A 
ATOM     90  C   UNL     1       1.315  14.552   1.723  1.00  0.00     0.000 A 
ENDBRANCH  72  85
ENDBRANCH  46  47
ENDBRANCH  39  41
ENDBRANCH  38  39
ENDBRANCH  37  38
ENDBRANCH  36  37
ENDBRANCH  35  36
ENDBRANCH  34  35
ENDBRANCH  33  34
ENDBRANCH  32  33
ENDBRANCH  31  32
ENDBRANCH   1  31
TORSDOF 26
