REMARK SMILES COc1ccc(C2=NN(C(=O)CCC(=O)OCCOCCOCCOCCOC(=O)c3ccc(-c4c5nc(c(-c6ccccc6)c6ccc([nH]6)c(-c6ccccc6)c6nc(c(-c7ccccc7)c7ccc4[nH]7)C=C6)C=C5)cc3)[C@H](c3ccc(Cl)cc3Cl)C2)cc1
REMARK SMILES IDX 20 1 19 2 18 3 17 4 16 5 14 6 15 7 13 8 12 9 10 10 11 11
REMARK SMILES IDX 9 12 7 13 8 14 88 15 79 16 6 17 3 18 4 19 90 20 5 21 89 22
REMARK SMILES IDX 2 23 1 24 80 25 81 26 86 27 82 28 85 29 87 30 83 31 84 32
REMARK SMILES IDX 21 33 22 34 23 35 24 36 25 37 26 38 27 39 28 40 29 41 30 42
REMARK SMILES IDX 31 43 32 44 78 45 33 46 77 47 34 48 35 49 36 50 71 51 37 52
REMARK SMILES IDX 76 53 70 54 72 55 38 56 75 57 69 58 68 59 39 61 61 62 46 63
REMARK SMILES IDX 60 64 47 65 50 66 59 67 73 68 48 69 49 70 58 72 74 73 51 74
REMARK SMILES IDX 40 75 41 76 45 77 42 78 44 79 43 80 62 81 63 82 67 83 64 84
REMARK SMILES IDX 66 85 65 86 52 87 53 88 57 89 54 90 56 91 55 92
REMARK H PARENT 72 60 50 71
REMARK Flexibility Score: inf
ROOT
ATOM      1  C   UNL     1       3.020 -11.004  -1.799  1.00  0.00     0.188 C 
ENDROOT
BRANCH   1   2
ATOM      2  O   UNL     1       4.366 -11.012  -0.981  1.00  0.00    -0.376 OA
BRANCH   2   3
ATOM      3  C   UNL     1       5.444  -9.929  -0.932  1.00  0.00     0.202 C 
BRANCH   3   4
ATOM      4  C   UNL     1       5.720  -8.895  -2.098  1.00  0.00     0.261 C 
BRANCH   4   5
ATOM      5  O   UNL     1       4.649  -8.805  -3.041  1.00  0.00    -0.463 OA
BRANCH   5   6
ATOM      6  C   UNL     1       4.853  -9.523  -4.161  1.00  0.00     0.306 C 
ATOM      7  O   UNL     1       5.958  -9.895  -4.541  1.00  0.00    -0.252 OA
BRANCH   6   8
ATOM      8  C   UNL     1       3.592 -10.037  -4.810  1.00  0.00     0.132 C 
BRANCH   8   9
ATOM      9  C   UNL     1       2.165  -9.700  -4.381  1.00  0.00     0.114 C 
BRANCH   9  10
ATOM     10  C   UNL     1       1.706  -8.597  -3.430  1.00  0.00     0.243 C 
ATOM     11  O   UNL     1       0.859  -7.849  -3.975  1.00  0.00    -0.273 OA
BRANCH  10  12
ATOM     12  N   UNL     1       2.036  -8.384  -2.076  1.00  0.00    -0.225 N 
ATOM     13  C   UNL     1       2.662  -6.585  -1.033  1.00  0.00     0.071 C 
ATOM     14  N   UNL     1       1.890  -7.062  -1.926  1.00  0.00    -0.174 NA
ATOM     15  C   UNL     1       3.393  -7.549  -0.138  1.00  0.00     0.091 C 
ATOM     16  C   UNL     1       2.790  -8.984  -0.582  1.00  0.00     0.149 C 
BRANCH  13  17
ATOM     17  C   UNL     1       2.691  -5.130  -0.980  1.00  0.00    -0.002 A 
ATOM     18  C   UNL     1       2.406  -2.436  -0.732  1.00  0.00     0.118 A 
ATOM     19  C   UNL     1       1.502  -3.134  -1.518  1.00  0.00     0.047 A 
ATOM     20  C   UNL     1       3.611  -3.023  -0.363  1.00  0.00     0.047 A 
ATOM     21  C   UNL     1       1.569  -4.499  -1.526  1.00  0.00     0.014 A 
ATOM     22  C   UNL     1       3.775  -4.394  -0.534  1.00  0.00     0.014 A 
BRANCH  18  23
ATOM     23  O   UNL     1       1.864  -1.480   0.087  1.00  0.00    -0.497 OA
ATOM     24  C   UNL     1       2.421  -0.193  -0.022  1.00  0.00     0.278 C 
ENDBRANCH  18  23
ENDBRANCH  13  17
BRANCH  16  25
ATOM     25  C   UNL     1       2.243 -10.526   0.513  1.00  0.00    -0.004 A 
ATOM     26  C   UNL     1       1.508  -9.880   1.926  1.00  0.00     0.009 A 
ATOM     27  C   UNL     1       2.271 -12.321   0.594  1.00  0.00     0.047 A 
ATOM     28  C   UNL     1       1.099 -10.762   3.554  1.00  0.00     0.021 A 
ATOM     29  C   UNL     1       1.832 -13.246   2.047  1.00  0.00     0.041 A 
ATOM     30  Cl  UNL     1       2.150 -13.522  -0.697  1.00  0.00    -0.084 Cl
ATOM     31  C   UNL     1       1.264 -12.520   3.535  1.00  0.00     0.042 A 
ATOM     32  Cl  UNL     1       0.800 -13.534   4.831  1.00  0.00    -0.084 Cl
ENDBRANCH  16  25
ENDBRANCH  10  12
ENDBRANCH   9  10
ENDBRANCH   8   9
ENDBRANCH   6   8
ENDBRANCH   5   6
ENDBRANCH   4   5
ENDBRANCH   3   4
ENDBRANCH   2   3
ENDBRANCH   1   2
BRANCH   1  33
ATOM     33  C   UNL     1       1.208 -10.456  -1.371  1.00  0.00     0.188 C 
BRANCH  33  34
ATOM     34  O   UNL     1       0.569  -9.197  -0.254  1.00  0.00    -0.377 OA
BRANCH  34  35
ATOM     35  C   UNL     1       1.099  -8.014   0.987  1.00  0.00     0.188 C 
BRANCH  35  36
ATOM     36  C   UNL     1       2.173  -8.069   2.664  1.00  0.00     0.188 C 
BRANCH  36  37
ATOM     37  O   UNL     1       3.139  -9.558   3.141  1.00  0.00    -0.376 OA
BRANCH  37  38
ATOM     38  C   UNL     1       2.649 -11.241   2.498  1.00  0.00     0.202 C 
BRANCH  38  39
ATOM     39  C   UNL     1       0.559 -11.501   1.802  1.00  0.00     0.261 C 
BRANCH  39  40
ATOM     40  O   UNL     1      -0.669 -10.162   2.020  1.00  0.00    -0.460 OA
BRANCH  40  41
ATOM     41  C   UNL     1      -1.213  -9.417   3.086  1.00  0.00     0.338 C 
ATOM     42  O   UNL     1      -1.306  -9.830   4.238  1.00  0.00    -0.246 OA
BRANCH  41  43
ATOM     43  C   UNL     1      -1.505  -7.886   2.876  1.00  0.00     0.060 A 
ATOM     44  C   UNL     1      -0.718  -6.880   3.511  1.00  0.00     0.016 A 
ATOM     45  C   UNL     1      -2.549  -7.391   2.093  1.00  0.00     0.016 A 
ATOM     46  C   UNL     1      -0.869  -5.477   3.275  1.00  0.00     0.010 A 
ATOM     47  C   UNL     1      -2.776  -5.977   1.947  1.00  0.00     0.010 A 
ATOM     48  C   UNL     1      -1.941  -4.992   2.523  1.00  0.00    -0.014 A 
BRANCH  48  49
ATOM     49  C   UNL     1      -2.324  -3.519   2.550  1.00  0.00     0.031 A 
ATOM     50  C   UNL     1      -3.214  -3.021   3.646  1.00  0.00     0.074 A 
ATOM     51  C   UNL     1      -1.973  -2.588   1.634  1.00  0.00     0.049 A 
ATOM     52  N   UNL     1      -3.675  -1.812   3.842  1.00  0.00    -0.248 NA
ATOM     53  C   UNL     1      -3.660  -4.016   4.625  1.00  0.00     0.031 C 
ATOM     54  C   UNL     1      -1.105  -2.877   0.521  1.00  0.00     0.029 A 
ATOM     55  N   UNL     1      -2.279  -1.233   1.471  1.00  0.00    -0.354 N 
ATOM     56  C   UNL     1      -4.510  -1.905   4.939  1.00  0.00     0.074 A 
ATOM     57  C   UNL     1      -4.487  -3.293   5.365  1.00  0.00     0.031 C 
ATOM     58  C   UNL     1      -0.976  -1.757  -0.199  1.00  0.00     0.029 A 
ATOM     59  C   UNL     1      -1.687  -0.649   0.366  1.00  0.00     0.049 A 
ATOM     60  H   UNL     1      -2.864  -0.738   2.088  1.00  0.00     0.167 HD
ATOM     61  C   UNL     1      -5.249  -0.931   5.519  1.00  0.00     0.031 A 
ATOM     62  C   UNL     1      -1.628   0.589  -0.190  1.00  0.00     0.031 A 
ATOM     63  C   UNL     1      -5.328   0.437   5.067  1.00  0.00     0.049 A 
ATOM     64  C   UNL     1      -2.396   1.662   0.494  1.00  0.00     0.074 A 
ATOM     65  C   UNL     1      -6.076   1.472   5.604  1.00  0.00     0.029 A 
ATOM     66  N   UNL     1      -4.664   0.966   3.967  1.00  0.00    -0.354 N 
ATOM     67  N   UNL     1      -3.099   1.553   1.590  1.00  0.00    -0.248 NA
ATOM     68  C   UNL     1      -2.372   3.009  -0.092  1.00  0.00     0.031 C 
ATOM     69  C   UNL     1      -5.921   2.602   4.794  1.00  0.00     0.029 A 
ATOM     70  C   UNL     1      -5.013   2.301   3.796  1.00  0.00     0.049 A 
ATOM     71  H   UNL     1      -4.038   0.468   3.393  1.00  0.00     0.167 HD
ATOM     72  C   UNL     1      -3.612   2.810   1.822  1.00  0.00     0.074 A 
ATOM     73  C   UNL     1      -3.063   3.690   0.808  1.00  0.00     0.031 C 
ATOM     74  C   UNL     1      -4.497   3.175   2.774  1.00  0.00     0.031 A 
BRANCH  61  75
ATOM     75  C   UNL     1      -6.111  -1.367   6.668  1.00  0.00    -0.014 A 
ATOM     76  C   UNL     1      -5.555  -1.788   7.887  1.00  0.00     0.009 A 
ATOM     77  C   UNL     1      -7.504  -1.407   6.503  1.00  0.00     0.009 A 
ATOM     78  C   UNL     1      -6.374  -2.294   8.897  1.00  0.00     0.001 A 
ATOM     79  C   UNL     1      -8.323  -1.874   7.530  1.00  0.00     0.001 A 
ATOM     80  C   UNL     1      -7.757  -2.333   8.718  1.00  0.00     0.000 A 
ENDBRANCH  61  75
BRANCH  62  81
ATOM     81  C   UNL     1      -0.768   0.919  -1.400  1.00  0.00    -0.014 A 
ATOM     82  C   UNL     1       0.246   1.897  -1.325  1.00  0.00     0.009 A 
ATOM     83  C   UNL     1      -0.900   0.236  -2.623  1.00  0.00     0.009 A 
ATOM     84  C   UNL     1       1.113   2.148  -2.401  1.00  0.00     0.001 A 
ATOM     85  C   UNL     1       0.004   0.443  -3.678  1.00  0.00     0.001 A 
ATOM     86  C   UNL     1       1.011   1.397  -3.566  1.00  0.00     0.000 A 
ENDBRANCH  62  81
BRANCH  74  87
ATOM     87  C   UNL     1      -4.926   4.608   2.735  1.00  0.00    -0.014 A 
ATOM     88  C   UNL     1      -5.691   5.107   1.666  1.00  0.00     0.009 A 
ATOM     89  C   UNL     1      -4.514   5.479   3.750  1.00  0.00     0.009 A 
ATOM     90  C   UNL     1      -5.986   6.466   1.588  1.00  0.00     0.001 A 
ATOM     91  C   UNL     1      -4.847   6.831   3.691  1.00  0.00     0.001 A 
ATOM     92  C   UNL     1      -5.568   7.325   2.603  1.00  0.00     0.000 A 
ENDBRANCH  74  87
ENDBRANCH  48  49
ENDBRANCH  41  43
ENDBRANCH  40  41
ENDBRANCH  39  40
ENDBRANCH  38  39
ENDBRANCH  37  38
ENDBRANCH  36  37
ENDBRANCH  35  36
ENDBRANCH  34  35
ENDBRANCH  33  34
ENDBRANCH   1  33
TORSDOF 26
