REMARK SMILES C[C@@H](c1cccc([N+](=O)[O-])c1)[N@H+](CC(=O)OCCOCCOCCOCCOC(=O)c1ccc(-c2c3nc(c(-c4ccccc4)c4ccc([nH]4)c(-c4ccccc4)c4nc(c(-c5ccccc5)c5ccc2[nH]5)C=C4)C=C3)cc1)CC(F)(F)F
REMARK SMILES IDX 21 1 20 2 19 3 18 4 17 5 16 6 14 7 15 8 13 9 12 10 2 12 1 13
REMARK SMILES IDX 3 14 4 15 11 16 5 17 7 18 6 19 8 20 9 21 10 22 79 23 80 24
REMARK SMILES IDX 81 25 82 26 83 27 22 28 23 29 24 30 25 31 26 32 27 33 28 34
REMARK SMILES IDX 29 35 30 36 31 37 32 38 78 39 33 40 77 41 34 42 35 43 36 44
REMARK SMILES IDX 71 45 37 46 76 47 70 48 72 49 38 50 75 51 69 52 68 53 39 55
REMARK SMILES IDX 61 56 46 57 60 58 47 59 50 60 59 61 73 62 48 63 49 64 58 66
REMARK SMILES IDX 74 67 51 68 40 69 41 70 45 71 42 72 44 73 43 74 62 75 63 76
REMARK SMILES IDX 67 77 64 78 66 79 65 80 52 81 53 82 57 83 54 84 56 85 55 86
REMARK H PARENT 12 11 72 54 50 65
REMARK Flexibility Score: inf
ROOT
ATOM      1  C   UNL     1      -2.113  -1.622  -5.094  1.00  0.00     0.188 C 
ENDROOT
BRANCH   1   2
ATOM      2  C   UNL     1      -2.275  -0.165  -5.516  1.00  0.00     0.188 C 
BRANCH   2   3
ATOM      3  O   UNL     1      -1.448   0.191  -6.626  1.00  0.00    -0.376 OA
BRANCH   3   4
ATOM      4  C   UNL     1      -0.120   0.616  -6.292  1.00  0.00     0.202 C 
BRANCH   4   5
ATOM      5  C   UNL     1      -0.063   1.989  -5.619  1.00  0.00     0.261 C 
BRANCH   5   6
ATOM      6  O   UNL     1      -0.114   1.874  -4.177  1.00  0.00    -0.459 OA
BRANCH   6   7
ATOM      7  C   UNL     1      -1.070   2.585  -3.527  1.00  0.00     0.361 C 
ATOM      8  O   UNL     1      -1.950   3.229  -4.091  1.00  0.00    -0.245 OA
BRANCH   7   9
ATOM      9  C   UNL     1      -0.886   2.643  -2.009  1.00  0.00     0.387 C 
BRANCH   9  10
ATOM     10  N   UNL     1      -0.418   1.403  -1.358  1.00  0.00    -0.312 N 
ATOM     11  H   UNL     1      -0.304   0.733  -2.118  1.00  0.00     0.349 HD
BRANCH  10  12
ATOM     12  C   UNL     1       0.989   1.384  -0.920  1.00  0.00     0.213 C 
ATOM     13  C   UNL     1       1.304   0.685   0.418  1.00  0.00     0.081 C 
BRANCH  12  14
ATOM     14  C   UNL     1       1.873   0.812  -2.025  1.00  0.00     0.016 A 
ATOM     15  C   UNL     1       1.974  -0.571  -2.246  1.00  0.00     0.010 A 
ATOM     16  C   UNL     1       2.538   1.679  -2.907  1.00  0.00     0.095 A 
ATOM     17  C   UNL     1       2.702  -1.078  -3.323  1.00  0.00     0.008 A 
ATOM     18  C   UNL     1       3.236   1.163  -4.009  1.00  0.00     0.269 A 
ATOM     19  C   UNL     1       3.326  -0.216  -4.218  1.00  0.00     0.085 A 
BRANCH  18  20
ATOM     20  N   UNL     1       3.807   2.081  -4.999  1.00  0.00     0.062 N 
ATOM     21  O   UNL     1       4.226   1.595  -6.059  1.00  0.00    -0.258 OA
ATOM     22  O   UNL     1       3.811   3.290  -4.729  1.00  0.00    -0.258 OA
ENDBRANCH  18  20
ENDBRANCH  12  14
ENDBRANCH  10  12
BRANCH  10  23
ATOM     23  C   UNL     1      -1.443   0.681  -0.582  1.00  0.00     0.380 C 
BRANCH  23  24
ATOM     24  C   UNL     1      -1.958  -0.604  -1.236  1.00  0.00     0.438 C 
ATOM     25  F   UNL     1      -0.945  -1.449  -1.508  1.00  0.00    -0.165 F 
ATOM     26  F   UNL     1      -2.807  -1.259  -0.409  1.00  0.00    -0.165 F 
ATOM     27  F   UNL     1      -2.631  -0.341  -2.376  1.00  0.00    -0.165 F 
ENDBRANCH  23  24
ENDBRANCH  10  23
ENDBRANCH   9  10
ENDBRANCH   7   9
ENDBRANCH   6   7
ENDBRANCH   5   6
ENDBRANCH   4   5
ENDBRANCH   3   4
ENDBRANCH   2   3
ENDBRANCH   1   2
BRANCH   1  28
ATOM     28  O   UNL     1      -0.759  -1.874  -4.714  1.00  0.00    -0.377 OA
BRANCH  28  29
ATOM     29  C   UNL     1      -0.142  -2.853  -5.541  1.00  0.00     0.188 C 
BRANCH  29  30
ATOM     30  C   UNL     1      -0.081  -4.220  -4.864  1.00  0.00     0.188 C 
BRANCH  30  31
ATOM     31  O   UNL     1      -1.268  -4.658  -4.208  1.00  0.00    -0.376 OA
BRANCH  31  32
ATOM     32  C   UNL     1      -1.410  -4.186  -2.861  1.00  0.00     0.202 C 
BRANCH  32  33
ATOM     33  C   UNL     1      -0.642  -4.981  -1.794  1.00  0.00     0.261 C 
BRANCH  33  34
ATOM     34  O   UNL     1       0.767  -4.670  -1.788  1.00  0.00    -0.460 OA
BRANCH  34  35
ATOM     35  C   UNL     1       1.568  -5.574  -2.395  1.00  0.00     0.338 C 
ATOM     36  O   UNL     1       1.244  -6.636  -2.908  1.00  0.00    -0.246 OA
BRANCH  35  37
ATOM     37  C   UNL     1       2.919  -5.008  -2.531  1.00  0.00     0.060 A 
ATOM     38  C   UNL     1       3.462  -4.867  -3.818  1.00  0.00     0.016 A 
ATOM     39  C   UNL     1       3.674  -4.689  -1.402  1.00  0.00     0.016 A 
ATOM     40  C   UNL     1       4.780  -4.446  -3.978  1.00  0.00     0.010 A 
ATOM     41  C   UNL     1       5.002  -4.292  -1.562  1.00  0.00     0.010 A 
ATOM     42  C   UNL     1       5.570  -4.210  -2.847  1.00  0.00    -0.014 A 
BRANCH  42  43
ATOM     43  C   UNL     1       7.040  -4.115  -2.986  1.00  0.00     0.031 A 
ATOM     44  C   UNL     1       7.849  -5.368  -2.796  1.00  0.00     0.074 A 
ATOM     45  C   UNL     1       7.645  -2.949  -3.267  1.00  0.00     0.049 A 
ATOM     46  N   UNL     1       9.146  -5.528  -2.795  1.00  0.00    -0.248 NA
ATOM     47  C   UNL     1       7.087  -6.608  -2.567  1.00  0.00     0.031 C 
ATOM     48  C   UNL     1       6.965  -1.681  -3.518  1.00  0.00     0.029 A 
ATOM     49  N   UNL     1       8.978  -2.645  -3.376  1.00  0.00    -0.354 N 
ATOM     50  C   UNL     1       9.355  -6.880  -2.554  1.00  0.00     0.074 A 
ATOM     51  C   UNL     1       8.056  -7.491  -2.384  1.00  0.00     0.031 C 
ATOM     52  C   UNL     1       7.887  -0.729  -3.744  1.00  0.00     0.029 A 
ATOM     53  C   UNL     1       9.220  -1.315  -3.612  1.00  0.00     0.049 A 
ATOM     54  H   UNL     1       9.693  -3.317  -3.293  1.00  0.00     0.167 HD
ATOM     55  C   UNL     1      10.527  -7.554  -2.479  1.00  0.00     0.031 A 
ATOM     56  C   UNL     1      10.387  -0.646  -3.684  1.00  0.00     0.031 A 
ATOM     57  C   UNL     1      11.817  -6.937  -2.622  1.00  0.00     0.049 A 
ATOM     58  C   UNL     1      11.679  -1.403  -3.511  1.00  0.00     0.074 A 
ATOM     59  C   UNL     1      13.066  -7.530  -2.577  1.00  0.00     0.029 A 
ATOM     60  N   UNL     1      12.022  -5.581  -2.825  1.00  0.00    -0.354 N 
ATOM     61  N   UNL     1      11.867  -2.687  -3.312  1.00  0.00    -0.248 NA
ATOM     62  C   UNL     1      12.919  -0.618  -3.578  1.00  0.00     0.031 C 
ATOM     63  C   UNL     1      14.029  -6.522  -2.686  1.00  0.00     0.029 A 
ATOM     64  C   UNL     1      13.379  -5.312  -2.874  1.00  0.00     0.049 A 
ATOM     65  H   UNL     1      11.309  -4.909  -2.920  1.00  0.00     0.167 HD
ATOM     66  C   UNL     1      13.245  -2.866  -3.268  1.00  0.00     0.074 A 
ATOM     67  C   UNL     1      13.843  -1.563  -3.472  1.00  0.00     0.031 C 
ATOM     68  C   UNL     1      13.954  -4.007  -3.079  1.00  0.00     0.031 A 
BRANCH  55  69
ATOM     69  C   UNL     1      10.460  -9.027  -2.186  1.00  0.00    -0.014 A 
ATOM     70  C   UNL     1       9.958  -9.941  -3.127  1.00  0.00     0.009 A 
ATOM     71  C   UNL     1      10.923  -9.510  -0.952  1.00  0.00     0.009 A 
ATOM     72  C   UNL     1       9.889 -11.303  -2.823  1.00  0.00     0.001 A 
ATOM     73  C   UNL     1      10.882 -10.876  -0.664  1.00  0.00     0.001 A 
ATOM     74  C   UNL     1      10.356 -11.769  -1.595  1.00  0.00     0.000 A 
ENDBRANCH  55  69
BRANCH  56  75
ATOM     75  C   UNL     1      10.397   0.823  -3.913  1.00  0.00    -0.014 A 
ATOM     76  C   UNL     1      10.901   1.358  -5.108  1.00  0.00     0.009 A 
ATOM     77  C   UNL     1       9.925   1.703  -2.925  1.00  0.00     0.009 A 
ATOM     78  C   UNL     1      10.960   2.741  -5.298  1.00  0.00     0.001 A 
ATOM     79  C   UNL     1       9.954   3.084  -3.130  1.00  0.00     0.001 A 
ATOM     80  C   UNL     1      10.482   3.602  -4.311  1.00  0.00     0.000 A 
ENDBRANCH  56  75
BRANCH  68  81
ATOM     81  C   UNL     1      15.454  -3.906  -3.132  1.00  0.00    -0.014 A 
ATOM     82  C   UNL     1      16.185  -3.280  -2.111  1.00  0.00     0.009 A 
ATOM     83  C   UNL     1      16.148  -4.495  -4.202  1.00  0.00     0.009 A 
ATOM     84  C   UNL     1      17.579  -3.214  -2.180  1.00  0.00     0.001 A 
ATOM     85  C   UNL     1      17.542  -4.457  -4.251  1.00  0.00     0.001 A 
ATOM     86  C   UNL     1      18.256  -3.807  -3.245  1.00  0.00     0.000 A 
ENDBRANCH  68  81
ENDBRANCH  42  43
ENDBRANCH  35  37
ENDBRANCH  34  35
ENDBRANCH  33  34
ENDBRANCH  32  33
ENDBRANCH  31  32
ENDBRANCH  30  31
ENDBRANCH  29  30
ENDBRANCH  28  29
ENDBRANCH   1  28
TORSDOF 26
