REMARK SMILES CS(=O)(=O)c1ccc(C2=NN(c3ccc(C(=O)OCCOCCOCCOCCOC(=O)c4ccc(-c5c6nc(c(-c7ccccc7)c7ccc([nH]7)c(-c7ccccc7)c7nc(c(-c8ccccc8)c8ccc5[nH]8)C=C7)C=C6)cc4)cc3)[C@H](c3ccc(F)cc3)C2)cc1
REMARK SMILES IDX 23 1 22 2 21 3 20 4 19 5 18 6 16 7 17 8 15 9 12 10 13 11
REMARK SMILES IDX 82 12 14 13 81 14 11 15 9 16 10 17 91 18 83 19 8 20 5 21
REMARK SMILES IDX 6 22 93 23 7 24 92 25 2 26 1 27 3 28 4 29 84 30 85 31 90 32
REMARK SMILES IDX 86 33 89 34 87 35 88 36 24 37 25 38 26 39 27 40 28 41 29 42
REMARK SMILES IDX 30 43 31 44 32 45 33 46 34 47 80 48 35 49 79 50 36 51 37 52
REMARK SMILES IDX 38 53 73 54 39 55 78 56 72 57 74 58 40 59 77 60 71 61 70 62
REMARK SMILES IDX 41 64 63 65 48 66 62 67 49 68 52 69 61 70 75 71 50 72 51 73
REMARK SMILES IDX 60 75 76 76 53 77 42 78 43 79 47 80 44 81 46 82 45 83 64 84
REMARK SMILES IDX 65 85 69 86 66 87 68 88 67 89 54 90 55 91 59 92 56 93 58 94
REMARK SMILES IDX 57 95
REMARK H PARENT 74 63 52 74
REMARK Flexibility Score: inf
ROOT
ATOM      1  C   UNL     1      -2.303 -12.650  -4.948  1.00  0.00     0.188 C 
ENDROOT
BRANCH   1   2
ATOM      2  C   UNL     1      -2.014 -12.794  -6.456  1.00  0.00     0.188 C 
BRANCH   2   3
ATOM      3  O   UNL     1      -2.237 -14.103  -6.947  1.00  0.00    -0.376 OA
BRANCH   3   4
ATOM      4  C   UNL     1      -1.164 -15.004  -7.144  1.00  0.00     0.202 C 
BRANCH   4   5
ATOM      5  C   UNL     1      -0.031 -15.198  -6.123  1.00  0.00     0.261 C 
BRANCH   5   6
ATOM      6  O   UNL     1       0.310 -14.077  -5.313  1.00  0.00    -0.460 OA
BRANCH   6   7
ATOM      7  C   UNL     1       1.087 -13.123  -5.863  1.00  0.00     0.338 C 
ATOM      8  O   UNL     1       1.571 -13.133  -6.981  1.00  0.00    -0.246 OA
BRANCH   7   9
ATOM      9  C   UNL     1       1.129 -11.965  -4.934  1.00  0.00     0.060 A 
ATOM     10  C   UNL     1       1.418  -9.762  -3.231  1.00  0.00     0.060 A 
ATOM     11  C   UNL     1       1.397  -9.579  -4.618  1.00  0.00     0.029 A 
ATOM     12  C   UNL     1       1.125 -11.028  -2.709  1.00  0.00     0.029 A 
ATOM     13  C   UNL     1       1.259 -10.678  -5.470  1.00  0.00     0.018 A 
ATOM     14  C   UNL     1       1.007 -12.133  -3.550  1.00  0.00     0.018 A 
BRANCH  10  15
ATOM     15  N   UNL     1       1.941  -8.789  -2.377  1.00  0.00    -0.257 N 
ATOM     16  C   UNL     1       2.126  -6.774  -1.729  1.00  0.00     0.071 C 
ATOM     17  N   UNL     1       1.252  -7.652  -2.115  1.00  0.00    -0.176 NA
ATOM     18  C   UNL     1       3.569  -7.189  -1.844  1.00  0.00     0.091 C 
ATOM     19  C   UNL     1       3.405  -8.657  -2.260  1.00  0.00     0.144 C 
BRANCH  16  20
ATOM     20  C   UNL     1       1.748  -5.461  -1.172  1.00  0.00    -0.002 A 
ATOM     21  C   UNL     1       1.024  -3.056   0.044  1.00  0.00     0.067 A 
ATOM     22  C   UNL     1       0.253  -4.204   0.257  1.00  0.00     0.021 A 
ATOM     23  C   UNL     1       2.148  -3.100  -0.788  1.00  0.00     0.021 A 
ATOM     24  C   UNL     1       0.613  -5.403  -0.357  1.00  0.00     0.011 A 
ATOM     25  C   UNL     1       2.515  -4.311  -1.392  1.00  0.00     0.011 A 
BRANCH  21  26
ATOM     26  S   UNL     1       0.519  -1.565   0.872  1.00  0.00     0.175 S 
ATOM     27  C   UNL     1       1.099  -0.205  -0.100  1.00  0.00     0.163 C 
ATOM     28  O   UNL     1       1.226  -1.544   2.138  1.00  0.00    -0.224 OA
ATOM     29  O   UNL     1      -0.931  -1.531   0.819  1.00  0.00    -0.224 OA
ENDBRANCH  21  26
ENDBRANCH  16  20
BRANCH  19  30
ATOM     30  C   UNL     1       3.978  -9.744  -1.351  1.00  0.00    -0.023 A 
ATOM     31  C   UNL     1       4.285  -9.554   0.005  1.00  0.00     0.009 A 
ATOM     32  C   UNL     1       4.141 -11.044  -1.881  1.00  0.00     0.009 A 
ATOM     33  C   UNL     1       4.709 -10.627   0.800  1.00  0.00     0.039 A 
ATOM     34  C   UNL     1       4.506 -12.124  -1.076  1.00  0.00     0.039 A 
ATOM     35  C   UNL     1       4.790 -11.903   0.260  1.00  0.00     0.123 A 
ATOM     36  F   UNL     1       5.140 -12.934   1.041  1.00  0.00    -0.207 F 
ENDBRANCH  19  30
ENDBRANCH  10  15
ENDBRANCH   7   9
ENDBRANCH   6   7
ENDBRANCH   5   6
ENDBRANCH   4   5
ENDBRANCH   3   4
ENDBRANCH   2   3
ENDBRANCH   1   2
BRANCH   1  37
ATOM     37  O   UNL     1      -2.315 -13.860  -4.205  1.00  0.00    -0.377 OA
BRANCH  37  38
ATOM     38  C   UNL     1      -3.358 -14.808  -4.432  1.00  0.00     0.188 C 
BRANCH  38  39
ATOM     39  C   UNL     1      -4.497 -14.592  -5.461  1.00  0.00     0.188 C 
BRANCH  39  40
ATOM     40  O   UNL     1      -4.747 -13.242  -5.814  1.00  0.00    -0.376 OA
BRANCH  40  41
ATOM     41  C   UNL     1      -5.902 -12.605  -5.304  1.00  0.00     0.202 C 
BRANCH  41  42
ATOM     42  C   UNL     1      -5.976 -12.409  -3.784  1.00  0.00     0.261 C 
BRANCH  42  43
ATOM     43  O   UNL     1      -5.792 -13.590  -2.991  1.00  0.00    -0.460 OA
BRANCH  43  44
ATOM     44  C   UNL     1      -6.732 -14.551  -3.094  1.00  0.00     0.338 C 
ATOM     45  O   UNL     1      -7.738 -14.533  -3.787  1.00  0.00    -0.246 OA
BRANCH  44  46
ATOM     46  C   UNL     1      -6.252 -15.730  -2.350  1.00  0.00     0.060 A 
ATOM     47  C   UNL     1      -6.068 -16.940  -3.033  1.00  0.00     0.016 A 
ATOM     48  C   UNL     1      -5.986 -15.638  -0.982  1.00  0.00     0.016 A 
ATOM     49  C   UNL     1      -5.663 -18.077  -2.335  1.00  0.00     0.010 A 
ATOM     50  C   UNL     1      -5.598 -16.781  -0.282  1.00  0.00     0.010 A 
ATOM     51  C   UNL     1      -5.476 -18.014  -0.948  1.00  0.00    -0.014 A 
BRANCH  51  52
ATOM     52  C   UNL     1      -5.361 -19.266  -0.164  1.00  0.00     0.031 A 
ATOM     53  C   UNL     1      -6.593 -19.789   0.524  1.00  0.00     0.074 A 
ATOM     54  C   UNL     1      -4.200 -19.938  -0.076  1.00  0.00     0.049 A 
ATOM     55  N   UNL     1      -6.733 -20.834   1.299  1.00  0.00    -0.248 NA
ATOM     56  C   UNL     1      -7.835 -19.027   0.310  1.00  0.00     0.031 C 
ATOM     57  C   UNL     1      -2.950 -19.562  -0.735  1.00  0.00     0.029 A 
ATOM     58  N   UNL     1      -3.889 -21.082   0.615  1.00  0.00    -0.354 N 
ATOM     59  C   UNL     1      -8.071 -20.846   1.673  1.00  0.00     0.074 A 
ATOM     60  C   UNL     1      -8.693 -19.689   1.069  1.00  0.00     0.031 C 
ATOM     61  C   UNL     1      -2.003 -20.460  -0.410  1.00  0.00     0.029 A 
ATOM     62  C   UNL     1      -2.569 -21.447   0.508  1.00  0.00     0.049 A 
ATOM     63  H   UNL     1      -4.549 -21.593   1.137  1.00  0.00     0.167 HD
ATOM     64  C   UNL     1      -8.726 -21.743   2.446  1.00  0.00     0.031 A 
ATOM     65  C   UNL     1      -1.894 -22.449   1.103  1.00  0.00     0.031 A 
ATOM     66  C   UNL     1      -8.103 -22.883   3.061  1.00  0.00     0.049 A 
ATOM     67  C   UNL     1      -2.626 -23.384   2.032  1.00  0.00     0.074 A 
ATOM     68  C   UNL     1      -8.682 -23.859   3.853  1.00  0.00     0.029 A 
ATOM     69  N   UNL     1      -6.755 -23.194   2.963  1.00  0.00    -0.354 N 
ATOM     70  N   UNL     1      -3.897 -23.403   2.357  1.00  0.00    -0.248 NA
ATOM     71  C   UNL     1      -1.828 -24.442   2.669  1.00  0.00     0.031 C 
ATOM     72  C   UNL     1      -7.672 -24.722   4.288  1.00  0.00     0.029 A 
ATOM     73  C   UNL     1      -6.478 -24.329   3.705  1.00  0.00     0.049 A 
ATOM     74  H   UNL     1      -6.094 -22.683   2.442  1.00  0.00     0.167 HD
ATOM     75  C   UNL     1      -4.056 -24.494   3.205  1.00  0.00     0.074 A 
ATOM     76  C   UNL     1      -2.756 -25.118   3.333  1.00  0.00     0.031 C 
ATOM     77  C   UNL     1      -5.179 -24.941   3.820  1.00  0.00     0.031 A 
BRANCH  64  78
ATOM     78  C   UNL     1     -10.188 -21.498   2.704  1.00  0.00    -0.014 A 
ATOM     79  C   UNL     1     -11.146 -21.629   1.685  1.00  0.00     0.009 A 
ATOM     80  C   UNL     1     -10.616 -21.155   3.996  1.00  0.00     0.009 A 
ATOM     81  C   UNL     1     -12.496 -21.385   1.948  1.00  0.00     0.001 A 
ATOM     82  C   UNL     1     -11.969 -20.945   4.264  1.00  0.00     0.001 A 
ATOM     83  C   UNL     1     -12.907 -21.050   3.238  1.00  0.00     0.000 A 
ENDBRANCH  64  78
BRANCH  65  84
ATOM     84  C   UNL     1      -0.435 -22.616   0.861  1.00  0.00    -0.014 A 
ATOM     85  C   UNL     1       0.055 -23.737   0.173  1.00  0.00     0.009 A 
ATOM     86  C   UNL     1       0.479 -21.666   1.343  1.00  0.00     0.009 A 
ATOM     87  C   UNL     1       1.430 -23.917   0.000  1.00  0.00     0.001 A 
ATOM     88  C   UNL     1       1.851 -21.831   1.139  1.00  0.00     0.001 A 
ATOM     89  C   UNL     1       2.326 -22.962   0.478  1.00  0.00     0.000 A 
ENDBRANCH  65  84
BRANCH  77  90
ATOM     90  C   UNL     1      -5.067 -26.194   4.646  1.00  0.00    -0.014 A 
ATOM     91  C   UNL     1      -4.380 -26.212   5.870  1.00  0.00     0.009 A 
ATOM     92  C   UNL     1      -5.705 -27.367   4.210  1.00  0.00     0.009 A 
ATOM     93  C   UNL     1      -4.303 -27.388   6.620  1.00  0.00     0.001 A 
ATOM     94  C   UNL     1      -5.657 -28.531   4.979  1.00  0.00     0.001 A 
ATOM     95  C   UNL     1      -4.946 -28.543   6.177  1.00  0.00     0.000 A 
ENDBRANCH  77  90
ENDBRANCH  51  52
ENDBRANCH  44  46
ENDBRANCH  43  44
ENDBRANCH  42  43
ENDBRANCH  41  42
ENDBRANCH  40  41
ENDBRANCH  39  40
ENDBRANCH  38  39
ENDBRANCH  37  38
ENDBRANCH   1  37
TORSDOF 24
