REMARK SMILES CC1=C(CC(=O)OCCOCCOCCOCCOC(=O)c2ccc(-c3c4nc(c(-c5ccccc5)c5ccc([nH]5)c(-c5ccccc5)c5nc(c(-c6ccccc6)c6ccc3[nH]6)C=C5)C=C4)cc2)c2cc(F)ccc2/C1=C\c1ccc([S@@+](C)[O-])cc1
REMARK SMILES IDX 12 1 11 2 10 3 9 4 8 5 7 6 5 7 6 8 4 9 3 10 1 11 2 12 77 13
REMARK SMILES IDX 70 14 76 15 78 16 71 17 75 18 72 19 74 20 73 21 79 22 80 23
REMARK SMILES IDX 87 24 81 25 86 26 82 27 83 28 84 29 85 30 13 31 14 32 15 33
REMARK SMILES IDX 16 34 17 35 18 36 19 37 20 38 21 39 22 40 23 41 69 42 24 43
REMARK SMILES IDX 68 44 25 45 26 46 27 47 62 48 28 49 67 50 61 51 63 52 29 53
REMARK SMILES IDX 66 54 60 55 59 56 30 58 52 59 37 60 51 61 38 62 41 63 50 64
REMARK SMILES IDX 64 65 39 66 40 67 49 69 65 70 42 71 31 72 32 73 36 74 33 75
REMARK SMILES IDX 35 76 34 77 53 78 54 79 58 80 55 81 57 82 56 83 43 84 44 85
REMARK SMILES IDX 48 86 45 87 47 88 46 89
REMARK H PARENT 63 57 41 68
REMARK Flexibility Score: inf
ROOT
ATOM      1  C   UNL     1       0.555  -4.834   1.918  1.00  0.00     0.188 C 
ENDROOT
BRANCH   1   2
ATOM      2  C   UNL     1       1.893  -5.347   2.488  1.00  0.00     0.188 C 
BRANCH   2   3
ATOM      3  O   UNL     1       1.982  -5.237   3.891  1.00  0.00    -0.376 OA
BRANCH   3   4
ATOM      4  C   UNL     1       2.670  -4.136   4.446  1.00  0.00     0.202 C 
BRANCH   4   5
ATOM      5  C   UNL     1       2.446  -2.700   3.932  1.00  0.00     0.261 C 
BRANCH   5   6
ATOM      6  O   UNL     1       2.184  -2.515   2.526  1.00  0.00    -0.463 OA
BRANCH   6   7
ATOM      7  C   UNL     1       3.229  -2.281   1.701  1.00  0.00     0.310 C 
ATOM      8  O   UNL     1       4.396  -2.253   2.084  1.00  0.00    -0.252 OA
BRANCH   7   9
ATOM      9  C   UNL     1       2.857  -2.071   0.218  1.00  0.00     0.159 C 
BRANCH   9  10
ATOM     10  C   UNL     1       1.434  -2.128  -0.279  1.00  0.00    -0.025 C 
ATOM     11  C   UNL     1       0.620   0.236   0.225  1.00  0.00     0.045 C 
ATOM     12  C   UNL     1       0.484  -1.160  -0.283  1.00  0.00    -0.039 C 
ATOM     13  C   UNL     1      -0.761  -1.661  -0.904  1.00  0.00    -0.014 C 
ATOM     14  C   UNL     1       0.862  -3.292  -0.999  1.00  0.00    -0.011 A 
ATOM     15  C   UNL     1      -0.478  -3.035  -1.356  1.00  0.00    -0.010 A 
ATOM     16  C   UNL     1      -1.915  -0.967  -1.008  1.00  0.00     0.017 C 
ATOM     17  C   UNL     1       1.439  -4.521  -1.300  1.00  0.00     0.048 A 
ATOM     18  C   UNL     1      -1.241  -4.002  -2.004  1.00  0.00     0.012 A 
ATOM     19  C   UNL     1       0.653  -5.491  -1.923  1.00  0.00     0.123 A 
ATOM     20  C   UNL     1      -0.672  -5.245  -2.276  1.00  0.00     0.040 A 
ATOM     21  F   UNL     1       1.173  -6.702  -2.163  1.00  0.00    -0.207 F 
BRANCH  16  22
ATOM     22  C   UNL     1      -3.171  -1.476  -1.579  1.00  0.00    -0.025 A 
ATOM     23  C   UNL     1      -4.004  -2.304  -0.814  1.00  0.00     0.013 A 
ATOM     24  C   UNL     1      -3.486  -1.246  -2.921  1.00  0.00     0.013 A 
ATOM     25  C   UNL     1      -5.079  -2.975  -1.411  1.00  0.00     0.061 A 
ATOM     26  C   UNL     1      -4.569  -1.908  -3.514  1.00  0.00     0.061 A 
ATOM     27  C   UNL     1      -5.352  -2.803  -2.774  1.00  0.00     0.152 A 
BRANCH  27  28
ATOM     28  S   UNL     1      -6.555  -3.861  -3.622  1.00  0.00    -0.018 S 
ATOM     29  C   UNL     1      -8.008  -3.577  -2.593  1.00  0.00     0.346 C 
ATOM     30  O   UNL     1      -6.828  -3.218  -5.029  1.00  0.00    -0.612 OA
ENDBRANCH  27  28
ENDBRANCH  16  22
ENDBRANCH   9  10
ENDBRANCH   7   9
ENDBRANCH   6   7
ENDBRANCH   5   6
ENDBRANCH   4   5
ENDBRANCH   3   4
ENDBRANCH   2   3
ENDBRANCH   1   2
BRANCH   1  31
ATOM     31  O   UNL     1      -0.623  -4.674   2.697  1.00  0.00    -0.377 OA
BRANCH  31  32
ATOM     32  C   UNL     1      -0.730  -5.361   3.924  1.00  0.00     0.188 C 
BRANCH  32  33
ATOM     33  C   UNL     1      -0.611  -6.892   3.880  1.00  0.00     0.188 C 
BRANCH  33  34
ATOM     34  O   UNL     1      -0.092  -7.403   2.658  1.00  0.00    -0.376 OA
BRANCH  34  35
ATOM     35  C   UNL     1      -1.006  -8.092   1.814  1.00  0.00     0.202 C 
BRANCH  35  36
ATOM     36  C   UNL     1      -2.016  -7.223   1.050  1.00  0.00     0.261 C 
BRANCH  36  37
ATOM     37  O   UNL     1      -2.865  -6.397   1.856  1.00  0.00    -0.460 OA
BRANCH  37  38
ATOM     38  C   UNL     1      -3.692  -7.001   2.731  1.00  0.00     0.338 C 
ATOM     39  O   UNL     1      -3.855  -8.197   2.897  1.00  0.00    -0.246 OA
BRANCH  38  40
ATOM     40  C   UNL     1      -4.234  -5.939   3.600  1.00  0.00     0.060 A 
ATOM     41  C   UNL     1      -4.795  -4.788   3.040  1.00  0.00     0.016 A 
ATOM     42  C   UNL     1      -4.116  -6.072   4.990  1.00  0.00     0.016 A 
ATOM     43  C   UNL     1      -5.265  -3.776   3.876  1.00  0.00     0.010 A 
ATOM     44  C   UNL     1      -4.566  -5.050   5.825  1.00  0.00     0.010 A 
ATOM     45  C   UNL     1      -5.175  -3.913   5.273  1.00  0.00    -0.014 A 
BRANCH  45  46
ATOM     46  C   UNL     1      -5.968  -3.014   6.139  1.00  0.00     0.031 A 
ATOM     47  C   UNL     1      -5.374  -1.859   6.878  1.00  0.00     0.074 A 
ATOM     48  C   UNL     1      -7.279  -3.300   6.251  1.00  0.00     0.049 A 
ATOM     49  N   UNL     1      -5.990  -0.944   7.583  1.00  0.00    -0.248 NA
ATOM     50  C   UNL     1      -3.913  -1.709   6.836  1.00  0.00     0.031 C 
ATOM     51  C   UNL     1      -7.940  -4.434   5.598  1.00  0.00     0.029 A 
ATOM     52  N   UNL     1      -8.286  -2.671   6.931  1.00  0.00    -0.354 N 
ATOM     53  C   UNL     1      -4.999  -0.096   8.057  1.00  0.00     0.074 A 
ATOM     54  C   UNL     1      -3.735  -0.631   7.593  1.00  0.00     0.031 C 
ATOM     55  C   UNL     1      -9.247  -4.401   5.882  1.00  0.00     0.029 A 
ATOM     56  C   UNL     1      -9.512  -3.264   6.756  1.00  0.00     0.049 A 
ATOM     57  H   UNL     1      -8.146  -1.873   7.490  1.00  0.00     0.167 HD
ATOM     58  C   UNL     1      -5.147   1.027   8.802  1.00  0.00     0.031 A 
ATOM     59  C   UNL     1     -10.723  -2.927   7.232  1.00  0.00     0.031 A 
ATOM     60  C   UNL     1      -6.417   1.521   9.277  1.00  0.00     0.049 A 
ATOM     61  C   UNL     1     -10.852  -1.689   8.067  1.00  0.00     0.074 A 
ATOM     62  C   UNL     1      -6.675   2.682   9.987  1.00  0.00     0.029 A 
ATOM     63  N   UNL     1      -7.636   0.879   9.111  1.00  0.00    -0.354 N 
ATOM     64  N   UNL     1      -9.920  -0.838   8.422  1.00  0.00    -0.248 NA
ATOM     65  C   UNL     1     -12.197  -1.353   8.551  1.00  0.00     0.031 C 
ATOM     66  C   UNL     1      -8.033   2.702  10.317  1.00  0.00     0.029 A 
ATOM     67  C   UNL     1      -8.640   1.597   9.743  1.00  0.00     0.049 A 
ATOM     68  H   UNL     1      -7.769   0.037   8.618  1.00  0.00     0.167 HD
ATOM     69  C   UNL     1     -10.565   0.141   9.163  1.00  0.00     0.074 A 
ATOM     70  C   UNL     1     -11.972  -0.206   9.179  1.00  0.00     0.031 C 
ATOM     71  C   UNL     1     -10.034   1.226   9.778  1.00  0.00     0.031 A 
BRANCH  58  72
ATOM     72  C   UNL     1      -3.916   1.820   9.155  1.00  0.00    -0.014 A 
ATOM     73  C   UNL     1      -3.525   1.950  10.498  1.00  0.00     0.009 A 
ATOM     74  C   UNL     1      -3.222   2.550   8.177  1.00  0.00     0.009 A 
ATOM     75  C   UNL     1      -2.480   2.805  10.857  1.00  0.00     0.001 A 
ATOM     76  C   UNL     1      -2.159   3.384   8.535  1.00  0.00     0.001 A 
ATOM     77  C   UNL     1      -1.796   3.520   9.875  1.00  0.00     0.000 A 
ENDBRANCH  58  72
BRANCH  59  78
ATOM     78  C   UNL     1     -11.896  -3.760   6.864  1.00  0.00    -0.014 A 
ATOM     79  C   UNL     1     -12.013  -5.078   7.337  1.00  0.00     0.009 A 
ATOM     80  C   UNL     1     -12.853  -3.277   5.960  1.00  0.00     0.009 A 
ATOM     81  C   UNL     1     -13.043  -5.905   6.886  1.00  0.00     0.001 A 
ATOM     82  C   UNL     1     -13.901  -4.096   5.537  1.00  0.00     0.001 A 
ATOM     83  C   UNL     1     -13.988  -5.412   5.989  1.00  0.00     0.000 A 
ENDBRANCH  59  78
BRANCH  71  84
ATOM     84  C   UNL     1     -10.976   2.116  10.544  1.00  0.00    -0.014 A 
ATOM     85  C   UNL     1     -11.218   3.427  10.104  1.00  0.00     0.009 A 
ATOM     86  C   UNL     1     -11.563   1.684  11.744  1.00  0.00     0.009 A 
ATOM     87  C   UNL     1     -12.017   4.291  10.855  1.00  0.00     0.001 A 
ATOM     88  C   UNL     1     -12.391   2.538  12.474  1.00  0.00     0.001 A 
ATOM     89  C   UNL     1     -12.608   3.844  12.035  1.00  0.00     0.000 A 
ENDBRANCH  71  84
ENDBRANCH  45  46
ENDBRANCH  38  40
ENDBRANCH  37  38
ENDBRANCH  36  37
ENDBRANCH  35  36
ENDBRANCH  34  35
ENDBRANCH  33  34
ENDBRANCH  32  33
ENDBRANCH  31  32
ENDBRANCH   1  31
TORSDOF 23
