REMARK SMILES Cc1ccc(S(=O)(=O)Nc2ccc(C(=O)CCC(=O)OCCOCCOCCOCCOC(=O)c3ccc(-c4c5nc(c(-c6ccccc6)c6ccc([nH]6)c(-c6ccccc6)c6nc(c(-c7ccccc7)c7ccc4[nH]7)C=C6)C=C5)cc3)cc2)c(C)c1
REMARK SMILES IDX 24 1 23 2 22 3 21 4 20 5 18 6 19 7 17 8 16 9 14 10 15 11
REMARK SMILES IDX 13 12 10 13 11 14 84 15 12 16 83 17 9 18 6 20 7 21 8 22 5 23
REMARK SMILES IDX 1 24 2 25 3 26 87 27 4 28 85 29 86 30 25 31 26 32 27 33
REMARK SMILES IDX 28 34 29 35 30 36 31 37 32 38 33 39 34 40 35 41 36 42 82 43
REMARK SMILES IDX 37 44 81 45 38 46 39 47 40 48 75 49 41 50 80 51 74 52 76 53
REMARK SMILES IDX 42 54 79 55 73 56 72 57 43 59 65 60 50 61 64 62 51 63 54 64
REMARK SMILES IDX 63 65 77 66 52 67 53 68 62 70 78 71 55 72 44 73 45 74 49 75
REMARK SMILES IDX 46 76 48 77 47 78 66 79 67 80 71 81 68 82 70 83 69 84 56 85
REMARK SMILES IDX 57 86 61 87 58 88 60 89 59 90
REMARK H PARENT 9 19 76 58 54 69
REMARK Flexibility Score: inf
ROOT
ATOM      1  C   UNL     1       2.666  -2.247   3.505  1.00  0.00     0.188 C 
ENDROOT
BRANCH   1   2
ATOM      2  O   UNL     1       1.795  -1.334   2.848  1.00  0.00    -0.376 OA
BRANCH   2   3
ATOM      3  C   UNL     1       1.342  -1.649   1.536  1.00  0.00     0.202 C 
BRANCH   3   4
ATOM      4  C   UNL     1       2.417  -1.755   0.463  1.00  0.00     0.261 C 
BRANCH   4   5
ATOM      5  O   UNL     1       3.032  -3.051   0.495  1.00  0.00    -0.463 OA
BRANCH   5   6
ATOM      6  C   UNL     1       4.230  -3.147  -0.120  1.00  0.00     0.306 C 
ATOM      7  O   UNL     1       4.871  -2.193  -0.539  1.00  0.00    -0.252 OA
BRANCH   6   8
ATOM      8  C   UNL     1       4.711  -4.577  -0.220  1.00  0.00     0.131 C 
BRANCH   8   9
ATOM      9  C   UNL     1       3.730  -5.689   0.168  1.00  0.00     0.093 C 
BRANCH   9  10
ATOM     10  C   UNL     1       2.752  -6.060  -0.941  1.00  0.00     0.163 C 
ATOM     11  O   UNL     1       3.146  -6.719  -1.904  1.00  0.00    -0.294 OA
BRANCH  10  12
ATOM     12  C   UNL     1       1.328  -5.576  -0.940  1.00  0.00     0.018 A 
ATOM     13  C   UNL     1      -1.160  -4.244  -1.212  1.00  0.00     0.049 A 
ATOM     14  C   UNL     1      -0.645  -5.012  -2.256  1.00  0.00     0.027 A 
ATOM     15  C   UNL     1      -0.521  -4.311   0.016  1.00  0.00     0.027 A 
ATOM     16  C   UNL     1       0.593  -5.663  -2.127  1.00  0.00     0.014 A 
ATOM     17  C   UNL     1       0.704  -4.989   0.157  1.00  0.00     0.014 A 
BRANCH  13  18
ATOM     18  N   UNL     1      -2.311  -3.451  -1.472  1.00  0.00    -0.280 N 
ATOM     19  H   UNL     1      -2.885  -3.751  -2.214  1.00  0.00     0.180 HD
BRANCH  18  20
ATOM     20  S   UNL     1      -2.808  -2.064  -0.665  1.00  0.00     0.262 S 
ATOM     21  O   UNL     1      -2.793  -2.348   0.761  1.00  0.00    -0.201 OA
ATOM     22  O   UNL     1      -4.021  -1.661  -1.333  1.00  0.00    -0.201 OA
BRANCH  20  23
ATOM     23  C   UNL     1      -1.618  -0.750  -0.940  1.00  0.00     0.090 A 
ATOM     24  C   UNL     1       1.790   1.856  -0.585  1.00  0.00     0.044 C 
ATOM     25  C   UNL     1       0.553   1.040  -0.833  1.00  0.00    -0.051 A 
ATOM     26  C   UNL     1       0.563  -0.036  -1.726  1.00  0.00     0.005 A 
ATOM     27  C   UNL     1      -0.630   1.325  -0.148  1.00  0.00     0.008 A 
ATOM     28  C   UNL     1      -0.501  -0.950  -1.756  1.00  0.00     0.023 A 
ATOM     29  C   UNL     1      -1.736   0.455  -0.210  1.00  0.00    -0.030 A 
ATOM     30  C   UNL     1      -3.016   0.936   0.420  1.00  0.00     0.046 C 
ENDBRANCH  20  23
ENDBRANCH  18  20
ENDBRANCH  13  18
ENDBRANCH  10  12
ENDBRANCH   9  10
ENDBRANCH   8   9
ENDBRANCH   6   8
ENDBRANCH   5   6
ENDBRANCH   4   5
ENDBRANCH   3   4
ENDBRANCH   2   3
ENDBRANCH   1   2
BRANCH   1  31
ATOM     31  C   UNL     1       2.386  -3.746   3.382  1.00  0.00     0.188 C 
BRANCH  31  32
ATOM     32  O   UNL     1       1.212  -4.318   3.920  1.00  0.00    -0.377 OA
BRANCH  32  33
ATOM     33  C   UNL     1      -0.038  -3.675   3.817  1.00  0.00     0.188 C 
BRANCH  33  34
ATOM     34  C   UNL     1      -0.883  -3.787   5.095  1.00  0.00     0.188 C 
BRANCH  34  35
ATOM     35  O   UNL     1      -0.248  -4.006   6.347  1.00  0.00    -0.376 OA
BRANCH  35  36
ATOM     36  C   UNL     1       0.817  -4.944   6.432  1.00  0.00     0.202 C 
BRANCH  36  37
ATOM     37  C   UNL     1       0.601  -6.409   5.996  1.00  0.00     0.261 C 
BRANCH  37  38
ATOM     38  O   UNL     1      -0.083  -6.647   4.750  1.00  0.00    -0.460 OA
BRANCH  38  39
ATOM     39  C   UNL     1      -1.383  -7.004   4.877  1.00  0.00     0.338 C 
ATOM     40  O   UNL     1      -2.043  -7.044   5.899  1.00  0.00    -0.246 OA
BRANCH  39  41
ATOM     41  C   UNL     1      -1.965  -7.348   3.565  1.00  0.00     0.060 A 
ATOM     42  C   UNL     1      -2.939  -6.513   3.003  1.00  0.00     0.016 A 
ATOM     43  C   UNL     1      -1.716  -8.609   3.019  1.00  0.00     0.016 A 
ATOM     44  C   UNL     1      -3.714  -6.966   1.929  1.00  0.00     0.010 A 
ATOM     45  C   UNL     1      -2.493  -9.060   1.947  1.00  0.00     0.010 A 
ATOM     46  C   UNL     1      -3.531  -8.262   1.430  1.00  0.00    -0.014 A 
BRANCH  46  47
ATOM     47  C   UNL     1      -4.526  -8.872   0.508  1.00  0.00     0.031 A 
ATOM     48  C   UNL     1      -5.545  -9.830   1.067  1.00  0.00     0.074 A 
ATOM     49  C   UNL     1      -4.514  -8.613  -0.811  1.00  0.00     0.049 A 
ATOM     50  N   UNL     1      -6.420 -10.576   0.439  1.00  0.00    -0.248 NA
ATOM     51  C   UNL     1      -5.571  -9.972   2.531  1.00  0.00     0.031 C 
ATOM     52  C   UNL     1      -3.618  -7.675  -1.480  1.00  0.00     0.029 A 
ATOM     53  N   UNL     1      -5.271  -9.145  -1.826  1.00  0.00    -0.354 N 
ATOM     54  C   UNL     1      -7.083 -11.293   1.429  1.00  0.00     0.074 A 
ATOM     55  C   UNL     1      -6.494 -10.908   2.693  1.00  0.00     0.031 C 
ATOM     56  C   UNL     1      -3.859  -7.715  -2.802  1.00  0.00     0.029 A 
ATOM     57  C   UNL     1      -4.895  -8.713  -3.073  1.00  0.00     0.049 A 
ATOM     58  H   UNL     1      -6.012  -9.775  -1.674  1.00  0.00     0.167 HD
ATOM     59  C   UNL     1      -8.087 -12.194   1.300  1.00  0.00     0.031 A 
ATOM     60  C   UNL     1      -5.307  -9.103  -4.296  1.00  0.00     0.031 A 
ATOM     61  C   UNL     1      -8.663 -12.593   0.043  1.00  0.00     0.049 A 
ATOM     62  C   UNL     1      -6.368 -10.165  -4.428  1.00  0.00     0.074 A 
ATOM     63  C   UNL     1      -9.701 -13.480  -0.187  1.00  0.00     0.029 A 
ATOM     64  N   UNL     1      -8.239 -12.143  -1.198  1.00  0.00    -0.354 N 
ATOM     65  N   UNL     1      -7.004 -10.819  -3.486  1.00  0.00    -0.248 NA
ATOM     66  C   UNL     1      -6.769 -10.540  -5.793  1.00  0.00     0.031 C 
ATOM     67  C   UNL     1      -9.858 -13.619  -1.570  1.00  0.00     0.029 A 
ATOM     68  C   UNL     1      -8.969 -12.761  -2.199  1.00  0.00     0.049 A 
ATOM     69  H   UNL     1      -7.524 -11.482  -1.345  1.00  0.00     0.167 HD
ATOM     70  C   UNL     1      -7.903 -11.655  -4.141  1.00  0.00     0.074 A 
ATOM     71  C   UNL     1      -7.731 -11.424  -5.560  1.00  0.00     0.031 C 
ATOM     72  C   UNL     1      -8.796 -12.526  -3.611  1.00  0.00     0.031 A 
BRANCH  59  73
ATOM     73  C   UNL     1      -8.584 -12.854   2.558  1.00  0.00    -0.014 A 
ATOM     74  C   UNL     1      -9.296 -12.140   3.535  1.00  0.00     0.009 A 
ATOM     75  C   UNL     1      -8.336 -14.221   2.765  1.00  0.00     0.009 A 
ATOM     76  C   UNL     1      -9.700 -12.768   4.716  1.00  0.00     0.001 A 
ATOM     77  C   UNL     1      -8.771 -14.854   3.930  1.00  0.00     0.001 A 
ATOM     78  C   UNL     1      -9.439 -14.124   4.912  1.00  0.00     0.000 A 
ENDBRANCH  59  73
BRANCH  60  79
ATOM     79  C   UNL     1      -4.686  -8.498  -5.504  1.00  0.00    -0.014 A 
ATOM     80  C   UNL     1      -5.411  -7.617  -6.319  1.00  0.00     0.009 A 
ATOM     81  C   UNL     1      -3.354  -8.791  -5.838  1.00  0.00     0.009 A 
ATOM     82  C   UNL     1      -4.819  -7.051  -7.450  1.00  0.00     0.001 A 
ATOM     83  C   UNL     1      -2.755  -8.201  -6.953  1.00  0.00     0.001 A 
ATOM     84  C   UNL     1      -3.490  -7.336  -7.762  1.00  0.00     0.000 A 
ENDBRANCH  60  79
BRANCH  72  85
ATOM     85  C   UNL     1      -9.702 -13.269  -4.556  1.00  0.00    -0.014 A 
ATOM     86  C   UNL     1      -9.228 -14.312  -5.365  1.00  0.00     0.009 A 
ATOM     87  C   UNL     1     -11.074 -12.965  -4.576  1.00  0.00     0.009 A 
ATOM     88  C   UNL     1     -10.107 -15.021  -6.189  1.00  0.00     0.001 A 
ATOM     89  C   UNL     1     -11.953 -13.694  -5.378  1.00  0.00     0.001 A 
ATOM     90  C   UNL     1     -11.468 -14.717  -6.189  1.00  0.00     0.000 A 
ENDBRANCH  72  85
ENDBRANCH  46  47
ENDBRANCH  39  41
ENDBRANCH  38  39
ENDBRANCH  37  38
ENDBRANCH  36  37
ENDBRANCH  35  36
ENDBRANCH  34  35
ENDBRANCH  33  34
ENDBRANCH  32  33
ENDBRANCH  31  32
ENDBRANCH   1  31
TORSDOF 26
