REMARK SMILES C[C@@H](Sc1nc2ccccc2c(=O)n1N)C(=O)OCCOCCOCCOCCOC(=O)c1ccc(-c2c3nc(c(-c4ccccc4)c4ccc([nH]4)c(-c4ccccc4)c4nc(c(-c5ccccc5)c5ccc2[nH]5)C=C4)C=C3)cc1
REMARK SMILES IDX 23 1 22 2 21 3 20 4 19 5 18 6 16 7 17 8 2 9 1 10 3 11 4 12
REMARK SMILES IDX 5 13 14 14 6 15 12 16 7 17 11 18 13 19 8 20 10 21 9 22 15 23
REMARK SMILES IDX 24 26 25 27 26 28 27 29 28 30 29 31 30 32 31 33 32 34 33 35
REMARK SMILES IDX 34 36 80 37 35 38 79 39 36 40 37 41 38 42 73 43 39 44 78 45
REMARK SMILES IDX 72 46 74 47 40 48 77 49 71 50 70 51 41 53 63 54 48 55 62 56
REMARK SMILES IDX 49 57 52 58 61 59 75 60 50 61 51 62 60 64 76 65 53 66 42 67
REMARK SMILES IDX 43 68 47 69 44 70 46 71 45 72 64 73 65 74 69 75 66 76 68 77
REMARK SMILES IDX 67 78 54 79 55 80 59 81 56 82 58 83 57 84
REMARK H PARENT 15 24 15 25 74 52 52 63
REMARK Flexibility Score: inf
ROOT
ATOM      1  C   UNL     1      -1.128  -1.446  -0.035  1.00  0.00     0.188 C 
ENDROOT
BRANCH   1   2
ATOM      2  C   UNL     1      -1.937  -1.375   1.272  1.00  0.00     0.188 C 
BRANCH   2   3
ATOM      3  O   UNL     1      -3.253  -0.872   1.109  1.00  0.00    -0.376 OA
BRANCH   3   4
ATOM      4  C   UNL     1      -3.574   0.362   1.730  1.00  0.00     0.202 C 
BRANCH   4   5
ATOM      5  C   UNL     1      -2.886   1.623   1.185  1.00  0.00     0.261 C 
BRANCH   5   6
ATOM      6  O   UNL     1      -1.475   1.508   0.969  1.00  0.00    -0.462 OA
BRANCH   6   7
ATOM      7  C   UNL     1      -0.696   1.523   2.075  1.00  0.00     0.319 C 
ATOM      8  O   UNL     1      -1.146   1.574   3.216  1.00  0.00    -0.251 OA
BRANCH   7   9
ATOM      9  C   UNL     1       0.796   1.396   1.754  1.00  0.00     0.161 C 
ATOM     10  C   UNL     1       1.193   1.266   0.278  1.00  0.00     0.032 C 
BRANCH   9  11
ATOM     11  S   UNL     1       1.600   2.823   2.567  1.00  0.00    -0.071 SA
BRANCH  11  12
ATOM     12  C   UNL     1       3.274   2.451   2.259  1.00  0.00     0.191 A 
ATOM     13  N   UNL     1       3.890   3.224   1.427  1.00  0.00    -0.222 NA
ATOM     14  N   UNL     1       3.876   1.403   2.945  1.00  0.00    -0.202 N 
ATOM     15  C   UNL     1       5.256   3.017   1.224  1.00  0.00     0.079 A 
ATOM     16  C   UNL     1       5.248   1.168   2.846  1.00  0.00     0.280 A 
ATOM     17  C   UNL     1       5.923   3.842   0.317  1.00  0.00     0.029 A 
ATOM     18  C   UNL     1       5.985   2.060   1.931  1.00  0.00     0.068 A 
ATOM     19  O   UNL     1       5.832   0.289   3.478  1.00  0.00    -0.267 OA
ATOM     20  C   UNL     1       7.304   3.739   0.150  1.00  0.00     0.002 A 
ATOM     21  C   UNL     1       7.371   1.955   1.779  1.00  0.00     0.016 A 
ATOM     22  C   UNL     1       8.030   2.806   0.892  1.00  0.00     0.001 A 
BRANCH  14  23
ATOM     23  N   UNL     1       3.126   0.510   3.783  1.00  0.00    -0.334 N 
ATOM     24  H   UNL     1       2.155   0.633   3.887  1.00  0.00     0.178 HD
ATOM     25  H   UNL     1       3.583  -0.224   4.252  1.00  0.00     0.178 HD
ENDBRANCH  14  23
ENDBRANCH  11  12
ENDBRANCH   9  11
ENDBRANCH   7   9
ENDBRANCH   6   7
ENDBRANCH   5   6
ENDBRANCH   4   5
ENDBRANCH   3   4
ENDBRANCH   2   3
ENDBRANCH   1   2
BRANCH   1  26
ATOM     26  O   UNL     1      -1.547  -0.687  -1.160  1.00  0.00    -0.377 OA
BRANCH  26  27
ATOM     27  C   UNL     1      -2.912  -0.735  -1.571  1.00  0.00     0.188 C 
BRANCH  27  28
ATOM     28  C   UNL     1      -3.775  -2.000  -1.351  1.00  0.00     0.188 C 
BRANCH  28  29
ATOM     29  O   UNL     1      -3.074  -3.132  -0.863  1.00  0.00    -0.376 OA
BRANCH  29  30
ATOM     30  C   UNL     1      -2.774  -4.145  -1.812  1.00  0.00     0.202 C 
BRANCH  30  31
ATOM     31  C   UNL     1      -1.808  -3.746  -2.937  1.00  0.00     0.261 C 
BRANCH  31  32
ATOM     32  O   UNL     1      -2.257  -2.687  -3.801  1.00  0.00    -0.460 OA
BRANCH  32  33
ATOM     33  C   UNL     1      -3.402  -2.873  -4.492  1.00  0.00     0.338 C 
ATOM     34  O   UNL     1      -4.109  -3.865  -4.508  1.00  0.00    -0.246 OA
BRANCH  33  35
ATOM     35  C   UNL     1      -3.766  -1.570  -5.085  1.00  0.00     0.060 A 
ATOM     36  C   UNL     1      -4.944  -0.931  -4.673  1.00  0.00     0.016 A 
ATOM     37  C   UNL     1      -2.914  -0.960  -6.006  1.00  0.00     0.016 A 
ATOM     38  C   UNL     1      -5.266   0.331  -5.176  1.00  0.00     0.010 A 
ATOM     39  C   UNL     1      -3.254   0.288  -6.532  1.00  0.00     0.010 A 
ATOM     40  C   UNL     1      -4.434   0.935  -6.128  1.00  0.00    -0.014 A 
BRANCH  40  41
ATOM     41  C   UNL     1      -4.853   2.182  -6.810  1.00  0.00     0.031 A 
ATOM     42  C   UNL     1      -5.529   2.076  -8.148  1.00  0.00     0.074 A 
ATOM     43  C   UNL     1      -4.610   3.389  -6.267  1.00  0.00     0.049 A 
ATOM     44  N   UNL     1      -5.875   3.025  -8.978  1.00  0.00    -0.248 NA
ATOM     45  C   UNL     1      -5.854   0.717  -8.613  1.00  0.00     0.031 C 
ATOM     46  C   UNL     1      -4.005   3.625  -4.957  1.00  0.00     0.029 A 
ATOM     47  N   UNL     1      -4.826   4.649  -6.770  1.00  0.00    -0.354 N 
ATOM     48  C   UNL     1      -6.442   2.379 -10.070  1.00  0.00     0.074 A 
ATOM     49  C   UNL     1      -6.387   0.959  -9.802  1.00  0.00     0.031 C 
ATOM     50  C   UNL     1      -3.873   4.951  -4.771  1.00  0.00     0.029 A 
ATOM     51  C   UNL     1      -4.341   5.652  -5.965  1.00  0.00     0.049 A 
ATOM     52  H   UNL     1      -5.284   4.817  -7.625  1.00  0.00     0.167 HD
ATOM     53  C   UNL     1      -6.955   2.924 -11.197  1.00  0.00     0.031 A 
ATOM     54  C   UNL     1      -4.247   6.979  -6.188  1.00  0.00     0.031 A 
ATOM     55  C   UNL     1      -6.999   4.335 -11.467  1.00  0.00     0.049 A 
ATOM     56  C   UNL     1      -4.742   7.546  -7.496  1.00  0.00     0.074 A 
ATOM     57  C   UNL     1      -7.535   4.981 -12.567  1.00  0.00     0.029 A 
ATOM     58  N   UNL     1      -6.473   5.314 -10.641  1.00  0.00    -0.354 N 
ATOM     59  N   UNL     1      -5.326   6.933  -8.497  1.00  0.00    -0.248 NA
ATOM     60  C   UNL     1      -4.558   8.991  -7.706  1.00  0.00     0.031 C 
ATOM     61  C   UNL     1      -7.267   6.347 -12.442  1.00  0.00     0.029 A 
ATOM     62  C   UNL     1      -6.626   6.556 -11.232  1.00  0.00     0.049 A 
ATOM     63  H   UNL     1      -6.053   5.151  -9.766  1.00  0.00     0.167 HD
ATOM     64  C   UNL     1      -5.598   7.918  -9.440  1.00  0.00     0.074 A 
ATOM     65  C   UNL     1      -5.140   9.172  -8.883  1.00  0.00     0.031 C 
ATOM     66  C   UNL     1      -6.169   7.796 -10.663  1.00  0.00     0.031 A 
BRANCH  53  67
ATOM     67  C   UNL     1      -7.472   1.993 -12.256  1.00  0.00    -0.014 A 
ATOM     68  C   UNL     1      -8.686   1.308 -12.100  1.00  0.00     0.009 A 
ATOM     69  C   UNL     1      -6.768   1.869 -13.465  1.00  0.00     0.009 A 
ATOM     70  C   UNL     1      -9.179   0.506 -13.132  1.00  0.00     0.001 A 
ATOM     71  C   UNL     1      -7.276   1.088 -14.503  1.00  0.00     0.001 A 
ATOM     72  C   UNL     1      -8.479   0.405 -14.335  1.00  0.00     0.000 A 
ENDBRANCH  53  67
BRANCH  54  73
ATOM     73  C   UNL     1      -3.594   7.871  -5.190  1.00  0.00    -0.014 A 
ATOM     74  C   UNL     1      -4.319   8.883  -4.541  1.00  0.00     0.009 A 
ATOM     75  C   UNL     1      -2.217   7.760  -4.935  1.00  0.00     0.009 A 
ATOM     76  C   UNL     1      -3.673   9.788  -3.694  1.00  0.00     0.001 A 
ATOM     77  C   UNL     1      -1.581   8.643  -4.060  1.00  0.00     0.001 A 
ATOM     78  C   UNL     1      -2.306   9.665  -3.452  1.00  0.00     0.000 A 
ENDBRANCH  54  73
BRANCH  66  79
ATOM     79  C   UNL     1      -6.357   9.049 -11.473  1.00  0.00    -0.014 A 
ATOM     80  C   UNL     1      -5.265   9.707 -12.060  1.00  0.00     0.009 A 
ATOM     81  C   UNL     1      -7.651   9.543 -11.702  1.00  0.00     0.009 A 
ATOM     82  C   UNL     1      -5.463  10.850 -12.837  1.00  0.00     0.001 A 
ATOM     83  C   UNL     1      -7.849  10.667 -12.506  1.00  0.00     0.001 A 
ATOM     84  C   UNL     1      -6.755  11.324 -13.066  1.00  0.00     0.000 A 
ENDBRANCH  66  79
ENDBRANCH  40  41
ENDBRANCH  33  35
ENDBRANCH  32  33
ENDBRANCH  31  32
ENDBRANCH  30  31
ENDBRANCH  29  30
ENDBRANCH  28  29
ENDBRANCH  27  28
ENDBRANCH  26  27
ENDBRANCH   1  26
TORSDOF 23
