REMARK SMILES Cc1ccc(C(F)(F)F)cc1/C=C/C(=O)OCCOCCOCCOCCOC(=O)c1ccc(-c2c3nc(c(-c4ccccc4)c4ccc([nH]4)c(-c4ccccc4)c4nc(c(-c5ccccc5)c5ccc2[nH]5)C=C4)C=C3)cc1
REMARK SMILES IDX 22 1 21 2 20 3 19 4 18 5 17 6 16 7 14 8 15 9 13 10 12 11
REMARK SMILES IDX 11 12 1 13 2 14 3 15 4 16 10 17 5 18 6 19 7 20 8 21 9 22
REMARK SMILES IDX 23 23 24 24 25 25 26 26 27 27 28 28 29 29 30 30 31 31 32 32
REMARK SMILES IDX 78 33 33 34 77 35 34 36 35 37 36 38 71 39 37 40 76 41 70 42
REMARK SMILES IDX 72 43 38 44 75 45 69 46 68 47 39 49 61 50 46 51 60 52 47 53
REMARK SMILES IDX 50 54 59 55 73 56 48 57 49 58 58 60 74 61 51 62 40 63 41 64
REMARK SMILES IDX 45 65 42 66 44 67 43 68 62 69 63 70 67 71 64 72 66 73 65 74
REMARK SMILES IDX 52 75 53 76 57 77 54 78 56 79 55 80
REMARK H PARENT 72 48 50 59
REMARK Flexibility Score: inf
ROOT
ATOM      1  O   UNL     1       1.059   3.407  -2.622  1.00  0.00    -0.377 OA
ENDROOT
BRANCH   1   2
ATOM      2  C   UNL     1      -0.281   3.748  -2.959  1.00  0.00     0.188 C 
BRANCH   2   3
ATOM      3  C   UNL     1      -1.096   4.594  -1.971  1.00  0.00     0.188 C 
BRANCH   3   4
ATOM      4  O   UNL     1      -0.904   6.003  -1.965  1.00  0.00    -0.376 OA
BRANCH   4   5
ATOM      5  C   UNL     1      -0.057   6.527  -0.946  1.00  0.00     0.202 C 
BRANCH   5   6
ATOM      6  C   UNL     1      -0.440   6.248   0.503  1.00  0.00     0.261 C 
BRANCH   6   7
ATOM      7  O   UNL     1      -0.050   4.915   0.843  1.00  0.00    -0.460 OA
BRANCH   7   8
ATOM      8  C   UNL     1      -0.901   4.231   1.622  1.00  0.00     0.330 C 
ATOM      9  O   UNL     1      -1.859   4.671   2.232  1.00  0.00    -0.247 OA
BRANCH   8  10
ATOM     10  C   UNL     1      -0.692   2.784   1.452  1.00  0.00     0.094 C 
ATOM     11  C   UNL     1       0.106   2.212   0.527  1.00  0.00     0.016 C 
BRANCH  11  12
ATOM     12  C   UNL     1      -0.254   0.855   0.096  1.00  0.00    -0.022 A 
ATOM     13  C   UNL     1       2.118  -0.087   0.059  1.00  0.00     0.045 C 
ATOM     14  C   UNL     1       0.623  -0.229  -0.007  1.00  0.00    -0.044 A 
ATOM     15  C   UNL     1       0.068  -1.516  -0.134  1.00  0.00     0.004 A 
ATOM     16  C   UNL     1      -1.320  -1.709  -0.209  1.00  0.00     0.013 A 
ATOM     17  C   UNL     1      -1.623   0.658  -0.165  1.00  0.00     0.021 A 
ATOM     18  C   UNL     1      -2.182  -0.613  -0.245  1.00  0.00     0.056 A 
BRANCH  18  19
ATOM     19  C   UNL     1      -3.681  -0.753  -0.259  1.00  0.00     0.416 C 
ATOM     20  F   UNL     1      -4.146  -1.412  -1.353  1.00  0.00    -0.166 F 
ATOM     21  F   UNL     1      -4.144  -1.435   0.824  1.00  0.00    -0.166 F 
ATOM     22  F   UNL     1      -4.336   0.445  -0.241  1.00  0.00    -0.166 F 
ENDBRANCH  18  19
ENDBRANCH  11  12
ENDBRANCH   8  10
ENDBRANCH   7   8
ENDBRANCH   6   7
ENDBRANCH   5   6
ENDBRANCH   4   5
ENDBRANCH   3   4
ENDBRANCH   2   3
ENDBRANCH   1   2
BRANCH   1  23
ATOM     23  C   UNL     1       2.091   4.324  -2.977  1.00  0.00     0.188 C 
BRANCH  23  24
ATOM     24  C   UNL     1       2.046   4.912  -4.384  1.00  0.00     0.188 C 
BRANCH  24  25
ATOM     25  O   UNL     1       1.103   5.983  -4.411  1.00  0.00    -0.376 OA
BRANCH  25  26
ATOM     26  C   UNL     1       0.434   6.188  -5.653  1.00  0.00     0.202 C 
BRANCH  26  27
ATOM     27  C   UNL     1       1.365   6.502  -6.832  1.00  0.00     0.261 C 
BRANCH  27  28
ATOM     28  O   UNL     1       2.025   7.764  -6.612  1.00  0.00    -0.460 OA
BRANCH  28  29
ATOM     29  C   UNL     1       3.330   7.678  -6.239  1.00  0.00     0.338 C 
ATOM     30  O   UNL     1       4.188   7.025  -6.806  1.00  0.00    -0.246 OA
BRANCH  29  31
ATOM     31  C   UNL     1       3.496   8.256  -4.874  1.00  0.00     0.060 A 
ATOM     32  C   UNL     1       4.707   8.079  -4.184  1.00  0.00     0.016 A 
ATOM     33  C   UNL     1       2.354   8.625  -4.177  1.00  0.00     0.016 A 
ATOM     34  C   UNL     1       4.720   8.075  -2.781  1.00  0.00     0.010 A 
ATOM     35  C   UNL     1       2.353   8.489  -2.807  1.00  0.00     0.010 A 
ATOM     36  C   UNL     1       3.513   8.164  -2.092  1.00  0.00    -0.014 A 
BRANCH  36  37
ATOM     37  C   UNL     1       3.295   7.789  -0.683  1.00  0.00     0.031 A 
ATOM     38  C   UNL     1       2.533   8.726   0.206  1.00  0.00     0.074 A 
ATOM     39  C   UNL     1       3.416   6.474  -0.352  1.00  0.00     0.049 A 
ATOM     40  N   UNL     1       2.202   8.477   1.426  1.00  0.00    -0.248 NA
ATOM     41  C   UNL     1       2.022  10.030  -0.225  1.00  0.00     0.031 C 
ATOM     42  C   UNL     1       2.770   5.769   0.756  1.00  0.00     0.029 A 
ATOM     43  N   UNL     1       4.135   5.447  -0.955  1.00  0.00    -0.354 N 
ATOM     44  C   UNL     1       1.183   9.334   1.790  1.00  0.00     0.074 A 
ATOM     45  C   UNL     1       1.175  10.344   0.764  1.00  0.00     0.031 C 
ATOM     46  C   UNL     1       3.209   4.504   0.846  1.00  0.00     0.029 A 
ATOM     47  C   UNL     1       4.369   4.442  -0.005  1.00  0.00     0.049 A 
ATOM     48  H   UNL     1       4.430   5.428  -1.894  1.00  0.00     0.167 HD
ATOM     49  C   UNL     1       0.376   8.995   2.842  1.00  0.00     0.031 A 
ATOM     50  C   UNL     1       5.621   4.182   0.480  1.00  0.00     0.031 A 
ATOM     51  C   UNL     1       0.885   7.804   3.552  1.00  0.00     0.049 A 
ATOM     52  C   UNL     1       5.684   4.647   1.938  1.00  0.00     0.074 A 
ATOM     53  C   UNL     1       0.351   6.576   3.904  1.00  0.00     0.029 A 
ATOM     54  N   UNL     1       2.250   7.713   3.830  1.00  0.00    -0.354 N 
ATOM     55  N   UNL     1       4.951   5.632   2.414  1.00  0.00    -0.248 NA
ATOM     56  C   UNL     1       6.363   3.913   3.006  1.00  0.00     0.031 C 
ATOM     57  C   UNL     1       1.437   5.700   4.213  1.00  0.00     0.029 A 
ATOM     58  C   UNL     1       2.622   6.422   4.140  1.00  0.00     0.049 A 
ATOM     59  H   UNL     1       2.872   8.476   3.807  1.00  0.00     0.167 HD
ATOM     60  C   UNL     1       4.891   5.538   3.779  1.00  0.00     0.074 A 
ATOM     61  C   UNL     1       5.864   4.507   4.108  1.00  0.00     0.031 C 
ATOM     62  C   UNL     1       3.979   6.149   4.596  1.00  0.00     0.031 A 
BRANCH  49  63
ATOM     63  C   UNL     1      -0.994   9.600   3.135  1.00  0.00    -0.014 A 
ATOM     64  C   UNL     1      -1.710   9.181   4.276  1.00  0.00     0.009 A 
ATOM     65  C   UNL     1      -1.680  10.505   2.301  1.00  0.00     0.009 A 
ATOM     66  C   UNL     1      -3.015   9.622   4.560  1.00  0.00     0.001 A 
ATOM     67  C   UNL     1      -2.972  10.981   2.597  1.00  0.00     0.001 A 
ATOM     68  C   UNL     1      -3.644  10.532   3.725  1.00  0.00     0.000 A 
ENDBRANCH  49  63
BRANCH  50  69
ATOM     69  C   UNL     1       6.628   4.178  -0.630  1.00  0.00    -0.014 A 
ATOM     70  C   UNL     1       6.465   3.104  -1.542  1.00  0.00     0.009 A 
ATOM     71  C   UNL     1       7.152   5.382  -1.130  1.00  0.00     0.009 A 
ATOM     72  C   UNL     1       6.540   3.313  -2.925  1.00  0.00     0.001 A 
ATOM     73  C   UNL     1       7.261   5.572  -2.523  1.00  0.00     0.001 A 
ATOM     74  C   UNL     1       6.882   4.567  -3.415  1.00  0.00     0.000 A 
ENDBRANCH  50  69
BRANCH  62  75
ATOM     75  C   UNL     1       4.322   6.619   5.989  1.00  0.00    -0.014 A 
ATOM     76  C   UNL     1       5.640   6.744   6.438  1.00  0.00     0.009 A 
ATOM     77  C   UNL     1       3.313   7.209   6.789  1.00  0.00     0.009 A 
ATOM     78  C   UNL     1       5.935   7.410   7.631  1.00  0.00     0.001 A 
ATOM     79  C   UNL     1       3.608   7.919   7.951  1.00  0.00     0.001 A 
ATOM     80  C   UNL     1       4.923   8.012   8.376  1.00  0.00     0.000 A 
ENDBRANCH  62  75
ENDBRANCH  36  37
ENDBRANCH  29  31
ENDBRANCH  28  29
ENDBRANCH  27  28
ENDBRANCH  26  27
ENDBRANCH  25  26
ENDBRANCH  24  25
ENDBRANCH  23  24
ENDBRANCH   1  23
TORSDOF 22
