REMARK SMILES CCc1ccc2nc(O)c(C(=O)OCCOCCOCCOCCOC(=O)c3ccc(-c4c5nc(c(-c6ccccc6)c6ccc([nH]6)c(-c6ccccc6)c6nc(c(-c7ccccc7)c7ccc4[nH]7)C=C6)C=C5)cc3)cc2c1
REMARK SMILES IDX 20 1 19 2 18 3 17 4 16 5 15 6 14 7 13 8 11 9 12 10 10 11
REMARK SMILES IDX 3 12 4 13 78 14 5 15 77 16 6 17 76 18 7 19 8 20 2 21 1 22
REMARK SMILES IDX 9 23 21 25 22 26 23 27 24 28 25 29 26 30 27 31 28 32 29 33
REMARK SMILES IDX 75 34 30 35 74 36 31 37 32 38 33 39 68 40 34 41 73 42 67 43
REMARK SMILES IDX 69 44 35 45 72 46 66 47 65 48 36 50 58 51 43 52 57 53 44 54
REMARK SMILES IDX 47 55 56 56 70 57 45 58 46 59 55 61 71 62 48 63 37 64 38 65
REMARK SMILES IDX 42 66 39 67 41 68 40 69 59 70 60 71 64 72 61 73 63 74 62 75
REMARK SMILES IDX 49 76 50 77 54 78 51 79 53 80 52 81
REMARK H PARENT 9 24 69 49 47 60
REMARK Flexibility Score: inf
ROOT
ATOM      1  C   UNL     1      -0.759  -7.551   8.355  1.00  0.00     0.188 C 
ENDROOT
BRANCH   1   2
ATOM      2  O   UNL     1       0.207  -6.848   7.572  1.00  0.00    -0.377 OA
BRANCH   2   3
ATOM      3  C   UNL     1      -0.230  -6.443   6.279  1.00  0.00     0.188 C 
BRANCH   3   4
ATOM      4  C   UNL     1       0.144  -7.480   5.204  1.00  0.00     0.188 C 
BRANCH   4   5
ATOM      5  O   UNL     1       0.516  -8.732   5.766  1.00  0.00    -0.376 OA
BRANCH   5   6
ATOM      6  C   UNL     1       1.889  -9.012   6.003  1.00  0.00     0.202 C 
BRANCH   6   7
ATOM      7  C   UNL     1       2.799  -8.035   6.776  1.00  0.00     0.261 C 
BRANCH   7   8
ATOM      8  O   UNL     1       2.714  -6.643   6.433  1.00  0.00    -0.459 OA
BRANCH   8   9
ATOM      9  C   UNL     1       3.167  -6.266   5.219  1.00  0.00     0.343 C 
ATOM     10  O   UNL     1       3.694  -6.983   4.388  1.00  0.00    -0.246 OA
BRANCH   9  11
ATOM     11  C   UNL     1       2.719  -4.880   4.971  1.00  0.00     0.122 A 
ATOM     12  C   UNL     1       0.952  -1.600   1.849  1.00  0.00    -0.048 A 
ATOM     13  C   UNL     1       1.022  -0.651   2.872  1.00  0.00     0.006 A 
ATOM     14  C   UNL     1       1.342  -2.913   2.139  1.00  0.00     0.014 A 
ATOM     15  C   UNL     1       1.466  -1.013   4.151  1.00  0.00     0.029 A 
ATOM     16  C   UNL     1       1.822  -3.263   3.413  1.00  0.00     0.002 A 
ATOM     17  C   UNL     1       1.859  -2.310   4.450  1.00  0.00     0.074 A 
ATOM     18  C   UNL     1       2.281  -4.556   3.687  1.00  0.00     0.031 A 
ATOM     19  N   UNL     1       2.246  -2.627   5.699  1.00  0.00    -0.213 NA
ATOM     20  C   UNL     1       2.635  -3.897   5.947  1.00  0.00     0.226 A 
BRANCH  12  21
ATOM     21  C   UNL     1       0.425  -1.274   0.471  1.00  0.00     0.032 C 
ATOM     22  C   UNL     1       0.899   0.057  -0.097  1.00  0.00     0.009 C 
ENDBRANCH  12  21
BRANCH  20  23
ATOM     23  O   UNL     1       2.888  -4.136   7.267  1.00  0.00    -0.493 OA
ATOM     24  H   UNL     1       2.819  -3.440   7.891  1.00  0.00     0.295 HD
ENDBRANCH  20  23
ENDBRANCH   9  11
ENDBRANCH   8   9
ENDBRANCH   7   8
ENDBRANCH   6   7
ENDBRANCH   5   6
ENDBRANCH   4   5
ENDBRANCH   3   4
ENDBRANCH   2   3
ENDBRANCH   1   2
BRANCH   1  25
ATOM     25  C   UNL     1      -1.642  -8.629   7.687  1.00  0.00     0.188 C 
BRANCH  25  26
ATOM     26  O   UNL     1      -2.416  -8.120   6.599  1.00  0.00    -0.376 OA
BRANCH  26  27
ATOM     27  C   UNL     1      -3.816  -7.994   6.818  1.00  0.00     0.202 C 
BRANCH  27  28
ATOM     28  C   UNL     1      -4.210  -6.745   7.616  1.00  0.00     0.261 C 
BRANCH  28  29
ATOM     29  O   UNL     1      -3.690  -6.684   8.954  1.00  0.00    -0.460 OA
BRANCH  29  30
ATOM     30  C   UNL     1      -4.009  -7.684   9.804  1.00  0.00     0.338 C 
ATOM     31  O   UNL     1      -4.763  -8.618   9.596  1.00  0.00    -0.246 OA
BRANCH  30  32
ATOM     32  C   UNL     1      -3.112  -7.569  10.975  1.00  0.00     0.060 A 
ATOM     33  C   UNL     1      -2.941  -6.341  11.619  1.00  0.00     0.016 A 
ATOM     34  C   UNL     1      -2.403  -8.699  11.403  1.00  0.00     0.016 A 
ATOM     35  C   UNL     1      -2.083  -6.253  12.716  1.00  0.00     0.010 A 
ATOM     36  C   UNL     1      -1.539  -8.607  12.498  1.00  0.00     0.010 A 
ATOM     37  C   UNL     1      -1.394  -7.388  13.177  1.00  0.00    -0.014 A 
BRANCH  37  38
ATOM     38  C   UNL     1      -0.693  -7.333  14.481  1.00  0.00     0.031 A 
ATOM     39  C   UNL     1       0.792  -7.184  14.590  1.00  0.00     0.074 A 
ATOM     40  C   UNL     1      -1.447  -7.415  15.594  1.00  0.00     0.049 A 
ATOM     41  N   UNL     1       1.516  -7.006  15.667  1.00  0.00    -0.248 NA
ATOM     42  C   UNL     1       1.568  -7.243  13.343  1.00  0.00     0.031 C 
ATOM     43  C   UNL     1      -2.902  -7.583  15.605  1.00  0.00     0.029 A 
ATOM     44  N   UNL     1      -1.106  -7.351  16.920  1.00  0.00    -0.354 N 
ATOM     45  C   UNL     1       2.830  -6.908  15.231  1.00  0.00     0.074 A 
ATOM     46  C   UNL     1       2.809  -7.093  13.794  1.00  0.00     0.031 C 
ATOM     47  C   UNL     1      -3.332  -7.576  16.874  1.00  0.00     0.029 A 
ATOM     48  C   UNL     1      -2.185  -7.429  17.766  1.00  0.00     0.049 A 
ATOM     49  H   UNL     1      -0.178  -7.258  17.236  1.00  0.00     0.167 HD
ATOM     50  C   UNL     1       3.943  -6.671  15.966  1.00  0.00     0.031 A 
ATOM     51  C   UNL     1      -2.254  -7.376  19.109  1.00  0.00     0.031 A 
ATOM     52  C   UNL     1       3.954  -6.514  17.400  1.00  0.00     0.049 A 
ATOM     53  C   UNL     1      -0.999  -7.155  19.901  1.00  0.00     0.074 A 
ATOM     54  C   UNL     1       5.031  -6.225  18.222  1.00  0.00     0.029 A 
ATOM     55  N   UNL     1       2.849  -6.648  18.227  1.00  0.00    -0.354 N 
ATOM     56  N   UNL     1       0.225  -6.978  19.469  1.00  0.00    -0.248 NA
ATOM     57  C   UNL     1      -1.135  -7.108  21.364  1.00  0.00     0.031 C 
ATOM     58  C   UNL     1       4.593  -6.256  19.548  1.00  0.00     0.029 A 
ATOM     59  C   UNL     1       3.227  -6.486  19.550  1.00  0.00     0.049 A 
ATOM     60  H   UNL     1       1.932  -6.830  17.919  1.00  0.00     0.167 HD
ATOM     61  C   UNL     1       1.002  -6.776  20.601  1.00  0.00     0.074 A 
ATOM     62  C   UNL     1       0.108  -6.836  21.739  1.00  0.00     0.031 C 
ATOM     63  C   UNL     1       2.337  -6.558  20.683  1.00  0.00     0.031 A 
BRANCH  50  64
ATOM     64  C   UNL     1       5.260  -6.551  15.248  1.00  0.00    -0.014 A 
ATOM     65  C   UNL     1       6.269  -7.504  15.468  1.00  0.00     0.009 A 
ATOM     66  C   UNL     1       5.552  -5.426  14.463  1.00  0.00     0.009 A 
ATOM     67  C   UNL     1       7.546  -7.324  14.931  1.00  0.00     0.001 A 
ATOM     68  C   UNL     1       6.822  -5.261  13.905  1.00  0.00     0.001 A 
ATOM     69  C   UNL     1       7.821  -6.204  14.149  1.00  0.00     0.000 A 
ENDBRANCH  50  64
BRANCH  51  70
ATOM     70  C   UNL     1      -3.581  -7.486  19.768  1.00  0.00    -0.014 A 
ATOM     71  C   UNL     1      -4.294  -8.696  19.739  1.00  0.00     0.009 A 
ATOM     72  C   UNL     1      -4.172  -6.364  20.367  1.00  0.00     0.009 A 
ATOM     73  C   UNL     1      -5.582  -8.773  20.271  1.00  0.00     0.001 A 
ATOM     74  C   UNL     1      -5.449  -6.453  20.926  1.00  0.00     0.001 A 
ATOM     75  C   UNL     1      -6.156  -7.653  20.868  1.00  0.00     0.000 A 
ENDBRANCH  51  70
BRANCH  63  76
ATOM     76  C   UNL     1       2.935  -6.360  22.049  1.00  0.00    -0.014 A 
ATOM     77  C   UNL     1       3.466  -5.109  22.405  1.00  0.00     0.009 A 
ATOM     78  C   UNL     1       3.067  -7.431  22.946  1.00  0.00     0.009 A 
ATOM     79  C   UNL     1       4.131  -4.938  23.620  1.00  0.00     0.001 A 
ATOM     80  C   UNL     1       3.706  -7.250  24.175  1.00  0.00     0.001 A 
ATOM     81  C   UNL     1       4.247  -6.008  24.506  1.00  0.00     0.000 A 
ENDBRANCH  63  76
ENDBRANCH  37  38
ENDBRANCH  30  32
ENDBRANCH  29  30
ENDBRANCH  28  29
ENDBRANCH  27  28
ENDBRANCH  26  27
ENDBRANCH  25  26
ENDBRANCH   1  25
TORSDOF 22
