REMARK SMILES CC(=O)O[C@@H]1[C@H](O)C(C)=C(CC[C@@H](C)CC(=O)OCCOCCOCCOCCOC(=O)c2ccc(-c3c4nc(c(-c5ccccc5)c5ccc([nH]5)c(-c5ccccc5)c5nc(c(-c6ccccc6)c6ccc3[nH]6)C=C5)C=C4)cc2)[C@@]2(C)CCCC(C)(C)[C@H]12
REMARK SMILES IDX 22 1 21 2 20 3 19 4 18 5 16 6 17 7 15 8 13 9 14 10 12 11
REMARK SMILES IDX 11 12 10 13 5 14 6 15 89 16 8 17 81 18 86 19 9 20 83 21
REMARK SMILES IDX 82 22 85 23 87 24 88 25 84 26 4 27 2 28 1 29 3 30 7 31 23 33
REMARK SMILES IDX 24 34 25 35 26 36 27 37 28 38 29 39 30 40 31 41 32 42 33 43
REMARK SMILES IDX 34 44 80 45 35 46 79 47 36 48 37 49 38 50 73 51 39 52 78 53
REMARK SMILES IDX 72 54 74 55 40 56 77 57 71 58 70 59 41 61 63 62 48 63 62 64
REMARK SMILES IDX 49 65 52 66 61 67 75 68 50 69 51 70 60 72 76 73 53 74 42 75
REMARK SMILES IDX 43 76 47 77 44 78 46 79 45 80 64 81 65 82 69 83 66 84 68 85
REMARK SMILES IDX 67 86 54 87 55 88 59 89 56 90 58 91 57 92
REMARK H PARENT 7 32 74 60 52 71
REMARK Flexibility Score: inf
ROOT
ATOM      1  C   UNL     1      -0.685  -1.101   4.325  1.00  0.00     0.188 C 
ENDROOT
BRANCH   1   2
ATOM      2  O   UNL     1      -0.763  -2.528   4.343  1.00  0.00    -0.376 OA
BRANCH   2   3
ATOM      3  C   UNL     1       0.486  -3.213   4.406  1.00  0.00     0.202 C 
BRANCH   3   4
ATOM      4  C   UNL     1       1.010  -3.759   3.070  1.00  0.00     0.261 C 
BRANCH   4   5
ATOM      5  O   UNL     1       1.747  -2.831   2.231  1.00  0.00    -0.463 OA
BRANCH   5   6
ATOM      6  C   UNL     1       1.069  -2.347   1.157  1.00  0.00     0.306 C 
ATOM      7  O   UNL     1      -0.153  -2.348   1.061  1.00  0.00    -0.252 OA
BRANCH   6   8
ATOM      8  C   UNL     1       1.966  -1.999  -0.036  1.00  0.00     0.126 C 
BRANCH   8   9
ATOM      9  C   UNL     1       3.063  -0.914   0.072  1.00  0.00    -0.003 C 
ATOM     10  C   UNL     1       3.419  -0.386  -1.326  1.00  0.00     0.008 C 
BRANCH   9  11
ATOM     11  C   UNL     1       4.334  -1.366   0.883  1.00  0.00     0.008 C 
BRANCH  11  12
ATOM     12  C   UNL     1       5.365  -0.255   1.327  1.00  0.00     0.032 C 
BRANCH  12  13
ATOM     13  C   UNL     1       5.223   0.745   2.544  1.00  0.00    -0.062 C 
ATOM     14  C   UNL     1       2.599   1.908   2.368  1.00  0.00     0.213 C 
ATOM     15  C   UNL     1       2.945   0.537   2.973  1.00  0.00     0.181 C 
ATOM     16  C   UNL     1       3.839   2.658   1.744  1.00  0.00     0.049 C 
ATOM     17  C   UNL     1       4.319   0.511   3.545  1.00  0.00    -0.042 C 
ATOM     18  C   UNL     1       5.348   2.296   2.195  1.00  0.00    -0.004 C 
ATOM     19  C   UNL     1       3.586   4.080   1.145  1.00  0.00    -0.028 C 
ATOM     20  C   UNL     1       4.287   1.150   4.911  1.00  0.00     0.042 C 
ATOM     21  C   UNL     1       6.306   2.668   0.991  1.00  0.00     0.011 C 
ATOM     22  C   UNL     1       5.973   3.051   3.420  1.00  0.00     0.016 C 
ATOM     23  C   UNL     1       4.447   4.097  -0.140  1.00  0.00     0.007 C 
ATOM     24  C   UNL     1       3.962   5.285   2.023  1.00  0.00     0.011 C 
ATOM     25  C   UNL     1       2.110   4.299   0.739  1.00  0.00     0.011 C 
ATOM     26  C   UNL     1       5.934   3.909   0.157  1.00  0.00     0.001 C 
BRANCH  14  27
ATOM     27  O   UNL     1       1.758   2.676   3.249  1.00  0.00    -0.459 OA
BRANCH  27  28
ATOM     28  C   UNL     1       0.400   2.472   3.260  1.00  0.00     0.303 C 
ATOM     29  C   UNL     1      -0.256   1.719   2.118  1.00  0.00     0.139 C 
ATOM     30  O   UNL     1      -0.296   2.997   4.129  1.00  0.00    -0.253 OA
ENDBRANCH  27  28
ENDBRANCH  14  27
BRANCH  15  31
ATOM     31  O   UNL     1       1.916   0.037   3.749  1.00  0.00    -0.385 OA
ATOM     32  H   UNL     1       1.765   0.626   4.505  1.00  0.00     0.211 HD
ENDBRANCH  15  31
ENDBRANCH  12  13
ENDBRANCH  11  12
ENDBRANCH   9  11
ENDBRANCH   8   9
ENDBRANCH   6   8
ENDBRANCH   5   6
ENDBRANCH   4   5
ENDBRANCH   3   4
ENDBRANCH   2   3
ENDBRANCH   1   2
BRANCH   1  33
ATOM     33  C   UNL     1      -0.243  -0.478   5.673  1.00  0.00     0.188 C 
BRANCH  33  34
ATOM     34  O   UNL     1       1.163  -0.625   5.872  1.00  0.00    -0.377 OA
BRANCH  34  35
ATOM     35  C   UNL     1       1.663  -0.718   7.188  1.00  0.00     0.188 C 
BRANCH  35  36
ATOM     36  C   UNL     1       1.090   0.189   8.277  1.00  0.00     0.188 C 
BRANCH  36  37
ATOM     37  O   UNL     1       0.598   1.472   7.929  1.00  0.00    -0.376 OA
BRANCH  37  38
ATOM     38  C   UNL     1       1.397   2.352   7.142  1.00  0.00     0.202 C 
BRANCH  38  39
ATOM     39  C   UNL     1       2.628   2.936   7.838  1.00  0.00     0.261 C 
BRANCH  39  40
ATOM     40  O   UNL     1       3.744   2.031   7.729  1.00  0.00    -0.460 OA
BRANCH  40  41
ATOM     41  C   UNL     1       4.219   1.513   8.877  1.00  0.00     0.338 C 
ATOM     42  O   UNL     1       3.852   1.755  10.018  1.00  0.00    -0.246 OA
BRANCH  41  43
ATOM     43  C   UNL     1       5.161   0.430   8.553  1.00  0.00     0.060 A 
ATOM     44  C   UNL     1       4.873  -0.846   9.050  1.00  0.00     0.016 A 
ATOM     45  C   UNL     1       6.337   0.666   7.834  1.00  0.00     0.016 A 
ATOM     46  C   UNL     1       5.790  -1.878   8.883  1.00  0.00     0.010 A 
ATOM     47  C   UNL     1       7.258  -0.373   7.663  1.00  0.00     0.010 A 
ATOM     48  C   UNL     1       7.013  -1.630   8.244  1.00  0.00    -0.014 A 
BRANCH  48  49
ATOM     49  C   UNL     1       8.124  -2.585   8.474  1.00  0.00     0.031 A 
ATOM     50  C   UNL     1       9.067  -2.293   9.614  1.00  0.00     0.074 A 
ATOM     51  C   UNL     1       8.235  -3.731   7.780  1.00  0.00     0.049 A 
ATOM     52  N   UNL     1      10.066  -3.004  10.071  1.00  0.00    -0.248 NA
ATOM     53  C   UNL     1       8.841  -1.034  10.347  1.00  0.00     0.031 C 
ATOM     54  C   UNL     1       7.346  -4.165   6.705  1.00  0.00     0.029 A 
ATOM     55  N   UNL     1       9.145  -4.752   7.901  1.00  0.00    -0.354 N 
ATOM     56  C   UNL     1      10.574  -2.285  11.146  1.00  0.00     0.074 A 
ATOM     57  C   UNL     1       9.810  -1.064  11.247  1.00  0.00     0.031 C 
ATOM     58  C   UNL     1       7.750  -5.373   6.270  1.00  0.00     0.029 A 
ATOM     59  C   UNL     1       8.939  -5.782   7.015  1.00  0.00     0.049 A 
ATOM     60  H   UNL     1       9.876  -4.747   8.560  1.00  0.00     0.167 HD
ATOM     61  C   UNL     1      11.578  -2.615  11.991  1.00  0.00     0.031 A 
ATOM     62  C   UNL     1       9.641  -6.917   6.827  1.00  0.00     0.031 A 
ATOM     63  C   UNL     1      12.359  -3.814  11.883  1.00  0.00     0.049 A 
ATOM     64  C   UNL     1      10.838  -7.201   7.701  1.00  0.00     0.074 A 
ATOM     65  C   UNL     1      13.415  -4.229  12.675  1.00  0.00     0.029 A 
ATOM     66  N   UNL     1      12.173  -4.788  10.916  1.00  0.00    -0.354 N 
ATOM     67  N   UNL     1      11.300  -6.520   8.723  1.00  0.00    -0.248 NA
ATOM     68  C   UNL     1      11.605  -8.419   7.398  1.00  0.00     0.031 C 
ATOM     69  C   UNL     1      13.906  -5.428  12.150  1.00  0.00     0.029 A 
ATOM     70  C   UNL     1      13.112  -5.791  11.073  1.00  0.00     0.049 A 
ATOM     71  H   UNL     1      11.477  -4.769  10.220  1.00  0.00     0.167 HD
ATOM     72  C   UNL     1      12.384  -7.245   9.204  1.00  0.00     0.074 A 
ATOM     73  C   UNL     1      12.503  -8.424   8.373  1.00  0.00     0.031 C 
ATOM     74  C   UNL     1      13.209  -6.963  10.243  1.00  0.00     0.031 A 
BRANCH  61  75
ATOM     75  C   UNL     1      11.903  -1.640  13.086  1.00  0.00    -0.014 A 
ATOM     76  C   UNL     1      11.039  -1.456  14.178  1.00  0.00     0.009 A 
ATOM     77  C   UNL     1      13.101  -0.910  13.036  1.00  0.00     0.009 A 
ATOM     78  C   UNL     1      11.354  -0.536  15.180  1.00  0.00     0.001 A 
ATOM     79  C   UNL     1      13.427  -0.014  14.055  1.00  0.00     0.001 A 
ATOM     80  C   UNL     1      12.549   0.178  15.121  1.00  0.00     0.000 A 
ENDBRANCH  61  75
BRANCH  62  81
ATOM     81  C   UNL     1       9.259  -7.874   5.753  1.00  0.00    -0.014 A 
ATOM     82  C   UNL     1       8.809  -9.167   6.065  1.00  0.00     0.009 A 
ATOM     83  C   UNL     1       9.404  -7.518   4.402  1.00  0.00     0.009 A 
ATOM     84  C   UNL     1       8.549 -10.092   5.050  1.00  0.00     0.001 A 
ATOM     85  C   UNL     1       9.113  -8.434   3.389  1.00  0.00     0.001 A 
ATOM     86  C   UNL     1       8.699  -9.724   3.713  1.00  0.00     0.000 A 
ENDBRANCH  62  81
BRANCH  74  87
ATOM     87  C   UNL     1      14.280  -7.966  10.575  1.00  0.00    -0.014 A 
ATOM     88  C   UNL     1      15.399  -8.143   9.748  1.00  0.00     0.009 A 
ATOM     89  C   UNL     1      14.192  -8.702  11.767  1.00  0.00     0.009 A 
ATOM     90  C   UNL     1      16.392  -9.063  10.092  1.00  0.00     0.001 A 
ATOM     91  C   UNL     1      15.201  -9.597  12.125  1.00  0.00     0.001 A 
ATOM     92  C   UNL     1      16.295  -9.784  11.283  1.00  0.00     0.000 A 
ENDBRANCH  74  87
ENDBRANCH  48  49
ENDBRANCH  41  43
ENDBRANCH  40  41
ENDBRANCH  39  40
ENDBRANCH  38  39
ENDBRANCH  37  38
ENDBRANCH  36  37
ENDBRANCH  35  36
ENDBRANCH  34  35
ENDBRANCH  33  34
ENDBRANCH   1  33
TORSDOF 27
