REMARK SMILES CCn1c(SCC(=O)OCCOCCOCCOCCOC(=O)c2ccc(-c3c4nc(c(-c5ccccc5)c5ccc([nH]5)c(-c5ccccc5)c5nc(c(-c6ccccc6)c6ccc3[nH]6)C=C5)C=C4)cc2)nnc1-c1ccc(C)cc1
REMARK SMILES IDX 14 1 13 2 12 3 11 4 10 5 9 6 7 7 8 8 6 9 5 10 4 11 3 12
REMARK SMILES IDX 74 13 72 14 73 15 2 16 1 17 75 18 76 19 81 20 77 21 80 22
REMARK SMILES IDX 78 23 79 24 15 25 16 26 17 27 18 28 19 29 20 30 21 31 22 32
REMARK SMILES IDX 23 33 24 34 25 35 71 36 26 37 70 38 27 39 28 40 29 41 64 42
REMARK SMILES IDX 30 43 69 44 63 45 65 46 31 47 68 48 62 49 61 50 32 52 54 53
REMARK SMILES IDX 39 54 53 55 40 56 43 57 52 58 66 59 41 60 42 61 51 63 67 64
REMARK SMILES IDX 44 65 33 66 34 67 38 68 35 69 37 70 36 71 55 72 56 73 60 74
REMARK SMILES IDX 57 75 59 76 58 77 45 78 46 79 50 80 47 81 49 82 48 83
REMARK H PARENT 65 51 43 62
REMARK Flexibility Score: inf
ROOT
ATOM      1  C   UNL     1      -1.872   3.061  -1.437  1.00  0.00     0.188 C 
ENDROOT
BRANCH   1   2
ATOM      2  C   UNL     1      -2.167   1.926  -0.442  1.00  0.00     0.188 C 
BRANCH   2   3
ATOM      3  O   UNL     1      -3.537   1.905  -0.086  1.00  0.00    -0.376 OA
BRANCH   3   4
ATOM      4  C   UNL     1      -3.836   2.468   1.183  1.00  0.00     0.202 C 
BRANCH   4   5
ATOM      5  C   UNL     1      -3.454   3.948   1.379  1.00  0.00     0.261 C 
BRANCH   5   6
ATOM      6  O   UNL     1      -2.056   4.320   1.199  1.00  0.00    -0.463 OA
BRANCH   6   7
ATOM      7  C   UNL     1      -1.094   3.828   2.020  1.00  0.00     0.316 C 
ATOM      8  O   UNL     1      -1.335   3.082   2.962  1.00  0.00    -0.251 OA
BRANCH   7   9
ATOM      9  C   UNL     1       0.315   4.336   1.706  1.00  0.00     0.200 C 
BRANCH   9  10
ATOM     10  S   UNL     1       0.777   4.452  -0.021  1.00  0.00    -0.074 SA
BRANCH  10  11
ATOM     11  C   UNL     1       1.828   3.200  -0.632  1.00  0.00     0.192 A 
ATOM     12  N   UNL     1       1.849   1.834  -0.414  1.00  0.00    -0.302 N 
ATOM     13  C   UNL     1       2.503   1.276  -1.515  1.00  0.00     0.164 A 
ATOM     14  N   UNL     1       2.582   3.456  -1.681  1.00  0.00    -0.123 NA
ATOM     15  N   UNL     1       3.016   2.273  -2.215  1.00  0.00    -0.129 NA
BRANCH  12  16
ATOM     16  C   UNL     1       1.354   1.132   0.747  1.00  0.00     0.123 C 
ATOM     17  C   UNL     1       2.182  -0.047   1.246  1.00  0.00     0.028 C 
ENDBRANCH  12  16
BRANCH  13  18
ATOM     18  C   UNL     1       2.606  -0.144  -1.924  1.00  0.00     0.019 A 
ATOM     19  C   UNL     1       3.747  -0.601  -2.604  1.00  0.00     0.012 A 
ATOM     20  C   UNL     1       1.551  -1.054  -1.761  1.00  0.00     0.012 A 
ATOM     21  C   UNL     1       3.851  -1.933  -3.041  1.00  0.00     0.004 A 
ATOM     22  C   UNL     1       1.647  -2.381  -2.203  1.00  0.00     0.004 A 
ATOM     23  C   UNL     1       2.805  -2.837  -2.832  1.00  0.00    -0.051 A 
ATOM     24  C   UNL     1       2.934  -4.275  -3.245  1.00  0.00     0.044 C 
ENDBRANCH  13  18
ENDBRANCH  10  11
ENDBRANCH   9  10
ENDBRANCH   7   9
ENDBRANCH   6   7
ENDBRANCH   5   6
ENDBRANCH   4   5
ENDBRANCH   3   4
ENDBRANCH   2   3
ENDBRANCH   1   2
BRANCH   1  25
ATOM     25  O   UNL     1      -2.509   3.123  -2.704  1.00  0.00    -0.377 OA
BRANCH  25  26
ATOM     26  C   UNL     1      -3.553   2.216  -2.955  1.00  0.00     0.188 C 
BRANCH  26  27
ATOM     27  C   UNL     1      -3.148   0.752  -3.207  1.00  0.00     0.188 C 
BRANCH  27  28
ATOM     28  O   UNL     1      -1.830   0.259  -2.934  1.00  0.00    -0.376 OA
BRANCH  28  29
ATOM     29  C   UNL     1      -0.677   1.001  -3.325  1.00  0.00     0.202 C 
BRANCH  29  30
ATOM     30  C   UNL     1       0.171   0.332  -4.403  1.00  0.00     0.261 C 
BRANCH  30  31
ATOM     31  O   UNL     1      -0.226   0.867  -5.654  1.00  0.00    -0.460 OA
BRANCH  31  32
ATOM     32  C   UNL     1      -1.510   0.587  -5.934  1.00  0.00     0.338 C 
ATOM     33  O   UNL     1      -2.074  -0.493  -5.807  1.00  0.00    -0.246 OA
BRANCH  32  34
ATOM     34  C   UNL     1      -2.084   1.798  -6.521  1.00  0.00     0.060 A 
ATOM     35  C   UNL     1      -2.960   1.541  -7.559  1.00  0.00     0.016 A 
ATOM     36  C   UNL     1      -1.460   3.051  -6.335  1.00  0.00     0.016 A 
ATOM     37  C   UNL     1      -2.881   2.385  -8.629  1.00  0.00     0.010 A 
ATOM     38  C   UNL     1      -1.406   3.913  -7.401  1.00  0.00     0.010 A 
ATOM     39  C   UNL     1      -2.006   3.486  -8.572  1.00  0.00    -0.014 A 
BRANCH  39  40
ATOM     40  C   UNL     1      -1.766   4.147  -9.827  1.00  0.00     0.031 A 
ATOM     41  C   UNL     1      -2.968   4.804 -10.349  1.00  0.00     0.074 A 
ATOM     42  C   UNL     1      -0.619   4.064 -10.517  1.00  0.00     0.049 A 
ATOM     43  N   UNL     1      -3.767   4.336 -11.245  1.00  0.00    -0.248 NA
ATOM     44  C   UNL     1      -3.437   6.000  -9.646  1.00  0.00     0.031 C 
ATOM     45  C   UNL     1       0.718   3.665 -10.079  1.00  0.00     0.029 A 
ATOM     46  N   UNL     1      -0.437   4.411 -11.814  1.00  0.00    -0.354 N 
ATOM     47  C   UNL     1      -4.787   5.264 -11.339  1.00  0.00     0.074 A 
ATOM     48  C   UNL     1      -4.620   6.178 -10.233  1.00  0.00     0.031 C 
ATOM     49  C   UNL     1       1.611   4.023 -11.035  1.00  0.00     0.029 A 
ATOM     50  C   UNL     1       0.885   4.521 -12.194  1.00  0.00     0.049 A 
ATOM     51  H   UNL     1      -1.185   4.572 -12.434  1.00  0.00     0.167 HD
ATOM     52  C   UNL     1      -5.561   5.349 -12.450  1.00  0.00     0.031 A 
ATOM     53  C   UNL     1       1.317   5.071 -13.353  1.00  0.00     0.031 A 
ATOM     54  C   UNL     1      -5.457   4.183 -13.288  1.00  0.00     0.049 A 
ATOM     55  C   UNL     1       0.193   5.025 -14.324  1.00  0.00     0.074 A 
ATOM     56  C   UNL     1      -5.760   2.845 -13.135  1.00  0.00     0.029 A 
ATOM     57  N   UNL     1      -4.605   4.256 -14.365  1.00  0.00    -0.354 N 
ATOM     58  N   UNL     1      -0.262   3.917 -14.836  1.00  0.00    -0.248 NA
ATOM     59  C   UNL     1      -0.721   6.157 -14.394  1.00  0.00     0.031 C 
ATOM     60  C   UNL     1      -4.728   2.146 -13.829  1.00  0.00     0.029 A 
ATOM     61  C   UNL     1      -3.873   3.096 -14.392  1.00  0.00     0.049 A 
ATOM     62  H   UNL     1      -4.533   5.005 -15.001  1.00  0.00     0.167 HD
ATOM     63  C   UNL     1      -1.639   4.086 -14.895  1.00  0.00     0.074 A 
ATOM     64  C   UNL     1      -1.852   5.520 -14.715  1.00  0.00     0.031 C 
ATOM     65  C   UNL     1      -2.487   3.018 -14.802  1.00  0.00     0.031 A 
BRANCH  52  66
ATOM     66  C   UNL     1      -6.069   6.666 -12.949  1.00  0.00    -0.014 A 
ATOM     67  C   UNL     1      -6.998   6.687 -13.998  1.00  0.00     0.009 A 
ATOM     68  C   UNL     1      -5.456   7.889 -12.604  1.00  0.00     0.009 A 
ATOM     69  C   UNL     1      -7.265   7.870 -14.694  1.00  0.00     0.001 A 
ATOM     70  C   UNL     1      -5.753   9.077 -13.267  1.00  0.00     0.001 A 
ATOM     71  C   UNL     1      -6.640   9.062 -14.331  1.00  0.00     0.000 A 
ENDBRANCH  52  66
BRANCH  53  72
ATOM     72  C   UNL     1       2.499   5.935 -13.537  1.00  0.00    -0.014 A 
ATOM     73  C   UNL     1       2.992   6.214 -14.820  1.00  0.00     0.009 A 
ATOM     74  C   UNL     1       2.982   6.707 -12.463  1.00  0.00     0.009 A 
ATOM     75  C   UNL     1       3.909   7.254 -15.023  1.00  0.00     0.001 A 
ATOM     76  C   UNL     1       3.898   7.742 -12.665  1.00  0.00     0.001 A 
ATOM     77  C   UNL     1       4.351   8.024 -13.949  1.00  0.00     0.000 A 
ENDBRANCH  53  72
BRANCH  65  78
ATOM     78  C   UNL     1      -1.873   1.639 -14.853  1.00  0.00    -0.014 A 
ATOM     79  C   UNL     1      -0.953   1.183 -13.891  1.00  0.00     0.009 A 
ATOM     80  C   UNL     1      -2.334   0.728 -15.815  1.00  0.00     0.009 A 
ATOM     81  C   UNL     1      -0.479  -0.133 -13.917  1.00  0.00     0.001 A 
ATOM     82  C   UNL     1      -1.876  -0.592 -15.828  1.00  0.00     0.001 A 
ATOM     83  C   UNL     1      -0.944  -1.020 -14.884  1.00  0.00     0.000 A 
ENDBRANCH  65  78
ENDBRANCH  39  40
ENDBRANCH  32  34
ENDBRANCH  31  32
ENDBRANCH  30  31
ENDBRANCH  29  30
ENDBRANCH  28  29
ENDBRANCH  27  28
ENDBRANCH  26  27
ENDBRANCH  25  26
ENDBRANCH   1  25
TORSDOF 24
