REMARK SMILES CC1(C)S[C@H]2[C@H](NC(=O)[C@H](NN3CCNC3=O)c3ccccc3)C(=O)N2[C@H]1C(=O)OCCOCCOCCOCCOC(=O)c1ccc(-c2c3nc(c(-c4ccccc4)c4ccc([nH]4)c(-c4ccccc4)c4nc(c(-c5ccccc5)c5ccc2[nH]5)C=C4)C=C3)cc1
REMARK SMILES IDX 35 1 34 2 33 3 32 4 31 5 30 6 28 7 29 8 27 9 1 10 2 11 3 12
REMARK SMILES IDX 4 13 5 14 26 15 6 16 24 17 25 18 7 19 8 20 9 22 10 23 18 24
REMARK SMILES IDX 19 25 23 26 20 27 22 28 21 29 11 30 12 32 13 33 16 34 14 35
REMARK SMILES IDX 15 36 17 37 36 39 37 40 38 41 39 42 40 43 41 44 42 45 43 46
REMARK SMILES IDX 44 47 45 48 46 49 92 50 47 51 91 52 48 53 49 54 50 55 85 56
REMARK SMILES IDX 51 57 90 58 84 59 86 60 52 61 89 62 83 63 82 64 53 66 75 67
REMARK SMILES IDX 60 68 74 69 61 70 64 71 73 72 87 73 62 74 63 75 72 77 88 78
REMARK SMILES IDX 65 79 54 80 55 81 59 82 56 83 58 84 57 85 76 86 77 87 81 88
REMARK SMILES IDX 78 89 80 90 79 91 66 92 67 93 71 94 68 95 70 96 69 97
REMARK H PARENT 7 21 11 31 15 38 86 65 64 76
REMARK Flexibility Score: inf
ROOT
ATOM      1  C   UNL     1      -5.930  -9.629   0.917  1.00  0.00     0.188 C 
ENDROOT
BRANCH   1   2
ATOM      2  C   UNL     1      -7.378  -9.852   1.361  1.00  0.00     0.188 C 
BRANCH   2   3
ATOM      3  O   UNL     1      -8.406  -9.222   0.592  1.00  0.00    -0.376 OA
BRANCH   3   4
ATOM      4  C   UNL     1      -8.355  -9.359  -0.824  1.00  0.00     0.202 C 
BRANCH   4   5
ATOM      5  C   UNL     1      -7.917  -8.056  -1.510  1.00  0.00     0.261 C 
BRANCH   5   6
ATOM      6  O   UNL     1      -6.708  -7.484  -0.979  1.00  0.00    -0.462 OA
BRANCH   6   7
ATOM      7  C   UNL     1      -6.860  -6.656   0.086  1.00  0.00     0.330 C 
ATOM      8  O   UNL     1      -7.927  -6.407   0.640  1.00  0.00    -0.250 OA
BRANCH   7   9
ATOM      9  C   UNL     1      -5.583  -5.882   0.416  1.00  0.00     0.212 C 
ATOM     10  C   UNL     1      -3.704  -7.161   1.789  1.00  0.00     0.026 C 
ATOM     11  C   UNL     1      -4.135  -6.465   0.478  1.00  0.00     0.044 C 
ATOM     12  C   UNL     1      -3.617  -7.295  -0.711  1.00  0.00     0.026 C 
ATOM     13  S   UNL     1      -3.187  -4.872   0.581  1.00  0.00    -0.125 SA
ATOM     14  C   UNL     1      -4.314  -3.940  -0.490  1.00  0.00     0.176 C 
ATOM     15  N   UNL     1      -5.586  -4.657  -0.409  1.00  0.00    -0.311 N 
ATOM     16  C   UNL     1      -4.294  -4.291  -2.010  1.00  0.00     0.205 C 
ATOM     17  C   UNL     1      -5.778  -4.631  -1.770  1.00  0.00     0.250 C 
ATOM     18  O   UNL     1      -6.702  -4.966  -2.452  1.00  0.00    -0.272 OA
BRANCH  16  19
ATOM     19  N   UNL     1      -3.925  -3.195  -2.942  1.00  0.00    -0.340 N 
ATOM     20  C   UNL     1      -2.749  -3.096  -3.679  1.00  0.00     0.244 C 
ATOM     21  H   UNL     1      -4.578  -2.465  -3.048  1.00  0.00     0.164 HD
ATOM     22  O   UNL     1      -2.619  -2.102  -4.395  1.00  0.00    -0.273 OA
BRANCH  20  23
ATOM     23  C   UNL     1      -1.720  -4.266  -3.621  1.00  0.00     0.194 C 
BRANCH  23  24
ATOM     24  C   UNL     1      -0.340  -4.135  -4.252  1.00  0.00    -0.020 A 
ATOM     25  C   UNL     1       0.370  -5.333  -4.491  1.00  0.00     0.006 A 
ATOM     26  C   UNL     1       0.360  -2.924  -4.297  1.00  0.00     0.006 A 
ATOM     27  C   UNL     1       1.754  -5.327  -4.633  1.00  0.00     0.000 A 
ATOM     28  C   UNL     1       1.748  -2.922  -4.444  1.00  0.00     0.000 A 
ATOM     29  C   UNL     1       2.446  -4.122  -4.578  1.00  0.00     0.000 A 
ENDBRANCH  23  24
BRANCH  23  30
ATOM     30  N   UNL     1      -1.540  -4.723  -2.226  1.00  0.00    -0.213 NA
ATOM     31  H   UNL     1      -1.122  -5.653  -2.261  1.00  0.00     0.149 HD
BRANCH  30  32
ATOM     32  N   UNL     1      -0.737  -3.933  -1.374  1.00  0.00    -0.257 N 
ATOM     33  C   UNL     1      -0.982  -2.546  -1.054  1.00  0.00     0.163 C 
ATOM     34  C   UNL     1      -0.026  -4.575  -0.338  1.00  0.00     0.331 C 
ATOM     35  C   UNL     1      -0.370  -2.365   0.330  1.00  0.00     0.141 C 
ATOM     36  N   UNL     1       0.212  -3.637   0.651  1.00  0.00    -0.335 N 
ATOM     37  O   UNL     1       0.244  -5.765  -0.265  1.00  0.00    -0.247 OA
ATOM     38  H   UNL     1       0.719  -3.820   1.475  1.00  0.00     0.165 HD
ENDBRANCH  30  32
ENDBRANCH  23  30
ENDBRANCH  20  23
ENDBRANCH  16  19
ENDBRANCH   7   9
ENDBRANCH   6   7
ENDBRANCH   5   6
ENDBRANCH   4   5
ENDBRANCH   3   4
ENDBRANCH   2   3
ENDBRANCH   1   2
BRANCH   1  39
ATOM     39  O   UNL     1      -5.663  -9.912  -0.447  1.00  0.00    -0.377 OA
BRANCH  39  40
ATOM     40  C   UNL     1      -5.275 -11.227  -0.813  1.00  0.00     0.188 C 
BRANCH  40  41
ATOM     41  C   UNL     1      -5.782 -12.380   0.058  1.00  0.00     0.188 C 
BRANCH  41  42
ATOM     42  O   UNL     1      -5.280 -12.287   1.388  1.00  0.00    -0.376 OA
BRANCH  42  43
ATOM     43  C   UNL     1      -4.152 -13.096   1.709  1.00  0.00     0.202 C 
BRANCH  43  44
ATOM     44  C   UNL     1      -2.814 -12.710   1.057  1.00  0.00     0.261 C 
BRANCH  44  45
ATOM     45  O   UNL     1      -2.723 -12.810  -0.378  1.00  0.00    -0.460 OA
BRANCH  45  46
ATOM     46  C   UNL     1      -3.097 -13.949  -0.995  1.00  0.00     0.338 C 
ATOM     47  O   UNL     1      -3.483 -14.982  -0.483  1.00  0.00    -0.246 OA
BRANCH  46  48
ATOM     48  C   UNL     1      -3.141 -13.660  -2.443  1.00  0.00     0.060 A 
ATOM     49  C   UNL     1      -4.355 -13.775  -3.134  1.00  0.00     0.016 A 
ATOM     50  C   UNL     1      -1.981 -13.266  -3.111  1.00  0.00     0.016 A 
ATOM     51  C   UNL     1      -4.407 -13.507  -4.505  1.00  0.00     0.010 A 
ATOM     52  C   UNL     1      -2.029 -13.025  -4.485  1.00  0.00     0.010 A 
ATOM     53  C   UNL     1      -3.236 -13.166  -5.192  1.00  0.00    -0.014 A 
BRANCH  53  54
ATOM     54  C   UNL     1      -3.211 -13.126  -6.674  1.00  0.00     0.031 A 
ATOM     55  C   UNL     1      -2.759 -14.356  -7.411  1.00  0.00     0.074 A 
ATOM     56  C   UNL     1      -3.533 -12.009  -7.351  1.00  0.00     0.049 A 
ATOM     57  N   UNL     1      -2.530 -14.522  -8.687  1.00  0.00    -0.248 NA
ATOM     58  C   UNL     1      -2.526 -15.558  -6.593  1.00  0.00     0.031 C 
ATOM     59  C   UNL     1      -4.022 -10.767  -6.757  1.00  0.00     0.029 A 
ATOM     60  N   UNL     1      -3.468 -11.740  -8.696  1.00  0.00    -0.354 N 
ATOM     61  C   UNL     1      -2.110 -15.839  -8.824  1.00  0.00     0.074 A 
ATOM     62  C   UNL     1      -2.103 -16.424  -7.502  1.00  0.00     0.031 C 
ATOM     63  C   UNL     1      -4.186  -9.855  -7.732  1.00  0.00     0.029 A 
ATOM     64  C   UNL     1      -3.776 -10.438  -9.009  1.00  0.00     0.049 A 
ATOM     65  H   UNL     1      -3.224 -12.414  -9.370  1.00  0.00     0.167 HD
ATOM     66  C   UNL     1      -1.756 -16.500  -9.950  1.00  0.00     0.031 A 
ATOM     67  C   UNL     1      -3.697  -9.784 -10.185  1.00  0.00     0.031 A 
ATOM     68  C   UNL     1      -1.744 -15.913 -11.262  1.00  0.00     0.049 A 
ATOM     69  C   UNL     1      -3.222 -10.521 -11.412  1.00  0.00     0.074 A 
ATOM     70  C   UNL     1      -1.428 -16.509 -12.470  1.00  0.00     0.029 A 
ATOM     71  N   UNL     1      -2.047 -14.588 -11.534  1.00  0.00    -0.354 N 
ATOM     72  N   UNL     1      -2.869 -11.778 -11.538  1.00  0.00    -0.248 NA
ATOM     73  C   UNL     1      -3.136  -9.747 -12.659  1.00  0.00     0.031 C 
ATOM     74  C   UNL     1      -1.477 -15.529 -13.465  1.00  0.00     0.029 A 
ATOM     75  C   UNL     1      -1.887 -14.338 -12.886  1.00  0.00     0.049 A 
ATOM     76  H   UNL     1      -2.333 -13.925 -10.866  1.00  0.00     0.167 HD
ATOM     77  C   UNL     1      -2.543 -11.949 -12.879  1.00  0.00     0.074 A 
ATOM     78  C   UNL     1      -2.758 -10.674 -13.529  1.00  0.00     0.031 C 
ATOM     79  C   UNL     1      -2.104 -13.062 -13.516  1.00  0.00     0.031 A 
BRANCH  66  80
ATOM     80  C   UNL     1      -1.303 -17.925  -9.804  1.00  0.00    -0.014 A 
ATOM     81  C   UNL     1      -2.209 -18.955  -9.509  1.00  0.00     0.009 A 
ATOM     82  C   UNL     1       0.050 -18.244 -10.005  1.00  0.00     0.009 A 
ATOM     83  C   UNL     1      -1.763 -20.274  -9.391  1.00  0.00     0.001 A 
ATOM     84  C   UNL     1       0.487 -19.566  -9.913  1.00  0.00     0.001 A 
ATOM     85  C   UNL     1      -0.418 -20.578  -9.599  1.00  0.00     0.000 A 
ENDBRANCH  66  80
BRANCH  67  86
ATOM     86  C   UNL     1      -4.024  -8.335 -10.261  1.00  0.00    -0.014 A 
ATOM     87  C   UNL     1      -5.148  -7.887 -10.973  1.00  0.00     0.009 A 
ATOM     88  C   UNL     1      -3.187  -7.385  -9.653  1.00  0.00     0.009 A 
ATOM     89  C   UNL     1      -5.409  -6.520 -11.099  1.00  0.00     0.001 A 
ATOM     90  C   UNL     1      -3.468  -6.021  -9.754  1.00  0.00     0.001 A 
ATOM     91  C   UNL     1      -4.572  -5.589 -10.486  1.00  0.00     0.000 A 
ENDBRANCH  67  86
BRANCH  79  92
ATOM     92  C   UNL     1      -1.856 -12.962 -14.995  1.00  0.00    -0.014 A 
ATOM     93  C   UNL     1      -0.751 -12.263 -15.505  1.00  0.00     0.009 A 
ATOM     94  C   UNL     1      -2.711 -13.627 -15.889  1.00  0.00     0.009 A 
ATOM     95  C   UNL     1      -0.525 -12.206 -16.882  1.00  0.00     0.001 A 
ATOM     96  C   UNL     1      -2.465 -13.594 -17.263  1.00  0.00     0.001 A 
ATOM     97  C   UNL     1      -1.378 -12.877 -17.758  1.00  0.00     0.000 A 
ENDBRANCH  79  92
ENDBRANCH  53  54
ENDBRANCH  46  48
ENDBRANCH  45  46
ENDBRANCH  44  45
ENDBRANCH  43  44
ENDBRANCH  42  43
ENDBRANCH  41  42
ENDBRANCH  40  41
ENDBRANCH  39  40
ENDBRANCH   1  39
TORSDOF 25
