REMARK SMILES COc1ccc(NC(=O)N[C@@H]2C=C[C@H](C(=O)OCCOCCOCCOCCOC(=O)c3ccc(-c4c5nc(c(-c6ccccc6)c6ccc([nH]6)c(-c6ccccc6)c6nc(c(-c7ccccc7)c7ccc4[nH]7)C=C6)C=C5)cc3)C2)c(C)c1
REMARK SMILES IDX 22 1 21 2 20 3 19 4 18 5 17 6 15 7 16 8 14 9 11 10 12 11
REMARK SMILES IDX 80 12 13 13 10 14 7 15 8 16 9 18 6 20 3 21 4 22 83 23 5 24
REMARK SMILES IDX 81 25 82 26 2 27 1 28 23 29 24 30 25 31 26 32 27 33 28 34
REMARK SMILES IDX 29 35 30 36 31 37 32 38 33 39 79 40 34 41 78 42 35 43 36 44
REMARK SMILES IDX 37 45 72 46 38 47 77 48 71 49 73 50 39 51 76 52 70 53 69 54
REMARK SMILES IDX 40 56 62 57 47 58 61 59 48 60 51 61 60 62 74 63 49 64 50 65
REMARK SMILES IDX 59 67 75 68 52 69 41 70 42 71 46 72 43 73 45 74 44 75 63 76
REMARK SMILES IDX 64 77 68 78 65 79 67 80 66 81 53 82 54 83 58 84 55 85 57 86
REMARK SMILES IDX 56 87
REMARK H PARENT 7 17 10 19 73 55 51 66
REMARK Flexibility Score: inf
ROOT
ATOM      1  C   UNL     1       2.155   3.490   2.340  1.00  0.00     0.188 C 
ENDROOT
BRANCH   1   2
ATOM      2  C   UNL     1       2.921   2.825   1.165  1.00  0.00     0.188 C 
BRANCH   2   3
ATOM      3  O   UNL     1       3.293   1.476   1.502  1.00  0.00    -0.376 OA
BRANCH   3   4
ATOM      4  C   UNL     1       2.960   0.418   0.593  1.00  0.00     0.202 C 
BRANCH   4   5
ATOM      5  C   UNL     1       1.998  -0.615   1.237  1.00  0.00     0.261 C 
BRANCH   5   6
ATOM      6  O   UNL     1       2.459  -1.559   2.202  1.00  0.00    -0.463 OA
BRANCH   6   7
ATOM      7  C   UNL     1       3.769  -1.526   2.467  1.00  0.00     0.312 C 
ATOM      8  O   UNL     1       4.670  -1.603   1.637  1.00  0.00    -0.252 OA
BRANCH   7   9
ATOM      9  C   UNL     1       3.954  -1.269   3.937  1.00  0.00     0.124 C 
ATOM     10  C   UNL     1       5.032   0.833   4.427  1.00  0.00     0.107 C 
ATOM     11  C   UNL     1       6.031  -0.231   4.175  1.00  0.00    -0.006 C 
ATOM     12  C   UNL     1       3.659   0.202   4.233  1.00  0.00     0.048 C 
ATOM     13  C   UNL     1       5.428  -1.422   4.136  1.00  0.00    -0.014 C 
BRANCH  10  14
ATOM     14  N   UNL     1       5.287   2.070   3.737  1.00  0.00    -0.332 N 
ATOM     15  N   UNL     1       6.158   3.387   5.520  1.00  0.00    -0.308 N 
ATOM     16  C   UNL     1       5.892   3.200   4.192  1.00  0.00     0.319 C 
ATOM     17  H   UNL     1       6.869   4.039   5.720  1.00  0.00     0.171 HD
ATOM     18  O   UNL     1       6.294   4.033   3.375  1.00  0.00    -0.248 OA
ATOM     19  H   UNL     1       4.979   2.102   2.803  1.00  0.00     0.165 HD
BRANCH  15  20
ATOM     20  C   UNL     1       5.561   2.781   6.642  1.00  0.00     0.046 A 
ATOM     21  C   UNL     1       4.390   0.877   8.326  1.00  0.00     0.119 A 
ATOM     22  C   UNL     1       3.580   1.670   7.521  1.00  0.00     0.048 A 
ATOM     23  C   UNL     1       5.757   1.157   8.419  1.00  0.00     0.052 A 
ATOM     24  C   UNL     1       4.162   2.629   6.684  1.00  0.00     0.030 A 
ATOM     25  C   UNL     1       6.365   2.121   7.589  1.00  0.00    -0.024 A 
ATOM     26  C   UNL     1       7.849   2.324   7.712  1.00  0.00     0.047 C 
BRANCH  21  27
ATOM     27  O   UNL     1       3.912  -0.155   9.088  1.00  0.00    -0.497 OA
ATOM     28  C   UNL     1       3.130  -1.101   8.354  1.00  0.00     0.278 C 
ENDBRANCH  21  27
ENDBRANCH  15  20
ENDBRANCH  10  14
ENDBRANCH   7   9
ENDBRANCH   6   7
ENDBRANCH   5   6
ENDBRANCH   4   5
ENDBRANCH   3   4
ENDBRANCH   2   3
ENDBRANCH   1   2
BRANCH   1  29
ATOM     29  O   UNL     1       0.731   3.333   2.424  1.00  0.00    -0.377 OA
BRANCH  29  30
ATOM     30  C   UNL     1      -0.132   4.111   1.582  1.00  0.00     0.188 C 
BRANCH  30  31
ATOM     31  C   UNL     1       0.110   5.610   1.524  1.00  0.00     0.188 C 
BRANCH  31  32
ATOM     32  O   UNL     1       1.326   5.821   0.811  1.00  0.00    -0.376 OA
BRANCH  32  33
ATOM     33  C   UNL     1       1.898   7.113   0.989  1.00  0.00     0.202 C 
BRANCH  33  34
ATOM     34  C   UNL     1       1.087   8.222   0.312  1.00  0.00     0.261 C 
BRANCH  34  35
ATOM     35  O   UNL     1       1.013   7.938  -1.099  1.00  0.00    -0.460 OA
BRANCH  35  36
ATOM     36  C   UNL     1      -0.190   7.465  -1.520  1.00  0.00     0.338 C 
ATOM     37  O   UNL     1      -1.272   7.968  -1.267  1.00  0.00    -0.246 OA
BRANCH  36  38
ATOM     38  C   UNL     1      -0.028   6.097  -2.097  1.00  0.00     0.060 A 
ATOM     39  C   UNL     1      -1.166   5.323  -2.351  1.00  0.00     0.016 A 
ATOM     40  C   UNL     1       1.222   5.484  -2.112  1.00  0.00     0.016 A 
ATOM     41  C   UNL     1      -1.056   3.930  -2.510  1.00  0.00     0.010 A 
ATOM     42  C   UNL     1       1.307   4.092  -2.165  1.00  0.00     0.010 A 
ATOM     43  C   UNL     1       0.179   3.278  -2.365  1.00  0.00    -0.014 A 
BRANCH  43  44
ATOM     44  C   UNL     1       0.236   1.776  -2.294  1.00  0.00     0.031 A 
ATOM     45  C   UNL     1       1.516   0.987  -2.621  1.00  0.00     0.074 A 
ATOM     46  C   UNL     1      -0.424   1.211  -1.255  1.00  0.00     0.049 A 
ATOM     47  N   UNL     1       1.780  -0.262  -2.320  1.00  0.00    -0.248 NA
ATOM     48  C   UNL     1       2.625   1.619  -3.340  1.00  0.00     0.031 C 
ATOM     49  C   UNL     1       0.060   1.354   0.102  1.00  0.00     0.029 A 
ATOM     50  N   UNL     1      -1.753   0.863  -1.033  1.00  0.00    -0.354 N 
ATOM     51  C   UNL     1       3.118  -0.529  -2.656  1.00  0.00     0.074 A 
ATOM     52  C   UNL     1       3.585   0.697  -3.260  1.00  0.00     0.031 C 
ATOM     53  C   UNL     1      -0.763   0.817   0.994  1.00  0.00     0.029 A 
ATOM     54  C   UNL     1      -1.834   0.283   0.230  1.00  0.00     0.049 A 
ATOM     55  H   UNL     1      -2.501   1.002  -1.657  1.00  0.00     0.167 HD
ATOM     56  C   UNL     1       3.805  -1.680  -2.338  1.00  0.00     0.031 A 
ATOM     57  C   UNL     1      -2.758  -0.454   0.845  1.00  0.00     0.031 A 
ATOM     58  C   UNL     1       3.074  -2.611  -1.446  1.00  0.00     0.049 A 
ATOM     59  C   UNL     1      -2.298  -1.869   0.775  1.00  0.00     0.074 A 
ATOM     60  C   UNL     1       3.452  -3.340  -0.326  1.00  0.00     0.029 A 
ATOM     61  N   UNL     1       1.695  -2.827  -1.554  1.00  0.00    -0.354 N 
ATOM     62  N   UNL     1      -1.067  -2.274   0.543  1.00  0.00    -0.248 NA
ATOM     63  C   UNL     1      -3.279  -2.933   0.735  1.00  0.00     0.031 C 
ATOM     64  C   UNL     1       2.320  -3.970   0.242  1.00  0.00     0.029 A 
ATOM     65  C   UNL     1       1.226  -3.651  -0.536  1.00  0.00     0.049 A 
ATOM     66  H   UNL     1       1.129  -2.444  -2.263  1.00  0.00     0.167 HD
ATOM     67  C   UNL     1      -1.135  -3.579   0.067  1.00  0.00     0.074 A 
ATOM     68  C   UNL     1      -2.530  -3.942   0.275  1.00  0.00     0.031 C 
ATOM     69  C   UNL     1      -0.111  -4.236  -0.578  1.00  0.00     0.031 A 
BRANCH  56  70
ATOM     70  C   UNL     1       5.321  -1.917  -2.693  1.00  0.00    -0.014 A 
ATOM     71  C   UNL     1       6.064  -2.965  -2.104  1.00  0.00     0.009 A 
ATOM     72  C   UNL     1       6.075  -1.174  -3.625  1.00  0.00     0.009 A 
ATOM     73  C   UNL     1       7.449  -3.156  -2.292  1.00  0.00     0.001 A 
ATOM     74  C   UNL     1       7.468  -1.335  -3.812  1.00  0.00     0.001 A 
ATOM     75  C   UNL     1       8.163  -2.316  -3.126  1.00  0.00     0.000 A 
ENDBRANCH  56  70
BRANCH  57  76
ATOM     76  C   UNL     1      -3.773   0.370   1.539  1.00  0.00    -0.014 A 
ATOM     77  C   UNL     1      -3.475   0.943   2.794  1.00  0.00     0.009 A 
ATOM     78  C   UNL     1      -4.604   1.101   0.666  1.00  0.00     0.009 A 
ATOM     79  C   UNL     1      -3.817   2.280   3.063  1.00  0.00     0.001 A 
ATOM     80  C   UNL     1      -4.914   2.439   0.925  1.00  0.00     0.001 A 
ATOM     81  C   UNL     1      -4.486   3.041   2.105  1.00  0.00     0.000 A 
ENDBRANCH  57  76
BRANCH  69  82
ATOM     82  C   UNL     1      -0.207  -5.542  -1.384  1.00  0.00    -0.014 A 
ATOM     83  C   UNL     1      -1.342  -6.340  -1.537  1.00  0.00     0.009 A 
ATOM     84  C   UNL     1       0.928  -5.976  -2.120  1.00  0.00     0.009 A 
ATOM     85  C   UNL     1      -1.383  -7.424  -2.429  1.00  0.00     0.001 A 
ATOM     86  C   UNL     1       0.903  -7.059  -3.005  1.00  0.00     0.001 A 
ATOM     87  C   UNL     1      -0.269  -7.770  -3.179  1.00  0.00     0.000 A 
ENDBRANCH  69  82
ENDBRANCH  43  44
ENDBRANCH  36  38
ENDBRANCH  35  36
ENDBRANCH  34  35
ENDBRANCH  33  34
ENDBRANCH  32  33
ENDBRANCH  31  32
ENDBRANCH  30  31
ENDBRANCH  29  30
ENDBRANCH   1  29
TORSDOF 23
