REMARK SMILES C[C@@H](C(=O)OCCOCCOCCOCCOC(=O)c1ccc(-c2c3nc(c(-c4ccccc4)c4ccc([nH]4)c(-c4ccccc4)c4nc(c(-c5ccccc5)c5ccc2[nH]5)C=C4)C=C3)cc1)c1ccn(C(F)F)c(=O)c1
REMARK SMILES IDX 11 1 10 2 9 3 8 4 7 5 6 6 5 7 3 8 4 9 2 10 1 11 68 12 69 13
REMARK SMILES IDX 77 14 70 15 75 16 71 17 76 18 72 19 73 20 74 21 12 22 13 23
REMARK SMILES IDX 14 24 15 25 16 26 17 27 18 28 19 29 20 30 21 31 67 32 22 33
REMARK SMILES IDX 66 34 23 35 24 36 25 37 60 38 26 39 65 40 59 41 61 42 27 43
REMARK SMILES IDX 64 44 58 45 57 46 28 48 50 49 35 50 49 51 36 52 39 53 48 54
REMARK SMILES IDX 62 55 37 56 38 57 47 59 63 60 40 61 29 62 30 63 34 64 31 65
REMARK SMILES IDX 33 66 32 67 51 68 52 69 56 70 53 71 55 72 54 73 41 74 42 75
REMARK SMILES IDX 46 76 43 77 45 78 44 79
REMARK H PARENT 61 47 39 58
REMARK Flexibility Score: inf
ROOT
ATOM      1  O   UNL     1       2.264   1.719  -2.195  1.00  0.00    -0.377 OA
ENDROOT
BRANCH   1   2
ATOM      2  C   UNL     1       0.848   1.706  -2.169  1.00  0.00     0.188 C 
BRANCH   2   3
ATOM      3  C   UNL     1       0.190   3.084  -2.003  1.00  0.00     0.188 C 
BRANCH   3   4
ATOM      4  O   UNL     1       0.976   4.188  -2.401  1.00  0.00    -0.376 OA
BRANCH   4   5
ATOM      5  C   UNL     1       1.970   4.725  -1.542  1.00  0.00     0.202 C 
BRANCH   5   6
ATOM      6  C   UNL     1       2.467   4.099  -0.219  1.00  0.00     0.261 C 
BRANCH   6   7
ATOM      7  O   UNL     1       1.861   2.868   0.186  1.00  0.00    -0.463 OA
BRANCH   7   8
ATOM      8  C   UNL     1       1.201   2.821   1.368  1.00  0.00     0.313 C 
ATOM      9  O   UNL     1       1.082   3.771   2.132  1.00  0.00    -0.252 OA
BRANCH   8  10
ATOM     10  C   UNL     1       0.500   1.461   1.591  1.00  0.00     0.126 C 
ATOM     11  C   UNL     1       1.359   0.281   1.082  1.00  0.00     0.025 C 
BRANCH  10  12
ATOM     12  C   UNL     1      -0.974   1.477   1.145  1.00  0.00    -0.027 A 
ATOM     13  C   UNL     1      -1.667   0.218   0.907  1.00  0.00     0.023 A 
ATOM     14  C   UNL     1      -1.692   2.610   1.000  1.00  0.00     0.076 A 
ATOM     15  C   UNL     1      -2.959   0.193   0.548  1.00  0.00     0.095 A 
ATOM     16  C   UNL     1      -3.119   2.607   0.568  1.00  0.00     0.255 A 
ATOM     17  N   UNL     1      -3.684   1.359   0.390  1.00  0.00    -0.258 N 
ATOM     18  O   UNL     1      -3.687   3.681   0.405  1.00  0.00    -0.269 OA
BRANCH  17  19
ATOM     19  C   UNL     1      -5.079   1.322   0.030  1.00  0.00     0.451 C 
ATOM     20  F   UNL     1      -5.838   1.970   0.948  1.00  0.00    -0.185 F 
ATOM     21  F   UNL     1      -5.288   1.905  -1.175  1.00  0.00    -0.185 F 
ENDBRANCH  17  19
ENDBRANCH  10  12
ENDBRANCH   8  10
ENDBRANCH   7   8
ENDBRANCH   6   7
ENDBRANCH   5   6
ENDBRANCH   4   5
ENDBRANCH   3   4
ENDBRANCH   2   3
ENDBRANCH   1   2
BRANCH   1  22
ATOM     22  C   UNL     1       2.915   2.054  -3.417  1.00  0.00     0.188 C 
BRANCH  22  23
ATOM     23  C   UNL     1       2.148   2.692  -4.598  1.00  0.00     0.188 C 
BRANCH  23  24
ATOM     24  O   UNL     1       0.826   2.210  -4.784  1.00  0.00    -0.376 OA
BRANCH  24  25
ATOM     25  C   UNL     1       0.595   1.221  -5.775  1.00  0.00     0.202 C 
BRANCH  25  26
ATOM     26  C   UNL     1       1.253  -0.151  -5.562  1.00  0.00     0.261 C 
BRANCH  26  27
ATOM     27  O   UNL     1       2.686  -0.158  -5.472  1.00  0.00    -0.460 OA
BRANCH  27  28
ATOM     28  C   UNL     1       3.384   0.325  -6.520  1.00  0.00     0.338 C 
ATOM     29  O   UNL     1       2.940   0.720  -7.586  1.00  0.00    -0.246 OA
BRANCH  28  30
ATOM     30  C   UNL     1       4.789   0.483  -6.092  1.00  0.00     0.060 A 
ATOM     31  C   UNL     1       5.368   1.759  -6.119  1.00  0.00     0.016 A 
ATOM     32  C   UNL     1       5.529  -0.621  -5.665  1.00  0.00     0.016 A 
ATOM     33  C   UNL     1       6.705   1.927  -5.758  1.00  0.00     0.010 A 
ATOM     34  C   UNL     1       6.874  -0.456  -5.325  1.00  0.00     0.010 A 
ATOM     35  C   UNL     1       7.477   0.813  -5.407  1.00  0.00    -0.014 A 
BRANCH  35  36
ATOM     36  C   UNL     1       8.953   0.937  -5.331  1.00  0.00     0.031 A 
ATOM     37  C   UNL     1       9.765   0.514  -6.525  1.00  0.00     0.074 A 
ATOM     38  C   UNL     1       9.564   1.434  -4.241  1.00  0.00     0.049 A 
ATOM     39  N   UNL     1      11.064   0.479  -6.678  1.00  0.00    -0.248 NA
ATOM     40  C   UNL     1       9.007   0.070  -7.707  1.00  0.00     0.031 C 
ATOM     41  C   UNL     1       8.891   1.928  -3.042  1.00  0.00     0.029 A 
ATOM     42  N   UNL     1      10.900   1.596  -3.971  1.00  0.00    -0.354 N 
ATOM     43  C   UNL     1      11.277   0.001  -7.965  1.00  0.00     0.074 A 
ATOM     44  C   UNL     1       9.978  -0.272  -8.539  1.00  0.00     0.031 C 
ATOM     45  C   UNL     1       9.822   2.329  -2.157  1.00  0.00     0.029 A 
ATOM     46  C   UNL     1      11.152   2.083  -2.712  1.00  0.00     0.049 A 
ATOM     47  H   UNL     1      11.611   1.382  -4.619  1.00  0.00     0.167 HD
ATOM     48  C   UNL     1      12.449  -0.188  -8.616  1.00  0.00     0.031 A 
ATOM     49  C   UNL     1      12.322   2.282  -2.074  1.00  0.00     0.031 A 
ATOM     50  C   UNL     1      13.742   0.064  -8.040  1.00  0.00     0.049 A 
ATOM     51  C   UNL     1      13.615   1.973  -2.785  1.00  0.00     0.074 A 
ATOM     52  C   UNL     1      14.989  -0.093  -8.619  1.00  0.00     0.029 A 
ATOM     53  N   UNL     1      13.954   0.516  -6.747  1.00  0.00    -0.354 N 
ATOM     54  N   UNL     1      13.806   1.540  -4.008  1.00  0.00    -0.248 NA
ATOM     55  C   UNL     1      14.856   2.190  -2.026  1.00  0.00     0.031 C 
ATOM     56  C   UNL     1      15.957   0.201  -7.654  1.00  0.00     0.029 A 
ATOM     57  C   UNL     1      15.313   0.615  -6.499  1.00  0.00     0.049 A 
ATOM     58  H   UNL     1      13.244   0.735  -6.101  1.00  0.00     0.167 HD
ATOM     59  C   UNL     1      15.184   1.464  -4.175  1.00  0.00     0.074 A 
ATOM     60  C   UNL     1      15.781   1.912  -2.934  1.00  0.00     0.031 C 
ATOM     61  C   UNL     1      15.893   1.064  -5.259  1.00  0.00     0.031 A 
BRANCH  48  62
ATOM     62  C   UNL     1      12.382  -0.733 -10.016  1.00  0.00    -0.014 A 
ATOM     63  C   UNL     1      11.882   0.036 -11.079  1.00  0.00     0.009 A 
ATOM     64  C   UNL     1      12.851  -2.029 -10.280  1.00  0.00     0.009 A 
ATOM     65  C   UNL     1      11.822  -0.495 -12.370  1.00  0.00     0.001 A 
ATOM     66  C   UNL     1      12.821  -2.545 -11.576  1.00  0.00     0.001 A 
ATOM     67  C   UNL     1      12.296  -1.782 -12.618  1.00  0.00     0.000 A 
ENDBRANCH  48  62
BRANCH  49  68
ATOM     68  C   UNL     1      12.333   2.771  -0.668  1.00  0.00    -0.014 A 
ATOM     69  C   UNL     1      12.849   4.036  -0.349  1.00  0.00     0.009 A 
ATOM     70  C   UNL     1      11.856   1.954   0.371  1.00  0.00     0.009 A 
ATOM     71  C   UNL     1      12.913   4.461   0.981  1.00  0.00     0.001 A 
ATOM     72  C   UNL     1      11.891   2.395   1.695  1.00  0.00     0.001 A 
ATOM     73  C   UNL     1      12.430   3.642   2.001  1.00  0.00     0.000 A 
ENDBRANCH  49  68
BRANCH  61  74
ATOM     74  C   UNL     1      17.394   1.134  -5.173  1.00  0.00    -0.014 A 
ATOM     75  C   UNL     1      18.127   0.258  -4.358  1.00  0.00     0.009 A 
ATOM     76  C   UNL     1      18.088   2.067  -5.962  1.00  0.00     0.009 A 
ATOM     77  C   UNL     1      19.521   0.340  -4.306  1.00  0.00     0.001 A 
ATOM     78  C   UNL     1      19.483   2.123  -5.934  1.00  0.00     0.001 A 
ATOM     79  C   UNL     1      20.197   1.268  -5.098  1.00  0.00     0.000 A 
ENDBRANCH  61  74
ENDBRANCH  35  36
ENDBRANCH  28  30
ENDBRANCH  27  28
ENDBRANCH  26  27
ENDBRANCH  25  26
ENDBRANCH  24  25
ENDBRANCH  23  24
ENDBRANCH  22  23
ENDBRANCH   1  22
TORSDOF 22
