REMARK SMILES C[C@@H]1C(C(=O)OCCOCCOCCOCCOC(=O)c2ccc(-c3c4nc(c(-c5ccccc5)c5ccc([nH]5)c(-c5ccccc5)c5nc(c(-c6ccccc6)c6ccc3[nH]6)C=C5)C=C4)cc2)=NC2=C1C(=O)C[C@H](c1ccccc1)C2
REMARK SMILES IDX 13 1 12 2 11 3 10 4 9 5 8 6 7 7 6 8 4 9 5 10 3 11 1 12 2 13
REMARK SMILES IDX 71 14 69 15 70 16 72 17 82 18 73 19 74 20 75 21 76 22 77 23
REMARK SMILES IDX 81 24 78 25 80 26 79 27 14 28 15 29 16 30 17 31 18 32 19 33
REMARK SMILES IDX 20 34 21 35 22 36 68 37 23 38 67 39 24 40 25 41 26 42 61 43
REMARK SMILES IDX 27 44 66 45 60 46 62 47 28 48 65 49 59 50 58 51 29 53 51 54
REMARK SMILES IDX 36 55 50 56 37 57 40 58 49 59 63 60 38 61 39 62 48 64 64 65
REMARK SMILES IDX 41 66 30 67 31 68 35 69 32 70 34 71 33 72 52 73 53 74 57 75
REMARK SMILES IDX 54 76 56 77 55 78 42 79 43 80 47 81 44 82 46 83 45 84
REMARK H PARENT 62 52 40 63
REMARK Flexibility Score: inf
ROOT
ATOM      1  C   UNL     1      -3.326  -2.977  -2.484  1.00  0.00     0.188 C 
ENDROOT
BRANCH   1   2
ATOM      2  O   UNL     1      -2.441  -3.611  -1.579  1.00  0.00    -0.377 OA
BRANCH   2   3
ATOM      3  C   UNL     1      -2.205  -3.006  -0.316  1.00  0.00     0.188 C 
BRANCH   3   4
ATOM      4  C   UNL     1      -2.211  -1.480  -0.222  1.00  0.00     0.188 C 
BRANCH   4   5
ATOM      5  O   UNL     1      -3.381  -0.837  -0.706  1.00  0.00    -0.376 OA
BRANCH   5   6
ATOM      6  C   UNL     1      -3.365   0.599  -0.667  1.00  0.00     0.202 C 
BRANCH   6   7
ATOM      7  C   UNL     1      -2.064   1.296  -1.126  1.00  0.00     0.261 C 
BRANCH   7   8
ATOM      8  O   UNL     1      -0.942   1.020  -0.255  1.00  0.00    -0.459 OA
BRANCH   8   9
ATOM      9  C   UNL     1      -0.976   1.523   1.000  1.00  0.00     0.353 C 
ATOM     10  O   UNL     1      -1.684   2.422   1.398  1.00  0.00    -0.245 OA
BRANCH   9  11
ATOM     11  C   UNL     1      -0.194   0.571   1.914  1.00  0.00     0.133 C 
ATOM     12  C   UNL     1       2.146   0.082   1.237  1.00  0.00     0.020 C 
ATOM     13  C   UNL     1       0.734  -0.475   1.326  1.00  0.00     0.078 C 
ATOM     14  C   UNL     1       0.536  -1.405   2.468  1.00  0.00     0.026 C 
ATOM     15  N   UNL     1      -0.380   0.504   3.208  1.00  0.00    -0.249 NA
ATOM     16  C   UNL     1       0.062  -0.759   3.535  1.00  0.00     0.049 C 
ATOM     17  C   UNL     1       0.316  -2.853   2.375  1.00  0.00     0.161 C 
ATOM     18  C   UNL     1      -0.424  -1.500   4.743  1.00  0.00     0.065 C 
ATOM     19  O   UNL     1       0.942  -3.505   1.542  1.00  0.00    -0.294 OA
ATOM     20  C   UNL     1      -0.773  -3.492   3.250  1.00  0.00     0.089 C 
ATOM     21  C   UNL     1      -1.457  -2.554   4.293  1.00  0.00     0.033 C 
BRANCH  21  22
ATOM     22  C   UNL     1      -2.815  -1.959   3.879  1.00  0.00    -0.044 A 
ATOM     23  C   UNL     1      -3.139  -0.604   4.095  1.00  0.00     0.004 A 
ATOM     24  C   UNL     1      -3.834  -2.768   3.360  1.00  0.00     0.004 A 
ATOM     25  C   UNL     1      -4.357  -0.051   3.700  1.00  0.00     0.000 A 
ATOM     26  C   UNL     1      -5.079  -2.223   3.010  1.00  0.00     0.000 A 
ATOM     27  C   UNL     1      -5.327  -0.861   3.138  1.00  0.00     0.000 A 
ENDBRANCH  21  22
ENDBRANCH   9  11
ENDBRANCH   8   9
ENDBRANCH   7   8
ENDBRANCH   6   7
ENDBRANCH   5   6
ENDBRANCH   4   5
ENDBRANCH   3   4
ENDBRANCH   2   3
ENDBRANCH   1   2
BRANCH   1  28
ATOM     28  C   UNL     1      -4.834  -3.300  -2.450  1.00  0.00     0.188 C 
BRANCH  28  29
ATOM     29  O   UNL     1      -5.699  -3.226  -1.331  1.00  0.00    -0.376 OA
BRANCH  29  30
ATOM     30  C   UNL     1      -5.387  -3.695  -0.037  1.00  0.00     0.202 C 
BRANCH  30  31
ATOM     31  C   UNL     1      -5.018  -5.153   0.258  1.00  0.00     0.261 C 
BRANCH  31  32
ATOM     32  O   UNL     1      -4.032  -5.668  -0.612  1.00  0.00    -0.460 OA
BRANCH  32  33
ATOM     33  C   UNL     1      -4.565  -6.230  -1.714  1.00  0.00     0.338 C 
ATOM     34  O   UNL     1      -5.750  -6.357  -1.976  1.00  0.00    -0.246 OA
BRANCH  33  35
ATOM     35  C   UNL     1      -3.497  -6.739  -2.576  1.00  0.00     0.060 A 
ATOM     36  C   UNL     1      -3.920  -7.283  -3.789  1.00  0.00     0.016 A 
ATOM     37  C   UNL     1      -2.195  -6.917  -2.087  1.00  0.00     0.016 A 
ATOM     38  C   UNL     1      -3.130  -8.237  -4.374  1.00  0.00     0.010 A 
ATOM     39  C   UNL     1      -1.402  -7.875  -2.675  1.00  0.00     0.010 A 
ATOM     40  C   UNL     1      -1.937  -8.595  -3.738  1.00  0.00    -0.014 A 
BRANCH  40  41
ATOM     41  C   UNL     1      -1.316  -9.810  -4.205  1.00  0.00     0.031 A 
ATOM     42  C   UNL     1      -0.609  -9.682  -5.483  1.00  0.00     0.074 A 
ATOM     43  C   UNL     1      -1.412 -10.965  -3.526  1.00  0.00     0.049 A 
ATOM     44  N   UNL     1      -0.948 -10.179  -6.624  1.00  0.00    -0.248 NA
ATOM     45  C   UNL     1       0.553  -8.786  -5.512  1.00  0.00     0.031 C 
ATOM     46  C   UNL     1      -1.833 -11.161  -2.136  1.00  0.00     0.029 A 
ATOM     47  N   UNL     1      -1.047 -12.211  -3.929  1.00  0.00    -0.354 N 
ATOM     48  C   UNL     1       0.063  -9.804  -7.495  1.00  0.00     0.074 A 
ATOM     49  C   UNL     1       0.867  -8.825  -6.806  1.00  0.00     0.031 C 
ATOM     50  C   UNL     1      -1.483 -12.408  -1.747  1.00  0.00     0.029 A 
ATOM     51  C   UNL     1      -0.951 -13.124  -2.896  1.00  0.00     0.049 A 
ATOM     52  H   UNL     1      -0.868 -12.441  -4.869  1.00  0.00     0.167 HD
ATOM     53  C   UNL     1       0.325 -10.515  -8.621  1.00  0.00     0.031 A 
ATOM     54  C   UNL     1      -0.392 -14.352  -2.971  1.00  0.00     0.031 A 
ATOM     55  C   UNL     1      -0.763 -11.377  -8.995  1.00  0.00     0.049 A 
ATOM     56  C   UNL     1      -0.346 -14.754  -4.396  1.00  0.00     0.074 A 
ATOM     57  C   UNL     1      -2.068 -11.196  -9.402  1.00  0.00     0.029 A 
ATOM     58  N   UNL     1      -0.644 -12.698  -8.639  1.00  0.00    -0.354 N 
ATOM     59  N   UNL     1      -1.399 -15.044  -5.103  1.00  0.00    -0.248 NA
ATOM     60  C   UNL     1       0.867 -14.510  -5.165  1.00  0.00     0.031 C 
ATOM     61  C   UNL     1      -2.780 -12.338  -8.929  1.00  0.00     0.029 A 
ATOM     62  C   UNL     1      -1.876 -13.166  -8.260  1.00  0.00     0.049 A 
ATOM     63  H   UNL     1       0.188 -13.223  -8.654  1.00  0.00     0.167 HD
ATOM     64  C   UNL     1      -1.097 -14.614  -6.386  1.00  0.00     0.074 A 
ATOM     65  C   UNL     1       0.350 -14.450  -6.395  1.00  0.00     0.031 C 
ATOM     66  C   UNL     1      -2.076 -14.158  -7.222  1.00  0.00     0.031 A 
BRANCH  53  67
ATOM     67  C   UNL     1       1.732 -10.740  -9.111  1.00  0.00    -0.014 A 
ATOM     68  C   UNL     1       1.926 -11.396 -10.336  1.00  0.00     0.009 A 
ATOM     69  C   UNL     1       2.864 -10.584  -8.285  1.00  0.00     0.009 A 
ATOM     70  C   UNL     1       3.180 -11.909 -10.691  1.00  0.00     0.001 A 
ATOM     71  C   UNL     1       4.125 -11.052  -8.656  1.00  0.00     0.001 A 
ATOM     72  C   UNL     1       4.277 -11.738  -9.850  1.00  0.00     0.000 A 
ENDBRANCH  53  67
BRANCH  54  73
ATOM     73  C   UNL     1       0.344 -15.074  -1.916  1.00  0.00    -0.014 A 
ATOM     74  C   UNL     1       0.578 -16.452  -2.021  1.00  0.00     0.009 A 
ATOM     75  C   UNL     1       1.040 -14.361  -0.922  1.00  0.00     0.009 A 
ATOM     76  C   UNL     1       1.505 -17.086  -1.185  1.00  0.00     0.001 A 
ATOM     77  C   UNL     1       1.958 -14.995  -0.081  1.00  0.00     0.001 A 
ATOM     78  C   UNL     1       2.202 -16.355  -0.225  1.00  0.00     0.000 A 
ENDBRANCH  54  73
BRANCH  66  79
ATOM     79  C   UNL     1      -3.503 -14.491  -6.864  1.00  0.00    -0.014 A 
ATOM     80  C   UNL     1      -4.115 -14.050  -5.678  1.00  0.00     0.009 A 
ATOM     81  C   UNL     1      -4.287 -15.178  -7.803  1.00  0.00     0.009 A 
ATOM     82  C   UNL     1      -5.461 -14.328  -5.421  1.00  0.00     0.001 A 
ATOM     83  C   UNL     1      -5.638 -15.434  -7.557  1.00  0.00     0.001 A 
ATOM     84  C   UNL     1      -6.222 -15.017  -6.363  1.00  0.00     0.000 A 
ENDBRANCH  66  79
ENDBRANCH  40  41
ENDBRANCH  33  35
ENDBRANCH  32  33
ENDBRANCH  31  32
ENDBRANCH  30  31
ENDBRANCH  29  30
ENDBRANCH  28  29
ENDBRANCH   1  28
TORSDOF 21
