REMARK SMILES O=C(OCCOCCOCCOCCOC(=O)[C@H]1C[NH2+]CCN1c1ncc(C(F)(F)F)cc1Cl)c1ccc(-c2c3nc(c(-c4ccccc4)c4ccc([nH]4)c(-c4ccccc4)c4nc(c(-c5ccccc5)c5ccc2[nH]5)C=C4)C=C3)cc1
REMARK SMILES IDX 9 1 8 2 7 3 6 4 5 5 4 6 3 7 2 8 1 9 35 10 36 11 82 12 37 13
REMARK SMILES IDX 81 14 38 15 39 16 40 17 75 18 41 19 80 20 74 21 76 22 42 23
REMARK SMILES IDX 79 24 73 25 72 26 43 28 65 29 50 30 64 31 51 32 54 33 63 34
REMARK SMILES IDX 77 35 52 36 53 37 62 39 78 40 55 41 44 42 45 43 49 44 46 45
REMARK SMILES IDX 48 46 47 47 66 48 67 49 71 50 68 51 70 52 69 53 56 54 57 55
REMARK SMILES IDX 61 56 58 57 60 58 59 59 10 60 11 61 12 62 13 63 14 64 15 65
REMARK SMILES IDX 16 66 17 67 18 68 19 69 23 70 20 71 22 72 21 73 24 76 25 77
REMARK SMILES IDX 33 78 26 79 32 80 34 81 27 82 28 83 29 84 30 85 31 86
REMARK H PARENT 76 27 54 38 20 74 20 75
REMARK Flexibility Score: inf
ROOT
ATOM      1  O   UNL     1       3.317   1.916   7.222  1.00  0.00    -0.377 OA
ENDROOT
BRANCH   1   2
ATOM      2  C   UNL     1       2.849   2.762   8.264  1.00  0.00     0.188 C 
BRANCH   2   3
ATOM      3  C   UNL     1       1.349   2.974   8.294  1.00  0.00     0.188 C 
BRANCH   3   4
ATOM      4  O   UNL     1       0.651   1.752   8.108  1.00  0.00    -0.376 OA
BRANCH   4   5
ATOM      5  C   UNL     1      -0.262   1.729   7.013  1.00  0.00     0.202 C 
BRANCH   5   6
ATOM      6  C   UNL     1      -1.550   2.510   7.258  1.00  0.00     0.261 C 
BRANCH   6   7
ATOM      7  O   UNL     1      -1.431   3.560   8.235  1.00  0.00    -0.460 OA
BRANCH   7   8
ATOM      8  C   UNL     1      -1.570   3.514   9.578  1.00  0.00     0.338 C 
ATOM      9  O   UNL     1      -1.573   4.591  10.191  1.00  0.00    -0.246 OA
BRANCH   8  10
ATOM     10  C   UNL     1      -1.667   2.269  10.402  1.00  0.00     0.060 A 
ATOM     11  C   UNL     1      -1.259   1.002   9.995  1.00  0.00     0.016 A 
ATOM     12  C   UNL     1      -2.103   2.406  11.732  1.00  0.00     0.016 A 
ATOM     13  C   UNL     1      -1.204  -0.075  10.859  1.00  0.00     0.010 A 
ATOM     14  C   UNL     1      -2.106   1.315  12.609  1.00  0.00     0.010 A 
ATOM     15  C   UNL     1      -1.644   0.074  12.163  1.00  0.00    -0.014 A 
BRANCH  15  16
ATOM     16  C   UNL     1      -1.797  -1.167  12.928  1.00  0.00     0.031 A 
ATOM     17  C   UNL     1      -3.159  -1.784  12.952  1.00  0.00     0.074 A 
ATOM     18  C   UNL     1      -0.706  -1.810  13.380  1.00  0.00     0.049 A 
ATOM     19  N   UNL     1      -3.573  -2.844  13.586  1.00  0.00    -0.248 NA
ATOM     20  C   UNL     1      -4.191  -1.133  12.121  1.00  0.00     0.031 C 
ATOM     21  C   UNL     1       0.680  -1.368  13.186  1.00  0.00     0.029 A 
ATOM     22  N   UNL     1      -0.589  -2.989  14.059  1.00  0.00    -0.354 N 
ATOM     23  C   UNL     1      -4.920  -2.957  13.271  1.00  0.00     0.074 A 
ATOM     24  C   UNL     1      -5.254  -1.880  12.370  1.00  0.00     0.031 C 
ATOM     25  C   UNL     1       1.507  -2.268  13.745  1.00  0.00     0.029 A 
ATOM     26  C   UNL     1       0.707  -3.295  14.399  1.00  0.00     0.049 A 
ATOM     27  H   UNL     1      -1.356  -3.563  14.284  1.00  0.00     0.167 HD
ATOM     28  C   UNL     1      -5.798  -3.873  13.730  1.00  0.00     0.031 A 
ATOM     29  C   UNL     1       1.167  -4.268  15.206  1.00  0.00     0.031 A 
ATOM     30  C   UNL     1      -5.418  -4.918  14.637  1.00  0.00     0.049 A 
ATOM     31  C   UNL     1       0.143  -5.181  15.828  1.00  0.00     0.074 A 
ATOM     32  C   UNL     1      -6.212  -5.864  15.251  1.00  0.00     0.029 A 
ATOM     33  N   UNL     1      -4.114  -5.139  15.059  1.00  0.00    -0.354 N 
ATOM     34  N   UNL     1      -1.151  -5.240  15.610  1.00  0.00    -0.248 NA
ATOM     35  C   UNL     1       0.633  -6.144  16.820  1.00  0.00     0.031 C 
ATOM     36  C   UNL     1      -5.394  -6.619  16.098  1.00  0.00     0.029 A 
ATOM     37  C   UNL     1      -4.082  -6.187  15.956  1.00  0.00     0.049 A 
ATOM     38  H   UNL     1      -3.328  -4.625  14.762  1.00  0.00     0.167 HD
ATOM     39  C   UNL     1      -1.629  -6.254  16.426  1.00  0.00     0.074 A 
ATOM     40  C   UNL     1      -0.478  -6.803  17.118  1.00  0.00     0.031 C 
ATOM     41  C   UNL     1      -2.900  -6.694  16.605  1.00  0.00     0.031 A 
BRANCH  28  42
ATOM     42  C   UNL     1      -7.239  -3.694  13.356  1.00  0.00    -0.014 A 
ATOM     43  C   UNL     1      -7.717  -3.973  12.067  1.00  0.00     0.009 A 
ATOM     44  C   UNL     1      -8.133  -3.205  14.322  1.00  0.00     0.009 A 
ATOM     45  C   UNL     1      -9.059  -3.744  11.749  1.00  0.00     0.001 A 
ATOM     46  C   UNL     1      -9.476  -2.999  14.009  1.00  0.00     0.001 A 
ATOM     47  C   UNL     1      -9.937  -3.262  12.720  1.00  0.00     0.000 A 
ENDBRANCH  28  42
BRANCH  29  48
ATOM     48  C   UNL     1       2.608  -4.352  15.571  1.00  0.00    -0.014 A 
ATOM     49  C   UNL     1       3.365  -5.499  15.293  1.00  0.00     0.009 A 
ATOM     50  C   UNL     1       3.222  -3.297  16.270  1.00  0.00     0.009 A 
ATOM     51  C   UNL     1       4.686  -5.606  15.744  1.00  0.00     0.001 A 
ATOM     52  C   UNL     1       4.552  -3.390  16.688  1.00  0.00     0.001 A 
ATOM     53  C   UNL     1       5.277  -4.552  16.440  1.00  0.00     0.000 A 
ENDBRANCH  29  48
BRANCH  41  54
ATOM     54  C   UNL     1      -3.087  -7.838  17.555  1.00  0.00    -0.014 A 
ATOM     55  C   UNL     1      -2.969  -7.657  18.940  1.00  0.00     0.009 A 
ATOM     56  C   UNL     1      -3.450  -9.096  17.051  1.00  0.00     0.009 A 
ATOM     57  C   UNL     1      -3.181  -8.730  19.805  1.00  0.00     0.001 A 
ATOM     58  C   UNL     1      -3.697 -10.156  17.920  1.00  0.00     0.001 A 
ATOM     59  C   UNL     1      -3.553  -9.974  19.295  1.00  0.00     0.000 A 
ENDBRANCH  41  54
ENDBRANCH  15  16
ENDBRANCH   8  10
ENDBRANCH   7   8
ENDBRANCH   6   7
ENDBRANCH   5   6
ENDBRANCH   4   5
ENDBRANCH   3   4
ENDBRANCH   2   3
ENDBRANCH   1   2
BRANCH   1  60
ATOM     60  C   UNL     1       2.807   0.590   7.078  1.00  0.00     0.188 C 
BRANCH  60  61
ATOM     61  C   UNL     1       2.846  -0.368   8.266  1.00  0.00     0.188 C 
BRANCH  61  62
ATOM     62  O   UNL     1       3.174   0.273   9.479  1.00  0.00    -0.376 OA
BRANCH  62  63
ATOM     63  C   UNL     1       4.482   0.026   9.963  1.00  0.00     0.202 C 
BRANCH  63  64
ATOM     64  C   UNL     1       5.733   0.499   9.175  1.00  0.00     0.261 C 
BRANCH  64  65
ATOM     65  O   UNL     1       5.620   0.928   7.802  1.00  0.00    -0.462 OA
BRANCH  65  66
ATOM     66  C   UNL     1       5.783  -0.003   6.822  1.00  0.00     0.334 C 
ATOM     67  O   UNL     1       5.931  -1.200   7.066  1.00  0.00    -0.250 OA
BRANCH  66  68
ATOM     68  C   UNL     1       5.793   0.567   5.355  1.00  0.00     0.249 C 
ATOM     69  C   UNL     1       4.983   1.823   4.933  1.00  0.00     0.298 C 
ATOM     70  N   UNL     1       7.171   0.866   4.935  1.00  0.00    -0.331 N 
ATOM     71  N   UNL     1       5.404   3.076   5.589  1.00  0.00    -0.343 N 
ATOM     72  C   UNL     1       7.772   2.019   5.601  1.00  0.00     0.180 C 
ATOM     73  C   UNL     1       6.856   3.268   5.393  1.00  0.00     0.282 C 
ATOM     74  H   UNL     1       5.198   3.024   6.587  1.00  0.00     0.346 HD
ATOM     75  H   UNL     1       4.898   3.862   5.180  1.00  0.00     0.346 HD
BRANCH  70  76
ATOM     76  C   UNL     1       7.884  -0.177   4.401  1.00  0.00     0.148 A 
ATOM     77  N   UNL     1       8.887  -0.691   5.144  1.00  0.00    -0.237 NA
ATOM     78  C   UNL     1       7.530  -0.748   3.160  1.00  0.00     0.084 A 
ATOM     79  C   UNL     1       9.502  -1.811   4.689  1.00  0.00     0.126 A 
ATOM     80  C   UNL     1       8.190  -1.884   2.709  1.00  0.00     0.039 A 
ATOM     81  Cl  UNL     1       6.318  -0.079   2.118  1.00  0.00    -0.080 Cl
ATOM     82  C   UNL     1       9.199  -2.440   3.490  1.00  0.00     0.075 A 
BRANCH  82  83
ATOM     83  C   UNL     1       9.944  -3.662   3.064  1.00  0.00     0.417 C 
ATOM     84  F   UNL     1      11.292  -3.480   3.076  1.00  0.00    -0.166 F 
ATOM     85  F   UNL     1       9.698  -4.731   3.867  1.00  0.00    -0.166 F 
ATOM     86  F   UNL     1       9.635  -4.066   1.800  1.00  0.00    -0.166 F 
ENDBRANCH  82  83
ENDBRANCH  70  76
ENDBRANCH  66  68
ENDBRANCH  65  66
ENDBRANCH  64  65
ENDBRANCH  63  64
ENDBRANCH  62  63
ENDBRANCH  61  62
ENDBRANCH  60  61
ENDBRANCH   1  60
TORSDOF 22
