REMARK SMILES O=C(CCCC[C@H](O)c1ccc(Cl)s1)OCCOCCOCCOCCOC(=O)c1ccc(-c2c3nc(c(-c4ccccc4)c4ccc([nH]4)c(-c4ccccc4)c4nc(c(-c5ccccc5)c5ccc2[nH]5)C=C4)C=C3)cc1
REMARK SMILES IDX 19 1 18 2 17 3 16 4 15 5 2 6 1 7 3 8 4 9 5 10 6 11 7 12 9 13
REMARK SMILES IDX 10 14 14 15 11 16 12 17 13 18 8 19 20 21 21 22 22 23 23 24
REMARK SMILES IDX 24 25 25 26 26 27 27 28 28 29 29 30 30 31 31 32 77 33 32 34
REMARK SMILES IDX 76 35 33 36 34 37 35 38 70 39 36 40 75 41 69 42 71 43 37 44
REMARK SMILES IDX 74 45 68 46 67 47 38 49 60 50 45 51 59 52 46 53 49 54 58 55
REMARK SMILES IDX 72 56 47 57 48 58 57 60 73 61 50 62 39 63 40 64 44 65 41 66
REMARK SMILES IDX 43 67 42 68 61 69 62 70 66 71 63 72 65 73 64 74 51 75 52 76
REMARK SMILES IDX 56 77 53 78 55 79 54 80
REMARK H PARENT 8 20 71 48 49 59
REMARK Flexibility Score: inf
ROOT
ATOM      1  C   UNL     1       8.800   3.033  -0.463  1.00  0.00     0.188 C 
ENDROOT
BRANCH   1   2
ATOM      2  O   UNL     1       8.532   2.084  -1.494  1.00  0.00    -0.376 OA
BRANCH   2   3
ATOM      3  C   UNL     1       9.137   2.288  -2.760  1.00  0.00     0.202 C 
BRANCH   3   4
ATOM      4  C   UNL     1       8.116   2.676  -3.807  1.00  0.00     0.261 C 
BRANCH   4   5
ATOM      5  O   UNL     1       7.372   3.850  -3.459  1.00  0.00    -0.463 OA
BRANCH   5   6
ATOM      6  C   UNL     1       6.315   3.957  -2.631  1.00  0.00     0.305 C 
ATOM      7  O   UNL     1       5.885   5.087  -2.393  1.00  0.00    -0.252 OA
BRANCH   6   8
ATOM      8  C   UNL     1       5.689   2.764  -1.926  1.00  0.00     0.123 C 
BRANCH   8   9
ATOM      9  C   UNL     1       4.783   1.812  -2.700  1.00  0.00     0.012 C 
BRANCH   9  10
ATOM     10  C   UNL     1       5.369   0.515  -3.283  1.00  0.00     0.004 C 
BRANCH  10  11
ATOM     11  C   UNL     1       6.344  -0.319  -2.431  1.00  0.00     0.037 C 
BRANCH  11  12
ATOM     12  C   UNL     1       5.688  -1.379  -1.530  1.00  0.00     0.154 C 
BRANCH  12  13
ATOM     13  C   UNL     1       6.724  -2.299  -0.934  1.00  0.00     0.035 A 
ATOM     14  C   UNL     1       7.732  -1.986  -0.037  1.00  0.00     0.020 A 
ATOM     15  S   UNL     1       6.752  -3.972  -1.326  1.00  0.00    -0.126 S 
ATOM     16  C   UNL     1       8.528  -3.116   0.317  1.00  0.00     0.033 A 
ATOM     17  C   UNL     1       8.075  -4.247  -0.307  1.00  0.00     0.093 A 
ATOM     18  Cl  UNL     1       8.716  -5.831  -0.137  1.00  0.00    -0.072 Cl
ENDBRANCH  12  13
BRANCH  12  19
ATOM     19  O   UNL     1       5.025  -0.793  -0.416  1.00  0.00    -0.388 OA
ATOM     20  H   UNL     1       5.672  -0.327   0.136  1.00  0.00     0.211 HD
ENDBRANCH  12  19
ENDBRANCH  11  12
ENDBRANCH  10  11
ENDBRANCH   9  10
ENDBRANCH   8   9
ENDBRANCH   6   8
ENDBRANCH   5   6
ENDBRANCH   4   5
ENDBRANCH   3   4
ENDBRANCH   2   3
ENDBRANCH   1   2
BRANCH   1  21
ATOM     21  C   UNL     1      10.266   3.404  -0.252  1.00  0.00     0.188 C 
BRANCH  21  22
ATOM     22  O   UNL     1      11.215   2.380   0.017  1.00  0.00    -0.377 OA
BRANCH  22  23
ATOM     23  C   UNL     1      10.917   1.025  -0.260  1.00  0.00     0.188 C 
BRANCH  23  24
ATOM     24  C   UNL     1      10.607   0.148   0.956  1.00  0.00     0.188 C 
BRANCH  24  25
ATOM     25  O   UNL     1       9.803   0.694   1.983  1.00  0.00    -0.376 OA
BRANCH  25  26
ATOM     26  C   UNL     1      10.343   1.773   2.746  1.00  0.00     0.202 C 
BRANCH  26  27
ATOM     27  C   UNL     1      11.835   1.800   3.152  1.00  0.00     0.261 C 
BRANCH  27  28
ATOM     28  O   UNL     1      12.775   1.744   2.058  1.00  0.00    -0.460 OA
BRANCH  28  29
ATOM     29  C   UNL     1      13.588   0.658   2.020  1.00  0.00     0.338 C 
ATOM     30  O   UNL     1      13.685  -0.210   2.866  1.00  0.00    -0.246 OA
BRANCH  29  31
ATOM     31  C   UNL     1      14.200   0.507   0.677  1.00  0.00     0.060 A 
ATOM     32  C   UNL     1      13.938  -0.678  -0.035  1.00  0.00     0.016 A 
ATOM     33  C   UNL     1      15.087   1.450   0.160  1.00  0.00     0.016 A 
ATOM     34  C   UNL     1      14.590  -0.943  -1.238  1.00  0.00     0.010 A 
ATOM     35  C   UNL     1      15.780   1.161  -1.025  1.00  0.00     0.010 A 
ATOM     36  C   UNL     1      15.572  -0.059  -1.699  1.00  0.00    -0.014 A 
BRANCH  36  37
ATOM     37  C   UNL     1      16.579  -0.568  -2.667  1.00  0.00     0.031 A 
ATOM     38  C   UNL     1      17.832  -1.189  -2.099  1.00  0.00     0.074 A 
ATOM     39  C   UNL     1      16.384  -0.548  -3.997  1.00  0.00     0.049 A 
ATOM     40  N   UNL     1      18.857  -1.717  -2.718  1.00  0.00    -0.248 NA
ATOM     41  C   UNL     1      17.937  -1.217  -0.630  1.00  0.00     0.031 C 
ATOM     42  C   UNL     1      15.193  -0.044  -4.676  1.00  0.00     0.029 A 
ATOM     43  N   UNL     1      17.199  -0.977  -5.016  1.00  0.00    -0.354 N 
ATOM     44  C   UNL     1      19.730  -2.123  -1.715  1.00  0.00     0.074 A 
ATOM     45  C   UNL     1      19.130  -1.757  -0.452  1.00  0.00     0.031 C 
ATOM     46  C   UNL     1      15.357  -0.191  -6.004  1.00  0.00     0.029 A 
ATOM     47  C   UNL     1      16.673  -0.771  -6.268  1.00  0.00     0.049 A 
ATOM     48  H   UNL     1      18.079  -1.392  -4.864  1.00  0.00     0.167 HD
ATOM     49  C   UNL     1      20.926  -2.748  -1.828  1.00  0.00     0.031 A 
ATOM     50  C   UNL     1      17.202  -1.014  -7.485  1.00  0.00     0.031 A 
ATOM     51  C   UNL     1      21.536  -3.099  -3.080  1.00  0.00     0.049 A 
ATOM     52  C   UNL     1      18.576  -1.630  -7.588  1.00  0.00     0.074 A 
ATOM     53  C   UNL     1      22.739  -3.746  -3.301  1.00  0.00     0.029 A 
ATOM     54  N   UNL     1      20.995  -2.819  -4.325  1.00  0.00    -0.354 N 
ATOM     55  N   UNL     1      19.380  -2.034  -6.634  1.00  0.00    -0.248 NA
ATOM     56  C   UNL     1      19.108  -1.835  -8.944  1.00  0.00     0.031 C 
ATOM     57  C   UNL     1      22.959  -3.795  -4.681  1.00  0.00     0.029 A 
ATOM     58  C   UNL     1      21.856  -3.251  -5.320  1.00  0.00     0.049 A 
ATOM     59  H   UNL     1      20.128  -2.379  -4.479  1.00  0.00     0.167 HD
ATOM     60  C   UNL     1      20.489  -2.578  -7.274  1.00  0.00     0.074 A 
ATOM     61  C   UNL     1      20.249  -2.462  -8.697  1.00  0.00     0.031 C 
ATOM     62  C   UNL     1      21.604  -3.131  -6.733  1.00  0.00     0.031 A 
BRANCH  49  63
ATOM     63  C   UNL     1      21.674  -3.038  -0.555  1.00  0.00    -0.014 A 
ATOM     64  C   UNL     1      21.221  -3.996   0.367  1.00  0.00     0.009 A 
ATOM     65  C   UNL     1      22.861  -2.341  -0.279  1.00  0.00     0.009 A 
ATOM     66  C   UNL     1      21.919  -4.217   1.557  1.00  0.00     0.001 A 
ATOM     67  C   UNL     1      23.574  -2.589   0.894  1.00  0.00     0.001 A 
ATOM     68  C   UNL     1      23.097  -3.518   1.817  1.00  0.00     0.000 A 
ENDBRANCH  49  63
BRANCH  50  69
ATOM     69  C   UNL     1      16.442  -0.673  -8.719  1.00  0.00    -0.014 A 
ATOM     70  C   UNL     1      15.985  -1.682  -9.582  1.00  0.00     0.009 A 
ATOM     71  C   UNL     1      16.209   0.667  -9.066  1.00  0.00     0.009 A 
ATOM     72  C   UNL     1      15.338  -1.356 -10.777  1.00  0.00     0.001 A 
ATOM     73  C   UNL     1      15.534   0.989 -10.246  1.00  0.00     0.001 A 
ATOM     74  C   UNL     1      15.109  -0.022 -11.106  1.00  0.00     0.000 A 
ENDBRANCH  50  69
BRANCH  62  75
ATOM     75  C   UNL     1      22.622  -3.709  -7.680  1.00  0.00    -0.014 A 
ATOM     76  C   UNL     1      23.401  -2.895  -8.517  1.00  0.00     0.009 A 
ATOM     77  C   UNL     1      22.826  -5.099  -7.708  1.00  0.00     0.009 A 
ATOM     78  C   UNL     1      24.328  -3.464  -9.394  1.00  0.00     0.001 A 
ATOM     79  C   UNL     1      23.779  -5.662  -8.558  1.00  0.00     0.001 A 
ATOM     80  C   UNL     1      24.519  -4.846  -9.411  1.00  0.00     0.000 A 
ENDBRANCH  62  75
ENDBRANCH  36  37
ENDBRANCH  29  31
ENDBRANCH  28  29
ENDBRANCH  27  28
ENDBRANCH  26  27
ENDBRANCH  25  26
ENDBRANCH  24  25
ENDBRANCH  23  24
ENDBRANCH  22  23
ENDBRANCH  21  22
ENDBRANCH   1  21
TORSDOF 26
