REMARK SMILES O=C(OCCOCCOCCOCCOC(=O)c1cccc2c1cc(Br)c1ccccc12)c1ccc(-c2c3nc(c(-c4ccccc4)c4ccc([nH]4)c(-c4ccccc4)c4nc(c(-c5ccccc5)c5ccc2[nH]5)C=C4)C=C3)cc1
REMARK SMILES IDX 8 1 7 2 6 3 5 4 4 5 3 6 2 7 1 8 33 9 34 10 80 11 35 12 79 13
REMARK SMILES IDX 36 14 37 15 38 16 73 17 39 18 78 19 72 20 74 21 40 22 77 23
REMARK SMILES IDX 71 24 70 25 41 27 63 28 48 29 62 30 49 31 52 32 61 33 75 34
REMARK SMILES IDX 50 35 51 36 60 38 76 39 53 40 42 41 43 42 47 43 44 44 46 45
REMARK SMILES IDX 45 46 64 47 65 48 69 49 66 50 68 51 67 52 54 53 55 54 59 55
REMARK SMILES IDX 56 56 58 57 57 58 9 59 10 60 11 61 12 62 13 63 14 64 15 65
REMARK SMILES IDX 16 66 17 67 18 68 19 69 23 70 20 71 22 72 24 73 21 74 32 75
REMARK SMILES IDX 25 76 27 77 31 78 26 79 28 80 30 81 29 82
REMARK H PARENT 74 26 52 37
REMARK Flexibility Score: inf
ROOT
ATOM      1  C   UNL     1       1.629   0.761  -2.150  1.00  0.00     0.188 C 
ENDROOT
BRANCH   1   2
ATOM      2  C   UNL     1       2.161   0.030  -0.921  1.00  0.00     0.188 C 
BRANCH   2   3
ATOM      3  O   UNL     1       3.544   0.298  -0.674  1.00  0.00    -0.376 OA
BRANCH   3   4
ATOM      4  C   UNL     1       4.362  -0.866  -0.577  1.00  0.00     0.202 C 
BRANCH   4   5
ATOM      5  C   UNL     1       4.343  -1.581   0.770  1.00  0.00     0.261 C 
BRANCH   5   6
ATOM      6  O   UNL     1       3.090  -1.527   1.462  1.00  0.00    -0.460 OA
BRANCH   6   7
ATOM      7  C   UNL     1       2.584  -0.531   2.227  1.00  0.00     0.338 C 
ATOM      8  O   UNL     1       1.560  -0.764   2.869  1.00  0.00    -0.246 OA
BRANCH   7   9
ATOM      9  C   UNL     1       3.111   0.875   2.251  1.00  0.00     0.060 A 
ATOM     10  C   UNL     1       2.187   1.872   2.625  1.00  0.00     0.016 A 
ATOM     11  C   UNL     1       4.418   1.275   1.958  1.00  0.00     0.016 A 
ATOM     12  C   UNL     1       2.564   3.214   2.723  1.00  0.00     0.010 A 
ATOM     13  C   UNL     1       4.795   2.618   2.017  1.00  0.00     0.010 A 
ATOM     14  C   UNL     1       3.881   3.585   2.439  1.00  0.00    -0.014 A 
BRANCH  14  15
ATOM     15  C   UNL     1       4.393   4.905   2.849  1.00  0.00     0.031 A 
ATOM     16  C   UNL     1       4.513   6.043   1.891  1.00  0.00     0.074 A 
ATOM     17  C   UNL     1       4.812   5.009   4.124  1.00  0.00     0.049 A 
ATOM     18  N   UNL     1       4.858   7.279   2.144  1.00  0.00    -0.248 NA
ATOM     19  C   UNL     1       4.220   5.772   0.476  1.00  0.00     0.031 C 
ATOM     20  C   UNL     1       4.778   3.917   5.104  1.00  0.00     0.029 A 
ATOM     21  N   UNL     1       5.347   6.060   4.817  1.00  0.00    -0.354 N 
ATOM     22  C   UNL     1       4.798   7.944   0.928  1.00  0.00     0.074 A 
ATOM     23  C   UNL     1       4.426   6.965  -0.072  1.00  0.00     0.031 C 
ATOM     24  C   UNL     1       5.259   4.359   6.273  1.00  0.00     0.029 A 
ATOM     25  C   UNL     1       5.636   5.759   6.126  1.00  0.00     0.049 A 
ATOM     26  H   UNL     1       5.510   6.945   4.417  1.00  0.00     0.167 HD
ATOM     27  C   UNL     1       5.024   9.258   0.693  1.00  0.00     0.031 A 
ATOM     28  C   UNL     1       6.126   6.533   7.110  1.00  0.00     0.031 A 
ATOM     29  C   UNL     1       5.435  10.192   1.713  1.00  0.00     0.049 A 
ATOM     30  C   UNL     1       6.362   7.984   6.818  1.00  0.00     0.074 A 
ATOM     31  C   UNL     1       5.649  11.554   1.595  1.00  0.00     0.029 A 
ATOM     32  N   UNL     1       5.707   9.857   3.032  1.00  0.00    -0.354 N 
ATOM     33  N   UNL     1       6.191   8.631   5.689  1.00  0.00    -0.248 NA
ATOM     34  C   UNL     1       6.816   8.822   7.933  1.00  0.00     0.031 C 
ATOM     35  C   UNL     1       6.112  12.030   2.823  1.00  0.00     0.029 A 
ATOM     36  C   UNL     1       6.110  10.982   3.730  1.00  0.00     0.049 A 
ATOM     37  H   UNL     1       5.626   8.953   3.414  1.00  0.00     0.167 HD
ATOM     38  C   UNL     1       6.478   9.958   5.966  1.00  0.00     0.074 A 
ATOM     39  C   UNL     1       6.826  10.025   7.372  1.00  0.00     0.031 C 
ATOM     40  C   UNL     1       6.448  11.025   5.131  1.00  0.00     0.031 A 
BRANCH  27  41
ATOM     41  C   UNL     1       4.822   9.791  -0.700  1.00  0.00    -0.014 A 
ATOM     42  C   UNL     1       5.910  10.310  -1.422  1.00  0.00     0.009 A 
ATOM     43  C   UNL     1       3.531   9.923  -1.236  1.00  0.00     0.009 A 
ATOM     44  C   UNL     1       5.707  10.975  -2.634  1.00  0.00     0.001 A 
ATOM     45  C   UNL     1       3.334  10.566  -2.462  1.00  0.00     0.001 A 
ATOM     46  C   UNL     1       4.420  11.103  -3.152  1.00  0.00     0.000 A 
ENDBRANCH  27  41
BRANCH  28  47
ATOM     47  C   UNL     1       6.313   5.952   8.464  1.00  0.00    -0.014 A 
ATOM     48  C   UNL     1       7.297   4.977   8.698  1.00  0.00     0.009 A 
ATOM     49  C   UNL     1       5.443   6.299   9.509  1.00  0.00     0.009 A 
ATOM     50  C   UNL     1       7.392   4.348   9.942  1.00  0.00     0.001 A 
ATOM     51  C   UNL     1       5.561   5.691  10.761  1.00  0.00     0.001 A 
ATOM     52  C   UNL     1       6.527   4.709  10.973  1.00  0.00     0.000 A 
ENDBRANCH  28  47
BRANCH  40  53
ATOM     53  C   UNL     1       6.776  12.371   5.714  1.00  0.00    -0.014 A 
ATOM     54  C   UNL     1       5.770  13.347   5.804  1.00  0.00     0.009 A 
ATOM     55  C   UNL     1       8.089  12.707   6.074  1.00  0.00     0.009 A 
ATOM     56  C   UNL     1       6.076  14.640   6.229  1.00  0.00     0.001 A 
ATOM     57  C   UNL     1       8.385  13.993   6.530  1.00  0.00     0.001 A 
ATOM     58  C   UNL     1       7.382  14.960   6.596  1.00  0.00     0.000 A 
ENDBRANCH  40  53
ENDBRANCH  14  15
ENDBRANCH   7   9
ENDBRANCH   6   7
ENDBRANCH   5   6
ENDBRANCH   4   5
ENDBRANCH   3   4
ENDBRANCH   2   3
ENDBRANCH   1   2
BRANCH   1  59
ATOM     59  O   UNL     1       2.141   0.347  -3.404  1.00  0.00    -0.377 OA
BRANCH  59  60
ATOM     60  C   UNL     1       3.545   0.349  -3.587  1.00  0.00     0.188 C 
BRANCH  60  61
ATOM     61  C   UNL     1       4.384   1.598  -3.238  1.00  0.00     0.188 C 
BRANCH  61  62
ATOM     62  O   UNL     1       3.803   2.888  -3.204  1.00  0.00    -0.376 OA
BRANCH  62  63
ATOM     63  C   UNL     1       2.947   3.279  -4.263  1.00  0.00     0.202 C 
BRANCH  63  64
ATOM     64  C   UNL     1       3.438   3.172  -5.717  1.00  0.00     0.261 C 
BRANCH  64  65
ATOM     65  O   UNL     1       3.836   1.850  -6.122  1.00  0.00    -0.460 OA
BRANCH  65  66
ATOM     66  C   UNL     1       5.141   1.661  -6.459  1.00  0.00     0.338 C 
ATOM     67  O   UNL     1       6.020   2.505  -6.483  1.00  0.00    -0.246 OA
BRANCH  66  68
ATOM     68  C   UNL     1       5.373   0.205  -6.683  1.00  0.00     0.067 A 
ATOM     69  C   UNL     1       4.571  -0.410  -7.649  1.00  0.00     0.016 A 
ATOM     70  C   UNL     1       6.296  -0.552  -5.889  1.00  0.00    -0.002 A 
ATOM     71  C   UNL     1       4.683  -1.772  -7.858  1.00  0.00     0.002 A 
ATOM     72  C   UNL     1       6.402  -1.956  -6.086  1.00  0.00    -0.010 A 
ATOM     73  C   UNL     1       7.080   0.015  -4.868  1.00  0.00     0.026 A 
ATOM     74  C   UNL     1       5.582  -2.522  -7.097  1.00  0.00     0.009 A 
ATOM     75  C   UNL     1       7.286  -2.751  -5.257  1.00  0.00    -0.009 A 
ATOM     76  C   UNL     1       7.843  -0.761  -3.990  1.00  0.00     0.026 A 
ATOM     77  C   UNL     1       7.969  -2.151  -4.165  1.00  0.00    -0.004 A 
ATOM     78  C   UNL     1       7.511  -4.139  -5.465  1.00  0.00     0.009 A 
ATOM     79  Br  UNL     1       8.663   0.180  -2.545  1.00  0.00    -0.050 Br
ATOM     80  C   UNL     1       8.758  -2.968  -3.310  1.00  0.00     0.010 A 
ATOM     81  C   UNL     1       8.324  -4.913  -4.633  1.00  0.00     0.001 A 
ATOM     82  C   UNL     1       8.933  -4.330  -3.540  1.00  0.00     0.001 A 
ENDBRANCH  66  68
ENDBRANCH  65  66
ENDBRANCH  64  65
ENDBRANCH  63  64
ENDBRANCH  62  63
ENDBRANCH  61  62
ENDBRANCH  60  61
ENDBRANCH  59  60
ENDBRANCH   1  59
TORSDOF 20
