REMARK SMILES O=C(OCCOCCOCCOCCOC(=O)c1[nH]ncc1C[NH+]1CCC([N@H+]2CCC[C@@H](C(=O)N3CCCC3)C2)CC1)c1ccc(-c2c3nc(c(-c4ccccc4)c4ccc([nH]4)c(-c4ccccc4)c4nc(c(-c5ccccc5)c5ccc2[nH]5)C=C4)C=C3)cc1
REMARK SMILES IDX 10 1 9 2 8 3 7 4 6 5 5 6 4 7 3 8 2 9 1 10 43 11 44 12 90 13
REMARK SMILES IDX 45 14 89 15 46 16 47 17 48 18 83 19 49 20 88 21 82 22 84 23
REMARK SMILES IDX 50 24 87 25 81 26 80 27 51 29 73 30 58 31 72 32 59 33 62 34
REMARK SMILES IDX 71 35 85 36 60 37 61 38 70 40 86 41 63 42 52 43 53 44 57 45
REMARK SMILES IDX 54 46 56 47 55 48 74 49 75 50 79 51 76 52 78 53 77 54 64 55
REMARK SMILES IDX 65 56 69 57 66 58 68 59 67 60 11 61 12 62 13 63 14 64 15 65
REMARK SMILES IDX 16 66 17 67 18 68 19 69 22 70 20 71 21 73 23 74 24 75 25 76
REMARK SMILES IDX 42 77 26 79 41 80 27 81 28 82 29 83 40 84 30 86 32 87 31 88
REMARK SMILES IDX 33 89 34 90 35 91 36 92 39 93 37 94 38 95
REMARK H PARENT 84 28 62 39 19 72 24 78 28 85
REMARK Flexibility Score: inf
ROOT
ATOM      1  C   UNL     1       3.850   2.933   2.159  1.00  0.00     0.188 C 
ENDROOT
BRANCH   1   2
ATOM      2  O   UNL     1       2.435   3.009   2.298  1.00  0.00    -0.377 OA
BRANCH   2   3
ATOM      3  C   UNL     1       1.696   1.907   1.770  1.00  0.00     0.188 C 
BRANCH   3   4
ATOM      4  C   UNL     1       2.092   1.502   0.348  1.00  0.00     0.188 C 
BRANCH   4   5
ATOM      5  O   UNL     1       3.400   0.919   0.349  1.00  0.00    -0.376 OA
BRANCH   5   6
ATOM      6  C   UNL     1       4.214   1.244  -0.778  1.00  0.00     0.202 C 
BRANCH   6   7
ATOM      7  C   UNL     1       4.038   0.279  -1.949  1.00  0.00     0.261 C 
BRANCH   7   8
ATOM      8  O   UNL     1       2.691  -0.204  -2.048  1.00  0.00    -0.460 OA
BRANCH   8   9
ATOM      9  C   UNL     1       2.158  -1.296  -1.445  1.00  0.00     0.338 C 
ATOM     10  O   UNL     1       0.966  -1.541  -1.629  1.00  0.00    -0.246 OA
BRANCH   9  11
ATOM     11  C   UNL     1       2.939  -2.260  -0.606  1.00  0.00     0.060 A 
ATOM     12  C   UNL     1       4.079  -1.952   0.140  1.00  0.00     0.016 A 
ATOM     13  C   UNL     1       2.441  -3.572  -0.520  1.00  0.00     0.016 A 
ATOM     14  C   UNL     1       4.753  -2.915   0.874  1.00  0.00     0.010 A 
ATOM     15  C   UNL     1       3.094  -4.546   0.243  1.00  0.00     0.010 A 
ATOM     16  C   UNL     1       4.275  -4.219   0.916  1.00  0.00    -0.014 A 
BRANCH  16  17
ATOM     17  C   UNL     1       5.145  -5.234   1.533  1.00  0.00     0.031 A 
ATOM     18  C   UNL     1       5.950  -6.111   0.621  1.00  0.00     0.074 A 
ATOM     19  C   UNL     1       5.346  -5.224   2.863  1.00  0.00     0.049 A 
ATOM     20  N   UNL     1       6.789  -7.065   0.917  1.00  0.00    -0.248 NA
ATOM     21  C   UNL     1       5.809  -5.859  -0.826  1.00  0.00     0.031 C 
ATOM     22  C   UNL     1       4.720  -4.291   3.805  1.00  0.00     0.029 A 
ATOM     23  N   UNL     1       6.168  -5.988   3.646  1.00  0.00    -0.354 N 
ATOM     24  C   UNL     1       7.255  -7.541  -0.301  1.00  0.00     0.074 A 
ATOM     25  C   UNL     1       6.608  -6.778  -1.342  1.00  0.00     0.031 C 
ATOM     26  C   UNL     1       5.207  -4.521   5.036  1.00  0.00     0.029 A 
ATOM     27  C   UNL     1       6.119  -5.658   4.978  1.00  0.00     0.049 A 
ATOM     28  H   UNL     1       6.740  -6.705   3.288  1.00  0.00     0.167 HD
ATOM     29  C   UNL     1       8.143  -8.536  -0.524  1.00  0.00     0.031 A 
ATOM     30  C   UNL     1       6.722  -6.241   6.030  1.00  0.00     0.031 A 
ATOM     31  C   UNL     1       8.758  -9.288   0.531  1.00  0.00     0.049 A 
ATOM     32  C   UNL     1       7.603  -7.431   5.759  1.00  0.00     0.074 A 
ATOM     33  C   UNL     1       9.592 -10.386   0.445  1.00  0.00     0.029 A 
ATOM     34  N   UNL     1       8.600  -9.002   1.881  1.00  0.00    -0.354 N 
ATOM     35  N   UNL     1       7.966  -7.944   4.606  1.00  0.00    -0.248 NA
ATOM     36  C   UNL     1       8.144  -8.132   6.929  1.00  0.00     0.031 C 
ATOM     37  C   UNL     1       9.904 -10.792   1.748  1.00  0.00     0.029 A 
ATOM     38  C   UNL     1       9.308  -9.912   2.641  1.00  0.00     0.049 A 
ATOM     39  H   UNL     1       8.063  -8.261   2.242  1.00  0.00     0.167 HD
ATOM     40  C   UNL     1       8.782  -9.024   4.911  1.00  0.00     0.074 A 
ATOM     41  C   UNL     1       8.888  -9.067   6.357  1.00  0.00     0.031 C 
ATOM     42  C   UNL     1       9.382  -9.912   4.080  1.00  0.00     0.031 A 
BRANCH  29  43
ATOM     43  C   UNL     1       8.411  -8.900  -1.955  1.00  0.00    -0.014 A 
ATOM     44  C   UNL     1       9.190  -8.081  -2.789  1.00  0.00     0.009 A 
ATOM     45  C   UNL     1       7.838 -10.064  -2.489  1.00  0.00     0.009 A 
ATOM     46  C   UNL     1       9.361  -8.406  -4.138  1.00  0.00     0.001 A 
ATOM     47  C   UNL     1       8.030 -10.398  -3.831  1.00  0.00     0.001 A 
ATOM     48  C   UNL     1       8.782  -9.564  -4.656  1.00  0.00     0.000 A 
ENDBRANCH  29  43
BRANCH  30  49
ATOM     49  C   UNL     1       6.450  -5.781   7.420  1.00  0.00    -0.014 A 
ATOM     50  C   UNL     1       7.473  -5.271   8.233  1.00  0.00     0.009 A 
ATOM     51  C   UNL     1       5.157  -5.892   7.960  1.00  0.00     0.009 A 
ATOM     52  C   UNL     1       7.215  -4.915   9.561  1.00  0.00     0.001 A 
ATOM     53  C   UNL     1       4.893  -5.504   9.275  1.00  0.00     0.001 A 
ATOM     54  C   UNL     1       5.926  -5.029  10.080  1.00  0.00     0.000 A 
ENDBRANCH  30  49
BRANCH  42  55
ATOM     55  C   UNL     1      10.219 -10.975   4.727  1.00  0.00    -0.014 A 
ATOM     56  C   UNL     1       9.626 -12.046   5.410  1.00  0.00     0.009 A 
ATOM     57  C   UNL     1      11.616 -10.918   4.617  1.00  0.00     0.009 A 
ATOM     58  C   UNL     1      10.422 -13.025   6.005  1.00  0.00     0.001 A 
ATOM     59  C   UNL     1      12.408 -11.914   5.186  1.00  0.00     0.001 A 
ATOM     60  C   UNL     1      11.811 -12.960   5.888  1.00  0.00     0.000 A 
ENDBRANCH  42  55
ENDBRANCH  16  17
ENDBRANCH   9  11
ENDBRANCH   8   9
ENDBRANCH   7   8
ENDBRANCH   6   7
ENDBRANCH   5   6
ENDBRANCH   4   5
ENDBRANCH   3   4
ENDBRANCH   2   3
ENDBRANCH   1   2
BRANCH   1  61
ATOM     61  C   UNL     1       4.588   1.781   2.874  1.00  0.00     0.188 C 
BRANCH  61  62
ATOM     62  O   UNL     1       3.728   0.882   3.557  1.00  0.00    -0.376 OA
BRANCH  62  63
ATOM     63  C   UNL     1       3.738   0.948   4.978  1.00  0.00     0.202 C 
BRANCH  63  64
ATOM     64  C   UNL     1       3.142   2.211   5.622  1.00  0.00     0.261 C 
BRANCH  64  65
ATOM     65  O   UNL     1       3.651   3.466   5.145  1.00  0.00    -0.459 OA
BRANCH  65  66
ATOM     66  C   UNL     1       4.954   3.773   5.348  1.00  0.00     0.356 C 
ATOM     67  O   UNL     1       5.740   3.118   6.019  1.00  0.00    -0.244 OA
BRANCH  66  68
ATOM     68  C   UNL     1       5.310   4.849   4.461  1.00  0.00     0.152 A 
ATOM     69  N   UNL     1       6.501   4.897   3.791  1.00  0.00    -0.271 N 
ATOM     70  C   UNL     1       4.605   5.970   4.027  1.00  0.00     0.059 A 
ATOM     71  N   UNL     1       6.530   5.812   2.806  1.00  0.00    -0.183 NA
ATOM     72  H   UNL     1       7.266   4.317   4.010  1.00  0.00     0.190 HD
ATOM     73  C   UNL     1       5.386   6.479   2.964  1.00  0.00     0.145 A 
BRANCH  70  74
ATOM     74  C   UNL     1       3.331   6.535   4.567  1.00  0.00     0.303 C 
BRANCH  74  75
ATOM     75  N   UNL     1       3.594   7.393   5.741  1.00  0.00    -0.331 N 
ATOM     76  C   UNL     1       4.267   6.657   6.817  1.00  0.00     0.268 C 
ATOM     77  C   UNL     1       4.304   8.629   5.381  1.00  0.00     0.268 C 
ATOM     78  H   UNL     1       2.685   7.680   6.105  1.00  0.00     0.348 HD
ATOM     79  C   UNL     1       4.484   7.500   8.056  1.00  0.00     0.126 C 
ATOM     80  C   UNL     1       4.531   9.533   6.594  1.00  0.00     0.126 C 
ATOM     81  C   UNL     1       5.278   8.765   7.694  1.00  0.00     0.195 C 
BRANCH  81  82
ATOM     82  N   UNL     1       5.636   9.620   8.847  1.00  0.00    -0.331 N 
ATOM     83  C   UNL     1       4.479  10.058   9.639  1.00  0.00     0.262 C 
ATOM     84  C   UNL     1       6.624   8.923   9.692  1.00  0.00     0.275 C 
ATOM     85  H   UNL     1       6.045  10.475   8.469  1.00  0.00     0.348 HD
ATOM     86  C   UNL     1       4.903  10.942  10.813  1.00  0.00     0.062 C 
ATOM     87  C   UNL     1       7.113   9.793  10.853  1.00  0.00     0.134 C 
ATOM     88  C   UNL     1       5.926  10.236  11.703  1.00  0.00     0.025 C 
BRANCH  87  89
ATOM     89  C   UNL     1       8.158   8.996  11.624  1.00  0.00     0.231 C 
ATOM     90  O   UNL     1       8.200   7.765  11.578  1.00  0.00    -0.274 OA
ATOM     91  N   UNL     1       9.124   9.711  12.288  1.00  0.00    -0.342 N 
ATOM     92  C   UNL     1       9.098  11.099  12.707  1.00  0.00     0.119 C 
ATOM     93  C   UNL     1      10.409   9.099  12.571  1.00  0.00     0.119 C 
ATOM     94  C   UNL     1      10.559  11.502  12.675  1.00  0.00     0.023 C 
ATOM     95  C   UNL     1      11.285  10.228  13.099  1.00  0.00     0.023 C 
ENDBRANCH  87  89
ENDBRANCH  81  82
ENDBRANCH  74  75
ENDBRANCH  70  74
ENDBRANCH  66  68
ENDBRANCH  65  66
ENDBRANCH  64  65
ENDBRANCH  63  64
ENDBRANCH  62  63
ENDBRANCH  61  62
ENDBRANCH   1  61
TORSDOF 24
