REMARK SMILES O=C(/C=C/c1ccc(Br)cc1-n1ccnc1)OCCOCCOCCOCCOC(=O)c1ccc(-c2c3nc(c(-c4ccccc4)c4ccc([nH]4)c(-c4ccccc4)c4nc(c(-c5ccccc5)c5ccc2[nH]5)C=C4)C=C3)cc1
REMARK SMILES IDX 23 1 22 2 21 3 20 4 19 5 18 6 17 7 2 8 1 9 3 10 4 11 5 12
REMARK SMILES IDX 6 13 11 14 7 15 10 16 8 17 9 18 12 19 13 20 16 21 14 22
REMARK SMILES IDX 15 23 24 24 25 25 26 26 27 27 28 28 29 29 30 30 31 31 32 32
REMARK SMILES IDX 33 33 79 34 34 35 78 36 35 37 36 38 37 39 72 40 38 41 77 42
REMARK SMILES IDX 71 43 73 44 39 45 76 46 70 47 69 48 40 50 62 51 47 52 61 53
REMARK SMILES IDX 48 54 51 55 60 56 74 57 49 58 50 59 59 61 75 62 52 63 41 64
REMARK SMILES IDX 42 65 46 66 43 67 45 68 44 69 63 70 64 71 68 72 65 73 67 74
REMARK SMILES IDX 66 75 53 76 54 77 58 78 55 79 57 80 56 81
REMARK H PARENT 73 49 51 60
REMARK Flexibility Score: inf
ROOT
ATOM      1  O   UNL     1       2.325   3.388   1.235  1.00  0.00    -0.377 OA
ENDROOT
BRANCH   1   2
ATOM      2  C   UNL     1       1.739   2.300   0.537  1.00  0.00     0.188 C 
BRANCH   2   3
ATOM      3  C   UNL     1       2.402   0.941   0.761  1.00  0.00     0.188 C 
BRANCH   3   4
ATOM      4  O   UNL     1       3.815   0.840   0.727  1.00  0.00    -0.376 OA
BRANCH   4   5
ATOM      5  C   UNL     1       4.562   0.852  -0.473  1.00  0.00     0.202 C 
BRANCH   5   6
ATOM      6  C   UNL     1       4.223  -0.071  -1.638  1.00  0.00     0.261 C 
BRANCH   6   7
ATOM      7  O   UNL     1       3.151  -1.010  -1.523  1.00  0.00    -0.460 OA
BRANCH   7   8
ATOM      8  C   UNL     1       2.927  -1.968  -0.611  1.00  0.00     0.330 C 
ATOM      9  O   UNL     1       1.925  -2.673  -0.708  1.00  0.00    -0.247 OA
BRANCH   8  10
ATOM     10  C   UNL     1       3.752  -2.120   0.593  1.00  0.00     0.094 C 
ATOM     11  C   UNL     1       5.086  -2.080   0.730  1.00  0.00     0.018 C 
BRANCH  11  12
ATOM     12  C   UNL     1       5.721  -2.446   2.010  1.00  0.00    -0.001 A 
ATOM     13  C   UNL     1       5.351  -3.675   2.591  1.00  0.00     0.011 A 
ATOM     14  C   UNL     1       6.688  -1.684   2.688  1.00  0.00     0.055 A 
ATOM     15  C   UNL     1       5.943  -4.138   3.770  1.00  0.00     0.016 A 
ATOM     16  C   UNL     1       7.295  -2.148   3.868  1.00  0.00     0.043 A 
ATOM     17  C   UNL     1       6.931  -3.382   4.390  1.00  0.00     0.020 A 
ATOM     18  Br  UNL     1       7.788  -4.037   5.939  1.00  0.00    -0.051 Br
BRANCH  14  19
ATOM     19  N   UNL     1       7.043  -0.382   2.292  1.00  0.00    -0.306 N 
ATOM     20  C   UNL     1       6.795   0.750   3.025  1.00  0.00     0.113 A 
ATOM     21  C   UNL     1       8.002  -0.043   1.370  1.00  0.00     0.204 A 
ATOM     22  C   UNL     1       7.573   1.734   2.467  1.00  0.00     0.131 A 
ATOM     23  N   UNL     1       8.310   1.237   1.423  1.00  0.00    -0.245 NA
ENDBRANCH  14  19
ENDBRANCH  11  12
ENDBRANCH   8  10
ENDBRANCH   7   8
ENDBRANCH   6   7
ENDBRANCH   5   6
ENDBRANCH   4   5
ENDBRANCH   3   4
ENDBRANCH   2   3
ENDBRANCH   1   2
BRANCH   1  24
ATOM     24  C   UNL     1       3.523   3.858   0.649  1.00  0.00     0.188 C 
BRANCH  24  25
ATOM     25  C   UNL     1       4.809   3.648   1.468  1.00  0.00     0.188 C 
BRANCH  25  26
ATOM     26  O   UNL     1       4.863   3.140   2.796  1.00  0.00    -0.376 OA
BRANCH  26  27
ATOM     27  C   UNL     1       3.719   2.861   3.580  1.00  0.00     0.202 C 
BRANCH  27  28
ATOM     28  C   UNL     1       3.001   4.051   4.208  1.00  0.00     0.261 C 
BRANCH  28  29
ATOM     29  O   UNL     1       3.084   5.211   3.407  1.00  0.00    -0.460 OA
BRANCH  29  30
ATOM     30  C   UNL     1       4.265   5.862   3.471  1.00  0.00     0.338 C 
ATOM     31  O   UNL     1       5.211   5.641   4.200  1.00  0.00    -0.246 OA
BRANCH  30  32
ATOM     32  C   UNL     1       4.187   6.969   2.508  1.00  0.00     0.060 A 
ATOM     33  C   UNL     1       5.281   7.831   2.434  1.00  0.00     0.016 A 
ATOM     34  C   UNL     1       2.970   7.247   1.864  1.00  0.00     0.016 A 
ATOM     35  C   UNL     1       5.068   9.096   1.939  1.00  0.00     0.010 A 
ATOM     36  C   UNL     1       2.750   8.510   1.390  1.00  0.00     0.010 A 
ATOM     37  C   UNL     1       3.773   9.438   1.539  1.00  0.00    -0.014 A 
BRANCH  37  38
ATOM     38  C   UNL     1       3.450  10.836   1.425  1.00  0.00     0.031 A 
ATOM     39  C   UNL     1       3.601  11.416   0.088  1.00  0.00     0.074 A 
ATOM     40  C   UNL     1       2.924  11.503   2.467  1.00  0.00     0.049 A 
ATOM     41  N   UNL     1       4.496  12.258  -0.298  1.00  0.00    -0.248 NA
ATOM     42  C   UNL     1       2.724  10.913  -0.978  1.00  0.00     0.031 C 
ATOM     43  C   UNL     1       2.401  10.949   3.720  1.00  0.00     0.029 A 
ATOM     44  N   UNL     1       2.640  12.826   2.562  1.00  0.00    -0.354 N 
ATOM     45  C   UNL     1       4.182  12.541  -1.618  1.00  0.00     0.074 A 
ATOM     46  C   UNL     1       3.221  11.551  -2.036  1.00  0.00     0.031 C 
ATOM     47  C   UNL     1       1.674  11.900   4.348  1.00  0.00     0.029 A 
ATOM     48  C   UNL     1       1.788  13.145   3.605  1.00  0.00     0.049 A 
ATOM     49  H   UNL     1       3.007  13.500   1.944  1.00  0.00     0.167 HD
ATOM     50  C   UNL     1       4.518  13.727  -2.188  1.00  0.00     0.031 A 
ATOM     51  C   UNL     1       1.162  14.331   3.786  1.00  0.00     0.031 A 
ATOM     52  C   UNL     1       5.489  14.451  -1.409  1.00  0.00     0.049 A 
ATOM     53  C   UNL     1       1.863  15.346   2.962  1.00  0.00     0.074 A 
ATOM     54  C   UNL     1       6.769  14.193  -0.962  1.00  0.00     0.029 A 
ATOM     55  N   UNL     1       5.025  15.505  -0.658  1.00  0.00    -0.354 N 
ATOM     56  N   UNL     1       3.058  15.793   3.223  1.00  0.00    -0.248 NA
ATOM     57  C   UNL     1       1.397  15.589   1.605  1.00  0.00     0.031 C 
ATOM     58  C   UNL     1       6.855  14.819   0.315  1.00  0.00     0.029 A 
ATOM     59  C   UNL     1       5.634  15.448   0.570  1.00  0.00     0.049 A 
ATOM     60  H   UNL     1       4.372  16.181  -0.949  1.00  0.00     0.167 HD
ATOM     61  C   UNL     1       3.650  15.979   1.981  1.00  0.00     0.074 A 
ATOM     62  C   UNL     1       2.542  15.970   1.032  1.00  0.00     0.031 C 
ATOM     63  C   UNL     1       4.998  15.831   1.814  1.00  0.00     0.031 A 
BRANCH  50  64
ATOM     64  C   UNL     1       3.662  14.395  -3.227  1.00  0.00    -0.014 A 
ATOM     65  C   UNL     1       4.161  15.529  -3.885  1.00  0.00     0.009 A 
ATOM     66  C   UNL     1       2.292  14.110  -3.396  1.00  0.00     0.009 A 
ATOM     67  C   UNL     1       3.319  16.355  -4.638  1.00  0.00     0.001 A 
ATOM     68  C   UNL     1       1.461  14.902  -4.187  1.00  0.00     0.001 A 
ATOM     69  C   UNL     1       1.971  16.042  -4.789  1.00  0.00     0.000 A 
ENDBRANCH  50  64
BRANCH  51  70
ATOM     70  C   UNL     1      -0.139  14.589   4.432  1.00  0.00    -0.014 A 
ATOM     71  C   UNL     1      -0.496  15.888   4.823  1.00  0.00     0.009 A 
ATOM     72  C   UNL     1      -1.140  13.600   4.451  1.00  0.00     0.009 A 
ATOM     73  C   UNL     1      -1.814  16.192   5.185  1.00  0.00     0.001 A 
ATOM     74  C   UNL     1      -2.453  13.900   4.823  1.00  0.00     0.001 A 
ATOM     75  C   UNL     1      -2.793  15.201   5.175  1.00  0.00     0.000 A 
ENDBRANCH  51  70
BRANCH  63  76
ATOM     76  C   UNL     1       5.856  15.772   3.054  1.00  0.00    -0.014 A 
ATOM     77  C   UNL     1       5.703  14.781   4.041  1.00  0.00     0.009 A 
ATOM     78  C   UNL     1       6.938  16.658   3.165  1.00  0.00     0.009 A 
ATOM     79  C   UNL     1       6.581  14.708   5.126  1.00  0.00     0.001 A 
ATOM     80  C   UNL     1       7.830  16.570   4.237  1.00  0.00     0.001 A 
ATOM     81  C   UNL     1       7.646  15.601   5.221  1.00  0.00     0.000 A 
ENDBRANCH  63  76
ENDBRANCH  37  38
ENDBRANCH  30  32
ENDBRANCH  29  30
ENDBRANCH  28  29
ENDBRANCH  27  28
ENDBRANCH  26  27
ENDBRANCH  25  26
ENDBRANCH  24  25
ENDBRANCH   1  24
TORSDOF 22
