REMARK SMILES CCn1cc(C(=O)OCCOCCOCCOCCOC(=O)c2ccc(-c3c4nc(c(-c5ccccc5)c5ccc([nH]5)c(-c5ccccc5)c5nc(c(-c6ccccc6)c6ccc3[nH]6)C=C5)C=C4)cc2)c(=O)c2cc(F)c(NC3CCCCC3)cc21
REMARK SMILES IDX 14 1 13 2 12 3 11 4 10 5 9 6 8 7 6 8 7 9 5 10 3 11 4 12
REMARK SMILES IDX 86 13 73 14 85 15 71 16 74 17 77 18 72 19 75 20 76 21 2 22
REMARK SMILES IDX 1 23 78 24 79 26 80 27 84 28 81 29 83 30 82 31 15 32 16 33
REMARK SMILES IDX 17 34 18 35 19 36 20 37 21 38 22 39 23 40 24 41 70 42 25 43
REMARK SMILES IDX 69 44 26 45 27 46 28 47 63 48 29 49 68 50 62 51 64 52 30 53
REMARK SMILES IDX 67 54 61 55 60 56 31 58 53 59 38 60 52 61 39 62 42 63 51 64
REMARK SMILES IDX 65 65 40 66 41 67 50 69 66 70 43 71 32 72 33 73 37 74 34 75
REMARK SMILES IDX 36 76 35 77 54 78 55 79 59 80 56 81 58 82 57 83 44 84 45 85
REMARK SMILES IDX 49 86 46 87 48 88 47 89
REMARK H PARENT 78 25 64 57 42 68
REMARK Flexibility Score: inf
ROOT
ATOM      1  O   UNL     1       1.356  -2.020   4.840  1.00  0.00    -0.377 OA
ENDROOT
BRANCH   1   2
ATOM      2  C   UNL     1       1.259  -3.376   4.434  1.00  0.00     0.188 C 
BRANCH   2   3
ATOM      3  C   UNL     1       2.377  -4.342   4.870  1.00  0.00     0.188 C 
BRANCH   3   4
ATOM      4  O   UNL     1       3.335  -3.762   5.752  1.00  0.00    -0.376 OA
BRANCH   4   5
ATOM      5  C   UNL     1       4.654  -3.632   5.236  1.00  0.00     0.202 C 
BRANCH   5   6
ATOM      6  C   UNL     1       4.826  -2.439   4.291  1.00  0.00     0.261 C 
BRANCH   6   7
ATOM      7  O   UNL     1       3.963  -2.485   3.146  1.00  0.00    -0.459 OA
BRANCH   7   8
ATOM      8  C   UNL     1       4.216  -3.450   2.225  1.00  0.00     0.343 C 
ATOM      9  O   UNL     1       5.188  -4.185   2.210  1.00  0.00    -0.246 OA
BRANCH   8  10
ATOM     10  C   UNL     1       3.064  -3.529   1.309  1.00  0.00     0.124 A 
ATOM     11  N   UNL     1       1.444  -2.319  -0.042  1.00  0.00    -0.347 N 
ATOM     12  C   UNL     1       2.555  -2.406   0.779  1.00  0.00     0.105 A 
ATOM     13  C   UNL     1       0.838  -3.529  -0.476  1.00  0.00     0.054 A 
ATOM     14  C   UNL     1       1.232  -4.761   0.072  1.00  0.00     0.050 A 
ATOM     15  C   UNL     1      -0.156  -3.565  -1.468  1.00  0.00     0.055 A 
ATOM     16  C   UNL     1       2.354  -4.799   1.040  1.00  0.00     0.204 A 
ATOM     17  C   UNL     1       0.590  -5.953  -0.284  1.00  0.00     0.055 A 
ATOM     18  C   UNL     1      -0.799  -4.739  -1.884  1.00  0.00     0.073 A 
ATOM     19  O   UNL     1       2.636  -5.843   1.618  1.00  0.00    -0.288 OA
ATOM     20  C   UNL     1      -0.418  -5.925  -1.243  1.00  0.00     0.147 A 
ATOM     21  F   UNL     1      -1.016  -7.078  -1.583  1.00  0.00    -0.205 F 
BRANCH  11  22
ATOM     22  C   UNL     1       0.847  -1.053  -0.526  1.00  0.00     0.119 C 
ATOM     23  C   UNL     1       1.246   0.199   0.241  1.00  0.00     0.027 C 
ENDBRANCH  11  22
BRANCH  18  24
ATOM     24  N   UNL     1      -1.760  -4.760  -2.885  1.00  0.00    -0.380 N 
ATOM     25  H   UNL     1      -2.219  -5.619  -3.027  1.00  0.00     0.160 HD
BRANCH  24  26
ATOM     26  C   UNL     1      -2.174  -3.656  -3.755  1.00  0.00     0.079 C 
ATOM     27  C   UNL     1      -2.937  -2.578  -2.961  1.00  0.00     0.025 C 
ATOM     28  C   UNL     1      -0.998  -3.171  -4.626  1.00  0.00     0.025 C 
ATOM     29  C   UNL     1      -3.061  -1.241  -3.684  1.00  0.00     0.002 C 
ATOM     30  C   UNL     1      -1.239  -1.821  -5.288  1.00  0.00     0.002 C 
ATOM     31  C   UNL     1      -1.736  -0.791  -4.284  1.00  0.00     0.000 C 
ENDBRANCH  24  26
ENDBRANCH  18  24
ENDBRANCH   8  10
ENDBRANCH   7   8
ENDBRANCH   6   7
ENDBRANCH   5   6
ENDBRANCH   4   5
ENDBRANCH   3   4
ENDBRANCH   2   3
ENDBRANCH   1   2
BRANCH   1  32
ATOM     32  C   UNL     1       1.526  -1.715   6.221  1.00  0.00     0.188 C 
BRANCH  32  33
ATOM     33  C   UNL     1       1.194  -2.733   7.336  1.00  0.00     0.188 C 
BRANCH  33  34
ATOM     34  O   UNL     1       0.333  -3.790   6.938  1.00  0.00    -0.376 OA
BRANCH  34  35
ATOM     35  C   UNL     1      -0.963  -3.809   7.514  1.00  0.00     0.202 C 
BRANCH  35  36
ATOM     36  C   UNL     1      -1.921  -2.774   6.918  1.00  0.00     0.261 C 
BRANCH  36  37
ATOM     37  O   UNL     1      -1.505  -1.407   7.060  1.00  0.00    -0.460 OA
BRANCH  37  38
ATOM     38  C   UNL     1      -1.373  -0.916   8.312  1.00  0.00     0.338 C 
ATOM     39  O   UNL     1      -1.585  -1.494   9.363  1.00  0.00    -0.246 OA
BRANCH  38  40
ATOM     40  C   UNL     1      -0.738   0.411   8.188  1.00  0.00     0.060 A 
ATOM     41  C   UNL     1      -1.279   1.364   7.322  1.00  0.00     0.016 A 
ATOM     42  C   UNL     1       0.435   0.685   8.905  1.00  0.00     0.016 A 
ATOM     43  C   UNL     1      -0.661   2.607   7.193  1.00  0.00     0.010 A 
ATOM     44  C   UNL     1       1.058   1.929   8.769  1.00  0.00     0.010 A 
ATOM     45  C   UNL     1       0.499   2.905   7.931  1.00  0.00    -0.014 A 
BRANCH  45  46
ATOM     46  C   UNL     1       0.985   4.304   7.974  1.00  0.00     0.031 A 
ATOM     47  C   UNL     1       2.150   4.777   7.164  1.00  0.00     0.074 A 
ATOM     48  C   UNL     1       0.318   5.163   8.770  1.00  0.00     0.049 A 
ATOM     49  N   UNL     1       2.595   6.000   7.016  1.00  0.00    -0.248 NA
ATOM     50  C   UNL     1       2.917   3.762   6.430  1.00  0.00     0.031 C 
ATOM     51  C   UNL     1      -0.822   4.801   9.615  1.00  0.00     0.029 A 
ATOM     52  N   UNL     1       0.484   6.506   8.984  1.00  0.00    -0.354 N 
ATOM     53  C   UNL     1       3.679   5.910   6.155  1.00  0.00     0.074 A 
ATOM     54  C   UNL     1       3.853   4.505   5.848  1.00  0.00     0.031 C 
ATOM     55  C   UNL     1      -1.275   5.902  10.230  1.00  0.00     0.029 A 
ATOM     56  C   UNL     1      -0.444   7.039   9.846  1.00  0.00     0.049 A 
ATOM     57  H   UNL     1       1.197   7.037   8.562  1.00  0.00     0.167 HD
ATOM     58  C   UNL     1       4.442   6.914   5.660  1.00  0.00     0.031 A 
ATOM     59  C   UNL     1      -0.619   8.303  10.275  1.00  0.00     0.031 A 
ATOM     60  C   UNL     1       4.275   8.307   5.997  1.00  0.00     0.049 A 
ATOM     61  C   UNL     1       0.274   9.386   9.747  1.00  0.00     0.074 A 
ATOM     62  C   UNL     1       4.975   9.397   5.507  1.00  0.00     0.029 A 
ATOM     63  N   UNL     1       3.362   8.801   6.916  1.00  0.00    -0.354 N 
ATOM     64  N   UNL     1       1.238   9.299   8.863  1.00  0.00    -0.248 NA
ATOM     65  C   UNL     1       0.047  10.744  10.260  1.00  0.00     0.031 C 
ATOM     66  C   UNL     1       4.538  10.538   6.183  1.00  0.00     0.029 A 
ATOM     67  C   UNL     1       3.510  10.174   7.037  1.00  0.00     0.049 A 
ATOM     68  H   UNL     1       2.706   8.258   7.410  1.00  0.00     0.167 HD
ATOM     69  C   UNL     1       1.720  10.590   8.698  1.00  0.00     0.074 A 
ATOM     70  C   UNL     1       0.929  11.446   9.558  1.00  0.00     0.031 C 
ATOM     71  C   UNL     1       2.729  11.022   7.904  1.00  0.00     0.031 A 
BRANCH  58  72
ATOM     72  C   UNL     1       5.535   6.567   4.686  1.00  0.00    -0.014 A 
ATOM     73  C   UNL     1       6.880   6.772   5.035  1.00  0.00     0.009 A 
ATOM     74  C   UNL     1       5.231   6.171   3.374  1.00  0.00     0.009 A 
ATOM     75  C   UNL     1       7.894   6.608   4.089  1.00  0.00     0.001 A 
ATOM     76  C   UNL     1       6.249   5.981   2.436  1.00  0.00     0.001 A 
ATOM     77  C   UNL     1       7.578   6.211   2.791  1.00  0.00     0.000 A 
ENDBRANCH  58  72
BRANCH  59  78
ATOM     78  C   UNL     1      -1.723   8.597  11.225  1.00  0.00    -0.014 A 
ATOM     79  C   UNL     1      -1.685   8.101  12.538  1.00  0.00     0.009 A 
ATOM     80  C   UNL     1      -2.851   9.317  10.804  1.00  0.00     0.009 A 
ATOM     81  C   UNL     1      -2.764   8.295  13.402  1.00  0.00     0.001 A 
ATOM     82  C   UNL     1      -3.915   9.538  11.681  1.00  0.00     0.001 A 
ATOM     83  C   UNL     1      -3.876   9.018  12.974  1.00  0.00     0.000 A 
ENDBRANCH  59  78
BRANCH  71  84
ATOM     84  C   UNL     1       3.053  12.491   7.914  1.00  0.00    -0.014 A 
ATOM     85  C   UNL     1       2.825  13.266   6.765  1.00  0.00     0.009 A 
ATOM     86  C   UNL     1       3.674  13.089   9.022  1.00  0.00     0.009 A 
ATOM     87  C   UNL     1       3.229  14.601   6.717  1.00  0.00     0.001 A 
ATOM     88  C   UNL     1       4.048  14.434   8.983  1.00  0.00     0.001 A 
ATOM     89  C   UNL     1       3.836  15.185   7.827  1.00  0.00     0.000 A 
ENDBRANCH  71  84
ENDBRANCH  45  46
ENDBRANCH  38  40
ENDBRANCH  37  38
ENDBRANCH  36  37
ENDBRANCH  35  36
ENDBRANCH  34  35
ENDBRANCH  33  34
ENDBRANCH  32  33
ENDBRANCH   1  32
TORSDOF 23
