REMARK SMILES CCOC[C@@H](O)C[C@@]1(C(=O)OCCOCCOCCOCCOC(=O)c2ccc(-c3c4nc(c(-c5ccccc5)c5ccc([nH]5)c(-c5ccccc5)c5nc(c(-c6ccccc6)c6ccc3[nH]6)C=C5)C=C4)cc2)CC[C@H](C)C1
REMARK SMILES IDX 15 1 14 2 13 3 12 4 11 5 9 6 10 7 8 8 74 9 78 10 75 11 76 12
REMARK SMILES IDX 77 13 7 14 5 15 4 16 3 17 2 18 1 19 6 20 16 22 17 23 18 24
REMARK SMILES IDX 19 25 20 26 21 27 22 28 23 29 24 30 25 31 26 32 27 33 73 34
REMARK SMILES IDX 28 35 72 36 29 37 30 38 31 39 66 40 32 41 71 42 65 43 67 44
REMARK SMILES IDX 33 45 70 46 64 47 63 48 34 50 56 51 41 52 55 53 42 54 45 55
REMARK SMILES IDX 54 56 68 57 43 58 44 59 53 61 69 62 46 63 35 64 36 65 40 66
REMARK SMILES IDX 37 67 39 68 38 69 57 70 58 71 62 72 59 73 61 74 60 75 47 76
REMARK SMILES IDX 48 77 52 78 49 79 51 80 50 81
REMARK H PARENT 6 21 67 49 45 60
REMARK Flexibility Score: inf
ROOT
ATOM      1  C   UNL     1       5.135   0.294   4.415  1.00  0.00     0.188 C 
ENDROOT
BRANCH   1   2
ATOM      2  O   UNL     1       4.027   0.008   5.243  1.00  0.00    -0.376 OA
BRANCH   2   3
ATOM      3  C   UNL     1       3.366   0.989   6.010  1.00  0.00     0.202 C 
BRANCH   3   4
ATOM      4  C   UNL     1       2.859   2.322   5.431  1.00  0.00     0.261 C 
BRANCH   4   5
ATOM      5  O   UNL     1       3.310   2.702   4.123  1.00  0.00    -0.463 OA
BRANCH   5   6
ATOM      6  C   UNL     1       4.319   3.595   4.057  1.00  0.00     0.312 C 
ATOM      7  O   UNL     1       4.854   4.051   5.064  1.00  0.00    -0.252 OA
BRANCH   6   8
ATOM      8  C   UNL     1       4.785   3.964   2.624  1.00  0.00     0.071 C 
ATOM      9  C   UNL     1       6.301   3.610   2.583  1.00  0.00     0.019 C 
ATOM     10  C   UNL     1       4.832   5.505   2.546  1.00  0.00     0.022 C 
ATOM     11  C   UNL     1       6.959   4.630   1.669  1.00  0.00     0.004 C 
ATOM     12  C   UNL     1       6.039   5.854   1.662  1.00  0.00    -0.013 C 
ATOM     13  C   UNL     1       6.745   7.112   2.145  1.00  0.00     0.007 C 
BRANCH   8  14
ATOM     14  C   UNL     1       4.124   3.401   1.313  1.00  0.00     0.053 C 
BRANCH  14  15
ATOM     15  C   UNL     1       2.594   3.294   1.152  1.00  0.00     0.141 C 
BRANCH  15  16
ATOM     16  C   UNL     1       2.267   2.891  -0.312  1.00  0.00     0.191 C 
BRANCH  16  17
ATOM     17  O   UNL     1       0.876   2.727  -0.609  1.00  0.00    -0.379 OA
BRANCH  17  18
ATOM     18  C   UNL     1       0.217   1.620   0.005  1.00  0.00     0.157 C 
ATOM     19  C   UNL     1       0.856   0.267  -0.258  1.00  0.00     0.035 C 
ENDBRANCH  17  18
ENDBRANCH  16  17
ENDBRANCH  15  16
BRANCH  15  20
ATOM     20  O   UNL     1       2.088   2.279   2.005  1.00  0.00    -0.391 OA
ATOM     21  H   UNL     1       2.494   1.430   1.773  1.00  0.00     0.211 HD
ENDBRANCH  15  20
ENDBRANCH  14  15
ENDBRANCH   8  14
ENDBRANCH   6   8
ENDBRANCH   5   6
ENDBRANCH   4   5
ENDBRANCH   3   4
ENDBRANCH   2   3
ENDBRANCH   1   2
BRANCH   1  22
ATOM     22  C   UNL     1       4.751   0.380   2.932  1.00  0.00     0.188 C 
BRANCH  22  23
ATOM     23  O   UNL     1       3.898  -0.587   2.347  1.00  0.00    -0.377 OA
BRANCH  23  24
ATOM     24  C   UNL     1       2.736  -0.921   3.089  1.00  0.00     0.188 C 
BRANCH  24  25
ATOM     25  C   UNL     1       2.945  -2.208   3.901  1.00  0.00     0.188 C 
BRANCH  25  26
ATOM     26  O   UNL     1       4.176  -2.901   3.789  1.00  0.00    -0.376 OA
BRANCH  26  27
ATOM     27  C   UNL     1       4.793  -3.134   2.532  1.00  0.00     0.202 C 
BRANCH  27  28
ATOM     28  C   UNL     1       4.058  -3.212   1.173  1.00  0.00     0.261 C 
BRANCH  28  29
ATOM     29  O   UNL     1       2.649  -2.982   1.120  1.00  0.00    -0.460 OA
BRANCH  29  30
ATOM     30  C   UNL     1       1.839  -4.005   1.455  1.00  0.00     0.338 C 
ATOM     31  O   UNL     1       2.160  -5.124   1.817  1.00  0.00    -0.246 OA
BRANCH  30  32
ATOM     32  C   UNL     1       0.456  -3.483   1.438  1.00  0.00     0.060 A 
ATOM     33  C   UNL     1      -0.246  -3.350   2.643  1.00  0.00     0.016 A 
ATOM     34  C   UNL     1      -0.139  -3.108   0.232  1.00  0.00     0.016 A 
ATOM     35  C   UNL     1      -1.548  -2.851   2.647  1.00  0.00     0.010 A 
ATOM     36  C   UNL     1      -1.450  -2.620   0.235  1.00  0.00     0.010 A 
ATOM     37  C   UNL     1      -2.172  -2.521   1.439  1.00  0.00    -0.014 A 
BRANCH  37  38
ATOM     38  C   UNL     1      -3.642  -2.320   1.408  1.00  0.00     0.031 A 
ATOM     39  C   UNL     1      -4.491  -3.463   0.918  1.00  0.00     0.074 A 
ATOM     40  C   UNL     1      -4.221  -1.185   1.839  1.00  0.00     0.049 A 
ATOM     41  N   UNL     1      -5.787  -3.526   0.753  1.00  0.00    -0.248 NA
ATOM     42  C   UNL     1      -3.777  -4.700   0.558  1.00  0.00     0.031 C 
ATOM     43  C   UNL     1      -3.522  -0.027   2.394  1.00  0.00     0.029 A 
ATOM     44  N   UNL     1      -5.546  -0.826   1.875  1.00  0.00    -0.354 N 
ATOM     45  C   UNL     1      -6.036  -4.796   0.246  1.00  0.00     0.074 A 
ATOM     46  C   UNL     1      -4.760  -5.457   0.098  1.00  0.00     0.031 C 
ATOM     47  C   UNL     1      -4.428   0.914   2.719  1.00  0.00     0.029 A 
ATOM     48  C   UNL     1      -5.764   0.442   2.358  1.00  0.00     0.049 A 
ATOM     49  H   UNL     1      -6.273  -1.422   1.581  1.00  0.00     0.167 HD
ATOM     50  C   UNL     1      -7.222  -5.369  -0.062  1.00  0.00     0.031 A 
ATOM     51  C   UNL     1      -6.909   1.143   2.476  1.00  0.00     0.031 A 
ATOM     52  C   UNL     1      -8.493  -4.718   0.088  1.00  0.00     0.049 A 
ATOM     53  C   UNL     1      -8.211   0.512   2.046  1.00  0.00     0.074 A 
ATOM     54  C   UNL     1      -9.754  -5.223  -0.175  1.00  0.00     0.029 A 
ATOM     55  N   UNL     1      -8.664  -3.418   0.535  1.00  0.00    -0.354 N 
ATOM     56  N   UNL     1      -8.438  -0.698   1.593  1.00  0.00    -0.248 NA
ATOM     57  C   UNL     1      -9.418   1.346   2.152  1.00  0.00     0.031 C 
ATOM     58  C   UNL     1     -10.684  -4.204   0.049  1.00  0.00     0.029 A 
ATOM     59  C   UNL     1     -10.009  -3.091   0.524  1.00  0.00     0.049 A 
ATOM     60  H   UNL     1      -7.938  -2.817   0.819  1.00  0.00     0.167 HD
ATOM     61  C   UNL     1      -9.812  -0.780   1.395  1.00  0.00     0.074 A 
ATOM     62  C   UNL     1     -10.369   0.496   1.792  1.00  0.00     0.031 C 
ATOM     63  C   UNL     1     -10.549  -1.819   0.930  1.00  0.00     0.031 A 
BRANCH  50  64
ATOM     64  C   UNL     1      -7.190  -6.757  -0.638  1.00  0.00    -0.014 A 
ATOM     65  C   UNL     1      -6.826  -7.869   0.138  1.00  0.00     0.009 A 
ATOM     66  C   UNL     1      -7.550  -6.955  -1.980  1.00  0.00     0.009 A 
ATOM     67  C   UNL     1      -6.788  -9.144  -0.429  1.00  0.00     0.001 A 
ATOM     68  C   UNL     1      -7.544  -8.235  -2.535  1.00  0.00     0.001 A 
ATOM     69  C   UNL     1      -7.154  -9.327  -1.763  1.00  0.00     0.000 A 
ENDBRANCH  50  64
BRANCH  51  70
ATOM     70  C   UNL     1      -6.894   2.535   3.005  1.00  0.00    -0.014 A 
ATOM     71  C   UNL     1      -7.516   2.846   4.224  1.00  0.00     0.009 A 
ATOM     72  C   UNL     1      -6.302   3.572   2.267  1.00  0.00     0.009 A 
ATOM     73  C   UNL     1      -7.575   4.168   4.675  1.00  0.00     0.001 A 
ATOM     74  C   UNL     1      -6.332   4.888   2.736  1.00  0.00     0.001 A 
ATOM     75  C   UNL     1      -6.980   5.187   3.933  1.00  0.00     0.000 A 
ENDBRANCH  51  70
BRANCH  63  76
ATOM     76  C   UNL     1     -12.042  -1.645   0.873  1.00  0.00    -0.014 A 
ATOM     77  C   UNL     1     -12.649  -0.791  -0.061  1.00  0.00     0.009 A 
ATOM     78  C   UNL     1     -12.858  -2.395   1.737  1.00  0.00     0.009 A 
ATOM     79  C   UNL     1     -14.040  -0.665  -0.103  1.00  0.00     0.001 A 
ATOM     80  C   UNL     1     -14.248  -2.294   1.669  1.00  0.00     0.001 A 
ATOM     81  C   UNL     1     -14.837  -1.421   0.756  1.00  0.00     0.000 A 
ENDBRANCH  63  76
ENDBRANCH  37  38
ENDBRANCH  30  32
ENDBRANCH  29  30
ENDBRANCH  28  29
ENDBRANCH  27  28
ENDBRANCH  26  27
ENDBRANCH  25  26
ENDBRANCH  24  25
ENDBRANCH  23  24
ENDBRANCH  22  23
ENDBRANCH   1  22
TORSDOF 26
