REMARK SMILES O=C(CNC(=O)[C@H](CC1=c2ccccc2=NC1)N1C(=O)N=C2C=CC=C[C@H]2C1=O)OCCOCCOCCOCCOC(=O)c1ccc(-c2c3nc(c(-c4ccccc4)c4ccc([nH]4)c(-c4ccccc4)c4nc(c(-c5ccccc5)c5ccc2[nH]5)C=C4)C=C3)cc1
REMARK SMILES IDX 35 1 34 2 33 3 32 4 31 5 30 6 2 7 1 8 3 9 4 10 5 11 6 13
REMARK SMILES IDX 7 14 8 15 9 16 10 17 17 18 11 19 15 20 16 21 12 22 14 23
REMARK SMILES IDX 13 24 18 25 19 26 28 27 21 28 20 29 27 30 29 31 22 32 26 33
REMARK SMILES IDX 23 34 25 35 24 36 36 37 37 38 38 39 39 40 40 41 41 42 42 43
REMARK SMILES IDX 43 44 44 45 45 46 46 47 92 48 47 49 91 50 48 51 49 52 50 53
REMARK SMILES IDX 85 54 51 55 90 56 84 57 86 58 52 59 89 60 83 61 82 62 53 64
REMARK SMILES IDX 75 65 60 66 74 67 61 68 64 69 73 70 87 71 62 72 63 73 72 75
REMARK SMILES IDX 88 76 65 77 54 78 55 79 59 80 56 81 58 82 57 83 76 84 77 85
REMARK SMILES IDX 81 86 78 87 80 88 79 89 66 90 67 91 71 92 68 93 70 94 69 95
REMARK H PARENT 4 12 86 63 64 74
REMARK Flexibility Score: inf
ROOT
ATOM      1  C   UNL     1       2.322   0.321   2.758  1.00  0.00     0.188 C 
ENDROOT
BRANCH   1   2
ATOM      2  C   UNL     1       2.257   0.211   0.508  1.00  0.00     0.188 C 
BRANCH   2   3
ATOM      3  O   UNL     1       3.517   0.061  -0.419  1.00  0.00    -0.376 OA
BRANCH   3   4
ATOM      4  C   UNL     1       4.329   1.056  -1.008  1.00  0.00     0.202 C 
BRANCH   4   5
ATOM      5  C   UNL     1       4.043   1.214  -2.480  1.00  0.00     0.261 C 
BRANCH   5   6
ATOM      6  O   UNL     1       3.002   0.398  -3.057  1.00  0.00    -0.462 OA
BRANCH   6   7
ATOM      7  C   UNL     1       2.393  -0.679  -2.514  1.00  0.00     0.325 C 
ATOM      8  O   UNL     1       1.161  -0.753  -2.580  1.00  0.00    -0.250 OA
BRANCH   7   9
ATOM      9  C   UNL     1       3.204  -1.886  -1.931  1.00  0.00     0.238 C 
BRANCH   9  10
ATOM     10  N   UNL     1       4.669  -1.977  -1.814  1.00  0.00    -0.343 N 
ATOM     11  C   UNL     1       5.516  -2.488  -0.862  1.00  0.00     0.244 C 
ATOM     12  H   UNL     1       5.143  -1.587  -2.584  1.00  0.00     0.164 HD
ATOM     13  O   UNL     1       6.524  -3.012  -1.375  1.00  0.00    -0.273 OA
BRANCH  11  14
ATOM     14  C   UNL     1       5.525  -2.280   0.741  1.00  0.00     0.188 C 
BRANCH  14  15
ATOM     15  C   UNL     1       5.155  -0.873   1.363  1.00  0.00     0.069 C 
BRANCH  15  16
ATOM     16  C   UNL     1       3.730  -0.423   1.645  1.00  0.00    -0.037 C 
ATOM     17  C   UNL     1       2.556  -1.437   1.685  1.00  0.00     0.001 A 
ATOM     18  C   UNL     1       2.988   1.510   1.531  1.00  0.00     0.174 C 
ATOM     19  C   UNL     1       2.410  -2.833   1.527  1.00  0.00     0.010 A 
ATOM     20  C   UNL     1       0.863  -0.504   1.731  1.00  0.00     0.065 A 
ATOM     21  N   UNL     1       0.995   1.073   1.609  1.00  0.00    -0.280 NA
ATOM     22  C   UNL     1       1.225  -3.441   1.619  1.00  0.00     0.001 A 
ATOM     23  C   UNL     1      -0.278  -1.437   1.858  1.00  0.00     0.028 A 
ATOM     24  C   UNL     1      -0.042  -2.766   1.848  1.00  0.00     0.002 A 
ENDBRANCH  15  16
ENDBRANCH  14  15
BRANCH  14  25
ATOM     25  N   UNL     1       5.942  -3.301   1.880  1.00  0.00    -0.249 N 
ATOM     26  C   UNL     1       7.210  -3.053   2.447  1.00  0.00     0.351 C 
ATOM     27  C   UNL     1       5.178  -4.368   2.394  1.00  0.00     0.244 C 
ATOM     28  N   UNL     1       7.652  -3.818   3.487  1.00  0.00    -0.197 NA
ATOM     29  O   UNL     1       7.895  -2.081   2.141  1.00  0.00    -0.246 OA
ATOM     30  C   UNL     1       5.551  -4.894   3.834  1.00  0.00     0.151 C 
ATOM     31  O   UNL     1       4.352  -5.001   1.730  1.00  0.00    -0.273 OA
ATOM     32  C   UNL     1       6.707  -4.068   4.322  1.00  0.00     0.062 C 
ATOM     33  C   UNL     1       4.565  -5.147   4.972  1.00  0.00    -0.007 C 
ATOM     34  C   UNL     1       6.707  -3.384   5.626  1.00  0.00     0.025 C 
ATOM     35  C   UNL     1       4.725  -4.644   6.212  1.00  0.00    -0.003 C 
ATOM     36  C   UNL     1       5.739  -3.663   6.499  1.00  0.00     0.002 C 
ENDBRANCH  14  25
ENDBRANCH  11  14
ENDBRANCH   9  10
ENDBRANCH   7   9
ENDBRANCH   6   7
ENDBRANCH   5   6
ENDBRANCH   4   5
ENDBRANCH   3   4
ENDBRANCH   2   3
ENDBRANCH   1   2
BRANCH   1  37
ATOM     37  O   UNL     1       3.286   1.132   3.698  1.00  0.00    -0.377 OA
BRANCH  37  38
ATOM     38  C   UNL     1       4.705   1.035   3.712  1.00  0.00     0.188 C 
BRANCH  38  39
ATOM     39  C   UNL     1       5.269  -0.081   4.589  1.00  0.00     0.188 C 
BRANCH  39  40
ATOM     40  O   UNL     1       4.407  -1.195   4.640  1.00  0.00    -0.376 OA
BRANCH  40  41
ATOM     41  C   UNL     1       3.404  -1.217   5.652  1.00  0.00     0.202 C 
BRANCH  41  42
ATOM     42  C   UNL     1       2.846  -0.013   6.461  1.00  0.00     0.261 C 
BRANCH  42  43
ATOM     43  O   UNL     1       3.337   1.317   6.261  1.00  0.00    -0.460 OA
BRANCH  43  44
ATOM     44  C   UNL     1       4.404   1.760   6.965  1.00  0.00     0.338 C 
ATOM     45  O   UNL     1       5.064   1.129   7.769  1.00  0.00    -0.246 OA
BRANCH  44  46
ATOM     46  C   UNL     1       4.763   3.095   6.415  1.00  0.00     0.060 A 
ATOM     47  C   UNL     1       3.822   4.124   6.434  1.00  0.00     0.016 A 
ATOM     48  C   UNL     1       6.006   3.295   5.789  1.00  0.00     0.016 A 
ATOM     49  C   UNL     1       4.128   5.353   5.844  1.00  0.00     0.010 A 
ATOM     50  C   UNL     1       6.288   4.508   5.144  1.00  0.00     0.010 A 
ATOM     51  C   UNL     1       5.364   5.560   5.201  1.00  0.00    -0.014 A 
BRANCH  51  52
ATOM     52  C   UNL     1       5.773   6.943   4.845  1.00  0.00     0.031 A 
ATOM     53  C   UNL     1       5.709   7.492   3.453  1.00  0.00     0.074 A 
ATOM     54  C   UNL     1       6.197   7.723   5.859  1.00  0.00     0.049 A 
ATOM     55  N   UNL     1       5.941   8.717   3.051  1.00  0.00    -0.248 NA
ATOM     56  C   UNL     1       5.347   6.563   2.373  1.00  0.00     0.031 C 
ATOM     57  C   UNL     1       6.306   7.279   7.250  1.00  0.00     0.029 A 
ATOM     58  N   UNL     1       6.587   9.037   5.895  1.00  0.00    -0.354 N 
ATOM     59  C   UNL     1       5.734   8.718   1.678  1.00  0.00     0.074 A 
ATOM     60  C   UNL     1       5.403   7.357   1.308  1.00  0.00     0.031 C 
ATOM     61  C   UNL     1       6.689   8.313   8.009  1.00  0.00     0.029 A 
ATOM     62  C   UNL     1       6.904   9.478   7.157  1.00  0.00     0.049 A 
ATOM     63  H   UNL     1       6.634   9.609   5.095  1.00  0.00     0.167 HD
ATOM     64  C   UNL     1       5.800   9.768   0.822  1.00  0.00     0.031 A 
ATOM     65  C   UNL     1       7.322  10.682   7.594  1.00  0.00     0.031 A 
ATOM     66  C   UNL     1       6.146  11.115   1.214  1.00  0.00     0.049 A 
ATOM     67  C   UNL     1       7.438  11.812   6.611  1.00  0.00     0.074 A 
ATOM     68  C   UNL     1       6.193  12.249   0.420  1.00  0.00     0.029 A 
ATOM     69  N   UNL     1       6.512  11.511   2.493  1.00  0.00    -0.354 N 
ATOM     70  N   UNL     1       7.149  11.819   5.332  1.00  0.00    -0.248 NA
ATOM     71  C   UNL     1       7.914  13.103   7.125  1.00  0.00     0.031 C 
ATOM     72  C   UNL     1       6.686  13.302   1.189  1.00  0.00     0.029 A 
ATOM     73  C   UNL     1       6.833  12.861   2.494  1.00  0.00     0.049 A 
ATOM     74  H   UNL     1       6.539  10.923   3.281  1.00  0.00     0.167 HD
ATOM     75  C   UNL     1       7.380  13.117   4.896  1.00  0.00     0.074 A 
ATOM     76  C   UNL     1       7.810  13.876   6.052  1.00  0.00     0.031 C 
ATOM     77  C   UNL     1       7.248  13.624   3.647  1.00  0.00     0.031 A 
BRANCH  64  78
ATOM     78  C   UNL     1       5.483   9.542  -0.637  1.00  0.00    -0.014 A 
ATOM     79  C   UNL     1       6.458   9.807  -1.616  1.00  0.00     0.009 A 
ATOM     80  C   UNL     1       4.178   9.242  -1.056  1.00  0.00     0.009 A 
ATOM     81  C   UNL     1       6.126   9.818  -2.973  1.00  0.00     0.001 A 
ATOM     82  C   UNL     1       3.857   9.212  -2.417  1.00  0.00     0.001 A 
ATOM     83  C   UNL     1       4.825   9.518  -3.372  1.00  0.00     0.000 A 
ENDBRANCH  64  78
BRANCH  65  84
ATOM     84  C   UNL     1       7.623  10.865   9.041  1.00  0.00    -0.014 A 
ATOM     85  C   UNL     1       8.648  10.122   9.655  1.00  0.00     0.009 A 
ATOM     86  C   UNL     1       6.850  11.724   9.835  1.00  0.00     0.009 A 
ATOM     87  C   UNL     1       8.859  10.198  11.033  1.00  0.00     0.001 A 
ATOM     88  C   UNL     1       7.096  11.836  11.206  1.00  0.00     0.001 A 
ATOM     89  C   UNL     1       8.087  11.061  11.806  1.00  0.00     0.000 A 
ENDBRANCH  65  84
BRANCH  77  90
ATOM     90  C   UNL     1       7.551  15.086   3.427  1.00  0.00    -0.014 A 
ATOM     91  C   UNL     1       6.536  15.944   2.966  1.00  0.00     0.009 A 
ATOM     92  C   UNL     1       8.859  15.583   3.524  1.00  0.00     0.009 A 
ATOM     93  C   UNL     1       6.832  17.246   2.561  1.00  0.00     0.001 A 
ATOM     94  C   UNL     1       9.144  16.902   3.162  1.00  0.00     0.001 A 
ATOM     95  C   UNL     1       8.136  17.725   2.661  1.00  0.00     0.000 A 
ENDBRANCH  77  90
ENDBRANCH  51  52
ENDBRANCH  44  46
ENDBRANCH  43  44
ENDBRANCH  42  43
ENDBRANCH  41  42
ENDBRANCH  40  41
ENDBRANCH  39  40
ENDBRANCH  38  39
ENDBRANCH  37  38
ENDBRANCH   1  37
TORSDOF 25
