REMARK SMILES C[C@H](C(=O)OCCOCCOCCOCCOC(=O)c1ccc(-c2c3nc(c(-c4ccccc4)c4ccc([nH]4)c(-c4ccccc4)c4nc(c(-c5ccccc5)c5ccc2[nH]5)C=C4)C=C3)cc1)c1ccc(-c2ccccc2)c(F)c1
REMARK SMILES IDX 11 1 10 2 9 3 8 4 7 5 6 6 5 7 3 8 4 9 2 10 1 11 68 12 69 13
REMARK SMILES IDX 80 14 70 15 78 16 71 17 79 18 72 19 73 20 77 21 74 22 76 23
REMARK SMILES IDX 75 24 12 25 13 26 14 27 15 28 16 29 17 30 18 31 19 32 20 33
REMARK SMILES IDX 21 34 67 35 22 36 66 37 23 38 24 39 25 40 60 41 26 42 65 43
REMARK SMILES IDX 59 44 61 45 27 46 64 47 58 48 57 49 28 51 50 52 35 53 49 54
REMARK SMILES IDX 36 55 39 56 48 57 62 58 37 59 38 60 47 62 63 63 40 64 29 65
REMARK SMILES IDX 30 66 34 67 31 68 33 69 32 70 51 71 52 72 56 73 53 74 55 75
REMARK SMILES IDX 54 76 41 77 42 78 46 79 43 80 45 81 44 82
REMARK H PARENT 61 50 39 61
REMARK Flexibility Score: inf
ROOT
ATOM      1  O   UNL     1      -1.844   0.814   1.568  1.00  0.00    -0.377 OA
ENDROOT
BRANCH   1   2
ATOM      2  C   UNL     1      -0.911  -0.144   1.109  1.00  0.00     0.188 C 
BRANCH   2   3
ATOM      3  C   UNL     1       0.271  -0.693   1.917  1.00  0.00     0.188 C 
BRANCH   3   4
ATOM      4  O   UNL     1       0.950   0.271   2.687  1.00  0.00    -0.376 OA
BRANCH   4   5
ATOM      5  C   UNL     1       1.970   1.097   2.166  1.00  0.00     0.202 C 
BRANCH   5   6
ATOM      6  C   UNL     1       2.135   1.570   0.703  1.00  0.00     0.261 C 
BRANCH   6   7
ATOM      7  O   UNL     1       1.331   1.010  -0.345  1.00  0.00    -0.463 OA
BRANCH   7   8
ATOM      8  C   UNL     1       1.818  -0.095  -0.962  1.00  0.00     0.313 C 
ATOM      9  O   UNL     1       2.892  -0.596  -0.639  1.00  0.00    -0.252 OA
BRANCH   8  10
ATOM     10  C   UNL     1       0.964  -0.614  -2.146  1.00  0.00     0.126 C 
ATOM     11  C   UNL     1       1.503  -2.023  -2.457  1.00  0.00     0.025 C 
BRANCH  10  12
ATOM     12  C   UNL     1      -0.576  -0.613  -2.039  1.00  0.00    -0.031 A 
ATOM     13  C   UNL     1      -1.319   0.576  -2.158  1.00  0.00     0.005 A 
ATOM     14  C   UNL     1      -1.327  -1.788  -1.838  1.00  0.00     0.044 A 
ATOM     15  C   UNL     1      -2.729   0.590  -2.014  1.00  0.00     0.012 A 
ATOM     16  C   UNL     1      -2.728  -1.767  -1.719  1.00  0.00     0.131 A 
ATOM     17  C   UNL     1      -3.472  -0.583  -1.782  1.00  0.00     0.017 A 
ATOM     18  F   UNL     1      -3.343  -2.944  -1.518  1.00  0.00    -0.206 F 
BRANCH  17  19
ATOM     19  C   UNL     1      -4.947  -0.557  -1.580  1.00  0.00    -0.015 A 
ATOM     20  C   UNL     1      -5.787   0.258  -2.361  1.00  0.00     0.009 A 
ATOM     21  C   UNL     1      -5.572  -1.337  -0.586  1.00  0.00     0.009 A 
ATOM     22  C   UNL     1      -7.173   0.305  -2.147  1.00  0.00     0.001 A 
ATOM     23  C   UNL     1      -6.954  -1.285  -0.361  1.00  0.00     0.001 A 
ATOM     24  C   UNL     1      -7.755  -0.460  -1.142  1.00  0.00     0.000 A 
ENDBRANCH  17  19
ENDBRANCH  10  12
ENDBRANCH   8  10
ENDBRANCH   7   8
ENDBRANCH   6   7
ENDBRANCH   5   6
ENDBRANCH   4   5
ENDBRANCH   3   4
ENDBRANCH   2   3
ENDBRANCH   1   2
BRANCH   1  25
ATOM     25  C   UNL     1      -1.462   1.651   2.633  1.00  0.00     0.188 C 
BRANCH  25  26
ATOM     26  C   UNL     1      -1.684   0.962   3.982  1.00  0.00     0.188 C 
BRANCH  26  27
ATOM     27  O   UNL     1      -1.951  -0.430   3.840  1.00  0.00    -0.376 OA
BRANCH  27  28
ATOM     28  C   UNL     1      -3.312  -0.838   3.721  1.00  0.00     0.202 C 
BRANCH  28  29
ATOM     29  C   UNL     1      -4.245  -0.249   2.640  1.00  0.00     0.261 C 
BRANCH  29  30
ATOM     30  O   UNL     1      -4.368   1.179   2.544  1.00  0.00    -0.460 OA
BRANCH  30  31
ATOM     31  C   UNL     1      -4.828   1.872   3.598  1.00  0.00     0.338 C 
ATOM     32  O   UNL     1      -5.208   1.432   4.669  1.00  0.00    -0.246 OA
BRANCH  31  33
ATOM     33  C   UNL     1      -4.601   3.305   3.300  1.00  0.00     0.060 A 
ATOM     34  C   UNL     1      -3.764   4.043   4.148  1.00  0.00     0.016 A 
ATOM     35  C   UNL     1      -5.166   3.906   2.171  1.00  0.00     0.016 A 
ATOM     36  C   UNL     1      -3.510   5.388   3.884  1.00  0.00     0.010 A 
ATOM     37  C   UNL     1      -4.937   5.264   1.924  1.00  0.00     0.010 A 
ATOM     38  C   UNL     1      -4.133   6.018   2.799  1.00  0.00    -0.014 A 
BRANCH  38  39
ATOM     39  C   UNL     1      -4.133   7.499   2.727  1.00  0.00     0.031 A 
ATOM     40  C   UNL     1      -5.292   8.232   3.347  1.00  0.00     0.074 A 
ATOM     41  C   UNL     1      -3.118   8.186   2.174  1.00  0.00     0.049 A 
ATOM     42  N   UNL     1      -5.518   9.518   3.425  1.00  0.00    -0.248 NA
ATOM     43  C   UNL     1      -6.334   7.397   3.967  1.00  0.00     0.031 C 
ATOM     44  C   UNL     1      -1.912   7.601   1.591  1.00  0.00     0.029 A 
ATOM     45  N   UNL     1      -2.944   9.540   2.020  1.00  0.00    -0.354 N 
ATOM     46  C   UNL     1      -6.728   9.644   4.097  1.00  0.00     0.074 A 
ATOM     47  C   UNL     1      -7.202   8.307   4.378  1.00  0.00     0.031 C 
ATOM     48  C   UNL     1      -1.123   8.593   1.139  1.00  0.00     0.029 A 
ATOM     49  C   UNL     1      -1.780   9.878   1.373  1.00  0.00     0.049 A 
ATOM     50  H   UNL     1      -3.594  10.206   2.343  1.00  0.00     0.167 HD
ATOM     51  C   UNL     1      -7.387  10.771   4.453  1.00  0.00     0.031 A 
ATOM     52  C   UNL     1      -1.312  11.085   1.001  1.00  0.00     0.031 A 
ATOM     53  C   UNL     1      -6.931  12.100   4.154  1.00  0.00     0.049 A 
ATOM     54  C   UNL     1      -2.112  12.322   1.323  1.00  0.00     0.074 A 
ATOM     55  C   UNL     1      -7.523  13.308   4.480  1.00  0.00     0.029 A 
ATOM     56  N   UNL     1      -5.778  12.396   3.444  1.00  0.00    -0.354 N 
ATOM     57  N   UNL     1      -3.239  12.431   1.985  1.00  0.00    -0.248 NA
ATOM     58  C   UNL     1      -1.569  13.604   0.849  1.00  0.00     0.031 C 
ATOM     59  C   UNL     1      -6.761  14.332   3.910  1.00  0.00     0.029 A 
ATOM     60  C   UNL     1      -5.657  13.766   3.292  1.00  0.00     0.049 A 
ATOM     61  H   UNL     1      -5.139  11.730   3.100  1.00  0.00     0.167 HD
ATOM     62  C   UNL     1      -3.520  13.792   2.037  1.00  0.00     0.074 A 
ATOM     63  C   UNL     1      -2.440  14.469   1.350  1.00  0.00     0.031 C 
ATOM     64  C   UNL     1      -4.576  14.425   2.605  1.00  0.00     0.031 A 
BRANCH  51  65
ATOM     65  C   UNL     1      -8.701  10.604   5.164  1.00  0.00    -0.014 A 
ATOM     66  C   UNL     1      -8.767  10.133   6.484  1.00  0.00     0.009 A 
ATOM     67  C   UNL     1      -9.893  10.942   4.503  1.00  0.00     0.009 A 
ATOM     68  C   UNL     1     -10.002   9.968   7.115  1.00  0.00     0.001 A 
ATOM     69  C   UNL     1     -11.123  10.806   5.147  1.00  0.00     0.001 A 
ATOM     70  C   UNL     1     -11.178  10.310   6.449  1.00  0.00     0.000 A 
ENDBRANCH  51  65
BRANCH  52  71
ATOM     71  C   UNL     1      -0.026  11.195   0.260  1.00  0.00    -0.014 A 
ATOM     72  C   UNL     1       1.094  11.804   0.849  1.00  0.00     0.009 A 
ATOM     73  C   UNL     1       0.078  10.723  -1.059  1.00  0.00     0.009 A 
ATOM     74  C   UNL     1       2.279  11.960   0.125  1.00  0.00     0.001 A 
ATOM     75  C   UNL     1       1.273  10.854  -1.769  1.00  0.00     0.001 A 
ATOM     76  C   UNL     1       2.369  11.481  -1.181  1.00  0.00     0.000 A 
ENDBRANCH  52  71
BRANCH  64  77
ATOM     77  C   UNL     1      -4.597  15.928   2.549  1.00  0.00    -0.014 A 
ATOM     78  C   UNL     1      -4.838  16.615   1.350  1.00  0.00     0.009 A 
ATOM     79  C   UNL     1      -4.423  16.667   3.731  1.00  0.00     0.009 A 
ATOM     80  C   UNL     1      -4.869  18.012   1.329  1.00  0.00     0.001 A 
ATOM     81  C   UNL     1      -4.488  18.061   3.714  1.00  0.00     0.001 A 
ATOM     82  C   UNL     1      -4.700  18.732   2.512  1.00  0.00     0.000 A 
ENDBRANCH  64  77
ENDBRANCH  38  39
ENDBRANCH  31  33
ENDBRANCH  30  31
ENDBRANCH  29  30
ENDBRANCH  28  29
ENDBRANCH  27  28
ENDBRANCH  26  27
ENDBRANCH  25  26
ENDBRANCH   1  25
TORSDOF 22
