REMARK SMILES Cc1c(CC(=O)OCCOCCOCCOCCOC(=O)c2ccc(-c3c4nc(c(-c5ccccc5)c5ccc([nH]5)c(-c5ccccc5)c5nc(c(-c6ccccc6)c6ccc3[nH]6)C=C5)C=C4)cc2)cc(-c2ccccc2)cc1-c1ccccc1
REMARK SMILES IDX 13 1 12 2 11 3 10 4 9 5 8 6 7 7 5 8 6 9 4 10 3 11 1 12 2 13
REMARK SMILES IDX 79 14 70 15 78 16 71 17 80 18 81 19 85 20 82 21 84 22 83 23
REMARK SMILES IDX 72 24 73 25 77 26 74 27 76 28 75 29 14 30 15 31 16 32 17 33
REMARK SMILES IDX 18 34 19 35 20 36 21 37 22 38 23 39 69 40 24 41 68 42 25 43
REMARK SMILES IDX 26 44 27 45 62 46 28 47 67 48 61 49 63 50 29 51 66 52 60 53
REMARK SMILES IDX 59 54 30 56 52 57 37 58 51 59 38 60 41 61 50 62 64 63 39 64
REMARK SMILES IDX 40 65 49 67 65 68 42 69 31 70 32 71 36 72 33 73 35 74 34 75
REMARK SMILES IDX 53 76 54 77 58 78 55 79 57 80 56 81 43 82 44 83 48 84 45 85
REMARK SMILES IDX 47 86 46 87
REMARK H PARENT 63 55 41 66
REMARK Flexibility Score: inf
ROOT
ATOM      1  O   UNL     1      -1.454  -1.907   1.748  1.00  0.00    -0.377 OA
ENDROOT
BRANCH   1   2
ATOM      2  C   UNL     1      -1.597  -2.383   0.429  1.00  0.00     0.188 C 
BRANCH   2   3
ATOM      3  C   UNL     1      -2.002  -3.779  -0.082  1.00  0.00     0.188 C 
BRANCH   3   4
ATOM      4  O   UNL     1      -1.415  -4.986   0.360  1.00  0.00    -0.376 OA
BRANCH   4   5
ATOM      5  C   UNL     1      -0.220  -4.889   1.095  1.00  0.00     0.202 C 
BRANCH   5   6
ATOM      6  C   UNL     1       1.071  -4.760   0.289  1.00  0.00     0.261 C 
BRANCH   6   7
ATOM      7  O   UNL     1       1.282  -3.438  -0.248  1.00  0.00    -0.463 OA
BRANCH   7   8
ATOM      8  C   UNL     1       1.021  -3.292  -1.571  1.00  0.00     0.310 C 
ATOM      9  O   UNL     1       0.657  -4.202  -2.308  1.00  0.00    -0.252 OA
BRANCH   8  10
ATOM     10  C   UNL     1       1.311  -1.900  -2.094  1.00  0.00     0.158 C 
BRANCH  10  11
ATOM     11  C   UNL     1       0.606  -0.688  -1.484  1.00  0.00    -0.033 A 
ATOM     12  C   UNL     1       2.773   0.089  -0.400  1.00  0.00     0.045 C 
ATOM     13  C   UNL     1       1.315   0.287  -0.744  1.00  0.00    -0.039 A 
ATOM     14  C   UNL     1       0.653   1.481  -0.364  1.00  0.00    -0.015 A 
ATOM     15  C   UNL     1      -0.783  -0.479  -1.716  1.00  0.00     0.013 A 
ATOM     16  C   UNL     1      -0.744   1.558  -0.466  1.00  0.00     0.017 A 
ATOM     17  C   UNL     1      -1.497   0.579  -1.108  1.00  0.00    -0.017 A 
BRANCH  14  18
ATOM     18  C   UNL     1       1.360   2.749  -0.124  1.00  0.00    -0.018 A 
ATOM     19  C   UNL     1       1.088   3.583   0.970  1.00  0.00     0.009 A 
ATOM     20  C   UNL     1       2.190   3.239  -1.150  1.00  0.00     0.009 A 
ATOM     21  C   UNL     1       1.615   4.877   1.017  1.00  0.00     0.001 A 
ATOM     22  C   UNL     1       2.720   4.523  -1.100  1.00  0.00     0.001 A 
ATOM     23  C   UNL     1       2.424   5.346  -0.019  1.00  0.00     0.000 A 
ENDBRANCH  14  18
BRANCH  17  24
ATOM     24  C   UNL     1      -2.976   0.679  -1.062  1.00  0.00    -0.018 A 
ATOM     25  C   UNL     1      -3.630   0.918   0.169  1.00  0.00     0.009 A 
ATOM     26  C   UNL     1      -3.783   0.539  -2.195  1.00  0.00     0.009 A 
ATOM     27  C   UNL     1      -5.026   0.958   0.275  1.00  0.00     0.001 A 
ATOM     28  C   UNL     1      -5.182   0.608  -2.096  1.00  0.00     0.001 A 
ATOM     29  C   UNL     1      -5.803   0.797  -0.862  1.00  0.00     0.000 A 
ENDBRANCH  17  24
ENDBRANCH  10  11
ENDBRANCH   8  10
ENDBRANCH   7   8
ENDBRANCH   6   7
ENDBRANCH   5   6
ENDBRANCH   4   5
ENDBRANCH   3   4
ENDBRANCH   2   3
ENDBRANCH   1   2
BRANCH   1  30
ATOM     30  C   UNL     1      -2.525  -2.065   2.633  1.00  0.00     0.188 C 
BRANCH  30  31
ATOM     31  C   UNL     1      -3.914  -1.909   2.118  1.00  0.00     0.188 C 
BRANCH  31  32
ATOM     32  O   UNL     1      -4.340  -3.190   1.696  1.00  0.00    -0.376 OA
BRANCH  32  33
ATOM     33  C   UNL     1      -5.640  -3.200   1.138  1.00  0.00     0.202 C 
BRANCH  33  34
ATOM     34  C   UNL     1      -6.692  -2.765   2.165  1.00  0.00     0.261 C 
BRANCH  34  35
ATOM     35  O   UNL     1      -6.553  -3.595   3.346  1.00  0.00    -0.460 OA
BRANCH  35  36
ATOM     36  C   UNL     1      -6.060  -2.986   4.469  1.00  0.00     0.338 C 
ATOM     37  O   UNL     1      -6.401  -1.898   4.879  1.00  0.00    -0.246 OA
BRANCH  36  38
ATOM     38  C   UNL     1      -4.822  -3.700   4.946  1.00  0.00     0.060 A 
ATOM     39  C   UNL     1      -3.984  -3.099   5.907  1.00  0.00     0.016 A 
ATOM     40  C   UNL     1      -4.324  -4.752   4.189  1.00  0.00     0.016 A 
ATOM     41  C   UNL     1      -2.608  -3.425   5.978  1.00  0.00     0.010 A 
ATOM     42  C   UNL     1      -2.958  -4.993   4.198  1.00  0.00     0.010 A 
ATOM     43  C   UNL     1      -2.059  -4.310   5.051  1.00  0.00    -0.014 A 
BRANCH  43  44
ATOM     44  C   UNL     1      -0.610  -4.455   4.702  1.00  0.00     0.031 A 
ATOM     45  C   UNL     1      -0.099  -5.846   4.433  1.00  0.00     0.074 A 
ATOM     46  C   UNL     1       0.139  -3.392   4.272  1.00  0.00     0.049 A 
ATOM     47  N   UNL     1       1.075  -6.122   3.984  1.00  0.00    -0.248 NA
ATOM     48  C   UNL     1      -0.901  -7.062   4.587  1.00  0.00     0.031 C 
ATOM     49  C   UNL     1       1.315  -3.421   3.385  1.00  0.00     0.029 A 
ATOM     50  N   UNL     1      -0.028  -2.016   4.460  1.00  0.00    -0.354 N 
ATOM     51  C   UNL     1       1.092  -7.416   3.512  1.00  0.00     0.074 A 
ATOM     52  C   UNL     1      -0.162  -7.974   3.944  1.00  0.00     0.031 C 
ATOM     53  C   UNL     1       1.815  -2.193   3.179  1.00  0.00     0.029 A 
ATOM     54  C   UNL     1       1.182  -1.347   4.155  1.00  0.00     0.049 A 
ATOM     55  H   UNL     1      -0.858  -1.579   4.757  1.00  0.00     0.167 HD
ATOM     56  C   UNL     1       2.137  -7.814   2.727  1.00  0.00     0.031 A 
ATOM     57  C   UNL     1       1.855  -0.682   5.136  1.00  0.00     0.031 A 
ATOM     58  C   UNL     1       3.233  -6.821   2.746  1.00  0.00     0.049 A 
ATOM     59  C   UNL     1       3.074  -1.505   5.517  1.00  0.00     0.074 A 
ATOM     60  C   UNL     1       3.978  -6.145   1.796  1.00  0.00     0.029 A 
ATOM     61  N   UNL     1       3.595  -6.249   3.974  1.00  0.00    -0.354 N 
ATOM     62  N   UNL     1       3.156  -2.795   5.278  1.00  0.00    -0.248 NA
ATOM     63  C   UNL     1       4.346  -0.963   5.986  1.00  0.00     0.031 C 
ATOM     64  C   UNL     1       4.612  -5.037   2.445  1.00  0.00     0.029 A 
ATOM     65  C   UNL     1       4.349  -5.105   3.807  1.00  0.00     0.049 A 
ATOM     66  H   UNL     1       3.342  -6.619   4.850  1.00  0.00     0.167 HD
ATOM     67  C   UNL     1       4.447  -3.205   5.374  1.00  0.00     0.074 A 
ATOM     68  C   UNL     1       5.146  -2.046   5.907  1.00  0.00     0.031 C 
ATOM     69  C   UNL     1       4.913  -4.421   4.968  1.00  0.00     0.031 A 
BRANCH  56  70
ATOM     70  C   UNL     1       2.132  -9.053   1.835  1.00  0.00    -0.014 A 
ATOM     71  C   UNL     1       3.268  -9.366   1.062  1.00  0.00     0.009 A 
ATOM     72  C   UNL     1       1.030  -9.912   1.644  1.00  0.00     0.009 A 
ATOM     73  C   UNL     1       3.302 -10.451   0.167  1.00  0.00     0.001 A 
ATOM     74  C   UNL     1       1.068 -11.022   0.779  1.00  0.00     0.001 A 
ATOM     75  C   UNL     1       2.204 -11.288   0.033  1.00  0.00     0.000 A 
ENDBRANCH  56  70
BRANCH  57  76
ATOM     76  C   UNL     1       0.887   0.180   5.896  1.00  0.00    -0.014 A 
ATOM     77  C   UNL     1       0.348   1.240   5.117  1.00  0.00     0.009 A 
ATOM     78  C   UNL     1       0.061  -0.383   6.883  1.00  0.00     0.009 A 
ATOM     79  C   UNL     1      -1.028   1.509   5.117  1.00  0.00     0.001 A 
ATOM     80  C   UNL     1      -1.316  -0.081   6.899  1.00  0.00     0.001 A 
ATOM     81  C   UNL     1      -1.868   0.806   5.972  1.00  0.00     0.000 A 
ENDBRANCH  57  76
BRANCH  69  82
ATOM     82  C   UNL     1       6.006  -5.119   5.723  1.00  0.00    -0.014 A 
ATOM     83  C   UNL     1       6.314  -4.793   7.051  1.00  0.00     0.009 A 
ATOM     84  C   UNL     1       6.578  -6.295   5.194  1.00  0.00     0.009 A 
ATOM     85  C   UNL     1       7.196  -5.572   7.798  1.00  0.00     0.001 A 
ATOM     86  C   UNL     1       7.419  -7.104   5.955  1.00  0.00     0.001 A 
ATOM     87  C   UNL     1       7.741  -6.731   7.253  1.00  0.00     0.000 A 
ENDBRANCH  69  82
ENDBRANCH  43  44
ENDBRANCH  36  38
ENDBRANCH  35  36
ENDBRANCH  34  35
ENDBRANCH  33  34
ENDBRANCH  32  33
ENDBRANCH  31  32
ENDBRANCH  30  31
ENDBRANCH   1  30
TORSDOF 23
