REMARK SMILES C=CCN(CC(=O)OCCOCCOCCOCCOC(=O)c1ccc(-c2c3nc(c(-c4ccccc4)c4ccc([nH]4)c(-c4ccccc4)c4nc(c(-c5ccccc5)c5ccc2[nH]5)C=C4)C=C3)cc1)C(=O)CSc1cccs1
REMARK SMILES IDX 12 1 11 2 10 3 9 4 8 5 6 6 7 7 5 8 4 9 3 10 2 11 1 12 71 13
REMARK SMILES IDX 72 14 73 15 74 16 75 17 76 18 79 19 77 20 78 21 13 22 14 23
REMARK SMILES IDX 15 24 16 25 17 26 18 27 19 28 20 29 21 30 22 31 23 32 24 33
REMARK SMILES IDX 70 34 25 35 69 36 26 37 27 38 28 39 63 40 29 41 68 42 62 43
REMARK SMILES IDX 64 44 30 45 67 46 61 47 60 48 31 50 53 51 38 52 52 53 39 54
REMARK SMILES IDX 42 55 51 56 65 57 40 58 41 59 50 61 66 62 43 63 32 64 33 65
REMARK SMILES IDX 37 66 34 67 36 68 35 69 54 70 55 71 59 72 56 73 58 74 57 75
REMARK SMILES IDX 44 76 45 77 49 78 46 79 48 80 47 81
REMARK H PARENT 64 49 42 60
REMARK Flexibility Score: inf
ROOT
ATOM      1  C   UNL     1      -5.017   4.651   1.463  1.00  0.00     0.188 C 
ENDROOT
BRANCH   1   2
ATOM      2  O   UNL     1      -6.398   4.381   1.313  1.00  0.00    -0.376 OA
BRANCH   2   3
ATOM      3  C   UNL     1      -6.798   3.141   0.743  1.00  0.00     0.202 C 
BRANCH   3   4
ATOM      4  C   UNL     1      -6.191   2.725  -0.614  1.00  0.00     0.261 C 
BRANCH   4   5
ATOM      5  O   UNL     1      -4.746   2.556  -0.638  1.00  0.00    -0.462 OA
BRANCH   5   6
ATOM      6  C   UNL     1      -4.079   3.179  -1.644  1.00  0.00     0.325 C 
ATOM      7  O   UNL     1      -4.644   3.781  -2.556  1.00  0.00    -0.250 OA
BRANCH   6   8
ATOM      8  C   UNL     1      -2.529   3.198  -1.544  1.00  0.00     0.242 C 
BRANCH   8   9
ATOM      9  N   UNL     1      -1.690   2.485  -0.550  1.00  0.00    -0.327 N 
BRANCH   9  10
ATOM     10  C   UNL     1      -1.448   1.062  -0.786  1.00  0.00     0.147 C 
BRANCH  10  11
ATOM     11  C   UNL     1       0.020   0.856  -1.071  1.00  0.00    -0.014 C 
ATOM     12  C   UNL     1       0.812   0.017  -0.386  1.00  0.00     0.006 C 
ENDBRANCH  10  11
ENDBRANCH   9  10
BRANCH   9  13
ATOM     13  C   UNL     1      -1.077   3.047   0.576  1.00  0.00     0.233 C 
ATOM     14  O   UNL     1      -0.601   2.339   1.473  1.00  0.00    -0.274 OA
BRANCH  13  15
ATOM     15  C   UNL     1      -1.054   4.559   0.774  1.00  0.00     0.175 C 
BRANCH  15  16
ATOM     16  S   UNL     1      -0.097   5.443  -0.480  1.00  0.00    -0.105 SA
BRANCH  16  17
ATOM     17  C   UNL     1       1.505   5.433   0.216  1.00  0.00     0.060 A 
ATOM     18  C   UNL     1       2.160   6.538   0.714  1.00  0.00     0.027 A 
ATOM     19  S   UNL     1       2.479   4.034   0.267  1.00  0.00    -0.137 S 
ATOM     20  C   UNL     1       3.490   6.232   1.126  1.00  0.00     0.013 A 
ATOM     21  C   UNL     1       3.792   4.902   0.936  1.00  0.00     0.066 A 
ENDBRANCH  16  17
ENDBRANCH  15  16
ENDBRANCH  13  15
ENDBRANCH   9  13
ENDBRANCH   8   9
ENDBRANCH   6   8
ENDBRANCH   5   6
ENDBRANCH   4   5
ENDBRANCH   3   4
ENDBRANCH   2   3
ENDBRANCH   1   2
BRANCH   1  22
ATOM     22  C   UNL     1      -4.072   3.527   1.888  1.00  0.00     0.188 C 
BRANCH  22  23
ATOM     23  O   UNL     1      -4.651   2.285   2.202  1.00  0.00    -0.377 OA
BRANCH  23  24
ATOM     24  C   UNL     1      -4.723   1.889   3.557  1.00  0.00     0.188 C 
BRANCH  24  25
ATOM     25  C   UNL     1      -4.811   3.005   4.598  1.00  0.00     0.188 C 
BRANCH  25  26
ATOM     26  O   UNL     1      -3.639   3.792   4.833  1.00  0.00    -0.376 OA
BRANCH  26  27
ATOM     27  C   UNL     1      -2.344   3.191   4.722  1.00  0.00     0.202 C 
BRANCH  27  28
ATOM     28  C   UNL     1      -1.879   2.404   5.940  1.00  0.00     0.261 C 
BRANCH  28  29
ATOM     29  O   UNL     1      -2.440   1.085   5.900  1.00  0.00    -0.460 OA
BRANCH  29  30
ATOM     30  C   UNL     1      -3.503   0.880   6.702  1.00  0.00     0.338 C 
ATOM     31  O   UNL     1      -3.949   1.629   7.556  1.00  0.00    -0.246 OA
BRANCH  30  32
ATOM     32  C   UNL     1      -4.204  -0.331   6.241  1.00  0.00     0.060 A 
ATOM     33  C   UNL     1      -5.603  -0.286   6.171  1.00  0.00     0.016 A 
ATOM     34  C   UNL     1      -3.507  -1.491   5.892  1.00  0.00     0.016 A 
ATOM     35  C   UNL     1      -6.316  -1.422   5.813  1.00  0.00     0.010 A 
ATOM     36  C   UNL     1      -4.222  -2.637   5.553  1.00  0.00     0.010 A 
ATOM     37  C   UNL     1      -5.627  -2.614   5.565  1.00  0.00    -0.014 A 
BRANCH  37  38
ATOM     38  C   UNL     1      -6.380  -3.882   5.574  1.00  0.00     0.031 A 
ATOM     39  C   UNL     1      -6.441  -4.649   6.865  1.00  0.00     0.074 A 
ATOM     40  C   UNL     1      -7.025  -4.313   4.478  1.00  0.00     0.049 A 
ATOM     41  N   UNL     1      -7.013  -5.795   7.123  1.00  0.00    -0.248 NA
ATOM     42  C   UNL     1      -5.763  -4.038   8.022  1.00  0.00     0.031 C 
ATOM     43  C   UNL     1      -7.080  -3.612   3.197  1.00  0.00     0.029 A 
ATOM     44  N   UNL     1      -7.757  -5.452   4.277  1.00  0.00    -0.354 N 
ATOM     45  C   UNL     1      -6.755  -6.045   8.466  1.00  0.00     0.074 A 
ATOM     46  C   UNL     1      -5.951  -4.951   8.960  1.00  0.00     0.031 C 
ATOM     47  C   UNL     1      -7.805  -4.346   2.334  1.00  0.00     0.029 A 
ATOM     48  C   UNL     1      -8.228  -5.579   2.995  1.00  0.00     0.049 A 
ATOM     49  H   UNL     1      -7.928  -6.116   4.983  1.00  0.00     0.167 HD
ATOM     50  C   UNL     1      -7.157  -7.093   9.219  1.00  0.00     0.031 A 
ATOM     51  C   UNL     1      -8.903  -6.592   2.421  1.00  0.00     0.031 A 
ATOM     52  C   UNL     1      -7.936  -8.188   8.708  1.00  0.00     0.049 A 
ATOM     53  C   UNL     1      -9.257  -7.795   3.256  1.00  0.00     0.074 A 
ATOM     54  C   UNL     1      -8.402  -9.303   9.379  1.00  0.00     0.029 A 
ATOM     55  N   UNL     1      -8.352  -8.306   7.390  1.00  0.00    -0.354 N 
ATOM     56  N   UNL     1      -9.027  -8.017   4.529  1.00  0.00    -0.248 NA
ATOM     57  C   UNL     1      -9.969  -8.885   2.575  1.00  0.00     0.031 C 
ATOM     58  C   UNL     1      -9.043 -10.130   8.451  1.00  0.00     0.029 A 
ATOM     59  C   UNL     1      -9.041  -9.493   7.219  1.00  0.00     0.049 A 
ATOM     60  H   UNL     1      -8.182  -7.644   6.681  1.00  0.00     0.167 HD
ATOM     61  C   UNL     1      -9.594  -9.254   4.809  1.00  0.00     0.074 A 
ATOM     62  C   UNL     1     -10.191  -9.726   3.575  1.00  0.00     0.031 C 
ATOM     63  C   UNL     1      -9.623  -9.940   5.979  1.00  0.00     0.031 A 
BRANCH  50  64
ATOM     64  C   UNL     1      -6.713  -7.124  10.655  1.00  0.00    -0.014 A 
ATOM     65  C   UNL     1      -7.211  -6.210  11.599  1.00  0.00     0.009 A 
ATOM     66  C   UNL     1      -5.786  -8.091  11.072  1.00  0.00     0.009 A 
ATOM     67  C   UNL     1      -6.761  -6.243  12.921  1.00  0.00     0.001 A 
ATOM     68  C   UNL     1      -5.363  -8.143  12.402  1.00  0.00     0.001 A 
ATOM     69  C   UNL     1      -5.842  -7.212  13.322  1.00  0.00     0.000 A 
ENDBRANCH  50  64
BRANCH  51  70
ATOM     70  C   UNL     1      -9.266  -6.527   0.982  1.00  0.00    -0.014 A 
ATOM     71  C   UNL     1     -10.608  -6.435   0.582  1.00  0.00     0.009 A 
ATOM     72  C   UNL     1      -8.268  -6.572  -0.006  1.00  0.00     0.009 A 
ATOM     73  C   UNL     1     -10.944  -6.417  -0.774  1.00  0.00     0.001 A 
ATOM     74  C   UNL     1      -8.604  -6.521  -1.360  1.00  0.00     0.001 A 
ATOM     75  C   UNL     1      -9.942  -6.455  -1.743  1.00  0.00     0.000 A 
ENDBRANCH  51  70
BRANCH  63  76
ATOM     76  C   UNL     1     -10.359 -11.252   5.989  1.00  0.00    -0.014 A 
ATOM     77  C   UNL     1      -9.854 -12.382   5.327  1.00  0.00     0.009 A 
ATOM     78  C   UNL     1     -11.554 -11.368   6.717  1.00  0.00     0.009 A 
ATOM     79  C   UNL     1     -10.553 -13.590   5.362  1.00  0.00     0.001 A 
ATOM     80  C   UNL     1     -12.231 -12.586   6.781  1.00  0.00     0.001 A 
ATOM     81  C   UNL     1     -11.736 -13.693   6.094  1.00  0.00     0.000 A 
ENDBRANCH  63  76
ENDBRANCH  37  38
ENDBRANCH  30  32
ENDBRANCH  29  30
ENDBRANCH  28  29
ENDBRANCH  27  28
ENDBRANCH  26  27
ENDBRANCH  25  26
ENDBRANCH  24  25
ENDBRANCH  23  24
ENDBRANCH  22  23
ENDBRANCH   1  22
TORSDOF 27
