REMARK SMILES C[C@@H](C(=O)OCCOCCOCCOCCOC(=O)c1ccc(-c2c3nc(c(-c4ccccc4)c4ccc([nH]4)c(-c4ccccc4)c4nc(c(-c5ccccc5)c5ccc2[nH]5)C=C4)C=C3)cc1)c1ccc(-c2cccc(OC(=O)NCCCc3ccccc3)c2)c(F)c1
REMARK SMILES IDX 8 1 7 2 6 3 5 4 3 5 4 6 2 7 1 8 68 9 69 10 93 11 70 12 91 13
REMARK SMILES IDX 71 14 92 15 72 16 73 17 90 18 74 19 76 20 75 21 77 22 78 23
REMARK SMILES IDX 79 24 80 25 81 27 82 28 83 29 84 30 85 31 89 32 86 33 88 34
REMARK SMILES IDX 87 35 9 36 10 37 11 38 12 39 13 40 14 41 15 42 16 43 17 44
REMARK SMILES IDX 18 45 19 46 20 47 21 48 67 49 22 50 66 51 23 52 24 53 25 54
REMARK SMILES IDX 60 55 26 56 65 57 59 58 61 59 27 60 64 61 58 62 57 63 28 65
REMARK SMILES IDX 50 66 35 67 49 68 36 69 39 70 48 71 62 72 37 73 38 74 47 76
REMARK SMILES IDX 63 77 40 78 29 79 30 80 34 81 31 82 33 83 32 84 51 85 52 86
REMARK SMILES IDX 56 87 53 88 55 89 54 90 41 91 42 92 46 93 43 94 45 95 44 96
REMARK H PARENT 80 26 61 64 39 75
REMARK Flexibility Score: inf
ROOT
ATOM      1  O   UNL     1       0.890   3.874  -2.764  1.00  0.00    -0.376 OA
ENDROOT
BRANCH   1   2
ATOM      2  C   UNL     1       1.845   4.537  -1.951  1.00  0.00     0.202 C 
BRANCH   2   3
ATOM      3  C   UNL     1       2.423   3.996  -0.625  1.00  0.00     0.261 C 
BRANCH   3   4
ATOM      4  O   UNL     1       1.856   2.784  -0.123  1.00  0.00    -0.463 OA
BRANCH   4   5
ATOM      5  C   UNL     1       1.222   2.818   1.073  1.00  0.00     0.313 C 
ATOM      6  O   UNL     1       1.119   3.822   1.770  1.00  0.00    -0.252 OA
BRANCH   5   7
ATOM      7  C   UNL     1       0.545   1.483   1.414  1.00  0.00     0.126 C 
ATOM      8  C   UNL     1       1.415   0.271   1.027  1.00  0.00     0.025 C 
BRANCH   7   9
ATOM      9  C   UNL     1      -0.929   1.413   0.991  1.00  0.00    -0.031 A 
ATOM     10  C   UNL     1      -1.712   2.580   0.908  1.00  0.00     0.005 A 
ATOM     11  C   UNL     1      -1.583   0.191   0.773  1.00  0.00     0.044 A 
ATOM     12  C   UNL     1      -3.086   2.532   0.640  1.00  0.00     0.012 A 
ATOM     13  C   UNL     1      -2.959   0.148   0.522  1.00  0.00     0.131 A 
ATOM     14  C   UNL     1      -3.744   1.308   0.489  1.00  0.00     0.018 A 
ATOM     15  F   UNL     1      -3.533  -1.057   0.376  1.00  0.00    -0.206 F 
BRANCH  14  16
ATOM     16  C   UNL     1      -5.214   1.258   0.521  1.00  0.00    -0.012 A 
ATOM     17  C   UNL     1      -6.030   1.983  -0.360  1.00  0.00     0.009 A 
ATOM     18  C   UNL     1      -5.829   0.546   1.565  1.00  0.00     0.056 A 
ATOM     19  C   UNL     1      -7.420   2.004  -0.190  1.00  0.00     0.004 A 
ATOM     20  C   UNL     1      -7.204   0.592   1.752  1.00  0.00     0.133 A 
ATOM     21  C   UNL     1      -8.008   1.315   0.873  1.00  0.00     0.047 A 
BRANCH  20  22
ATOM     22  O   UNL     1      -7.873  -0.073   2.804  1.00  0.00    -0.410 OA
BRANCH  22  23
ATOM     23  C   UNL     1      -7.259  -0.638   3.920  1.00  0.00     0.412 C 
ATOM     24  O   UNL     1      -6.060  -0.618   4.191  1.00  0.00    -0.224 OA
ATOM     25  N   UNL     1      -8.137  -1.245   4.768  1.00  0.00    -0.321 N 
ATOM     26  H   UNL     1      -7.756  -1.770   5.509  1.00  0.00     0.167 HD
BRANCH  25  27
ATOM     27  C   UNL     1      -9.575  -1.184   4.673  1.00  0.00     0.120 C 
BRANCH  27  28
ATOM     28  C   UNL     1     -10.289  -2.434   5.184  1.00  0.00     0.026 C 
BRANCH  28  29
ATOM     29  C   UNL     1      -9.756  -3.112   6.454  1.00  0.00     0.037 C 
BRANCH  29  30
ATOM     30  C   UNL     1      -9.907  -2.452   7.806  1.00  0.00    -0.048 A 
ATOM     31  C   UNL     1     -10.106  -1.083   8.008  1.00  0.00     0.004 A 
ATOM     32  C   UNL     1      -9.769  -3.269   8.943  1.00  0.00     0.004 A 
ATOM     33  C   UNL     1     -10.150  -0.544   9.298  1.00  0.00     0.000 A 
ATOM     34  C   UNL     1      -9.826  -2.734  10.232  1.00  0.00     0.000 A 
ATOM     35  C   UNL     1     -10.008  -1.368  10.409  1.00  0.00     0.000 A 
ENDBRANCH  29  30
ENDBRANCH  28  29
ENDBRANCH  27  28
ENDBRANCH  25  27
ENDBRANCH  22  23
ENDBRANCH  20  22
ENDBRANCH  14  16
ENDBRANCH   7   9
ENDBRANCH   5   7
ENDBRANCH   4   5
ENDBRANCH   3   4
ENDBRANCH   2   3
ENDBRANCH   1   2
BRANCH   1  36
ATOM     36  C   UNL     1       0.069   2.858  -2.227  1.00  0.00     0.188 C 
BRANCH  36  37
ATOM     37  C   UNL     1       0.653   1.440  -2.320  1.00  0.00     0.188 C 
BRANCH  37  38
ATOM     38  O   UNL     1       2.067   1.347  -2.364  1.00  0.00    -0.377 OA
BRANCH  38  39
ATOM     39  C   UNL     1       2.749   1.706  -3.562  1.00  0.00     0.188 C 
BRANCH  39  40
ATOM     40  C   UNL     1       2.005   2.236  -4.809  1.00  0.00     0.188 C 
BRANCH  40  41
ATOM     41  O   UNL     1       0.679   1.762  -4.971  1.00  0.00    -0.376 OA
BRANCH  41  42
ATOM     42  C   UNL     1       0.450   0.679  -5.858  1.00  0.00     0.202 C 
BRANCH  42  43
ATOM     43  C   UNL     1       1.121  -0.663  -5.526  1.00  0.00     0.261 C 
BRANCH  43  44
ATOM     44  O   UNL     1       2.555  -0.651  -5.436  1.00  0.00    -0.460 OA
BRANCH  44  45
ATOM     45  C   UNL     1       3.251  -0.263  -6.527  1.00  0.00     0.338 C 
ATOM     46  O   UNL     1       2.809   0.036  -7.618  1.00  0.00    -0.246 OA
BRANCH  45  47
ATOM     47  C   UNL     1       4.658  -0.073  -6.114  1.00  0.00     0.060 A 
ATOM     48  C   UNL     1       5.236   1.198  -6.238  1.00  0.00     0.016 A 
ATOM     49  C   UNL     1       5.399  -1.142  -5.607  1.00  0.00     0.016 A 
ATOM     50  C   UNL     1       6.574   1.393  -5.893  1.00  0.00     0.010 A 
ATOM     51  C   UNL     1       6.745  -0.950  -5.284  1.00  0.00     0.010 A 
ATOM     52  C   UNL     1       7.348   0.309  -5.461  1.00  0.00    -0.014 A 
BRANCH  52  53
ATOM     53  C   UNL     1       8.823   0.439  -5.396  1.00  0.00     0.031 A 
ATOM     54  C   UNL     1       9.635  -0.073  -6.555  1.00  0.00     0.074 A 
ATOM     55  C   UNL     1       9.435   1.019  -4.348  1.00  0.00     0.049 A 
ATOM     56  N   UNL     1      10.934  -0.119  -6.705  1.00  0.00    -0.248 NA
ATOM     57  C   UNL     1       8.877  -0.607  -7.698  1.00  0.00     0.031 C 
ATOM     58  C   UNL     1       8.762   1.603  -3.190  1.00  0.00     0.029 A 
ATOM     59  N   UNL     1      10.771   1.203  -4.092  1.00  0.00    -0.354 N 
ATOM     60  C   UNL     1      11.147  -0.694  -7.952  1.00  0.00     0.074 A 
ATOM     61  C   UNL     1       9.848  -1.011  -8.502  1.00  0.00     0.031 C 
ATOM     62  C   UNL     1       9.693   2.072  -2.339  1.00  0.00     0.029 A 
ATOM     63  C   UNL     1      11.023   1.785  -2.874  1.00  0.00     0.049 A 
ATOM     64  H   UNL     1      11.482   0.942  -4.722  1.00  0.00     0.167 HD
ATOM     65  C   UNL     1      12.319  -0.932  -8.587  1.00  0.00     0.031 A 
ATOM     66  C   UNL     1      12.193   2.031  -2.252  1.00  0.00     0.031 A 
ATOM     67  C   UNL     1      13.612  -0.637  -8.031  1.00  0.00     0.049 A 
ATOM     68  C   UNL     1      13.486   1.668  -2.938  1.00  0.00     0.074 A 
ATOM     69  C   UNL     1      14.859  -0.838  -8.597  1.00  0.00     0.029 A 
ATOM     70  N   UNL     1      13.824  -0.087  -6.777  1.00  0.00    -0.354 N 
ATOM     71  N   UNL     1      13.677   1.143  -4.124  1.00  0.00    -0.248 NA
ATOM     72  C   UNL     1      14.727   1.942  -2.198  1.00  0.00     0.031 C 
ATOM     73  C   UNL     1      15.827  -0.471  -7.657  1.00  0.00     0.029 A 
ATOM     74  C   UNL     1      15.183   0.030  -6.538  1.00  0.00     0.049 A 
ATOM     75  H   UNL     1      13.114   0.180  -6.149  1.00  0.00     0.167 HD
ATOM     76  C   UNL     1      15.055   1.054  -4.285  1.00  0.00     0.074 A 
ATOM     77  C   UNL     1      15.652   1.596  -3.082  1.00  0.00     0.031 C 
ATOM     78  C   UNL     1      15.764   0.572  -5.336  1.00  0.00     0.031 A 
BRANCH  65  79
ATOM     79  C   UNL     1      12.251  -1.583  -9.941  1.00  0.00    -0.014 A 
ATOM     80  C   UNL     1      11.750  -0.898 -11.060  1.00  0.00     0.009 A 
ATOM     81  C   UNL     1      12.723  -2.895 -10.105  1.00  0.00     0.009 A 
ATOM     82  C   UNL     1      11.688  -1.527 -12.305  1.00  0.00     0.001 A 
ATOM     83  C   UNL     1      12.691  -3.509 -11.358  1.00  0.00     0.001 A 
ATOM     84  C   UNL     1      12.164  -2.829 -12.455  1.00  0.00     0.000 A 
ENDBRANCH  65  79
BRANCH  66  85
ATOM     85  C   UNL     1      12.204   2.625  -0.888  1.00  0.00    -0.014 A 
ATOM     86  C   UNL     1      12.720   3.911  -0.665  1.00  0.00     0.009 A 
ATOM     87  C   UNL     1      11.726   1.890   0.210  1.00  0.00     0.009 A 
ATOM     88  C   UNL     1      12.784   4.435   0.629  1.00  0.00     0.001 A 
ATOM     89  C   UNL     1      11.759   2.430   1.497  1.00  0.00     0.001 A 
ATOM     90  C   UNL     1      12.299   3.697   1.707  1.00  0.00     0.000 A 
ENDBRANCH  66  85
BRANCH  78  91
ATOM     91  C   UNL     1      17.265   0.648  -5.255  1.00  0.00    -0.014 A 
ATOM     92  C   UNL     1      17.998  -0.162  -4.375  1.00  0.00     0.009 A 
ATOM     93  C   UNL     1      17.959   1.517  -6.114  1.00  0.00     0.009 A 
ATOM     94  C   UNL     1      19.392  -0.076  -4.329  1.00  0.00     0.001 A 
ATOM     95  C   UNL     1      19.354   1.575  -6.091  1.00  0.00     0.001 A 
ATOM     96  C   UNL     1      20.068   0.787  -5.191  1.00  0.00     0.000 A 
ENDBRANCH  78  91
ENDBRANCH  52  53
ENDBRANCH  45  47
ENDBRANCH  44  45
ENDBRANCH  43  44
ENDBRANCH  42  43
ENDBRANCH  41  42
ENDBRANCH  40  41
ENDBRANCH  39  40
ENDBRANCH  38  39
ENDBRANCH  37  38
ENDBRANCH  36  37
ENDBRANCH   1  36
TORSDOF 28
