REMARK SMILES CC[C@H]1CCCC[C@@H]1Sc1csc(C(=O)OCCOCCOCCOCCOC(=O)c2ccc(-c3c4nc(c(-c5ccccc5)c5ccc([nH]5)c(-c5ccccc5)c5nc(c(-c6ccccc6)c6ccc3[nH]6)C=C5)C=C4)cc2)c1
REMARK SMILES IDX 21 1 20 2 19 3 18 4 17 5 16 6 14 7 15 8 13 9 10 10 11 11
REMARK SMILES IDX 79 12 12 13 9 14 8 15 3 16 4 17 5 18 7 19 6 20 2 21 1 22
REMARK SMILES IDX 22 23 23 24 24 25 25 26 26 27 27 28 28 29 29 30 30 31 31 32
REMARK SMILES IDX 32 33 78 34 33 35 77 36 34 37 35 38 36 39 71 40 37 41 76 42
REMARK SMILES IDX 70 43 72 44 38 45 75 46 69 47 68 48 39 50 61 51 46 52 60 53
REMARK SMILES IDX 47 54 50 55 59 56 73 57 48 58 49 59 58 61 74 62 51 63 40 64
REMARK SMILES IDX 41 65 45 66 42 67 44 68 43 69 62 70 63 71 67 72 64 73 66 74
REMARK SMILES IDX 65 75 52 76 53 77 57 78 54 79 56 80 55 81
REMARK H PARENT 72 49 50 60
REMARK Flexibility Score: inf
ROOT
ATOM      1  C   UNL     1       1.573  -4.264   6.707  1.00  0.00     0.188 C 
ENDROOT
BRANCH   1   2
ATOM      2  C   UNL     1       2.531  -3.642   7.736  1.00  0.00     0.188 C 
BRANCH   2   3
ATOM      3  O   UNL     1       1.881  -3.231   8.938  1.00  0.00    -0.376 OA
BRANCH   3   4
ATOM      4  C   UNL     1       1.726  -1.830   9.121  1.00  0.00     0.202 C 
BRANCH   4   5
ATOM      5  C   UNL     1       0.630  -1.185   8.263  1.00  0.00     0.261 C 
BRANCH   5   6
ATOM      6  O   UNL     1       0.864  -1.230   6.846  1.00  0.00    -0.459 OA
BRANCH   6   7
ATOM      7  C   UNL     1       1.973  -0.595   6.373  1.00  0.00     0.348 C 
ATOM      8  O   UNL     1       2.724   0.080   7.053  1.00  0.00    -0.245 OA
BRANCH   7   9
ATOM      9  C   UNL     1       2.146  -0.952   4.978  1.00  0.00     0.113 A 
ATOM     10  C   UNL     1       1.756  -1.644   2.778  1.00  0.00     0.019 A 
ATOM     11  C   UNL     1       3.128  -1.560   2.798  1.00  0.00     0.080 A 
ATOM     12  C   UNL     1       1.193  -1.320   4.047  1.00  0.00     0.042 A 
ATOM     13  S   UNL     1       3.720  -1.018   4.312  1.00  0.00    -0.136 S 
BRANCH  10  14
ATOM     14  S   UNL     1       0.704  -2.075   1.439  1.00  0.00    -0.122 SA
BRANCH  14  15
ATOM     15  C   UNL     1       1.827  -2.447   0.028  1.00  0.00     0.055 C 
ATOM     16  C   UNL     1       1.044  -2.214  -1.293  1.00  0.00     0.002 C 
ATOM     17  C   UNL     1       0.049  -3.350  -1.601  1.00  0.00     0.005 C 
ATOM     18  C   UNL     1       0.644  -4.746  -1.488  1.00  0.00     0.000 C 
ATOM     19  C   UNL     1       2.360  -3.885   0.169  1.00  0.00     0.015 C 
ATOM     20  C   UNL     1       1.329  -4.968  -0.146  1.00  0.00     0.001 C 
BRANCH  16  21
ATOM     21  C   UNL     1       1.924  -1.849  -2.518  1.00  0.00     0.001 C 
ATOM     22  C   UNL     1       3.223  -2.605  -2.735  1.00  0.00     0.004 C 
ENDBRANCH  16  21
ENDBRANCH  14  15
ENDBRANCH  10  14
ENDBRANCH   7   9
ENDBRANCH   6   7
ENDBRANCH   5   6
ENDBRANCH   4   5
ENDBRANCH   3   4
ENDBRANCH   2   3
ENDBRANCH   1   2
BRANCH   1  23
ATOM     23  O   UNL     1       0.202  -4.192   7.060  1.00  0.00    -0.377 OA
BRANCH  23  24
ATOM     24  C   UNL     1      -0.284  -5.019   8.115  1.00  0.00     0.188 C 
BRANCH  24  25
ATOM     25  C   UNL     1       0.646  -5.874   9.005  1.00  0.00     0.188 C 
BRANCH  25  26
ATOM     26  O   UNL     1       1.709  -6.513   8.305  1.00  0.00    -0.376 OA
BRANCH  26  27
ATOM     27  C   UNL     1       1.626  -7.928   8.193  1.00  0.00     0.202 C 
BRANCH  27  28
ATOM     28  C   UNL     1       0.710  -8.376   7.050  1.00  0.00     0.261 C 
BRANCH  28  29
ATOM     29  O   UNL     1      -0.674  -8.038   7.236  1.00  0.00    -0.460 OA
BRANCH  29  30
ATOM     30  C   UNL     1      -1.292  -8.580   8.307  1.00  0.00     0.338 C 
ATOM     31  O   UNL     1      -0.830  -9.368   9.112  1.00  0.00    -0.246 OA
BRANCH  30  32
ATOM     32  C   UNL     1      -2.604  -7.925   8.450  1.00  0.00     0.060 A 
ATOM     33  C   UNL     1      -2.930  -7.327   9.674  1.00  0.00     0.016 A 
ATOM     34  C   UNL     1      -3.509  -7.914   7.386  1.00  0.00     0.016 A 
ATOM     35  C   UNL     1      -4.188  -6.751   9.849  1.00  0.00     0.010 A 
ATOM     36  C   UNL     1      -4.772  -7.351   7.567  1.00  0.00     0.010 A 
ATOM     37  C   UNL     1      -5.128  -6.799   8.810  1.00  0.00    -0.014 A 
BRANCH  37  38
ATOM     38  C   UNL     1      -6.542  -6.456   9.076  1.00  0.00     0.031 A 
ATOM     39  C   UNL     1      -7.489  -7.568   9.435  1.00  0.00     0.074 A 
ATOM     40  C   UNL     1      -6.982  -5.189   8.999  1.00  0.00     0.049 A 
ATOM     41  N   UNL     1      -8.773  -7.517   9.681  1.00  0.00    -0.248 NA
ATOM     42  C   UNL     1      -6.908  -8.918   9.526  1.00  0.00     0.031 C 
ATOM     43  C   UNL     1      -6.159  -4.021   8.691  1.00  0.00     0.029 A 
ATOM     44  N   UNL     1      -8.245  -4.680   9.171  1.00  0.00    -0.354 N 
ATOM     45  C   UNL     1      -9.152  -8.825   9.955  1.00  0.00     0.074 A 
ATOM     46  C   UNL     1      -7.972  -9.650   9.816  1.00  0.00     0.031 C 
ATOM     47  C   UNL     1      -6.943  -2.928   8.688  1.00  0.00     0.029 A 
ATOM     48  C   UNL     1      -8.322  -3.325   8.966  1.00  0.00     0.049 A 
ATOM     49  H   UNL     1      -9.020  -5.234   9.417  1.00  0.00     0.167 HD
ATOM     50  C   UNL     1     -10.373  -9.299  10.297  1.00  0.00     0.031 A 
ATOM     51  C   UNL     1      -9.391  -2.505   8.986  1.00  0.00     0.031 A 
ATOM     52  C   UNL     1     -11.553  -8.488  10.410  1.00  0.00     0.049 A 
ATOM     53  C   UNL     1     -10.754  -3.069   9.291  1.00  0.00     0.074 A 
ATOM     54  C   UNL     1     -12.835  -8.874  10.761  1.00  0.00     0.029 A 
ATOM     55  N   UNL     1     -11.597  -7.126  10.162  1.00  0.00    -0.354 N 
ATOM     56  N   UNL     1     -11.094  -4.301   9.585  1.00  0.00    -0.248 NA
ATOM     57  C   UNL     1     -11.880  -2.123   9.272  1.00  0.00     0.031 C 
ATOM     58  C   UNL     1     -13.666  -7.752  10.675  1.00  0.00     0.029 A 
ATOM     59  C   UNL     1     -12.889  -6.659  10.325  1.00  0.00     0.049 A 
ATOM     60  H   UNL     1     -10.824  -6.572   9.907  1.00  0.00     0.167 HD
ATOM     61  C   UNL     1     -12.465  -4.272   9.813  1.00  0.00     0.074 A 
ATOM     62  C   UNL     1     -12.892  -2.900   9.635  1.00  0.00     0.031 C 
ATOM     63  C   UNL     1     -13.296  -5.290  10.145  1.00  0.00     0.031 A 
BRANCH  50  64
ATOM     64  C   UNL     1     -10.489 -10.776  10.541  1.00  0.00    -0.014 A 
ATOM     65  C   UNL     1      -9.952 -11.366  11.696  1.00  0.00     0.009 A 
ATOM     66  C   UNL     1     -11.158 -11.585   9.610  1.00  0.00     0.009 A 
ATOM     67  C   UNL     1     -10.055 -12.743  11.897  1.00  0.00     0.001 A 
ATOM     68  C   UNL     1     -11.280 -12.958   9.826  1.00  0.00     0.001 A 
ATOM     69  C   UNL     1     -10.721 -13.537  10.964  1.00  0.00     0.000 A 
ENDBRANCH  50  64
BRANCH  51  70
ATOM     70  C   UNL     1      -9.226  -1.057   8.694  1.00  0.00    -0.014 A 
ATOM     71  C   UNL     1      -9.384  -0.101   9.709  1.00  0.00     0.009 A 
ATOM     72  C   UNL     1      -8.940  -0.623   7.391  1.00  0.00     0.009 A 
ATOM     73  C   UNL     1      -9.284   1.262   9.418  1.00  0.00     0.001 A 
ATOM     74  C   UNL     1      -8.814   0.739   7.108  1.00  0.00     0.001 A 
ATOM     75  C   UNL     1      -8.996   1.680   8.120  1.00  0.00     0.000 A 
ENDBRANCH  51  70
BRANCH  63  76
ATOM     76  C   UNL     1     -14.743  -4.954  10.373  1.00  0.00    -0.014 A 
ATOM     77  C   UNL     1     -15.600  -4.655   9.303  1.00  0.00     0.009 A 
ATOM     78  C   UNL     1     -15.265  -4.986  11.676  1.00  0.00     0.009 A 
ATOM     79  C   UNL     1     -16.946  -4.364   9.538  1.00  0.00     0.001 A 
ATOM     80  C   UNL     1     -16.616  -4.721  11.904  1.00  0.00     0.001 A 
ATOM     81  C   UNL     1     -17.453  -4.402  10.836  1.00  0.00     0.000 A 
ENDBRANCH  63  76
ENDBRANCH  37  38
ENDBRANCH  30  32
ENDBRANCH  29  30
ENDBRANCH  28  29
ENDBRANCH  27  28
ENDBRANCH  26  27
ENDBRANCH  25  26
ENDBRANCH  24  25
ENDBRANCH  23  24
ENDBRANCH   1  23
TORSDOF 23
