REMARK SMILES C/C(=N\Nc1nc(-c2ccc(Cl)cc2)cs1)c1nnn(-c2ccc(C(=O)OCCOCCOCCOCCOC(=O)c3ccc(-c4c5nc(c(-c6ccccc6)c6ccc([nH]6)c(-c6ccccc6)c6nc(c(-c7ccccc7)c7ccc4[nH]7)C=C6)C=C5)cc3)cc2)c1C
REMARK SMILES IDX 31 1 30 2 29 3 28 4 27 5 25 6 26 7 24 8 21 9 22 10 91 11
REMARK SMILES IDX 23 12 90 13 20 14 17 15 18 16 92 17 19 18 93 19 2 20 1 21
REMARK SMILES IDX 3 22 4 23 5 25 6 26 16 27 7 28 15 29 8 30 9 31 14 32 10 33
REMARK SMILES IDX 13 34 11 35 12 36 32 37 33 38 34 39 35 40 36 41 37 42 38 43
REMARK SMILES IDX 39 44 40 45 41 46 42 47 43 48 89 49 44 50 88 51 45 52 46 53
REMARK SMILES IDX 47 54 82 55 48 56 87 57 81 58 83 59 49 60 86 61 80 62 79 63
REMARK SMILES IDX 50 65 72 66 57 67 71 68 58 69 61 70 70 71 84 72 59 73 60 74
REMARK SMILES IDX 69 76 85 77 62 78 51 79 52 80 56 81 53 82 55 83 54 84 73 85
REMARK SMILES IDX 74 86 78 87 75 88 77 89 76 90 63 91 64 92 68 93 65 94 67 95
REMARK SMILES IDX 66 96
REMARK H PARENT 4 24 83 64 61 75
REMARK Flexibility Score: inf
ROOT
ATOM      1  C   UNL     1       6.834   6.993   6.209  1.00  0.00     0.188 C 
ENDROOT
BRANCH   1   2
ATOM      2  O   UNL     1       8.218   7.262   6.374  1.00  0.00    -0.376 OA
BRANCH   2   3
ATOM      3  C   UNL     1       9.143   6.229   6.109  1.00  0.00     0.202 C 
BRANCH   3   4
ATOM      4  C   UNL     1       9.217   5.697   4.673  1.00  0.00     0.261 C 
BRANCH   4   5
ATOM      5  O   UNL     1       7.959   5.414   4.051  1.00  0.00    -0.460 OA
BRANCH   5   6
ATOM      6  C   UNL     1       7.258   4.360   4.495  1.00  0.00     0.338 C 
ATOM      7  O   UNL     1       7.599   3.561   5.373  1.00  0.00    -0.246 OA
BRANCH   6   8
ATOM      8  C   UNL     1       5.917   4.404   3.877  1.00  0.00     0.060 A 
ATOM      9  C   UNL     1       3.424   4.304   2.668  1.00  0.00     0.067 A 
ATOM     10  C   UNL     1       3.529   3.999   4.030  1.00  0.00     0.029 A 
ATOM     11  C   UNL     1       4.520   4.801   1.953  1.00  0.00     0.029 A 
ATOM     12  C   UNL     1       4.791   4.028   4.627  1.00  0.00     0.018 A 
ATOM     13  C   UNL     1       5.769   4.848   2.557  1.00  0.00     0.018 A 
BRANCH   9  14
ATOM     14  N   UNL     1       2.309   3.823   1.949  1.00  0.00    -0.217 N 
ATOM     15  C   UNL     1       1.078   2.443   0.796  1.00  0.00     0.132 A 
ATOM     16  N   UNL     1       0.269   3.131   1.655  1.00  0.00    -0.128 NA
ATOM     17  C   UNL     1       2.384   2.884   0.934  1.00  0.00     0.071 A 
ATOM     18  N   UNL     1       1.040   3.915   2.404  1.00  0.00    -0.061 NA
ATOM     19  C   UNL     1       3.648   2.330   0.374  1.00  0.00     0.069 C 
BRANCH  15  20
ATOM     20  C   UNL     1       0.689   1.256   0.051  1.00  0.00     0.087 C 
ATOM     21  C   UNL     1       1.371  -0.013   0.511  1.00  0.00     0.071 C 
ATOM     22  N   UNL     1      -0.101   1.446  -0.968  1.00  0.00    -0.176 NA
BRANCH  22  23
ATOM     23  N   UNL     1      -0.409   0.463  -1.881  1.00  0.00    -0.252 N 
ATOM     24  H   UNL     1      -0.738   0.795  -2.747  1.00  0.00     0.193 HD
BRANCH  23  25
ATOM     25  C   UNL     1      -0.336  -0.889  -1.784  1.00  0.00     0.203 A 
ATOM     26  N   UNL     1      -0.535  -1.596  -0.698  1.00  0.00    -0.219 NA
ATOM     27  S   UNL     1       0.170  -1.833  -3.143  1.00  0.00    -0.103 S 
ATOM     28  C   UNL     1       0.023  -2.849  -0.828  1.00  0.00     0.084 A 
ATOM     29  C   UNL     1       0.468  -3.164  -2.093  1.00  0.00     0.097 A 
BRANCH  28  30
ATOM     30  C   UNL     1       0.196  -3.673   0.353  1.00  0.00     0.001 A 
ATOM     31  C   UNL     1      -0.909  -3.938   1.172  1.00  0.00     0.012 A 
ATOM     32  C   UNL     1       1.473  -4.080   0.763  1.00  0.00     0.012 A 
ATOM     33  C   UNL     1      -0.744  -4.620   2.379  1.00  0.00     0.021 A 
ATOM     34  C   UNL     1       1.639  -4.752   1.977  1.00  0.00     0.021 A 
ATOM     35  C   UNL     1       0.529  -5.021   2.778  1.00  0.00     0.041 A 
ATOM     36  Cl  UNL     1       0.737  -5.833   4.280  1.00  0.00    -0.084 Cl
ENDBRANCH  28  30
ENDBRANCH  23  25
ENDBRANCH  22  23
ENDBRANCH  15  20
ENDBRANCH   9  14
ENDBRANCH   6   8
ENDBRANCH   5   6
ENDBRANCH   4   5
ENDBRANCH   3   4
ENDBRANCH   2   3
ENDBRANCH   1   2
BRANCH   1  37
ATOM     37  C   UNL     1       6.207   7.768   5.031  1.00  0.00     0.188 C 
BRANCH  37  38
ATOM     38  O   UNL     1       7.072   8.457   4.141  1.00  0.00    -0.377 OA
BRANCH  38  39
ATOM     39  C   UNL     1       8.012   9.403   4.648  1.00  0.00     0.188 C 
BRANCH  39  40
ATOM     40  C   UNL     1       7.954   9.987   6.086  1.00  0.00     0.188 C 
BRANCH  40  41
ATOM     41  O   UNL     1       6.836   9.599   6.869  1.00  0.00    -0.376 OA
BRANCH  41  42
ATOM     42  C   UNL     1       5.868  10.559   7.239  1.00  0.00     0.202 C 
BRANCH  42  43
ATOM     43  C   UNL     1       4.993  11.069   6.103  1.00  0.00     0.261 C 
BRANCH  43  44
ATOM     44  O   UNL     1       5.719  11.481   4.955  1.00  0.00    -0.460 OA
BRANCH  44  45
ATOM     45  C   UNL     1       6.448  12.589   5.121  1.00  0.00     0.338 C 
ATOM     46  O   UNL     1       6.810  13.098   6.188  1.00  0.00    -0.246 OA
BRANCH  45  47
ATOM     47  C   UNL     1       6.606  13.242   3.831  1.00  0.00     0.060 A 
ATOM     48  C   UNL     1       7.445  14.353   3.792  1.00  0.00     0.016 A 
ATOM     49  C   UNL     1       5.694  12.948   2.801  1.00  0.00     0.016 A 
ATOM     50  C   UNL     1       7.223  15.286   2.809  1.00  0.00     0.010 A 
ATOM     51  C   UNL     1       5.466  13.889   1.827  1.00  0.00     0.010 A 
ATOM     52  C   UNL     1       6.181  15.078   1.892  1.00  0.00    -0.014 A 
BRANCH  52  53
ATOM     53  C   UNL     1       5.942  16.130   0.936  1.00  0.00     0.031 A 
ATOM     54  C   UNL     1       7.010  16.244  -0.067  1.00  0.00     0.074 A 
ATOM     55  C   UNL     1       4.870  16.938   0.947  1.00  0.00     0.049 A 
ATOM     56  N   UNL     1       7.944  17.130  -0.093  1.00  0.00    -0.248 NA
ATOM     57  C   UNL     1       7.155  15.159  -1.045  1.00  0.00     0.031 C 
ATOM     58  C   UNL     1       3.624  16.793   1.698  1.00  0.00     0.029 A 
ATOM     59  N   UNL     1       4.661  18.049   0.192  1.00  0.00    -0.354 N 
ATOM     60  C   UNL     1       8.686  16.843  -1.226  1.00  0.00     0.074 A 
ATOM     61  C   UNL     1       8.273  15.533  -1.667  1.00  0.00     0.031 C 
ATOM     62  C   UNL     1       2.710  17.659   1.200  1.00  0.00     0.029 A 
ATOM     63  C   UNL     1       3.354  18.504   0.206  1.00  0.00     0.049 A 
ATOM     64  H   UNL     1       5.377  18.491  -0.320  1.00  0.00     0.167 HD
ATOM     65  C   UNL     1       9.361  17.829  -1.874  1.00  0.00     0.031 A 
ATOM     66  C   UNL     1       2.843  19.472  -0.590  1.00  0.00     0.031 A 
ATOM     67  C   UNL     1       9.537  18.998  -1.047  1.00  0.00     0.049 A 
ATOM     68  C   UNL     1       3.967  20.308  -1.069  1.00  0.00     0.074 A 
ATOM     69  C   UNL     1      10.127  19.260   0.174  1.00  0.00     0.029 A 
ATOM     70  N   UNL     1       8.715  20.067  -1.310  1.00  0.00    -0.354 N 
ATOM     71  N   UNL     1       4.637  21.120  -0.304  1.00  0.00    -0.248 NA
ATOM     72  C   UNL     1       4.602  19.988  -2.338  1.00  0.00     0.031 C 
ATOM     73  C   UNL     1       9.317  20.269   0.776  1.00  0.00     0.029 A 
ATOM     74  C   UNL     1       8.299  20.599  -0.119  1.00  0.00     0.049 A 
ATOM     75  H   UNL     1       8.468  20.395  -2.205  1.00  0.00     0.167 HD
ATOM     76  C   UNL     1       5.940  21.049  -0.772  1.00  0.00     0.074 A 
ATOM     77  C   UNL     1       5.826  20.468  -2.105  1.00  0.00     0.031 C 
ATOM     78  C   UNL     1       6.997  21.200   0.081  1.00  0.00     0.031 A 
BRANCH  65  79
ATOM     79  C   UNL     1       9.401  17.905  -3.380  1.00  0.00    -0.014 A 
ATOM     80  C   UNL     1      10.133  18.945  -3.977  1.00  0.00     0.009 A 
ATOM     81  C   UNL     1       8.506  17.201  -4.210  1.00  0.00     0.009 A 
ATOM     82  C   UNL     1       9.912  19.314  -5.308  1.00  0.00     0.001 A 
ATOM     83  C   UNL     1       8.317  17.536  -5.551  1.00  0.00     0.001 A 
ATOM     84  C   UNL     1       8.998  18.615  -6.091  1.00  0.00     0.000 A 
ENDBRANCH  65  79
BRANCH  66  85
ATOM     85  C   UNL     1       1.483  19.595  -1.149  1.00  0.00    -0.014 A 
ATOM     86  C   UNL     1       1.070  20.794  -1.751  1.00  0.00     0.009 A 
ATOM     87  C   UNL     1       0.690  18.451  -1.351  1.00  0.00     0.009 A 
ATOM     88  C   UNL     1      -0.062  20.833  -2.573  1.00  0.00     0.001 A 
ATOM     89  C   UNL     1      -0.446  18.492  -2.164  1.00  0.00     0.001 A 
ATOM     90  C   UNL     1      -0.810  19.679  -2.792  1.00  0.00     0.000 A 
ENDBRANCH  66  85
BRANCH  78  91
ATOM     91  C   UNL     1       6.723  21.804   1.436  1.00  0.00    -0.014 A 
ATOM     92  C   UNL     1       5.820  21.253   2.362  1.00  0.00     0.009 A 
ATOM     93  C   UNL     1       7.481  22.918   1.831  1.00  0.00     0.009 A 
ATOM     94  C   UNL     1       5.645  21.831   3.624  1.00  0.00     0.001 A 
ATOM     95  C   UNL     1       7.325  23.479   3.100  1.00  0.00     0.001 A 
ATOM     96  C   UNL     1       6.400  22.943   3.992  1.00  0.00     0.000 A 
ENDBRANCH  78  91
ENDBRANCH  52  53
ENDBRANCH  45  47
ENDBRANCH  44  45
ENDBRANCH  43  44
ENDBRANCH  42  43
ENDBRANCH  41  42
ENDBRANCH  40  41
ENDBRANCH  39  40
ENDBRANCH  38  39
ENDBRANCH  37  38
ENDBRANCH   1  37
TORSDOF 25
