REMARK SMILES COc1cc([C@@H]2[NH2+][C@@H](C(=O)OCCOCCOCCOCCOC(=O)c3ccc(-c4c5nc(c(-c6ccccc6)c6ccc([nH]6)c(-c6ccccc6)c6nc(c(-c7ccccc7)c7ccc4[nH]7)C=C6)C=C5)cc3)CS2)cc(Cl)c1O
REMARK SMILES IDX 17 1 16 2 15 3 14 4 13 5 12 6 11 7 9 8 10 9 8 10 6 11 7 12
REMARK SMILES IDX 75 13 74 16 5 17 3 18 4 19 79 20 77 21 76 22 78 23 2 24 1 25
REMARK SMILES IDX 80 26 18 28 19 29 20 30 21 31 22 32 23 33 24 34 25 35 26 36
REMARK SMILES IDX 27 37 73 38 28 39 72 40 29 41 30 42 31 43 66 44 32 45 71 46
REMARK SMILES IDX 65 47 67 48 33 49 70 50 64 51 63 52 34 54 56 55 41 56 55 57
REMARK SMILES IDX 42 58 45 59 54 60 68 61 43 62 44 63 53 65 69 66 46 67 35 68
REMARK SMILES IDX 36 69 40 70 37 71 39 72 38 73 57 74 58 75 62 76 59 77 61 78
REMARK SMILES IDX 60 79 47 80 48 81 52 82 49 83 51 84 50 85
REMARK H PARENT 7 14 7 15 80 27 67 53 45 64
REMARK Flexibility Score: inf
ROOT
ATOM      1  O   UNL     1      -5.091   0.184   5.694  1.00  0.00    -0.377 OA
ENDROOT
BRANCH   1   2
ATOM      2  C   UNL     1      -4.250   1.327   5.782  1.00  0.00     0.188 C 
BRANCH   2   3
ATOM      3  C   UNL     1      -5.037   2.633   5.531  1.00  0.00     0.188 C 
BRANCH   3   4
ATOM      4  O   UNL     1      -6.438   2.427   5.425  1.00  0.00    -0.376 OA
BRANCH   4   5
ATOM      5  C   UNL     1      -6.972   2.011   4.173  1.00  0.00     0.202 C 
BRANCH   5   6
ATOM      6  C   UNL     1      -6.187   1.108   3.198  1.00  0.00     0.261 C 
BRANCH   6   7
ATOM      7  O   UNL     1      -4.805   1.445   2.967  1.00  0.00    -0.459 OA
BRANCH   7   8
ATOM      8  C   UNL     1      -4.530   2.596   2.302  1.00  0.00     0.365 C 
ATOM      9  O   UNL     1      -5.390   3.324   1.824  1.00  0.00    -0.245 OA
BRANCH   8  10
ATOM     10  C   UNL     1      -3.005   2.842   2.212  1.00  0.00     0.304 C 
ATOM     11  C   UNL     1      -1.052   3.502   3.499  1.00  0.00     0.274 C 
ATOM     12  N   UNL     1      -2.300   2.740   3.529  1.00  0.00    -0.319 N 
ATOM     13  S   UNL     1      -1.407   4.991   2.552  1.00  0.00    -0.087 SA
ATOM     14  H   UNL     1      -2.903   3.110   4.263  1.00  0.00     0.348 HD
ATOM     15  H   UNL     1      -2.085   1.760   3.714  1.00  0.00     0.348 HD
ATOM     16  C   UNL     1      -2.724   4.209   1.583  1.00  0.00     0.153 C 
BRANCH  11  17
ATOM     17  C   UNL     1       0.169   2.765   2.990  1.00  0.00     0.025 A 
ATOM     18  C   UNL     1       1.398   1.644   1.219  1.00  0.00     0.162 A 
ATOM     19  C   UNL     1       0.215   2.177   1.717  1.00  0.00     0.061 A 
ATOM     20  C   UNL     1       2.575   1.710   1.956  1.00  0.00     0.176 A 
ATOM     21  C   UNL     1       2.549   2.241   3.243  1.00  0.00     0.087 A 
ATOM     22  C   UNL     1       1.353   2.759   3.759  1.00  0.00     0.035 A 
ATOM     23  Cl  UNL     1       3.977   2.333   4.206  1.00  0.00    -0.080 Cl
BRANCH  18  24
ATOM     24  O   UNL     1       1.413   1.147  -0.058  1.00  0.00    -0.493 OA
ATOM     25  C   UNL     1       1.073  -0.242  -0.051  1.00  0.00     0.278 C 
ENDBRANCH  18  24
BRANCH  20  26
ATOM     26  O   UNL     1       3.742   1.284   1.383  1.00  0.00    -0.503 OA
ATOM     27  H   UNL     1       3.736   0.930   0.515  1.00  0.00     0.293 HD
ENDBRANCH  20  26
ENDBRANCH  11  17
ENDBRANCH   8  10
ENDBRANCH   7   8
ENDBRANCH   6   7
ENDBRANCH   5   6
ENDBRANCH   4   5
ENDBRANCH   3   4
ENDBRANCH   2   3
ENDBRANCH   1   2
BRANCH   1  28
ATOM     28  C   UNL     1      -5.749  -0.207   6.893  1.00  0.00     0.188 C 
BRANCH  28  29
ATOM     29  C   UNL     1      -6.270   0.866   7.878  1.00  0.00     0.188 C 
BRANCH  29  30
ATOM     30  O   UNL     1      -5.333   1.903   8.143  1.00  0.00    -0.376 OA
BRANCH  30  31
ATOM     31  C   UNL     1      -4.673   1.960   9.391  1.00  0.00     0.202 C 
BRANCH  31  32
ATOM     32  C   UNL     1      -3.592   0.903   9.646  1.00  0.00     0.261 C 
BRANCH  32  33
ATOM     33  O   UNL     1      -3.976  -0.455   9.403  1.00  0.00    -0.460 OA
BRANCH  33  34
ATOM     34  C   UNL     1      -4.935  -0.973  10.208  1.00  0.00     0.338 C 
ATOM     35  O   UNL     1      -5.488  -0.431  11.135  1.00  0.00    -0.246 OA
BRANCH  34  36
ATOM     36  C   UNL     1      -5.340  -2.269   9.614  1.00  0.00     0.060 A 
ATOM     37  C   UNL     1      -6.683  -2.455   9.258  1.00  0.00     0.016 A 
ATOM     38  C   UNL     1      -4.393  -3.264   9.362  1.00  0.00     0.016 A 
ATOM     39  C   UNL     1      -7.088  -3.655   8.675  1.00  0.00     0.010 A 
ATOM     40  C   UNL     1      -4.804  -4.476   8.806  1.00  0.00     0.010 A 
ATOM     41  C   UNL     1      -6.159  -4.687   8.495  1.00  0.00    -0.014 A 
BRANCH  41  42
ATOM     42  C   UNL     1      -6.641  -6.058   8.216  1.00  0.00     0.031 A 
ATOM     43  C   UNL     1      -6.844  -6.980   9.385  1.00  0.00     0.074 A 
ATOM     44  C   UNL     1      -6.913  -6.472   6.968  1.00  0.00     0.049 A 
ATOM     45  N   UNL     1      -7.235  -8.228   9.404  1.00  0.00    -0.248 NA
ATOM     46  C   UNL     1      -6.561  -6.413  10.714  1.00  0.00     0.031 C 
ATOM     47  C   UNL     1      -6.815  -5.655   5.761  1.00  0.00     0.029 A 
ATOM     48  N   UNL     1      -7.331  -7.698   6.518  1.00  0.00    -0.354 N 
ATOM     49  C   UNL     1      -7.234  -8.597  10.743  1.00  0.00     0.074 A 
ATOM     50  C   UNL     1      -6.771  -7.455  11.500  1.00  0.00     0.031 C 
ATOM     51  C   UNL     1      -7.170  -6.405   4.702  1.00  0.00     0.029 A 
ATOM     52  C   UNL     1      -7.480  -7.761   5.155  1.00  0.00     0.049 A 
ATOM     53  H   UNL     1      -7.508  -8.461   7.115  1.00  0.00     0.167 HD
ATOM     54  C   UNL     1      -7.590  -9.780  11.297  1.00  0.00     0.031 A 
ATOM     55  C   UNL     1      -7.815  -8.800   4.367  1.00  0.00     0.031 A 
ATOM     56  C   UNL     1      -8.016 -10.924  10.539  1.00  0.00     0.049 A 
ATOM     57  C   UNL     1      -8.100 -10.140   4.993  1.00  0.00     0.074 A 
ATOM     58  C   UNL     1      -8.408 -12.168  11.000  1.00  0.00     0.029 A 
ATOM     59  N   UNL     1      -8.085 -10.969   9.154  1.00  0.00    -0.354 N 
ATOM     60  N   UNL     1      -8.125 -10.475   6.261  1.00  0.00    -0.248 NA
ATOM     61  C   UNL     1      -8.409 -11.245   4.074  1.00  0.00     0.031 C 
ATOM     62  C   UNL     1      -8.644 -12.988   9.890  1.00  0.00     0.029 A 
ATOM     63  C   UNL     1      -8.475 -12.232   8.741  1.00  0.00     0.049 A 
ATOM     64  H   UNL     1      -7.887 -10.214   8.554  1.00  0.00     0.167 HD
ATOM     65  C   UNL     1      -8.485 -11.818   6.294  1.00  0.00     0.074 A 
ATOM     66  C   UNL     1      -8.676 -12.232   4.918  1.00  0.00     0.031 C 
ATOM     67  C   UNL     1      -8.651 -12.632   7.367  1.00  0.00     0.031 A 
BRANCH  54  68
ATOM     68  C   UNL     1      -7.461  -9.897  12.792  1.00  0.00    -0.014 A 
ATOM     69  C   UNL     1      -8.281  -9.160  13.663  1.00  0.00     0.009 A 
ATOM     70  C   UNL     1      -6.482 -10.741  13.336  1.00  0.00     0.009 A 
ATOM     71  C   UNL     1      -8.081  -9.222  15.044  1.00  0.00     0.001 A 
ATOM     72  C   UNL     1      -6.309 -10.830  14.719  1.00  0.00     0.001 A 
ATOM     73  C   UNL     1      -7.098 -10.058  15.570  1.00  0.00     0.000 A 
ENDBRANCH  54  68
BRANCH  55  74
ATOM     74  C   UNL     1      -7.906  -8.615   2.895  1.00  0.00    -0.014 A 
ATOM     75  C   UNL     1      -9.150  -8.660   2.248  1.00  0.00     0.009 A 
ATOM     76  C   UNL     1      -6.751  -8.389   2.128  1.00  0.00     0.009 A 
ATOM     77  C   UNL     1      -9.236  -8.496   0.864  1.00  0.00     0.001 A 
ATOM     78  C   UNL     1      -6.843  -8.198   0.748  1.00  0.00     0.001 A 
ATOM     79  C   UNL     1      -8.084  -8.258   0.116  1.00  0.00     0.000 A 
ENDBRANCH  55  74
BRANCH  67  80
ATOM     80  C   UNL     1      -9.100 -14.045   7.101  1.00  0.00    -0.014 A 
ATOM     81  C   UNL     1      -8.248 -14.988   6.505  1.00  0.00     0.009 A 
ATOM     82  C   UNL     1     -10.384 -14.449   7.501  1.00  0.00     0.009 A 
ATOM     83  C   UNL     1      -8.688 -16.295   6.282  1.00  0.00     0.001 A 
ATOM     84  C   UNL     1     -10.808 -15.764   7.309  1.00  0.00     0.001 A 
ATOM     85  C   UNL     1      -9.964 -16.684   6.690  1.00  0.00     0.000 A 
ENDBRANCH  67  80
ENDBRANCH  41  42
ENDBRANCH  34  36
ENDBRANCH  33  34
ENDBRANCH  32  33
ENDBRANCH  31  32
ENDBRANCH  30  31
ENDBRANCH  29  30
ENDBRANCH  28  29
ENDBRANCH   1  28
TORSDOF 23
