REMARK SMILES O=C(OCCOCCOCCOCCOC(=O)[C@@H]1CC=CC[C@H]1C(=O)N1CC[NH+](Cc2ccc3c(c2)OCO3)CC1)c1ccc(-c2c3nc(c(-c4ccccc4)c4ccc([nH]4)c(-c4ccccc4)c4nc(c(-c5ccccc5)c5ccc2[nH]5)C=C4)C=C3)cc1
REMARK SMILES IDX 10 1 9 2 8 3 7 4 6 5 5 6 4 7 3 8 2 9 1 10 42 11 43 12 89 13
REMARK SMILES IDX 44 14 88 15 45 16 46 17 47 18 82 19 48 20 87 21 81 22 83 23
REMARK SMILES IDX 49 24 86 25 80 26 79 27 50 29 72 30 57 31 71 32 58 33 61 34
REMARK SMILES IDX 70 35 84 36 59 37 60 38 69 40 85 41 62 42 51 43 52 44 56 45
REMARK SMILES IDX 53 46 55 47 54 48 73 49 74 50 78 51 75 52 77 53 76 54 63 55
REMARK SMILES IDX 64 56 68 57 65 58 67 59 66 60 11 61 12 62 13 63 14 64 15 65
REMARK SMILES IDX 16 66 17 67 18 68 19 69 23 70 20 71 22 72 21 73 24 74 25 75
REMARK SMILES IDX 26 76 27 77 41 78 28 79 40 80 29 81 30 83 31 84 32 85 36 86
REMARK SMILES IDX 33 87 35 88 34 89 37 90 39 91 38 92
REMARK H PARENT 83 28 61 39 29 82
REMARK Flexibility Score: inf
ROOT
ATOM      1  C   UNL     1       3.675   1.349   3.228  1.00  0.00     0.188 C 
ENDROOT
BRANCH   1   2
ATOM      2  O   UNL     1       4.876   0.590   3.325  1.00  0.00    -0.377 OA
BRANCH   2   3
ATOM      3  C   UNL     1       5.501   0.195   2.109  1.00  0.00     0.188 C 
BRANCH   3   4
ATOM      4  C   UNL     1       4.807  -1.010   1.492  1.00  0.00     0.188 C 
BRANCH   4   5
ATOM      5  O   UNL     1       3.466  -0.666   1.156  1.00  0.00    -0.376 OA
BRANCH   5   6
ATOM      6  C   UNL     1       2.598  -1.753   0.910  1.00  0.00     0.202 C 
BRANCH   6   7
ATOM      7  C   UNL     1       2.657  -2.312  -0.514  1.00  0.00     0.261 C 
BRANCH   7   8
ATOM      8  O   UNL     1       3.993  -2.379  -1.060  1.00  0.00    -0.460 OA
BRANCH   8   9
ATOM      9  C   UNL     1       4.436  -1.628  -2.104  1.00  0.00     0.338 C 
ATOM     10  O   UNL     1       5.424  -1.955  -2.763  1.00  0.00    -0.246 OA
BRANCH   9  11
ATOM     11  C   UNL     1       3.707  -0.393  -2.461  1.00  0.00     0.060 A 
ATOM     12  C   UNL     1       3.423   0.558  -1.490  1.00  0.00     0.016 A 
ATOM     13  C   UNL     1       3.321  -0.149  -3.779  1.00  0.00     0.016 A 
ATOM     14  C   UNL     1       2.548   1.597  -1.746  1.00  0.00     0.010 A 
ATOM     15  C   UNL     1       2.572   0.996  -4.079  1.00  0.00     0.010 A 
ATOM     16  C   UNL     1       2.128   1.847  -3.051  1.00  0.00    -0.014 A 
BRANCH  16  17
ATOM     17  C   UNL     1       1.185   2.965  -3.303  1.00  0.00     0.031 A 
ATOM     18  C   UNL     1      -0.151   2.663  -3.921  1.00  0.00     0.074 A 
ATOM     19  C   UNL     1       1.485   4.216  -2.898  1.00  0.00     0.049 A 
ATOM     20  N   UNL     1      -1.051   3.487  -4.390  1.00  0.00    -0.248 NA
ATOM     21  C   UNL     1      -0.525   1.242  -4.032  1.00  0.00     0.031 C 
ATOM     22  C   UNL     1       2.700   4.612  -2.177  1.00  0.00     0.029 A 
ATOM     23  N   UNL     1       0.775   5.386  -3.000  1.00  0.00    -0.354 N 
ATOM     24  C   UNL     1      -2.055   2.684  -4.917  1.00  0.00     0.074 A 
ATOM     25  C   UNL     1      -1.669   1.310  -4.695  1.00  0.00     0.031 C 
ATOM     26  C   UNL     1       2.619   5.909  -1.846  1.00  0.00     0.029 A 
ATOM     27  C   UNL     1       1.414   6.468  -2.440  1.00  0.00     0.049 A 
ATOM     28  H   UNL     1      -0.106   5.445  -3.434  1.00  0.00     0.167 HD
ATOM     29  C   UNL     1      -3.188   3.068  -5.550  1.00  0.00     0.031 A 
ATOM     30  C   UNL     1       1.093   7.775  -2.458  1.00  0.00     0.031 A 
ATOM     31  C   UNL     1      -3.562   4.443  -5.731  1.00  0.00     0.049 A 
ATOM     32  C   UNL     1      -0.133   8.182  -3.225  1.00  0.00     0.074 A 
ATOM     33  C   UNL     1      -4.645   4.969  -6.409  1.00  0.00     0.029 A 
ATOM     34  N   UNL     1      -2.854   5.515  -5.204  1.00  0.00    -0.354 N 
ATOM     35  N   UNL     1      -1.022   7.422  -3.821  1.00  0.00    -0.248 NA
ATOM     36  C   UNL     1      -0.381   9.622  -3.356  1.00  0.00     0.031 C 
ATOM     37  C   UNL     1      -4.572   6.364  -6.321  1.00  0.00     0.029 A 
ATOM     38  C   UNL     1      -3.469   6.702  -5.551  1.00  0.00     0.049 A 
ATOM     39  H   UNL     1      -2.036   5.440  -4.662  1.00  0.00     0.167 HD
ATOM     40  C   UNL     1      -1.932   8.291  -4.402  1.00  0.00     0.074 A 
ATOM     41  C   UNL     1      -1.507   9.634  -4.054  1.00  0.00     0.031 C 
ATOM     42  C   UNL     1      -3.012   8.014  -5.173  1.00  0.00     0.031 A 
BRANCH  29  43
ATOM     43  C   UNL     1      -4.034   1.987  -6.158  1.00  0.00    -0.014 A 
ATOM     44  C   UNL     1      -4.842   1.148  -5.377  1.00  0.00     0.009 A 
ATOM     45  C   UNL     1      -3.993   1.788  -7.548  1.00  0.00     0.009 A 
ATOM     46  C   UNL     1      -5.563   0.109  -5.971  1.00  0.00     0.001 A 
ATOM     47  C   UNL     1      -4.731   0.763  -8.142  1.00  0.00     0.001 A 
ATOM     48  C   UNL     1      -5.507  -0.083  -7.352  1.00  0.00     0.000 A 
ENDBRANCH  29  43
BRANCH  30  49
ATOM     49  C   UNL     1       1.989   8.789  -1.834  1.00  0.00    -0.014 A 
ATOM     50  C   UNL     1       1.553   9.575  -0.757  1.00  0.00     0.009 A 
ATOM     51  C   UNL     1       3.288   8.993  -2.331  1.00  0.00     0.009 A 
ATOM     52  C   UNL     1       2.388  10.555  -0.209  1.00  0.00     0.001 A 
ATOM     53  C   UNL     1       4.133   9.946  -1.758  1.00  0.00     0.001 A 
ATOM     54  C   UNL     1       3.678  10.735  -0.705  1.00  0.00     0.000 A 
ENDBRANCH  30  49
BRANCH  42  55
ATOM     55  C   UNL     1      -3.807   9.187  -5.658  1.00  0.00    -0.014 A 
ATOM     56  C   UNL     1      -3.342   9.983  -6.715  1.00  0.00     0.009 A 
ATOM     57  C   UNL     1      -5.053   9.467  -5.078  1.00  0.00     0.009 A 
ATOM     58  C   UNL     1      -4.105  11.060  -7.167  1.00  0.00     0.001 A 
ATOM     59  C   UNL     1      -5.823  10.529  -5.549  1.00  0.00     0.001 A 
ATOM     60  C   UNL     1      -5.345  11.328  -6.588  1.00  0.00     0.000 A 
ENDBRANCH  42  55
ENDBRANCH  16  17
ENDBRANCH   9  11
ENDBRANCH   8   9
ENDBRANCH   7   8
ENDBRANCH   6   7
ENDBRANCH   5   6
ENDBRANCH   4   5
ENDBRANCH   3   4
ENDBRANCH   2   3
ENDBRANCH   1   2
BRANCH   1  61
ATOM     61  C   UNL     1       3.839   2.857   3.006  1.00  0.00     0.188 C 
BRANCH  61  62
ATOM     62  O   UNL     1       4.713   3.215   1.950  1.00  0.00    -0.376 OA
BRANCH  62  63
ATOM     63  C   UNL     1       6.065   3.578   2.259  1.00  0.00     0.202 C 
BRANCH  63  64
ATOM     64  C   UNL     1       6.582   3.634   3.710  1.00  0.00     0.261 C 
BRANCH  64  65
ATOM     65  O   UNL     1       6.304   2.417   4.413  1.00  0.00    -0.463 OA
BRANCH  65  66
ATOM     66  C   UNL     1       6.477   2.433   5.760  1.00  0.00     0.310 C 
ATOM     67  O   UNL     1       7.201   3.232   6.350  1.00  0.00    -0.252 OA
BRANCH  66  68
ATOM     68  C   UNL     1       5.477   1.497   6.439  1.00  0.00     0.115 C 
ATOM     69  C   UNL     1       4.438   2.424   7.097  1.00  0.00     0.043 C 
ATOM     70  C   UNL     1       6.150   0.454   7.346  1.00  0.00     0.097 C 
ATOM     71  C   UNL     1       3.709   1.860   8.265  1.00  0.00    -0.030 C 
ATOM     72  C   UNL     1       5.381   0.041   8.622  1.00  0.00     0.041 C 
ATOM     73  C   UNL     1       4.139   0.800   8.950  1.00  0.00    -0.030 C 
BRANCH  70  74
ATOM     74  C   UNL     1       6.566  -0.831   6.594  1.00  0.00     0.227 C 
ATOM     75  O   UNL     1       7.746  -1.015   6.292  1.00  0.00    -0.275 OA
ATOM     76  N   UNL     1       5.598  -1.826   6.397  1.00  0.00    -0.331 N 
ATOM     77  C   UNL     1       6.019  -3.191   6.700  1.00  0.00     0.181 C 
ATOM     78  C   UNL     1       4.764  -1.751   5.204  1.00  0.00     0.181 C 
ATOM     79  C   UNL     1       4.859  -4.212   6.664  1.00  0.00     0.284 C 
ATOM     80  C   UNL     1       3.630  -2.789   5.131  1.00  0.00     0.284 C 
ATOM     81  N   UNL     1       3.983  -4.162   5.490  1.00  0.00    -0.328 N 
ATOM     82  H   UNL     1       3.113  -4.594   5.800  1.00  0.00     0.348 HD
BRANCH  81  83
ATOM     83  C   UNL     1       4.261  -5.090   4.391  1.00  0.00     0.299 C 
BRANCH  83  84
ATOM     84  C   UNL     1       5.519  -4.871   3.583  1.00  0.00     0.010 A 
ATOM     85  C   UNL     1       6.785  -5.210   4.106  1.00  0.00     0.013 A 
ATOM     86  C   UNL     1       5.449  -4.331   2.290  1.00  0.00     0.060 A 
ATOM     87  C   UNL     1       7.966  -4.891   3.426  1.00  0.00     0.051 A 
ATOM     88  C   UNL     1       6.628  -4.024   1.641  1.00  0.00     0.166 A 
ATOM     89  C   UNL     1       7.854  -4.272   2.204  1.00  0.00     0.165 A 
ATOM     90  O   UNL     1       6.731  -3.417   0.429  1.00  0.00    -0.454 OA
ATOM     91  O   UNL     1       8.881  -3.836   1.427  1.00  0.00    -0.454 OA
ATOM     92  C   UNL     1       8.155  -3.205   0.351  1.00  0.00     0.468 C 
ENDBRANCH  83  84
ENDBRANCH  81  83
ENDBRANCH  70  74
ENDBRANCH  66  68
ENDBRANCH  65  66
ENDBRANCH  64  65
ENDBRANCH  63  64
ENDBRANCH  62  63
ENDBRANCH  61  62
ENDBRANCH   1  61
TORSDOF 23
