REMARK SMILES NS(=O)(=O)c1ccc(-n2nc(C(=O)OCCOCCOCCOCCOC(=O)c3ccc(-c4c5nc(c(-c6ccccc6)c6ccc([nH]6)c(-c6ccccc6)c6nc(c(-c7ccccc7)c7ccc4[nH]7)C=C6)C=C5)cc3)cc2-c2cc3ccccc3s2)cc1
REMARK SMILES IDX 19 1 18 2 17 3 16 4 15 5 14 6 12 7 13 8 11 9 9 10 10 11
REMARK SMILES IDX 78 12 77 13 8 14 5 15 6 16 89 17 7 18 88 19 2 20 3 21 4 22
REMARK SMILES IDX 1 23 79 26 80 27 87 28 81 29 86 30 82 31 85 32 83 33 84 34
REMARK SMILES IDX 20 35 21 36 22 37 23 38 24 39 25 40 26 41 27 42 28 43 29 44
REMARK SMILES IDX 30 45 76 46 31 47 75 48 32 49 33 50 34 51 69 52 35 53 74 54
REMARK SMILES IDX 68 55 70 56 36 57 73 58 67 59 66 60 37 62 59 63 44 64 58 65
REMARK SMILES IDX 45 66 48 67 57 68 71 69 46 70 47 71 56 73 72 74 49 75 38 76
REMARK SMILES IDX 39 77 43 78 40 79 42 80 41 81 60 82 61 83 65 84 62 85 64 86
REMARK SMILES IDX 63 87 50 88 51 89 55 90 52 91 54 92 53 93
REMARK H PARENT 1 24 1 25 70 61 48 72
REMARK Flexibility Score: inf
ROOT
ATOM      1  C   UNL     1       4.529  -3.978  -8.594  1.00  0.00     0.188 C 
ENDROOT
BRANCH   1   2
ATOM      2  C   UNL     1       5.738  -4.442  -7.752  1.00  0.00     0.188 C 
BRANCH   2   3
ATOM      3  O   UNL     1       6.733  -5.298  -8.296  1.00  0.00    -0.376 OA
BRANCH   3   4
ATOM      4  C   UNL     1       6.460  -6.487  -9.015  1.00  0.00     0.202 C 
BRANCH   4   5
ATOM      5  C   UNL     1       5.291  -7.438  -8.716  1.00  0.00     0.261 C 
BRANCH   5   6
ATOM      6  O   UNL     1       4.192  -6.885  -8.012  1.00  0.00    -0.458 OA
BRANCH   6   7
ATOM      7  C   UNL     1       4.281  -6.873  -6.651  1.00  0.00     0.358 C 
ATOM      8  O   UNL     1       5.160  -7.425  -6.003  1.00  0.00    -0.244 OA
BRANCH   7   9
ATOM      9  C   UNL     1       3.201  -6.048  -6.096  1.00  0.00     0.171 A 
ATOM     10  N   UNL     1       1.922  -5.019  -4.736  1.00  0.00    -0.231 N 
ATOM     11  N   UNL     1       3.205  -5.441  -4.895  1.00  0.00    -0.160 NA
ATOM     12  C   UNL     1       1.127  -5.398  -5.790  1.00  0.00     0.085 A 
ATOM     13  C   UNL     1       2.017  -5.730  -6.789  1.00  0.00     0.068 A 
BRANCH  10  14
ATOM     14  C   UNL     1       1.568  -4.230  -3.633  1.00  0.00     0.065 A 
ATOM     15  C   UNL     1       0.904  -2.674  -1.446  1.00  0.00     0.082 A 
ATOM     16  C   UNL     1       0.436  -3.993  -1.534  1.00  0.00     0.024 A 
ATOM     17  C   UNL     1       1.709  -2.127  -2.451  1.00  0.00     0.024 A 
ATOM     18  C   UNL     1       0.754  -4.773  -2.642  1.00  0.00     0.030 A 
ATOM     19  C   UNL     1       2.063  -2.920  -3.544  1.00  0.00     0.030 A 
BRANCH  15  20
ATOM     20  S   UNL     1       0.446  -1.748  -0.011  1.00  0.00     0.238 S 
ATOM     21  O   UNL     1       1.089  -2.359   1.141  1.00  0.00    -0.207 OA
ATOM     22  O   UNL     1      -0.963  -1.490  -0.071  1.00  0.00    -0.207 OA
BRANCH  20  23
ATOM     23  N   UNL     1       1.193  -0.253  -0.188  1.00  0.00    -0.225 NA
ATOM     24  H   UNL     1       0.968   0.337   0.613  1.00  0.00     0.137 HD
ATOM     25  H   UNL     1       0.860   0.194  -1.043  1.00  0.00     0.137 HD
ENDBRANCH  20  23
ENDBRANCH  15  20
ENDBRANCH  10  14
BRANCH  12  26
ATOM     26  C   UNL     1      -0.288  -5.662  -5.860  1.00  0.00     0.054 A 
ATOM     27  C   UNL     1      -1.205  -5.065  -6.721  1.00  0.00     0.031 A 
ATOM     28  S   UNL     1      -0.695  -7.374  -5.965  1.00  0.00    -0.134 S 
ATOM     29  C   UNL     1      -1.191  -5.857  -7.947  1.00  0.00    -0.007 A 
ATOM     30  C   UNL     1      -0.699  -7.147  -7.694  1.00  0.00     0.035 A 
ATOM     31  C   UNL     1      -1.416  -5.486  -9.290  1.00  0.00     0.009 A 
ATOM     32  C   UNL     1      -0.255  -8.001  -8.715  1.00  0.00     0.019 A 
ATOM     33  C   UNL     1      -0.950  -6.318 -10.317  1.00  0.00     0.001 A 
ATOM     34  C   UNL     1      -0.334  -7.533 -10.028  1.00  0.00     0.001 A 
ENDBRANCH  12  26
ENDBRANCH   7   9
ENDBRANCH   6   7
ENDBRANCH   5   6
ENDBRANCH   4   5
ENDBRANCH   3   4
ENDBRANCH   2   3
ENDBRANCH   1   2
BRANCH   1  35
ATOM     35  O   UNL     1       4.358  -4.696  -9.803  1.00  0.00    -0.377 OA
BRANCH  35  36
ATOM     36  C   UNL     1       4.960  -4.115 -10.960  1.00  0.00     0.188 C 
BRANCH  36  37
ATOM     37  C   UNL     1       6.361  -3.453 -10.846  1.00  0.00     0.188 C 
BRANCH  37  38
ATOM     38  O   UNL     1       6.608  -2.766  -9.627  1.00  0.00    -0.376 OA
BRANCH  38  39
ATOM     39  C   UNL     1       6.679  -1.357  -9.518  1.00  0.00     0.202 C 
BRANCH  39  40
ATOM     40  C   UNL     1       5.385  -0.576  -9.720  1.00  0.00     0.261 C 
BRANCH  40  41
ATOM     41  O   UNL     1       4.611  -1.062 -10.796  1.00  0.00    -0.460 OA
BRANCH  41  42
ATOM     42  C   UNL     1       5.168  -0.877 -12.006  1.00  0.00     0.338 C 
ATOM     43  O   UNL     1       6.291  -0.474 -12.254  1.00  0.00    -0.246 OA
BRANCH  42  44
ATOM     44  C   UNL     1       4.133  -1.106 -13.012  1.00  0.00     0.060 A 
ATOM     45  C   UNL     1       4.548  -0.969 -14.334  1.00  0.00     0.016 A 
ATOM     46  C   UNL     1       2.794  -0.970 -12.611  1.00  0.00     0.016 A 
ATOM     47  C   UNL     1       3.679  -0.357 -15.197  1.00  0.00     0.010 A 
ATOM     48  C   UNL     1       1.942  -0.329 -13.462  1.00  0.00     0.010 A 
ATOM     49  C   UNL     1       2.443   0.066 -14.697  1.00  0.00    -0.014 A 
BRANCH  49  50
ATOM     50  C   UNL     1       1.634   0.902 -15.540  1.00  0.00     0.031 A 
ATOM     51  C   UNL     1       0.908   0.114 -16.543  1.00  0.00     0.074 A 
ATOM     52  C   UNL     1       1.517   2.226 -15.349  1.00  0.00     0.049 A 
ATOM     53  N   UNL     1       1.211  -0.029 -17.788  1.00  0.00    -0.248 NA
ATOM     54  C   UNL     1      -0.124  -0.812 -16.049  1.00  0.00     0.031 C 
ATOM     55  C   UNL     1       1.951   3.028 -14.201  1.00  0.00     0.029 A 
ATOM     56  N   UNL     1       0.869   3.127 -16.128  1.00  0.00    -0.354 N 
ATOM     57  C   UNL     1       0.249  -0.894 -18.286  1.00  0.00     0.074 A 
ATOM     58  C   UNL     1      -0.355  -1.532 -17.145  1.00  0.00     0.031 C 
ATOM     59  C   UNL     1       1.344   4.238 -14.255  1.00  0.00     0.029 A 
ATOM     60  C   UNL     1       0.606   4.336 -15.504  1.00  0.00     0.049 A 
ATOM     61  H   UNL     1       0.607   2.937 -17.058  1.00  0.00     0.167 HD
ATOM     62  C   UNL     1      -0.222  -0.749 -19.552  1.00  0.00     0.031 A 
ATOM     63  C   UNL     1      -0.231   5.295 -15.970  1.00  0.00     0.031 A 
ATOM     64  C   UNL     1       0.646   0.087 -20.346  1.00  0.00     0.049 A 
ATOM     65  C   UNL     1      -0.432   5.042 -17.418  1.00  0.00     0.074 A 
ATOM     66  C   UNL     1       1.956   0.021 -20.772  1.00  0.00     0.029 A 
ATOM     67  N   UNL     1       0.260   1.400 -20.475  1.00  0.00    -0.354 N 
ATOM     68  N   UNL     1       0.507   5.169 -18.310  1.00  0.00    -0.248 NA
ATOM     69  C   UNL     1      -1.570   4.233 -17.827  1.00  0.00     0.031 C 
ATOM     70  C   UNL     1       2.423   1.369 -20.767  1.00  0.00     0.029 A 
ATOM     71  C   UNL     1       1.367   2.201 -20.388  1.00  0.00     0.049 A 
ATOM     72  H   UNL     1      -0.663   1.714 -20.608  1.00  0.00     0.167 HD
ATOM     73  C   UNL     1       0.298   4.125 -19.200  1.00  0.00     0.074 A 
ATOM     74  C   UNL     1      -1.062   3.667 -18.927  1.00  0.00     0.031 C 
ATOM     75  C   UNL     1       1.346   3.552 -19.862  1.00  0.00     0.031 A 
BRANCH  62  76
ATOM     76  C   UNL     1      -1.684  -0.928 -19.887  1.00  0.00    -0.014 A 
ATOM     77  C   UNL     1      -2.085  -0.760 -21.222  1.00  0.00     0.009 A 
ATOM     78  C   UNL     1      -2.712  -0.967 -18.922  1.00  0.00     0.009 A 
ATOM     79  C   UNL     1      -3.430  -0.570 -21.558  1.00  0.00     0.001 A 
ATOM     80  C   UNL     1      -4.059  -0.821 -19.257  1.00  0.00     0.001 A 
ATOM     81  C   UNL     1      -4.415  -0.593 -20.575  1.00  0.00     0.000 A 
ENDBRANCH  62  76
BRANCH  63  82
ATOM     82  C   UNL     1      -1.128   6.185 -15.202  1.00  0.00    -0.014 A 
ATOM     83  C   UNL     1      -1.709   7.308 -15.811  1.00  0.00     0.009 A 
ATOM     84  C   UNL     1      -1.646   5.769 -13.962  1.00  0.00     0.009 A 
ATOM     85  C   UNL     1      -2.800   7.963 -15.222  1.00  0.00     0.001 A 
ATOM     86  C   UNL     1      -2.732   6.425 -13.373  1.00  0.00     0.001 A 
ATOM     87  C   UNL     1      -3.320   7.511 -14.012  1.00  0.00     0.000 A 
ENDBRANCH  63  82
BRANCH  75  88
ATOM     88  C   UNL     1       2.663   4.291 -19.854  1.00  0.00    -0.014 A 
ATOM     89  C   UNL     1       3.402   4.550 -18.686  1.00  0.00     0.009 A 
ATOM     90  C   UNL     1       3.233   4.626 -21.091  1.00  0.00     0.009 A 
ATOM     91  C   UNL     1       4.663   5.153 -18.758  1.00  0.00     0.001 A 
ATOM     92  C   UNL     1       4.501   5.207 -21.163  1.00  0.00     0.001 A 
ATOM     93  C   UNL     1       5.213   5.476 -19.997  1.00  0.00     0.000 A 
ENDBRANCH  75  88
ENDBRANCH  49  50
ENDBRANCH  42  44
ENDBRANCH  41  42
ENDBRANCH  40  41
ENDBRANCH  39  40
ENDBRANCH  38  39
ENDBRANCH  37  38
ENDBRANCH  36  37
ENDBRANCH  35  36
ENDBRANCH   1  35
TORSDOF 24
