REMARK SMILES O=C(OCCOCCOCCOCCOC(=O)[C@H]1C[C@](O)(c2ccccc2Cl)[C@@H](c2ccccc2Cl)O1)c1ccc(-c2c3nc(c(-c4ccccc4)c4ccc([nH]4)c(-c4ccccc4)c4nc(c(-c5ccccc5)c5ccc2[nH]5)C=C4)C=C3)cc1
REMARK SMILES IDX 8 1 7 2 6 3 5 4 4 5 3 6 2 7 1 8 38 9 39 10 85 11 40 12 84 13
REMARK SMILES IDX 41 14 42 15 43 16 78 17 44 18 83 19 77 20 79 21 45 22 82 23
REMARK SMILES IDX 76 24 75 25 46 27 68 28 53 29 67 30 54 31 57 32 66 33 80 34
REMARK SMILES IDX 55 35 56 36 65 38 81 39 58 40 47 41 48 42 52 43 49 44 51 45
REMARK SMILES IDX 50 46 69 47 70 48 74 49 71 50 73 51 72 52 59 53 60 54 64 55
REMARK SMILES IDX 61 56 63 57 62 58 9 59 10 60 11 61 12 62 13 63 14 64 15 65
REMARK SMILES IDX 16 66 17 67 18 68 19 69 37 70 20 71 29 72 22 73 23 74 27 75
REMARK SMILES IDX 24 76 26 77 28 78 25 79 21 80 30 82 31 83 35 84 32 85 34 86
REMARK SMILES IDX 36 87 33 88
REMARK H PARENT 79 26 57 37 21 81
REMARK Flexibility Score: inf
ROOT
ATOM      1  C   UNL     1       6.417  -2.478   2.041  1.00  0.00     0.188 C 
ENDROOT
BRANCH   1   2
ATOM      2  C   UNL     1       6.625  -2.144   3.514  1.00  0.00     0.188 C 
BRANCH   2   3
ATOM      3  O   UNL     1       6.247  -3.201   4.379  1.00  0.00    -0.376 OA
BRANCH   3   4
ATOM      4  C   UNL     1       4.865  -3.409   4.596  1.00  0.00     0.202 C 
BRANCH   4   5
ATOM      5  C   UNL     1       4.730  -4.224   5.888  1.00  0.00     0.261 C 
BRANCH   5   6
ATOM      6  O   UNL     1       5.428  -3.715   7.056  1.00  0.00    -0.460 OA
BRANCH   6   7
ATOM      7  C   UNL     1       6.465  -2.851   6.909  1.00  0.00     0.338 C 
ATOM      8  O   UNL     1       6.355  -1.643   7.089  1.00  0.00    -0.246 OA
BRANCH   7   9
ATOM      9  C   UNL     1       7.799  -3.515   6.763  1.00  0.00     0.060 A 
ATOM     10  C   UNL     1       7.984  -4.731   6.085  1.00  0.00     0.016 A 
ATOM     11  C   UNL     1       8.918  -2.859   7.291  1.00  0.00     0.016 A 
ATOM     12  C   UNL     1       9.247  -5.306   5.966  1.00  0.00     0.010 A 
ATOM     13  C   UNL     1      10.182  -3.446   7.205  1.00  0.00     0.010 A 
ATOM     14  C   UNL     1      10.339  -4.690   6.574  1.00  0.00    -0.014 A 
BRANCH  14  15
ATOM     15  C   UNL     1      11.573  -5.467   6.803  1.00  0.00     0.031 A 
ATOM     16  C   UNL     1      11.710  -6.146   8.133  1.00  0.00     0.074 A 
ATOM     17  C   UNL     1      12.530  -5.574   5.868  1.00  0.00     0.049 A 
ATOM     18  N   UNL     1      12.748  -6.727   8.671  1.00  0.00    -0.248 NA
ATOM     19  C   UNL     1      10.502  -6.158   8.978  1.00  0.00     0.031 C 
ATOM     20  C   UNL     1      12.452  -5.047   4.508  1.00  0.00     0.029 A 
ATOM     21  N   UNL     1      13.771  -6.154   5.940  1.00  0.00    -0.354 N 
ATOM     22  C   UNL     1      12.331  -7.129   9.934  1.00  0.00     0.074 A 
ATOM     23  C   UNL     1      10.950  -6.734  10.080  1.00  0.00     0.031 C 
ATOM     24  C   UNL     1      13.612  -5.303   3.878  1.00  0.00     0.029 A 
ATOM     25  C   UNL     1      14.528  -5.956   4.812  1.00  0.00     0.049 A 
ATOM     26  H   UNL     1      14.087  -6.661   6.722  1.00  0.00     0.167 HD
ATOM     27  C   UNL     1      13.049  -7.752  10.896  1.00  0.00     0.031 A 
ATOM     28  C   UNL     1      15.830  -6.225   4.589  1.00  0.00     0.031 A 
ATOM     29  C   UNL     1      14.431  -8.108  10.740  1.00  0.00     0.049 A 
ATOM     30  C   UNL     1      16.642  -6.846   5.697  1.00  0.00     0.074 A 
ATOM     31  C   UNL     1      15.278  -8.713  11.649  1.00  0.00     0.029 A 
ATOM     32  N   UNL     1      15.169  -7.875   9.588  1.00  0.00    -0.354 N 
ATOM     33  N   UNL     1      16.259  -7.196   6.903  1.00  0.00    -0.248 NA
ATOM     34  C   UNL     1      18.062  -7.103   5.420  1.00  0.00     0.031 C 
ATOM     35  C   UNL     1      16.545  -8.798  11.062  1.00  0.00     0.029 A 
ATOM     36  C   UNL     1      16.469  -8.306   9.767  1.00  0.00     0.049 A 
ATOM     37  H   UNL     1      14.818  -7.465   8.765  1.00  0.00     0.167 HD
ATOM     38  C   UNL     1      17.382  -7.732   7.522  1.00  0.00     0.074 A 
ATOM     39  C   UNL     1      18.459  -7.667   6.553  1.00  0.00     0.031 C 
ATOM     40  C   UNL     1      17.513  -8.234   8.774  1.00  0.00     0.031 A 
BRANCH  27  41
ATOM     41  C   UNL     1      12.361  -7.979  12.212  1.00  0.00    -0.014 A 
ATOM     42  C   UNL     1      11.307  -8.897  12.348  1.00  0.00     0.009 A 
ATOM     43  C   UNL     1      12.733  -7.205  13.322  1.00  0.00     0.009 A 
ATOM     44  C   UNL     1      10.602  -8.990  13.551  1.00  0.00     0.001 A 
ATOM     45  C   UNL     1      12.049  -7.324  14.533  1.00  0.00     0.001 A 
ATOM     46  C   UNL     1      10.973  -8.204  14.641  1.00  0.00     0.000 A 
ENDBRANCH  27  41
BRANCH  28  47
ATOM     47  C   UNL     1      16.447  -5.852   3.288  1.00  0.00    -0.014 A 
ATOM     48  C   UNL     1      16.837  -6.834   2.366  1.00  0.00     0.009 A 
ATOM     49  C   UNL     1      16.619  -4.500   2.947  1.00  0.00     0.009 A 
ATOM     50  C   UNL     1      17.389  -6.470   1.134  1.00  0.00     0.001 A 
ATOM     51  C   UNL     1      17.146  -4.138   1.705  1.00  0.00     0.001 A 
ATOM     52  C   UNL     1      17.535  -5.123   0.801  1.00  0.00     0.000 A 
ENDBRANCH  28  47
BRANCH  40  53
ATOM     53  C   UNL     1      18.849  -8.801   9.161  1.00  0.00    -0.014 A 
ATOM     54  C   UNL     1      19.927  -7.968   9.489  1.00  0.00     0.009 A 
ATOM     55  C   UNL     1      18.988 -10.191   9.305  1.00  0.00     0.009 A 
ATOM     56  C   UNL     1      21.127  -8.519   9.944  1.00  0.00     0.001 A 
ATOM     57  C   UNL     1      20.178 -10.737   9.784  1.00  0.00     0.001 A 
ATOM     58  C   UNL     1      21.247  -9.901  10.100  1.00  0.00     0.000 A 
ENDBRANCH  40  53
ENDBRANCH  14  15
ENDBRANCH   7   9
ENDBRANCH   6   7
ENDBRANCH   5   6
ENDBRANCH   4   5
ENDBRANCH   3   4
ENDBRANCH   2   3
ENDBRANCH   1   2
BRANCH   1  59
ATOM     59  O   UNL     1       6.267  -3.868   1.776  1.00  0.00    -0.377 OA
BRANCH  59  60
ATOM     60  C   UNL     1       7.308  -4.715   2.266  1.00  0.00     0.188 C 
BRANCH  60  61
ATOM     61  C   UNL     1       8.389  -5.017   1.244  1.00  0.00     0.188 C 
BRANCH  61  62
ATOM     62  O   UNL     1       8.941  -3.775   0.818  1.00  0.00    -0.376 OA
BRANCH  62  63
ATOM     63  C   UNL     1       8.998  -3.615  -0.593  1.00  0.00     0.202 C 
BRANCH  63  64
ATOM     64  C   UNL     1       7.663  -3.510  -1.365  1.00  0.00     0.261 C 
BRANCH  64  65
ATOM     65  O   UNL     1       6.573  -4.328  -0.896  1.00  0.00    -0.461 OA
BRANCH  65  66
ATOM     66  C   UNL     1       6.276  -5.495  -1.526  1.00  0.00     0.335 C 
ATOM     67  O   UNL     1       6.891  -5.929  -2.493  1.00  0.00    -0.249 OA
BRANCH  66  68
ATOM     68  C   UNL     1       5.052  -6.192  -0.875  1.00  0.00     0.232 C 
ATOM     69  C   UNL     1       4.896  -7.634  -1.336  1.00  0.00     0.087 C 
ATOM     70  O   UNL     1       5.154  -6.253   0.537  1.00  0.00    -0.355 OA
ATOM     71  C   UNL     1       4.303  -8.419  -0.145  1.00  0.00     0.124 C 
ATOM     72  C   UNL     1       4.475  -7.425   1.052  1.00  0.00     0.187 C 
BRANCH  71  73
ATOM     73  C   UNL     1       2.963  -9.075  -0.522  1.00  0.00     0.005 A 
ATOM     74  C   UNL     1       3.059 -10.146  -1.460  1.00  0.00     0.008 A 
ATOM     75  C   UNL     1       1.671  -8.811  -0.037  1.00  0.00     0.047 A 
ATOM     76  C   UNL     1       1.980 -10.963  -1.805  1.00  0.00     0.001 A 
ATOM     77  C   UNL     1       0.589  -9.655  -0.366  1.00  0.00     0.021 A 
ATOM     78  Cl  UNL     1       1.215  -7.436   0.896  1.00  0.00    -0.084 Cl
ATOM     79  C   UNL     1       0.745 -10.736  -1.229  1.00  0.00     0.002 A 
ENDBRANCH  71  73
BRANCH  71  80
ATOM     80  O   UNL     1       5.132  -9.585   0.113  1.00  0.00    -0.382 OA
ATOM     81  H   UNL     1       6.024  -9.299   0.365  1.00  0.00     0.212 HD
ENDBRANCH  71  80
BRANCH  72  82
ATOM     82  C   UNL     1       5.311  -7.853   2.254  1.00  0.00     0.003 A 
ATOM     83  C   UNL     1       6.681  -8.152   2.069  1.00  0.00     0.008 A 
ATOM     84  C   UNL     1       4.825  -7.848   3.573  1.00  0.00     0.046 A 
ATOM     85  C   UNL     1       7.534  -8.396   3.147  1.00  0.00     0.000 A 
ATOM     86  C   UNL     1       5.685  -8.097   4.654  1.00  0.00     0.021 A 
ATOM     87  Cl  UNL     1       3.182  -7.493   3.969  1.00  0.00    -0.084 Cl
ATOM     88  C   UNL     1       7.037  -8.359   4.442  1.00  0.00     0.002 A 
ENDBRANCH  72  82
ENDBRANCH  66  68
ENDBRANCH  65  66
ENDBRANCH  64  65
ENDBRANCH  63  64
ENDBRANCH  62  63
ENDBRANCH  61  62
ENDBRANCH  60  61
ENDBRANCH  59  60
ENDBRANCH   1  59
TORSDOF 23
