REMARK SMILES COc1cc(Cl)c2c(c1)C=C(C(=O)OCCOCCOCCOCCOC(=O)c1ccc(-c3c4nc(c(-c5ccccc5)c5ccc([nH]5)c(-c5ccccc5)c5nc(c(-c6ccccc6)c6ccc3[nH]6)C=C5)C=C4)cc1)[C@@H](C(F)(F)F)O2
REMARK SMILES IDX 21 1 20 2 19 3 18 4 17 5 16 6 15 7 14 8 12 9 13 10 11 11
REMARK SMILES IDX 3 12 4 13 9 14 5 15 8 16 6 17 7 18 10 19 82 20 77 21 2 22
REMARK SMILES IDX 1 23 78 24 79 25 80 26 81 27 22 28 23 29 24 30 25 31 26 32
REMARK SMILES IDX 27 33 28 34 29 35 30 36 76 37 31 38 75 39 32 40 33 41 34 42
REMARK SMILES IDX 69 43 35 44 74 45 68 46 70 47 36 48 73 49 67 50 66 51 37 53
REMARK SMILES IDX 59 54 44 55 58 56 45 57 48 58 57 59 71 60 46 61 47 62 56 64
REMARK SMILES IDX 72 65 49 66 38 67 39 68 43 69 40 70 42 71 41 72 60 73 61 74
REMARK SMILES IDX 65 75 62 76 64 77 63 78 50 79 51 80 55 81 52 82 54 83 53 84
REMARK H PARENT 70 52 48 63
REMARK Flexibility Score: inf
ROOT
ATOM      1  C   UNL     1      -0.988   8.251  -7.330  1.00  0.00     0.188 C 
ENDROOT
BRANCH   1   2
ATOM      2  O   UNL     1      -0.617   7.681  -6.073  1.00  0.00    -0.377 OA
BRANCH   2   3
ATOM      3  C   UNL     1      -1.063   6.364  -5.787  1.00  0.00     0.188 C 
BRANCH   3   4
ATOM      4  C   UNL     1      -2.511   6.321  -5.259  1.00  0.00     0.188 C 
BRANCH   4   5
ATOM      5  O   UNL     1      -3.255   7.486  -5.570  1.00  0.00    -0.376 OA
BRANCH   5   6
ATOM      6  C   UNL     1      -3.321   8.583  -4.675  1.00  0.00     0.202 C 
BRANCH   6   7
ATOM      7  C   UNL     1      -2.131   9.098  -3.843  1.00  0.00     0.261 C 
BRANCH   7   8
ATOM      8  O   UNL     1      -1.138   8.150  -3.452  1.00  0.00    -0.460 OA
BRANCH   8   9
ATOM      9  C   UNL     1      -1.419   7.340  -2.417  1.00  0.00     0.338 C 
ATOM     10  O   UNL     1      -2.432   7.342  -1.741  1.00  0.00    -0.246 OA
BRANCH   9  11
ATOM     11  C   UNL     1      -0.349   6.321  -2.344  1.00  0.00     0.087 C 
ATOM     12  C   UNL     1       0.923   1.755  -1.573  1.00  0.00     0.121 A 
ATOM     13  C   UNL     1       2.270   2.103  -1.624  1.00  0.00     0.070 A 
ATOM     14  C   UNL     1      -0.062   2.705  -1.831  1.00  0.00     0.058 A 
ATOM     15  C   UNL     1       2.627   3.419  -1.925  1.00  0.00     0.087 A 
ATOM     16  C   UNL     1       0.295   4.035  -2.076  1.00  0.00     0.022 A 
ATOM     17  Cl  UNL     1       4.309   3.816  -1.970  1.00  0.00    -0.080 Cl
ATOM     18  C   UNL     1       1.645   4.393  -2.152  1.00  0.00     0.146 A 
ATOM     19  C   UNL     1      -0.737   5.051  -2.177  1.00  0.00     0.027 C 
ATOM     20  O   UNL     1       2.058   5.664  -2.441  1.00  0.00    -0.474 OA
ATOM     21  C   UNL     1       1.086   6.740  -2.531  1.00  0.00     0.316 C 
BRANCH  12  22
ATOM     22  O   UNL     1       0.505   0.479  -1.314  1.00  0.00    -0.497 OA
ATOM     23  C   UNL     1       0.937   0.028  -0.029  1.00  0.00     0.278 C 
ENDBRANCH  12  22
BRANCH  21  24
ATOM     24  C   UNL     1       1.498   7.841  -1.546  1.00  0.00     0.430 C 
ATOM     25  F   UNL     1       2.810   8.154  -1.672  1.00  0.00    -0.167 F 
ATOM     26  F   UNL     1       0.806   8.987  -1.745  1.00  0.00    -0.167 F 
ATOM     27  F   UNL     1       1.292   7.464  -0.263  1.00  0.00    -0.167 F 
ENDBRANCH  21  24
ENDBRANCH   9  11
ENDBRANCH   8   9
ENDBRANCH   7   8
ENDBRANCH   6   7
ENDBRANCH   5   6
ENDBRANCH   4   5
ENDBRANCH   3   4
ENDBRANCH   2   3
ENDBRANCH   1   2
BRANCH   1  28
ATOM     28  C   UNL     1      -2.203   7.732  -8.141  1.00  0.00     0.188 C 
BRANCH  28  29
ATOM     29  O   UNL     1      -2.341   6.318  -8.140  1.00  0.00    -0.376 OA
BRANCH  29  30
ATOM     30  C   UNL     1      -2.014   5.611  -9.323  1.00  0.00     0.202 C 
BRANCH  30  31
ATOM     31  C   UNL     1      -0.529   5.582  -9.708  1.00  0.00     0.261 C 
BRANCH  31  32
ATOM     32  O   UNL     1       0.112   6.860  -9.835  1.00  0.00    -0.460 OA
BRANCH  32  33
ATOM     33  C   UNL     1      -0.317   7.682 -10.814  1.00  0.00     0.338 C 
ATOM     34  O   UNL     1      -1.190   7.466 -11.638  1.00  0.00    -0.246 OA
BRANCH  33  35
ATOM     35  C   UNL     1       0.341   8.986 -10.603  1.00  0.00     0.060 A 
ATOM     36  C   UNL     1      -0.430  10.098 -10.240  1.00  0.00     0.016 A 
ATOM     37  C   UNL     1       1.725   9.097 -10.754  1.00  0.00     0.016 A 
ATOM     38  C   UNL     1       0.181  11.337 -10.049  1.00  0.00     0.010 A 
ATOM     39  C   UNL     1       2.330  10.345 -10.603  1.00  0.00     0.010 A 
ATOM     40  C   UNL     1       1.555  11.474 -10.286  1.00  0.00    -0.014 A 
BRANCH  40  41
ATOM     41  C   UNL     1       2.129  12.824 -10.471  1.00  0.00     0.031 A 
ATOM     42  C   UNL     1       2.109  13.403 -11.859  1.00  0.00     0.074 A 
ATOM     43  C   UNL     1       2.642  13.527  -9.448  1.00  0.00     0.049 A 
ATOM     44  N   UNL     1       2.599  14.534 -12.290  1.00  0.00    -0.248 NA
ATOM     45  C   UNL     1       1.442  12.597 -12.898  1.00  0.00     0.031 C 
ATOM     46  C   UNL     1       2.659  13.105  -8.050  1.00  0.00     0.029 A 
ATOM     47  N   UNL     1       3.253  14.757  -9.441  1.00  0.00    -0.354 N 
ATOM     48  C   UNL     1       2.299  14.576 -13.645  1.00  0.00     0.074 A 
ATOM     49  C   UNL     1       1.606  13.352 -13.973  1.00  0.00     0.031 C 
ATOM     50  C   UNL     1       3.258  14.061  -7.317  1.00  0.00     0.029 A 
ATOM     51  C   UNL     1       3.696  15.143  -8.201  1.00  0.00     0.049 A 
ATOM     52  H   UNL     1       3.363  15.309 -10.248  1.00  0.00     0.167 HD
ATOM     53  C   UNL     1       2.573  15.552 -14.537  1.00  0.00     0.031 A 
ATOM     54  C   UNL     1       4.391  16.235  -7.826  1.00  0.00     0.031 A 
ATOM     55  C   UNL     1       3.278  16.760 -14.220  1.00  0.00     0.049 A 
ATOM     56  C   UNL     1       4.781  17.260  -8.857  1.00  0.00     0.074 A 
ATOM     57  C   UNL     1       3.605  17.807 -15.062  1.00  0.00     0.029 A 
ATOM     58  N   UNL     1       3.769  17.078 -12.965  1.00  0.00    -0.354 N 
ATOM     59  N   UNL     1       4.495  17.290 -10.137  1.00  0.00    -0.248 NA
ATOM     60  C   UNL     1       5.590  18.399  -8.397  1.00  0.00     0.031 C 
ATOM     61  C   UNL     1       4.342  18.737 -14.328  1.00  0.00     0.029 A 
ATOM     62  C   UNL     1       4.423  18.295 -13.016  1.00  0.00     0.049 A 
ATOM     63  H   UNL     1       3.667  16.523 -12.159  1.00  0.00     0.167 HD
ATOM     64  C   UNL     1       5.073  18.453 -10.630  1.00  0.00     0.074 A 
ATOM     65  C   UNL     1       5.719  19.109  -9.512  1.00  0.00     0.031 C 
ATOM     66  C   UNL     1       5.065  18.934 -11.897  1.00  0.00     0.031 A 
BRANCH  53  67
ATOM     67  C   UNL     1       2.127  15.349 -15.954  1.00  0.00    -0.014 A 
ATOM     68  C   UNL     1       0.779  15.502 -16.312  1.00  0.00     0.009 A 
ATOM     69  C   UNL     1       3.076  15.084 -16.952  1.00  0.00     0.009 A 
ATOM     70  C   UNL     1       0.390  15.390 -17.648  1.00  0.00     0.001 A 
ATOM     71  C   UNL     1       2.687  14.994 -18.288  1.00  0.00     0.001 A 
ATOM     72  C   UNL     1       1.345  15.146 -18.635  1.00  0.00     0.000 A 
ENDBRANCH  53  67
BRANCH  54  73
ATOM     73  C   UNL     1       4.766  16.405  -6.399  1.00  0.00    -0.014 A 
ATOM     74  C   UNL     1       4.103  17.347  -5.599  1.00  0.00     0.009 A 
ATOM     75  C   UNL     1       5.755  15.595  -5.819  1.00  0.00     0.009 A 
ATOM     76  C   UNL     1       4.420  17.470  -4.244  1.00  0.00     0.001 A 
ATOM     77  C   UNL     1       6.055  15.706  -4.459  1.00  0.00     0.001 A 
ATOM     78  C   UNL     1       5.387  16.643  -3.673  1.00  0.00     0.000 A 
ENDBRANCH  54  73
BRANCH  66  79
ATOM     79  C   UNL     1       5.765  20.234 -12.171  1.00  0.00    -0.014 A 
ATOM     80  C   UNL     1       7.162  20.289 -12.274  1.00  0.00     0.009 A 
ATOM     81  C   UNL     1       5.010  21.380 -12.472  1.00  0.00     0.009 A 
ATOM     82  C   UNL     1       7.791  21.470 -12.672  1.00  0.00     0.001 A 
ATOM     83  C   UNL     1       5.641  22.551 -12.893  1.00  0.00     0.001 A 
ATOM     84  C   UNL     1       7.031  22.595 -12.992  1.00  0.00     0.000 A 
ENDBRANCH  66  79
ENDBRANCH  40  41
ENDBRANCH  33  35
ENDBRANCH  32  33
ENDBRANCH  31  32
ENDBRANCH  30  31
ENDBRANCH  29  30
ENDBRANCH  28  29
ENDBRANCH   1  28
TORSDOF 22
