REMARK SMILES Cc1nc2ccccc2n1CCC(=O)N1CC[C@H](O)C[C@@H]1C(=O)OCCOCCOCCOCCOC(=O)c1ccc(-c2c3nc(c(-c4ccccc4)c4ccc([nH]4)c(-c4ccccc4)c4nc(c(-c5ccccc5)c5ccc2[nH]5)C=C4)C=C3)cc1
REMARK SMILES IDX 29 1 28 2 27 3 26 4 25 5 24 6 22 7 23 8 21 9 15 10 16 11
REMARK SMILES IDX 17 12 20 13 18 14 13 15 14 16 12 17 11 18 10 19 1 20 2 21
REMARK SMILES IDX 3 22 4 23 9 24 5 25 8 26 6 27 7 28 19 29 30 31 31 32 32 33
REMARK SMILES IDX 33 34 34 35 35 36 36 37 37 38 38 39 39 40 40 41 86 42 41 43
REMARK SMILES IDX 85 44 42 45 43 46 44 47 79 48 45 49 84 50 78 51 80 52 46 53
REMARK SMILES IDX 83 54 77 55 76 56 47 58 69 59 54 60 68 61 55 62 58 63 67 64
REMARK SMILES IDX 81 65 56 66 57 67 66 69 82 70 59 71 48 72 49 73 53 74 50 75
REMARK SMILES IDX 52 76 51 77 70 78 71 79 75 80 72 81 74 82 73 83 60 84 61 85
REMARK SMILES IDX 65 86 62 87 64 88 63 89
REMARK H PARENT 19 30 80 57 58 68
REMARK Flexibility Score: inf
ROOT
ATOM      1  C   UNL     1      -0.502  -3.614   1.619  1.00  0.00     0.188 C 
ENDROOT
BRANCH   1   2
ATOM      2  C   UNL     1      -1.139  -4.224   2.859  1.00  0.00     0.188 C 
BRANCH   2   3
ATOM      3  O   UNL     1      -2.540  -4.111   3.101  1.00  0.00    -0.376 OA
BRANCH   3   4
ATOM      4  C   UNL     1      -3.441  -3.787   2.051  1.00  0.00     0.202 C 
BRANCH   4   5
ATOM      5  C   UNL     1      -3.710  -2.280   1.874  1.00  0.00     0.261 C 
BRANCH   5   6
ATOM      6  O   UNL     1      -2.576  -1.432   1.581  1.00  0.00    -0.462 OA
BRANCH   6   7
ATOM      7  C   UNL     1      -2.001  -0.793   2.640  1.00  0.00     0.329 C 
ATOM      8  O   UNL     1      -2.335  -0.964   3.809  1.00  0.00    -0.250 OA
BRANCH   7   9
ATOM      9  C   UNL     1      -0.885   0.221   2.235  1.00  0.00     0.197 C 
ATOM     10  N   UNL     1      -0.550   0.338   0.800  1.00  0.00    -0.329 N 
ATOM     11  C   UNL     1       0.332  -0.669   0.265  1.00  0.00     0.123 C 
ATOM     12  C   UNL     1       1.637  -0.799   1.032  1.00  0.00     0.053 C 
ATOM     13  C   UNL     1       0.369   0.044   3.118  1.00  0.00     0.069 C 
ATOM     14  C   UNL     1       1.511  -0.802   2.550  1.00  0.00     0.118 C 
BRANCH  10  15
ATOM     15  C   UNL     1      -1.173   1.293   0.010  1.00  0.00     0.225 C 
ATOM     16  O   UNL     1      -1.592   2.350   0.488  1.00  0.00    -0.275 OA
BRANCH  15  17
ATOM     17  C   UNL     1      -1.441   0.971  -1.465  1.00  0.00     0.122 C 
BRANCH  17  18
ATOM     18  C   UNL     1      -0.441   1.488  -2.507  1.00  0.00     0.134 C 
BRANCH  18  19
ATOM     19  N   UNL     1       0.590   0.535  -2.900  1.00  0.00    -0.328 N 
ATOM     20  C   UNL     1       2.537   1.657  -1.729  1.00  0.00     0.088 C 
ATOM     21  C   UNL     1       1.909   0.544  -2.485  1.00  0.00     0.106 A 
ATOM     22  N   UNL     1       2.485  -0.614  -2.741  1.00  0.00    -0.234 NA
ATOM     23  C   UNL     1       1.581  -1.326  -3.484  1.00  0.00     0.089 A 
ATOM     24  C   UNL     1       0.405  -0.601  -3.667  1.00  0.00     0.068 A 
ATOM     25  C   UNL     1       1.710  -2.604  -4.047  1.00  0.00     0.030 A 
ATOM     26  C   UNL     1      -0.645  -1.076  -4.463  1.00  0.00     0.028 A 
ATOM     27  C   UNL     1       0.680  -3.088  -4.859  1.00  0.00     0.002 A 
ATOM     28  C   UNL     1      -0.468  -2.324  -5.079  1.00  0.00     0.002 A 
ENDBRANCH  18  19
ENDBRANCH  17  18
ENDBRANCH  15  17
ENDBRANCH  10  15
BRANCH  14  29
ATOM     29  O   UNL     1       1.448  -2.143   3.029  1.00  0.00    -0.393 OA
ATOM     30  H   UNL     1       0.644  -2.569   2.693  1.00  0.00     0.210 HD
ENDBRANCH  14  29
ENDBRANCH   7   9
ENDBRANCH   6   7
ENDBRANCH   5   6
ENDBRANCH   4   5
ENDBRANCH   3   4
ENDBRANCH   2   3
ENDBRANCH   1   2
BRANCH   1  31
ATOM     31  O   UNL     1      -1.292  -3.650   0.459  1.00  0.00    -0.377 OA
BRANCH  31  32
ATOM     32  C   UNL     1      -1.006  -4.660  -0.475  1.00  0.00     0.188 C 
BRANCH  32  33
ATOM     33  C   UNL     1      -0.751  -6.060   0.084  1.00  0.00     0.188 C 
BRANCH  33  34
ATOM     34  O   UNL     1       0.572  -6.385   0.483  1.00  0.00    -0.376 OA
BRANCH  34  35
ATOM     35  C   UNL     1       1.679  -6.013  -0.332  1.00  0.00     0.202 C 
BRANCH  35  36
ATOM     36  C   UNL     1       1.691  -6.153  -1.875  1.00  0.00     0.261 C 
BRANCH  36  37
ATOM     37  O   UNL     1       0.426  -5.968  -2.517  1.00  0.00    -0.460 OA
BRANCH  37  38
ATOM     38  C   UNL     1      -0.115  -7.020  -3.178  1.00  0.00     0.338 C 
ATOM     39  O   UNL     1       0.425  -8.070  -3.480  1.00  0.00    -0.246 OA
BRANCH  38  40
ATOM     40  C   UNL     1      -1.577  -6.791  -3.167  1.00  0.00     0.060 A 
ATOM     41  C   UNL     1      -2.106  -5.542  -3.494  1.00  0.00     0.016 A 
ATOM     42  C   UNL     1      -2.368  -7.752  -2.519  1.00  0.00     0.016 A 
ATOM     43  C   UNL     1      -3.385  -5.216  -3.058  1.00  0.00     0.010 A 
ATOM     44  C   UNL     1      -3.645  -7.416  -2.068  1.00  0.00     0.010 A 
ATOM     45  C   UNL     1      -4.141  -6.131  -2.296  1.00  0.00    -0.014 A 
BRANCH  45  46
ATOM     46  C   UNL     1      -5.527  -5.750  -1.976  1.00  0.00     0.031 A 
ATOM     47  C   UNL     1      -6.298  -5.383  -3.195  1.00  0.00     0.074 A 
ATOM     48  C   UNL     1      -6.172  -5.847  -0.793  1.00  0.00     0.049 A 
ATOM     49  N   UNL     1      -6.904  -4.273  -3.463  1.00  0.00    -0.248 NA
ATOM     50  C   UNL     1      -6.256  -6.344  -4.312  1.00  0.00     0.031 C 
ATOM     51  C   UNL     1      -5.685  -6.466   0.440  1.00  0.00     0.029 A 
ATOM     52  N   UNL     1      -7.469  -5.511  -0.481  1.00  0.00    -0.354 N 
ATOM     53  C   UNL     1      -7.464  -4.459  -4.723  1.00  0.00     0.074 A 
ATOM     54  C   UNL     1      -6.896  -5.667  -5.261  1.00  0.00     0.031 C 
ATOM     55  C   UNL     1      -6.730  -6.678   1.273  1.00  0.00     0.029 A 
ATOM     56  C   UNL     1      -7.933  -6.107   0.687  1.00  0.00     0.049 A 
ATOM     57  H   UNL     1      -8.017  -4.906  -1.031  1.00  0.00     0.167 HD
ATOM     58  C   UNL     1      -8.557  -3.765  -5.134  1.00  0.00     0.031 A 
ATOM     59  C   UNL     1      -9.219  -6.203   1.110  1.00  0.00     0.031 A 
ATOM     60  C   UNL     1      -8.774  -2.576  -4.360  1.00  0.00     0.049 A 
ATOM     61  C   UNL     1     -10.031  -5.176   0.426  1.00  0.00     0.074 A 
ATOM     62  C   UNL     1      -8.135  -1.369  -4.186  1.00  0.00     0.029 A 
ATOM     63  N   UNL     1      -9.693  -2.697  -3.352  1.00  0.00    -0.354 N 
ATOM     64  N   UNL     1      -9.944  -3.900   0.657  1.00  0.00    -0.248 NA
ATOM     65  C   UNL     1     -10.826  -5.547  -0.738  1.00  0.00     0.031 C 
ATOM     66  C   UNL     1      -8.507  -0.916  -2.888  1.00  0.00     0.029 A 
ATOM     67  C   UNL     1      -9.369  -1.857  -2.322  1.00  0.00     0.049 A 
ATOM     68  H   UNL     1     -10.472  -3.299  -3.367  1.00  0.00     0.167 HD
ATOM     69  C   UNL     1     -10.296  -3.307  -0.540  1.00  0.00     0.074 A 
ATOM     70  C   UNL     1     -10.997  -4.342  -1.285  1.00  0.00     0.031 C 
ATOM     71  C   UNL     1      -9.704  -2.147  -0.942  1.00  0.00     0.031 A 
BRANCH  58  72
ATOM     72  C   UNL     1      -9.685  -4.427  -5.897  1.00  0.00    -0.014 A 
ATOM     73  C   UNL     1      -9.841  -5.825  -5.986  1.00  0.00     0.009 A 
ATOM     74  C   UNL     1     -10.791  -3.647  -6.277  1.00  0.00     0.009 A 
ATOM     75  C   UNL     1     -11.032  -6.417  -6.412  1.00  0.00     0.001 A 
ATOM     76  C   UNL     1     -12.002  -4.237  -6.660  1.00  0.00     0.001 A 
ATOM     77  C   UNL     1     -12.123  -5.622  -6.723  1.00  0.00     0.000 A 
ENDBRANCH  58  72
BRANCH  59  78
ATOM     78  C   UNL     1      -9.867  -7.281   1.896  1.00  0.00    -0.014 A 
ATOM     79  C   UNL     1      -9.371  -8.595   1.842  1.00  0.00     0.009 A 
ATOM     80  C   UNL     1     -11.137  -7.088   2.470  1.00  0.00     0.009 A 
ATOM     81  C   UNL     1     -10.130  -9.679   2.296  1.00  0.00     0.001 A 
ATOM     82  C   UNL     1     -11.902  -8.176   2.915  1.00  0.00     0.001 A 
ATOM     83  C   UNL     1     -11.404  -9.472   2.812  1.00  0.00     0.000 A 
ENDBRANCH  59  78
BRANCH  71  84
ATOM     84  C   UNL     1      -9.120  -1.242   0.110  1.00  0.00    -0.014 A 
ATOM     85  C   UNL     1      -9.528   0.102   0.110  1.00  0.00     0.009 A 
ATOM     86  C   UNL     1      -8.116  -1.634   1.009  1.00  0.00     0.009 A 
ATOM     87  C   UNL     1      -8.944   1.030   0.973  1.00  0.00     0.001 A 
ATOM     88  C   UNL     1      -7.555  -0.712   1.897  1.00  0.00     0.001 A 
ATOM     89  C   UNL     1      -7.961   0.622   1.870  1.00  0.00     0.000 A 
ENDBRANCH  71  84
ENDBRANCH  45  46
ENDBRANCH  38  40
ENDBRANCH  37  38
ENDBRANCH  36  37
ENDBRANCH  35  36
ENDBRANCH  34  35
ENDBRANCH  33  34
ENDBRANCH  32  33
ENDBRANCH  31  32
ENDBRANCH   1  31
TORSDOF 25
