REMARK SMILES O=C(OCCOCCOCCOCCOC(=O)[C@@H]1CC[C@@H](CS(=O)(=O)c2cccc(F)c2)O1)c1ccc(-c2c3nc(c(-c4ccccc4)c4ccc([nH]4)c(-c4ccccc4)c4nc(c(-c5ccccc5)c5ccc2[nH]5)C=C4)C=C3)cc1
REMARK SMILES IDX 10 1 9 2 8 3 7 4 6 5 5 6 4 7 3 8 2 9 1 10 34 11 35 12 81 13
REMARK SMILES IDX 36 14 80 15 37 16 38 17 39 18 74 19 40 20 79 21 73 22 75 23
REMARK SMILES IDX 41 24 78 25 72 26 71 27 42 29 64 30 49 31 63 32 50 33 53 34
REMARK SMILES IDX 62 35 76 36 51 37 52 38 61 40 77 41 54 42 43 43 44 44 48 45
REMARK SMILES IDX 45 46 47 47 46 48 65 49 66 50 70 51 67 52 69 53 68 54 55 55
REMARK SMILES IDX 56 56 60 57 57 58 59 59 58 60 11 61 12 62 13 63 14 64 15 65
REMARK SMILES IDX 16 66 17 67 18 68 19 69 33 70 20 71 21 72 22 73 23 74 24 75
REMARK SMILES IDX 25 76 26 77 27 78 32 79 28 80 30 81 29 82 31 83
REMARK H PARENT 75 28 53 39
REMARK Flexibility Score: inf
ROOT
ATOM      1  C   UNL     1       4.293  -1.688  -3.170  1.00  0.00     0.188 C 
ENDROOT
BRANCH   1   2
ATOM      2  O   UNL     1       2.905  -1.986  -3.277  1.00  0.00    -0.377 OA
BRANCH   2   3
ATOM      3  C   UNL     1       2.022  -1.180  -2.507  1.00  0.00     0.188 C 
BRANCH   3   4
ATOM      4  C   UNL     1       2.384  -1.063  -1.031  1.00  0.00     0.188 C 
BRANCH   4   5
ATOM      5  O   UNL     1       3.682  -0.507  -0.856  1.00  0.00    -0.376 OA
BRANCH   5   6
ATOM      6  C   UNL     1       4.557  -1.160   0.064  1.00  0.00     0.202 C 
BRANCH   6   7
ATOM      7  C   UNL     1       4.154  -1.055   1.529  1.00  0.00     0.261 C 
BRANCH   7   8
ATOM      8  O   UNL     1       2.789  -0.666   1.750  1.00  0.00    -0.460 OA
BRANCH   8   9
ATOM      9  C   UNL     1       2.212   0.556   1.709  1.00  0.00     0.338 C 
ATOM     10  O   UNL     1       1.009   0.639   1.955  1.00  0.00    -0.246 OA
BRANCH   9  11
ATOM     11  C   UNL     1       2.933   1.825   1.400  1.00  0.00     0.060 A 
ATOM     12  C   UNL     1       4.033   1.947   0.557  1.00  0.00     0.016 A 
ATOM     13  C   UNL     1       2.386   3.007   1.926  1.00  0.00     0.016 A 
ATOM     14  C   UNL     1       4.623   3.162   0.281  1.00  0.00     0.010 A 
ATOM     15  C   UNL     1       2.958   4.251   1.642  1.00  0.00     0.010 A 
ATOM     16  C   UNL     1       4.099   4.315   0.837  1.00  0.00    -0.014 A 
BRANCH  16  17
ATOM     17  C   UNL     1       4.930   5.516   0.725  1.00  0.00     0.031 A 
ATOM     18  C   UNL     1       5.737   5.895   1.925  1.00  0.00     0.074 A 
ATOM     19  C   UNL     1       5.109   6.092  -0.476  1.00  0.00     0.049 A 
ATOM     20  N   UNL     1       6.513   6.924   2.109  1.00  0.00    -0.248 NA
ATOM     21  C   UNL     1       5.674   4.971   3.074  1.00  0.00     0.031 C 
ATOM     22  C   UNL     1       4.514   5.629  -1.736  1.00  0.00     0.029 A 
ATOM     23  N   UNL     1       5.880   7.157  -0.843  1.00  0.00    -0.354 N 
ATOM     24  C   UNL     1       6.987   6.798   3.408  1.00  0.00     0.074 A 
ATOM     25  C   UNL     1       6.420   5.596   3.968  1.00  0.00     0.031 C 
ATOM     26  C   UNL     1       4.959   6.402  -2.739  1.00  0.00     0.029 A 
ATOM     27  C   UNL     1       5.792   7.457  -2.179  1.00  0.00     0.049 A 
ATOM     28  H   UNL     1       6.443   7.660  -0.211  1.00  0.00     0.167 HD
ATOM     29  C   UNL     1       7.812   7.638   4.070  1.00  0.00     0.031 A 
ATOM     30  C   UNL     1       6.296   8.508  -2.849  1.00  0.00     0.031 A 
ATOM     31  C   UNL     1       8.340   8.829   3.468  1.00  0.00     0.049 A 
ATOM     32  C   UNL     1       7.088   9.509  -2.054  1.00  0.00     0.074 A 
ATOM     33  C   UNL     1       9.114   9.821   4.035  1.00  0.00     0.029 A 
ATOM     34  N   UNL     1       8.134   9.180   2.138  1.00  0.00    -0.354 N 
ATOM     35  N   UNL     1       7.450   9.460  -0.792  1.00  0.00    -0.248 NA
ATOM     36  C   UNL     1       7.525  10.716  -2.763  1.00  0.00     0.031 C 
ATOM     37  C   UNL     1       9.323  10.805   3.061  1.00  0.00     0.029 A 
ATOM     38  C   UNL     1       8.742  10.390   1.870  1.00  0.00     0.049 A 
ATOM     39  H   UNL     1       7.629   8.645   1.485  1.00  0.00     0.167 HD
ATOM     40  C   UNL     1       8.173  10.618  -0.556  1.00  0.00     0.074 A 
ATOM     41  C   UNL     1       8.215  11.338  -1.817  1.00  0.00     0.031 C 
ATOM     42  C   UNL     1       8.749  11.058   0.591  1.00  0.00     0.031 A 
BRANCH  29  43
ATOM     43  C   UNL     1       8.062   7.337   5.520  1.00  0.00    -0.014 A 
ATOM     44  C   UNL     1       8.824   6.232   5.934  1.00  0.00     0.009 A 
ATOM     45  C   UNL     1       7.450   8.139   6.495  1.00  0.00     0.009 A 
ATOM     46  C   UNL     1       8.923   5.909   7.290  1.00  0.00     0.001 A 
ATOM     47  C   UNL     1       7.576   7.833   7.851  1.00  0.00     0.001 A 
ATOM     48  C   UNL     1       8.301   6.711   8.247  1.00  0.00     0.000 A 
ENDBRANCH  29  43
BRANCH  30  49
ATOM     49  C   UNL     1       5.994   8.704  -4.292  1.00  0.00    -0.014 A 
ATOM     50  C   UNL     1       7.013   8.693  -5.255  1.00  0.00     0.009 A 
ATOM     51  C   UNL     1       4.670   8.916  -4.717  1.00  0.00     0.009 A 
ATOM     52  C   UNL     1       6.716   8.912  -6.605  1.00  0.00     0.001 A 
ATOM     53  C   UNL     1       4.372   9.102  -6.069  1.00  0.00     0.001 A 
ATOM     54  C   UNL     1       5.397   9.112  -7.011  1.00  0.00     0.000 A 
ENDBRANCH  30  49
BRANCH  42  55
ATOM     55  C   UNL     1       9.503  12.352   0.508  1.00  0.00    -0.014 A 
ATOM     56  C   UNL     1       8.834  13.579   0.383  1.00  0.00     0.009 A 
ATOM     57  C   UNL     1      10.902  12.338   0.617  1.00  0.00     0.009 A 
ATOM     58  C   UNL     1       9.560  14.768   0.334  1.00  0.00     0.001 A 
ATOM     59  C   UNL     1      11.620  13.531   0.606  1.00  0.00     0.001 A 
ATOM     60  C   UNL     1      10.950  14.744   0.454  1.00  0.00     0.000 A 
ENDBRANCH  42  55
ENDBRANCH  16  17
ENDBRANCH   9  11
ENDBRANCH   8   9
ENDBRANCH   7   8
ENDBRANCH   6   7
ENDBRANCH   5   6
ENDBRANCH   4   5
ENDBRANCH   3   4
ENDBRANCH   2   3
ENDBRANCH   1   2
BRANCH   1  61
ATOM     61  C   UNL     1       4.831  -0.310  -3.582  1.00  0.00     0.188 C 
BRANCH  61  62
ATOM     62  O   UNL     1       3.868   0.734  -3.578  1.00  0.00    -0.376 OA
BRANCH  62  63
ATOM     63  C   UNL     1       3.531   1.228  -4.872  1.00  0.00     0.202 C 
BRANCH  63  64
ATOM     64  C   UNL     1       2.720   0.288  -5.790  1.00  0.00     0.261 C 
BRANCH  64  65
ATOM     65  O   UNL     1       3.149  -1.087  -5.794  1.00  0.00    -0.461 OA
BRANCH  65  66
ATOM     66  C   UNL     1       4.128  -1.466  -6.643  1.00  0.00     0.335 C 
ATOM     67  O   UNL     1       4.606  -0.744  -7.511  1.00  0.00    -0.249 OA
BRANCH  66  68
ATOM     68  C   UNL     1       4.683  -2.879  -6.324  1.00  0.00     0.228 C 
ATOM     69  C   UNL     1       4.630  -3.796  -7.524  1.00  0.00     0.047 C 
ATOM     70  O   UNL     1       4.182  -3.707  -5.269  1.00  0.00    -0.362 OA
ATOM     71  C   UNL     1       5.133  -5.087  -6.912  1.00  0.00     0.036 C 
ATOM     72  C   UNL     1       4.513  -5.070  -5.527  1.00  0.00     0.135 C 
BRANCH  72  73
ATOM     73  C   UNL     1       5.195  -5.821  -4.378  1.00  0.00     0.174 C 
BRANCH  73  74
ATOM     74  S   UNL     1       6.656  -5.257  -3.548  1.00  0.00     0.181 S 
ATOM     75  O   UNL     1       6.387  -3.960  -2.941  1.00  0.00    -0.224 OA
ATOM     76  O   UNL     1       7.107  -6.345  -2.707  1.00  0.00    -0.224 OA
BRANCH  74  77
ATOM     77  C   UNL     1       7.989  -4.993  -4.682  1.00  0.00     0.070 A 
ATOM     78  C   UNL     1       8.167  -5.816  -5.794  1.00  0.00     0.020 A 
ATOM     79  C   UNL     1       8.872  -3.935  -4.436  1.00  0.00     0.059 A 
ATOM     80  C   UNL     1       9.135  -5.485  -6.745  1.00  0.00     0.004 A 
ATOM     81  C   UNL     1       9.865  -3.653  -5.364  1.00  0.00     0.124 A 
ATOM     82  C   UNL     1       9.978  -4.393  -6.535  1.00  0.00     0.039 A 
ATOM     83  F   UNL     1      10.714  -2.643  -5.137  1.00  0.00    -0.207 F 
ENDBRANCH  74  77
ENDBRANCH  73  74
ENDBRANCH  72  73
ENDBRANCH  66  68
ENDBRANCH  65  66
ENDBRANCH  64  65
ENDBRANCH  63  64
ENDBRANCH  62  63
ENDBRANCH  61  62
ENDBRANCH   1  61
TORSDOF 23
