REMARK SMILES COC[C@H](C)[C@@](C)(O)C(=O)OCCOCCOCCOCCOC(=O)c1ccc(-c2c3nc(c(-c4ccccc4)c4ccc([nH]4)c(-c4ccccc4)c4nc(c(-c5ccccc5)c5ccc2[nH]5)C=C4)C=C3)cc1
REMARK SMILES IDX 16 1 15 2 14 3 13 4 12 5 11 6 9 7 10 8 6 9 7 10 4 11 5 12
REMARK SMILES IDX 3 13 2 14 1 15 8 16 17 18 18 19 19 20 20 21 21 22 22 23
REMARK SMILES IDX 23 24 24 25 25 26 26 27 27 28 73 29 28 30 72 31 29 32 30 33
REMARK SMILES IDX 31 34 66 35 32 36 71 37 65 38 67 39 33 40 70 41 64 42 63 43
REMARK SMILES IDX 34 45 56 46 41 47 55 48 42 49 45 50 54 51 68 52 43 53 44 54
REMARK SMILES IDX 53 56 69 57 46 58 35 59 36 60 40 61 37 62 39 63 38 64 57 65
REMARK SMILES IDX 58 66 62 67 59 68 61 69 60 70 47 71 48 72 52 73 49 74 51 75
REMARK SMILES IDX 50 76
REMARK H PARENT 8 17 67 44 45 55
REMARK Flexibility Score: inf
ROOT
ATOM      1  C   UNL     1       2.946   0.571  -4.635  1.00  0.00     0.188 C 
ENDROOT
BRANCH   1   2
ATOM      2  C   UNL     1       3.725   0.210  -3.360  1.00  0.00     0.188 C 
BRANCH   2   3
ATOM      3  O   UNL     1       5.043  -0.249  -3.642  1.00  0.00    -0.376 OA
BRANCH   3   4
ATOM      4  C   UNL     1       5.236  -1.657  -3.664  1.00  0.00     0.202 C 
BRANCH   4   5
ATOM      5  C   UNL     1       4.322  -2.548  -4.526  1.00  0.00     0.261 C 
BRANCH   5   6
ATOM      6  O   UNL     1       2.910  -2.288  -4.454  1.00  0.00    -0.461 OA
BRANCH   6   7
ATOM      7  C   UNL     1       2.210  -2.725  -3.376  1.00  0.00     0.338 C 
ATOM      8  O   UNL     1       2.704  -3.389  -2.473  1.00  0.00    -0.249 OA
BRANCH   7   9
ATOM      9  C   UNL     1       0.689  -2.356  -3.505  1.00  0.00     0.163 C 
ATOM     10  C   UNL     1       0.001  -3.678  -3.886  1.00  0.00     0.055 C 
BRANCH   9  11
ATOM     11  C   UNL     1       0.061  -1.731  -2.215  1.00  0.00     0.055 C 
ATOM     12  C   UNL     1       0.291  -2.561  -0.951  1.00  0.00     0.014 C 
BRANCH  11  13
ATOM     13  C   UNL     1       0.387  -0.233  -1.978  1.00  0.00     0.166 C 
BRANCH  13  14
ATOM     14  O   UNL     1       1.523  -0.058  -1.137  1.00  0.00    -0.384 OA
ATOM     15  C   UNL     1       1.202   0.440   0.157  1.00  0.00     0.194 C 
ENDBRANCH  13  14
ENDBRANCH  11  13
ENDBRANCH   9  11
BRANCH   9  16
ATOM     16  O   UNL     1       0.370  -1.468  -4.587  1.00  0.00    -0.378 OA
ATOM     17  H   UNL     1      -0.584  -1.295  -4.592  1.00  0.00     0.212 HD
ENDBRANCH   9  16
ENDBRANCH   7   9
ENDBRANCH   6   7
ENDBRANCH   5   6
ENDBRANCH   4   5
ENDBRANCH   3   4
ENDBRANCH   2   3
ENDBRANCH   1   2
BRANCH   1  18
ATOM     18  O   UNL     1       3.574   0.139  -5.829  1.00  0.00    -0.377 OA
BRANCH  18  19
ATOM     19  C   UNL     1       4.699   0.873  -6.290  1.00  0.00     0.188 C 
BRANCH  19  20
ATOM     20  C   UNL     1       5.401   1.951  -5.428  1.00  0.00     0.188 C 
BRANCH  20  21
ATOM     21  O   UNL     1       4.545   2.710  -4.585  1.00  0.00    -0.376 OA
BRANCH  21  22
ATOM     22  C   UNL     1       4.204   4.027  -4.981  1.00  0.00     0.202 C 
BRANCH  22  23
ATOM     23  C   UNL     1       3.251   4.147  -6.177  1.00  0.00     0.261 C 
BRANCH  23  24
ATOM     24  O   UNL     1       3.701   3.548  -7.401  1.00  0.00    -0.460 OA
BRANCH  24  25
ATOM     25  C   UNL     1       4.853   3.999  -7.943  1.00  0.00     0.338 C 
ATOM     26  O   UNL     1       5.557   4.908  -7.541  1.00  0.00    -0.246 OA
BRANCH  25  27
ATOM     27  C   UNL     1       5.223   3.053  -9.017  1.00  0.00     0.060 A 
ATOM     28  C   UNL     1       6.424   2.335  -8.916  1.00  0.00     0.016 A 
ATOM     29  C   UNL     1       4.346   2.821 -10.079  1.00  0.00     0.016 A 
ATOM     30  C   UNL     1       6.750   1.381  -9.881  1.00  0.00     0.010 A 
ATOM     31  C   UNL     1       4.691   1.893 -11.061  1.00  0.00     0.010 A 
ATOM     32  C   UNL     1       5.902   1.181 -10.976  1.00  0.00    -0.014 A 
BRANCH  32  33
ATOM     33  C   UNL     1       6.348   0.378 -12.137  1.00  0.00     0.031 A 
ATOM     34  C   UNL     1       6.981   1.101 -13.292  1.00  0.00     0.074 A 
ATOM     35  C   UNL     1       6.158  -0.953 -12.189  1.00  0.00     0.049 A 
ATOM     36  N   UNL     1       7.328   0.646 -14.467  1.00  0.00    -0.248 NA
ATOM     37  C   UNL     1       7.250   2.536 -13.095  1.00  0.00     0.031 C 
ATOM     38  C   UNL     1       5.599  -1.775 -11.118  1.00  0.00     0.029 A 
ATOM     39  N   UNL     1       6.397  -1.842 -13.208  1.00  0.00    -0.354 N 
ATOM     40  C   UNL     1       7.834   1.740 -15.156  1.00  0.00     0.074 A 
ATOM     41  C   UNL     1       7.743   2.882 -14.275  1.00  0.00     0.031 C 
ATOM     42  C   UNL     1       5.510  -3.047 -11.548  1.00  0.00     0.029 A 
ATOM     43  C   UNL     1       5.964  -3.118 -12.936  1.00  0.00     0.049 A 
ATOM     44  H   UNL     1       6.837  -1.590 -14.052  1.00  0.00     0.167 HD
ATOM     45  C   UNL     1       8.322   1.789 -16.417  1.00  0.00     0.031 A 
ATOM     46  C   UNL     1       5.901  -4.203 -13.733  1.00  0.00     0.031 A 
ATOM     47  C   UNL     1       8.400   0.655 -17.295  1.00  0.00     0.049 A 
ATOM     48  C   UNL     1       6.370  -4.098 -15.164  1.00  0.00     0.074 A 
ATOM     49  C   UNL     1       8.918   0.597 -18.577  1.00  0.00     0.029 A 
ATOM     50  N   UNL     1       7.932  -0.612 -16.990  1.00  0.00    -0.354 N 
ATOM     51  N   UNL     1       6.897  -3.074 -15.790  1.00  0.00    -0.248 NA
ATOM     52  C   UNL     1       6.232  -5.302 -15.999  1.00  0.00     0.031 C 
ATOM     53  C   UNL     1       8.697  -0.690 -19.075  1.00  0.00     0.029 A 
ATOM     54  C   UNL     1       8.104  -1.449 -18.078  1.00  0.00     0.049 A 
ATOM     55  H   UNL     1       7.536  -0.877 -16.128  1.00  0.00     0.167 HD
ATOM     56  C   UNL     1       7.174  -3.515 -17.079  1.00  0.00     0.074 A 
ATOM     57  C   UNL     1       6.775  -4.905 -17.142  1.00  0.00     0.031 C 
ATOM     58  C   UNL     1       7.707  -2.832 -18.121  1.00  0.00     0.031 A 
BRANCH  45  59
ATOM     59  C   UNL     1       8.761   3.124 -16.944  1.00  0.00    -0.014 A 
ATOM     60  C   UNL     1       9.940   3.739 -16.496  1.00  0.00     0.009 A 
ATOM     61  C   UNL     1       8.006   3.749 -17.949  1.00  0.00     0.009 A 
ATOM     62  C   UNL     1      10.343   4.965 -17.032  1.00  0.00     0.001 A 
ATOM     63  C   UNL     1       8.425   4.959 -18.502  1.00  0.00     0.001 A 
ATOM     64  C   UNL     1       9.590   5.569 -18.038  1.00  0.00     0.000 A 
ENDBRANCH  45  59
BRANCH  46  65
ATOM     65  C   UNL     1       5.311  -5.475 -13.232  1.00  0.00    -0.014 A 
ATOM     66  C   UNL     1       6.098  -6.629 -13.093  1.00  0.00     0.009 A 
ATOM     67  C   UNL     1       3.939  -5.555 -12.943  1.00  0.00     0.009 A 
ATOM     68  C   UNL     1       5.518  -7.841 -12.709  1.00  0.00     0.001 A 
ATOM     69  C   UNL     1       3.368  -6.760 -12.527  1.00  0.00     0.001 A 
ATOM     70  C   UNL     1       4.155  -7.905 -12.423  1.00  0.00     0.000 A 
ENDBRANCH  46  65
BRANCH  58  71
ATOM     71  C   UNL     1       7.923  -3.576 -19.409  1.00  0.00    -0.014 A 
ATOM     72  C   UNL     1       6.845  -3.932 -20.234  1.00  0.00     0.009 A 
ATOM     73  C   UNL     1       9.230  -3.859 -19.837  1.00  0.00     0.009 A 
ATOM     74  C   UNL     1       7.072  -4.577 -21.451  1.00  0.00     0.001 A 
ATOM     75  C   UNL     1       9.455  -4.475 -21.068  1.00  0.00     0.001 A 
ATOM     76  C   UNL     1       8.376  -4.840 -21.871  1.00  0.00     0.000 A 
ENDBRANCH  58  71
ENDBRANCH  32  33
ENDBRANCH  25  27
ENDBRANCH  24  25
ENDBRANCH  23  24
ENDBRANCH  22  23
ENDBRANCH  21  22
ENDBRANCH  20  21
ENDBRANCH  19  20
ENDBRANCH  18  19
ENDBRANCH   1  18
TORSDOF 24
