REMARK SMILES Cc1ccccc1OCC(=O)N[C@@H](Cc1c[nH]c2ccccc12)C(=O)OCCOCCOCCOCCOC(=O)c1ccc(-c2c3nc(c(-c4ccccc4)c4ccc([nH]4)c(-c4ccccc4)c4nc(c(-c5ccccc5)c5ccc2[nH]5)C=C4)C=C3)cc1
REMARK SMILES IDX 31 1 30 2 29 3 28 4 27 5 26 6 24 7 25 8 13 9 12 10 10 11
REMARK SMILES IDX 11 12 9 14 8 15 7 16 1 17 2 18 3 19 4 20 6 21 5 22 14 23
REMARK SMILES IDX 15 24 16 25 23 26 17 27 18 28 22 29 19 31 21 32 20 33 32 34
REMARK SMILES IDX 33 35 34 36 35 37 36 38 37 39 38 40 39 41 40 42 41 43 42 44
REMARK SMILES IDX 88 45 43 46 87 47 44 48 45 49 46 50 81 51 47 52 86 53 80 54
REMARK SMILES IDX 82 55 48 56 85 57 79 58 78 59 49 61 71 62 56 63 70 64 57 65
REMARK SMILES IDX 60 66 69 67 83 68 58 69 59 70 68 72 84 73 61 74 50 75 51 76
REMARK SMILES IDX 55 77 52 78 54 79 53 80 72 81 73 82 77 83 74 84 76 85 75 86
REMARK SMILES IDX 62 87 63 88 67 89 64 90 66 91 65 92
REMARK H PARENT 12 13 17 30 82 60 60 71
REMARK Flexibility Score: inf
ROOT
ATOM      1  C   UNL     1       4.579   3.567   0.873  1.00  0.00     0.188 C 
ENDROOT
BRANCH   1   2
ATOM      2  C   UNL     1       3.477   4.565   1.177  1.00  0.00     0.188 C 
BRANCH   2   3
ATOM      3  O   UNL     1       3.861   5.675   1.980  1.00  0.00    -0.376 OA
BRANCH   3   4
ATOM      4  C   UNL     1       2.854   6.693   1.979  1.00  0.00     0.202 C 
BRANCH   4   5
ATOM      5  C   UNL     1       1.515   6.391   2.680  1.00  0.00     0.261 C 
BRANCH   5   6
ATOM      6  O   UNL     1       1.182   5.000   2.816  1.00  0.00    -0.462 OA
BRANCH   6   7
ATOM      7  C   UNL     1       0.143   4.546   2.075  1.00  0.00     0.329 C 
ATOM      8  O   UNL     1      -0.576   5.250   1.399  1.00  0.00    -0.250 OA
BRANCH   7   9
ATOM      9  C   UNL     1      -0.062   3.018   2.192  1.00  0.00     0.196 C 
BRANCH   9  10
ATOM     10  N   UNL     1       1.115   2.165   2.340  1.00  0.00    -0.339 N 
ATOM     11  C   UNL     1       1.818   1.537   1.351  1.00  0.00     0.258 C 
ATOM     12  O   UNL     1       2.600   0.636   1.653  1.00  0.00    -0.271 OA
ATOM     13  H   UNL     1       1.439   2.027   3.259  1.00  0.00     0.164 HD
BRANCH  11  14
ATOM     14  C   UNL     1       1.661   2.026  -0.114  1.00  0.00     0.329 C 
BRANCH  14  15
ATOM     15  O   UNL     1       0.643   1.641  -1.010  1.00  0.00    -0.484 OA
BRANCH  15  16
ATOM     16  C   UNL     1      -0.008   0.502  -0.648  1.00  0.00     0.122 A 
ATOM     17  C   UNL     1       2.030  -1.039  -0.900  1.00  0.00     0.048 C 
ATOM     18  C   UNL     1       0.592  -0.759  -0.566  1.00  0.00    -0.009 A 
ATOM     19  C   UNL     1      -0.204  -1.834  -0.143  1.00  0.00     0.007 A 
ATOM     20  C   UNL     1      -1.560  -1.659   0.143  1.00  0.00     0.001 A 
ATOM     21  C   UNL     1      -1.375   0.670  -0.407  1.00  0.00     0.047 A 
ATOM     22  C   UNL     1      -2.150  -0.407   0.001  1.00  0.00     0.004 A 
ENDBRANCH  15  16
ENDBRANCH  14  15
ENDBRANCH  11  14
ENDBRANCH   9  10
BRANCH   9  23
ATOM     23  C   UNL     1      -1.169   2.674   3.203  1.00  0.00     0.074 C 
BRANCH  23  24
ATOM     24  C   UNL     1      -0.748   2.212   4.574  1.00  0.00    -0.020 A 
ATOM     25  C   UNL     1      -0.684   2.993   5.707  1.00  0.00     0.087 A 
ATOM     26  C   UNL     1      -0.403   0.879   4.994  1.00  0.00     0.003 A 
ATOM     27  N   UNL     1      -0.375   2.207   6.781  1.00  0.00    -0.361 N 
ATOM     28  C   UNL     1      -0.215   0.905   6.379  1.00  0.00     0.046 A 
ATOM     29  C   UNL     1      -0.245  -0.353   4.327  1.00  0.00     0.010 A 
ATOM     30  H   UNL     1      -0.280   2.529   7.707  1.00  0.00     0.166 HD
ATOM     31  C   UNL     1       0.077  -0.238   7.133  1.00  0.00     0.026 A 
ATOM     32  C   UNL     1       0.070  -1.503   5.063  1.00  0.00     0.001 A 
ATOM     33  C   UNL     1       0.214  -1.447   6.447  1.00  0.00     0.002 A 
ENDBRANCH  23  24
ENDBRANCH   9  23
ENDBRANCH   7   9
ENDBRANCH   6   7
ENDBRANCH   5   6
ENDBRANCH   4   5
ENDBRANCH   3   4
ENDBRANCH   2   3
ENDBRANCH   1   2
BRANCH   1  34
ATOM     34  O   UNL     1       4.812   2.662   1.946  1.00  0.00    -0.377 OA
BRANCH  34  35
ATOM     35  C   UNL     1       5.712   3.147   2.937  1.00  0.00     0.188 C 
BRANCH  35  36
ATOM     36  C   UNL     1       7.139   3.099   2.417  1.00  0.00     0.188 C 
BRANCH  36  37
ATOM     37  O   UNL     1       7.349   4.242   1.586  1.00  0.00    -0.376 OA
BRANCH  37  38
ATOM     38  C   UNL     1       8.228   4.043   0.486  1.00  0.00     0.202 C 
BRANCH  38  39
ATOM     39  C   UNL     1       9.666   3.813   0.947  1.00  0.00     0.261 C 
BRANCH  39  40
ATOM     40  O   UNL     1      10.089   4.970   1.700  1.00  0.00    -0.460 OA
BRANCH  40  41
ATOM     41  C   UNL     1      10.188   4.768   3.039  1.00  0.00     0.338 C 
ATOM     42  O   UNL     1      10.786   3.840   3.568  1.00  0.00    -0.246 OA
BRANCH  41  43
ATOM     43  C   UNL     1       9.251   5.666   3.776  1.00  0.00     0.060 A 
ATOM     44  C   UNL     1       9.043   5.451   5.149  1.00  0.00     0.016 A 
ATOM     45  C   UNL     1       8.356   6.459   3.061  1.00  0.00     0.016 A 
ATOM     46  C   UNL     1       7.860   5.887   5.760  1.00  0.00     0.010 A 
ATOM     47  C   UNL     1       7.139   6.781   3.636  1.00  0.00     0.010 A 
ATOM     48  C   UNL     1       6.859   6.463   4.975  1.00  0.00    -0.014 A 
BRANCH  48  49
ATOM     49  C   UNL     1       5.436   6.530   5.350  1.00  0.00     0.031 A 
ATOM     50  C   UNL     1       4.635   7.784   5.165  1.00  0.00     0.074 A 
ATOM     51  C   UNL     1       4.792   5.346   5.481  1.00  0.00     0.049 A 
ATOM     52  N   UNL     1       3.391   7.933   5.498  1.00  0.00    -0.248 NA
ATOM     53  C   UNL     1       5.203   9.020   4.626  1.00  0.00     0.031 C 
ATOM     54  C   UNL     1       3.394   5.096   5.180  1.00  0.00     0.029 A 
ATOM     55  N   UNL     1       5.234   4.093   5.885  1.00  0.00    -0.354 N 
ATOM     56  C   UNL     1       2.930   9.114   4.948  1.00  0.00     0.074 A 
ATOM     57  C   UNL     1       4.122   9.801   4.519  1.00  0.00     0.031 C 
ATOM     58  C   UNL     1       3.044   3.855   5.522  1.00  0.00     0.029 A 
ATOM     59  C   UNL     1       4.126   3.351   6.316  1.00  0.00     0.049 A 
ATOM     60  H   UNL     1       6.167   3.779   5.870  1.00  0.00     0.167 HD
ATOM     61  C   UNL     1       1.587   9.326   4.789  1.00  0.00     0.031 A 
ATOM     62  C   UNL     1       3.971   2.911   7.596  1.00  0.00     0.031 A 
ATOM     63  C   UNL     1       0.752   8.325   5.489  1.00  0.00     0.049 A 
ATOM     64  C   UNL     1       2.823   3.624   8.303  1.00  0.00     0.074 A 
ATOM     65  C   UNL     1      -0.385   7.606   5.157  1.00  0.00     0.029 A 
ATOM     66  N   UNL     1       1.156   7.824   6.734  1.00  0.00    -0.354 N 
ATOM     67  N   UNL     1       2.228   4.703   7.840  1.00  0.00    -0.248 NA
ATOM     68  C   UNL     1       2.217   3.177   9.555  1.00  0.00     0.031 C 
ATOM     69  C   UNL     1      -0.628   6.658   6.181  1.00  0.00     0.029 A 
ATOM     70  C   UNL     1       0.362   6.777   7.144  1.00  0.00     0.049 A 
ATOM     71  H   UNL     1       1.915   8.177   7.251  1.00  0.00     0.167 HD
ATOM     72  C   UNL     1       1.237   5.110   8.691  1.00  0.00     0.074 A 
ATOM     73  C   UNL     1       1.260   4.106   9.743  1.00  0.00     0.031 C 
ATOM     74  C   UNL     1       0.475   6.230   8.494  1.00  0.00     0.031 A 
BRANCH  61  75
ATOM     75  C   UNL     1       0.988  10.345   3.803  1.00  0.00    -0.014 A 
ATOM     76  C   UNL     1      -0.412  10.486   3.687  1.00  0.00     0.009 A 
ATOM     77  C   UNL     1       1.729  11.107   2.877  1.00  0.00     0.009 A 
ATOM     78  C   UNL     1      -1.023  11.272   2.692  1.00  0.00     0.001 A 
ATOM     79  C   UNL     1       1.128  11.941   1.914  1.00  0.00     0.001 A 
ATOM     80  C   UNL     1      -0.251  12.007   1.806  1.00  0.00     0.000 A 
ENDBRANCH  61  75
BRANCH  62  81
ATOM     81  C   UNL     1       5.227   2.270   8.099  1.00  0.00    -0.014 A 
ATOM     82  C   UNL     1       5.542   1.073   7.410  1.00  0.00     0.009 A 
ATOM     83  C   UNL     1       6.293   3.067   8.554  1.00  0.00     0.009 A 
ATOM     84  C   UNL     1       6.831   0.857   6.912  1.00  0.00     0.001 A 
ATOM     85  C   UNL     1       7.595   2.822   8.076  1.00  0.00     0.001 A 
ATOM     86  C   UNL     1       7.845   1.764   7.199  1.00  0.00     0.000 A 
ENDBRANCH  62  81
BRANCH  74  87
ATOM     87  C   UNL     1      -0.315   6.950   9.569  1.00  0.00    -0.014 A 
ATOM     88  C   UNL     1      -0.124   6.761  10.942  1.00  0.00     0.009 A 
ATOM     89  C   UNL     1      -1.167   8.021   9.199  1.00  0.00     0.009 A 
ATOM     90  C   UNL     1      -0.781   7.561  11.887  1.00  0.00     0.001 A 
ATOM     91  C   UNL     1      -1.791   8.846  10.134  1.00  0.00     0.001 A 
ATOM     92  C   UNL     1      -1.605   8.607  11.485  1.00  0.00     0.000 A 
ENDBRANCH  74  87
ENDBRANCH  48  49
ENDBRANCH  41  43
ENDBRANCH  40  41
ENDBRANCH  39  40
ENDBRANCH  38  39
ENDBRANCH  37  38
ENDBRANCH  36  37
ENDBRANCH  35  36
ENDBRANCH  34  35
ENDBRANCH   1  34
TORSDOF 26
