REMARK SMILES CC(C)C[C@H](CNC(=O)c1ccc(O)cc1O)C(=O)OCCOCCOCCOCCOC(=O)c1ccc(-c2c3nc(c(-c4ccccc4)c4ccc([nH]4)c(-c4ccccc4)c4nc(c(-c5ccccc5)c5ccc2[nH]5)C=C4)C=C3)cc1
REMARK SMILES IDX 25 1 24 2 23 3 22 4 21 5 20 6 18 7 19 8 5 9 4 10 2 11 1 12
REMARK SMILES IDX 3 13 6 14 7 15 8 16 9 18 10 19 11 20 16 21 12 22 15 23 13 24
REMARK SMILES IDX 17 25 14 27 26 29 27 30 28 31 29 32 30 33 31 34 32 35 33 36
REMARK SMILES IDX 34 37 35 38 36 39 82 40 37 41 81 42 38 43 39 44 40 45 75 46
REMARK SMILES IDX 41 47 80 48 74 49 76 50 42 51 79 52 73 53 72 54 43 56 65 57
REMARK SMILES IDX 50 58 64 59 51 60 54 61 63 62 77 63 52 64 53 65 62 67 78 68
REMARK SMILES IDX 55 69 44 70 45 71 49 72 46 73 48 74 47 75 66 76 67 77 71 78
REMARK SMILES IDX 68 79 70 80 69 81 56 82 57 83 61 84 58 85 60 86 59 87
REMARK H PARENT 7 17 17 26 14 28 76 55 54 66
REMARK Flexibility Score: inf
ROOT
ATOM      1  C   UNL     1      -3.399  -0.724   0.865  1.00  0.00     0.188 C 
ENDROOT
BRANCH   1   2
ATOM      2  C   UNL     1      -4.298   0.477   0.557  1.00  0.00     0.188 C 
BRANCH   2   3
ATOM      3  O   UNL     1      -5.572   0.124   0.067  1.00  0.00    -0.376 OA
BRANCH   3   4
ATOM      4  C   UNL     1      -5.893  -0.212  -1.265  1.00  0.00     0.202 C 
BRANCH   4   5
ATOM      5  C   UNL     1      -4.997  -0.880  -2.333  1.00  0.00     0.261 C 
BRANCH   5   6
ATOM      6  O   UNL     1      -3.612  -1.130  -2.087  1.00  0.00    -0.463 OA
BRANCH   6   7
ATOM      7  C   UNL     1      -2.804  -0.045  -2.168  1.00  0.00     0.310 C 
ATOM      8  O   UNL     1      -3.232   1.090  -2.343  1.00  0.00    -0.252 OA
BRANCH   7   9
ATOM      9  C   UNL     1      -1.311  -0.380  -2.096  1.00  0.00     0.118 C 
BRANCH   9  10
ATOM     10  C   UNL     1      -0.790  -0.559  -3.530  1.00  0.00     0.020 C 
BRANCH  10  11
ATOM     11  C   UNL     1      -1.206   0.556  -4.513  1.00  0.00    -0.017 C 
ATOM     12  C   UNL     1      -0.755   1.947  -4.058  1.00  0.00     0.007 C 
ATOM     13  C   UNL     1      -0.654   0.254  -5.903  1.00  0.00     0.007 C 
ENDBRANCH  10  11
ENDBRANCH   9  10
BRANCH   9  14
ATOM     14  C   UNL     1      -0.964  -1.573  -1.175  1.00  0.00     0.131 C 
BRANCH  14  15
ATOM     15  N   UNL     1       0.375  -2.119  -1.335  1.00  0.00    -0.351 N 
ATOM     16  C   UNL     1       1.552  -1.854  -0.689  1.00  0.00     0.255 C 
ATOM     17  H   UNL     1       0.447  -2.806  -2.036  1.00  0.00     0.163 HD
ATOM     18  O   UNL     1       2.600  -2.306  -1.153  1.00  0.00    -0.269 OA
BRANCH  16  19
ATOM     19  C   UNL     1       1.649  -0.983   0.502  1.00  0.00     0.081 A 
ATOM     20  C   UNL     1       0.865  -1.185   1.645  1.00  0.00     0.021 A 
ATOM     21  C   UNL     1       2.662  -0.012   0.531  1.00  0.00     0.132 A 
ATOM     22  C   UNL     1       1.055  -0.378   2.777  1.00  0.00     0.047 A 
ATOM     23  C   UNL     1       2.836   0.806   1.644  1.00  0.00     0.093 A 
ATOM     24  C   UNL     1       2.032   0.616   2.761  1.00  0.00     0.119 A 
BRANCH  21  25
ATOM     25  O   UNL     1       3.544   0.163  -0.504  1.00  0.00    -0.507 OA
ATOM     26  H   UNL     1       3.470  -0.363  -1.276  1.00  0.00     0.293 HD
ENDBRANCH  21  25
BRANCH  24  27
ATOM     27  O   UNL     1       2.254   1.419   3.841  1.00  0.00    -0.508 OA
ATOM     28  H   UNL     1       1.732   1.321   4.612  1.00  0.00     0.293 HD
ENDBRANCH  24  27
ENDBRANCH  16  19
ENDBRANCH  14  15
ENDBRANCH   9  14
ENDBRANCH   7   9
ENDBRANCH   6   7
ENDBRANCH   5   6
ENDBRANCH   4   5
ENDBRANCH   3   4
ENDBRANCH   2   3
ENDBRANCH   1   2
BRANCH   1  29
ATOM     29  O   UNL     1      -3.853  -1.726   1.751  1.00  0.00    -0.377 OA
BRANCH  29  30
ATOM     30  C   UNL     1      -5.142  -2.235   1.449  1.00  0.00     0.188 C 
BRANCH  30  31
ATOM     31  C   UNL     1      -6.224  -1.574   2.309  1.00  0.00     0.188 C 
BRANCH  31  32
ATOM     32  O   UNL     1      -5.849  -0.543   3.202  1.00  0.00    -0.376 OA
BRANCH  32  33
ATOM     33  C   UNL     1      -4.758  -0.650   4.101  1.00  0.00     0.202 C 
BRANCH  33  34
ATOM     34  C   UNL     1      -4.053  -1.946   4.569  1.00  0.00     0.261 C 
BRANCH  34  35
ATOM     35  O   UNL     1      -4.442  -3.205   4.024  1.00  0.00    -0.460 OA
BRANCH  35  36
ATOM     36  C   UNL     1      -5.564  -3.766   4.510  1.00  0.00     0.338 C 
ATOM     37  O   UNL     1      -6.305  -3.323   5.370  1.00  0.00    -0.246 OA
BRANCH  36  38
ATOM     38  C   UNL     1      -5.843  -4.955   3.676  1.00  0.00     0.060 A 
ATOM     39  C   UNL     1      -7.053  -5.021   2.972  1.00  0.00     0.016 A 
ATOM     40  C   UNL     1      -4.904  -5.984   3.572  1.00  0.00     0.016 A 
ATOM     41  C   UNL     1      -7.348  -6.135   2.190  1.00  0.00     0.010 A 
ATOM     42  C   UNL     1      -5.215  -7.118   2.820  1.00  0.00     0.010 A 
ATOM     43  C   UNL     1      -6.456  -7.213   2.164  1.00  0.00    -0.014 A 
BRANCH  43  44
ATOM     44  C   UNL     1      -6.934  -8.536   1.706  1.00  0.00     0.031 A 
ATOM     45  C   UNL     1      -7.466  -9.477   2.752  1.00  0.00     0.074 A 
ATOM     46  C   UNL     1      -6.909  -8.897   0.413  1.00  0.00     0.049 A 
ATOM     47  N   UNL     1      -7.859 -10.718   2.633  1.00  0.00    -0.248 NA
ATOM     48  C   UNL     1      -7.560  -8.942   4.122  1.00  0.00     0.031 C 
ATOM     49  C   UNL     1      -6.480  -8.051  -0.698  1.00  0.00     0.029 A 
ATOM     50  N   UNL     1      -7.247 -10.089  -0.176  1.00  0.00    -0.354 N 
ATOM     51  C   UNL     1      -8.227 -11.115   3.912  1.00  0.00     0.074 A 
ATOM     52  C   UNL     1      -7.988  -9.996   4.795  1.00  0.00     0.031 C 
ATOM     53  C   UNL     1      -6.564  -8.761  -1.838  1.00  0.00     0.029 A 
ATOM     54  C   UNL     1      -7.012 -10.118  -1.528  1.00  0.00     0.049 A 
ATOM     55  H   UNL     1      -7.621 -10.850   0.324  1.00  0.00     0.167 HD
ATOM     56  C   UNL     1      -8.721 -12.307   4.319  1.00  0.00     0.031 A 
ATOM     57  C   UNL     1      -7.119 -11.136  -2.403  1.00  0.00     0.031 A 
ATOM     58  C   UNL     1      -8.934 -13.426   3.443  1.00  0.00     0.049 A 
ATOM     59  C   UNL     1      -7.580 -12.485  -1.914  1.00  0.00     0.074 A 
ATOM     60  C   UNL     1      -9.432 -14.678   3.750  1.00  0.00     0.029 A 
ATOM     61  N   UNL     1      -8.649 -13.426   2.086  1.00  0.00    -0.354 N 
ATOM     62  N   UNL     1      -7.938 -12.851  -0.706  1.00  0.00    -0.248 NA
ATOM     63  C   UNL     1      -7.658 -13.561  -2.913  1.00  0.00     0.031 C 
ATOM     64  C   UNL     1      -9.388 -15.459   2.591  1.00  0.00     0.029 A 
ATOM     65  C   UNL     1      -8.933 -14.668   1.547  1.00  0.00     0.049 A 
ATOM     66  H   UNL     1      -8.296 -12.658   1.582  1.00  0.00     0.167 HD
ATOM     67  C   UNL     1      -8.317 -14.185  -0.807  1.00  0.00     0.074 A 
ATOM     68  C   UNL     1      -8.153 -14.561  -2.196  1.00  0.00     0.031 C 
ATOM     69  C   UNL     1      -8.768 -15.022   0.160  1.00  0.00     0.031 A 
BRANCH  56  70
ATOM     70  C   UNL     1      -9.004 -12.469   5.786  1.00  0.00    -0.014 A 
ATOM     71  C   UNL     1     -10.053 -11.777   6.413  1.00  0.00     0.009 A 
ATOM     72  C   UNL     1      -8.203 -13.328   6.554  1.00  0.00     0.009 A 
ATOM     73  C   UNL     1     -10.266 -11.911   7.787  1.00  0.00     0.001 A 
ATOM     74  C   UNL     1      -8.440 -13.487   7.920  1.00  0.00     0.001 A 
ATOM     75  C   UNL     1      -9.463 -12.769   8.538  1.00  0.00     0.000 A 
ENDBRANCH  56  70
BRANCH  57  76
ATOM     76  C   UNL     1      -6.759 -10.931  -3.831  1.00  0.00    -0.014 A 
ATOM     77  C   UNL     1      -7.743 -10.962  -4.831  1.00  0.00     0.009 A 
ATOM     78  C   UNL     1      -5.422 -10.717  -4.205  1.00  0.00     0.009 A 
ATOM     79  C   UNL     1      -7.393 -10.806  -6.175  1.00  0.00     0.001 A 
ATOM     80  C   UNL     1      -5.079 -10.532  -5.545  1.00  0.00     0.001 A 
ATOM     81  C   UNL     1      -6.063 -10.586  -6.530  1.00  0.00     0.000 A 
ENDBRANCH  57  76
BRANCH  69  82
ATOM     82  C   UNL     1      -9.173 -16.411  -0.254  1.00  0.00    -0.014 A 
ATOM     83  C   UNL     1      -8.224 -17.376  -0.623  1.00  0.00     0.009 A 
ATOM     84  C   UNL     1     -10.529 -16.774  -0.209  1.00  0.00     0.009 A 
ATOM     85  C   UNL     1      -8.630 -18.667  -0.970  1.00  0.00     0.001 A 
ATOM     86  C   UNL     1     -10.928 -18.074  -0.523  1.00  0.00     0.001 A 
ATOM     87  C   UNL     1      -9.979 -19.016  -0.912  1.00  0.00     0.000 A 
ENDBRANCH  69  82
ENDBRANCH  43  44
ENDBRANCH  36  38
ENDBRANCH  35  36
ENDBRANCH  34  35
ENDBRANCH  33  34
ENDBRANCH  32  33
ENDBRANCH  31  32
ENDBRANCH  30  31
ENDBRANCH  29  30
ENDBRANCH   1  29
TORSDOF 27
