REMARK SMILES O=C(OCCOCCOCCOCCOC(=O)c1ccc2c(c1)OCCOCCOCCO2)c1ccc(-c2c3nc(c(-c4ccccc4)c4ccc([nH]4)c(-c4ccccc4)c4nc(c(-c5ccccc5)c5ccc2[nH]5)C=C4)C=C3)cc1
REMARK SMILES IDX 10 1 9 2 8 3 7 4 6 5 5 6 4 7 3 8 2 9 1 10 34 11 35 12 81 13
REMARK SMILES IDX 36 14 80 15 37 16 38 17 39 18 74 19 40 20 79 21 73 22 75 23
REMARK SMILES IDX 41 24 78 25 72 26 71 27 42 29 64 30 49 31 63 32 50 33 53 34
REMARK SMILES IDX 62 35 76 36 51 37 52 38 61 40 77 41 54 42 43 43 44 44 48 45
REMARK SMILES IDX 45 46 47 47 46 48 65 49 66 50 70 51 67 52 69 53 68 54 55 55
REMARK SMILES IDX 56 56 60 57 57 58 59 59 58 60 11 61 12 62 13 63 14 64 15 65
REMARK SMILES IDX 16 66 17 67 18 68 19 69 23 70 20 71 22 72 21 73 24 74 25 75
REMARK SMILES IDX 26 76 27 77 28 78 33 80 32 81 31 82 30 83 29 84
REMARK H PARENT 75 28 53 39
REMARK Flexibility Score: 70.00
ROOT
ATOM      1  C   UNL     1       3.812   2.234  -3.103  1.00  0.00     0.188 C 
ENDROOT
BRANCH   1   2
ATOM      2  O   UNL     1       2.393   2.252  -3.036  1.00  0.00    -0.377 OA
BRANCH   2   3
ATOM      3  C   UNL     1       1.791   1.866  -1.804  1.00  0.00     0.188 C 
BRANCH   3   4
ATOM      4  C   UNL     1       2.318   0.586  -1.150  1.00  0.00     0.188 C 
BRANCH   4   5
ATOM      5  O   UNL     1       3.665   0.687  -0.675  1.00  0.00    -0.376 OA
BRANCH   5   6
ATOM      6  C   UNL     1       4.553  -0.338  -1.114  1.00  0.00     0.202 C 
BRANCH   6   7
ATOM      7  C   UNL     1       4.379  -1.718  -0.482  1.00  0.00     0.261 C 
BRANCH   7   8
ATOM      8  O   UNL     1       3.075  -1.989   0.040  1.00  0.00    -0.460 OA
BRANCH   8   9
ATOM      9  C   UNL     1       2.485  -1.554   1.176  1.00  0.00     0.338 C 
ATOM     10  O   UNL     1       1.350  -1.969   1.415  1.00  0.00    -0.246 OA
BRANCH   9  11
ATOM     11  C   UNL     1       3.067  -0.543   2.124  1.00  0.00     0.060 A 
ATOM     12  C   UNL     1       2.211  -0.098   3.151  1.00  0.00     0.016 A 
ATOM     13  C   UNL     1       4.350   0.009   2.074  1.00  0.00     0.016 A 
ATOM     14  C   UNL     1       2.623   0.859   4.080  1.00  0.00     0.010 A 
ATOM     15  C   UNL     1       4.759   0.994   2.970  1.00  0.00     0.010 A 
ATOM     16  C   UNL     1       3.908   1.402   3.993  1.00  0.00    -0.014 A 
BRANCH  16  17
ATOM     17  C   UNL     1       4.476   2.183   5.104  1.00  0.00     0.031 A 
ATOM     18  C   UNL     1       4.633   3.665   5.026  1.00  0.00     0.074 A 
ATOM     19  C   UNL     1       4.936   1.470   6.149  1.00  0.00     0.049 A 
ATOM     20  N   UNL     1       5.022   4.487   5.965  1.00  0.00    -0.248 NA
ATOM     21  C   UNL     1       4.341   4.312   3.737  1.00  0.00     0.031 C 
ATOM     22  C   UNL     1       4.900   0.005   6.233  1.00  0.00     0.029 A 
ATOM     23  N   UNL     1       5.513   1.857   7.326  1.00  0.00    -0.354 N 
ATOM     24  C   UNL     1       5.001   5.752   5.392  1.00  0.00     0.074 A 
ATOM     25  C   UNL     1       4.612   5.585   4.009  1.00  0.00     0.031 C 
ATOM     26  C   UNL     1       5.390  -0.379   7.418  1.00  0.00     0.029 A 
ATOM     27  C   UNL     1       5.783   0.805   8.168  1.00  0.00     0.049 A 
ATOM     28  H   UNL     1       5.714   2.794   7.548  1.00  0.00     0.167 HD
ATOM     29  C   UNL     1       5.273   6.933   5.995  1.00  0.00     0.031 A 
ATOM     30  C   UNL     1       6.258   0.802   9.426  1.00  0.00     0.031 A 
ATOM     31  C   UNL     1       5.687   7.036   7.373  1.00  0.00     0.049 A 
ATOM     32  C   UNL     1       6.505   2.129  10.079  1.00  0.00     0.074 A 
ATOM     33  C   UNL     1       5.927   8.178   8.116  1.00  0.00     0.029 A 
ATOM     34  N   UNL     1       5.933   5.954   8.209  1.00  0.00    -0.354 N 
ATOM     35  N   UNL     1       6.360   3.332   9.573  1.00  0.00    -0.248 NA
ATOM     36  C   UNL     1       6.939   2.108  11.479  1.00  0.00     0.031 C 
ATOM     37  C   UNL     1       6.389   7.787   9.374  1.00  0.00     0.029 A 
ATOM     38  C   UNL     1       6.347   6.402   9.451  1.00  0.00     0.049 A 
ATOM     39  H   UNL     1       5.828   5.009   7.956  1.00  0.00     0.167 HD
ATOM     40  C   UNL     1       6.649   4.214  10.603  1.00  0.00     0.074 A 
ATOM     41  C   UNL     1       6.960   3.403  11.765  1.00  0.00     0.031 C 
ATOM     42  C   UNL     1       6.654   5.569  10.589  1.00  0.00     0.031 A 
BRANCH  29  43
ATOM     43  C   UNL     1       5.113   8.210   5.211  1.00  0.00    -0.014 A 
ATOM     44  C   UNL     1       6.220   9.048   4.996  1.00  0.00     0.009 A 
ATOM     45  C   UNL     1       3.842   8.664   4.824  1.00  0.00     0.009 A 
ATOM     46  C   UNL     1       6.055  10.322   4.446  1.00  0.00     0.001 A 
ATOM     47  C   UNL     1       3.682   9.927   4.247  1.00  0.00     0.001 A 
ATOM     48  C   UNL     1       4.786  10.761   4.074  1.00  0.00     0.000 A 
ENDBRANCH  29  43
BRANCH  30  49
ATOM     49  C   UNL     1       6.382  -0.489  10.151  1.00  0.00    -0.014 A 
ATOM     50  C   UNL     1       7.308  -1.463   9.741  1.00  0.00     0.009 A 
ATOM     51  C   UNL     1       5.493  -0.802  11.191  1.00  0.00     0.009 A 
ATOM     52  C   UNL     1       7.321  -2.728  10.334  1.00  0.00     0.001 A 
ATOM     53  C   UNL     1       5.532  -2.055  11.807  1.00  0.00     0.001 A 
ATOM     54  C   UNL     1       6.436  -3.022  11.370  1.00  0.00     0.000 A 
ENDBRANCH  30  49
BRANCH  42  55
ATOM     55  C   UNL     1       6.988   6.271  11.876  1.00  0.00    -0.014 A 
ATOM     56  C   UNL     1       6.010   7.053  12.511  1.00  0.00     0.009 A 
ATOM     57  C   UNL     1       8.284   6.236  12.410  1.00  0.00     0.009 A 
ATOM     58  C   UNL     1       6.326   7.799  13.646  1.00  0.00     0.001 A 
ATOM     59  C   UNL     1       8.588   6.950  13.569  1.00  0.00     0.001 A 
ATOM     60  C   UNL     1       7.612   7.739  14.179  1.00  0.00     0.000 A 
ENDBRANCH  42  55
ENDBRANCH  16  17
ENDBRANCH   9  11
ENDBRANCH   8   9
ENDBRANCH   7   8
ENDBRANCH   6   7
ENDBRANCH   5   6
ENDBRANCH   4   5
ENDBRANCH   3   4
ENDBRANCH   2   3
ENDBRANCH   1   2
BRANCH   1  61
ATOM     61  C   UNL     1       4.617   3.037  -2.057  1.00  0.00     0.188 C 
BRANCH  61  62
ATOM     62  O   UNL     1       3.813   3.675  -1.086  1.00  0.00    -0.376 OA
BRANCH  62  63
ATOM     63  C   UNL     1       3.517   5.048  -1.291  1.00  0.00     0.202 C 
BRANCH  63  64
ATOM     64  C   UNL     1       2.976   5.549  -2.648  1.00  0.00     0.261 C 
BRANCH  64  65
ATOM     65  O   UNL     1       3.544   4.997  -3.849  1.00  0.00    -0.460 OA
BRANCH  65  66
ATOM     66  C   UNL     1       4.772   5.420  -4.239  1.00  0.00     0.338 C 
ATOM     67  O   UNL     1       5.465   6.243  -3.694  1.00  0.00    -0.246 OA
BRANCH  66  68
ATOM     68  C   UNL     1       5.237   4.501  -5.315  1.00  0.00     0.064 A 
ATOM     69  C   UNL     1       4.533   4.354  -6.516  1.00  0.00     0.020 A 
ATOM     70  C   UNL     1       6.375   3.718  -5.061  1.00  0.00     0.066 A 
ATOM     71  C   UNL     1       5.014   3.475  -7.495  1.00  0.00     0.051 A 
ATOM     72  C   UNL     1       6.814   2.800  -6.009  1.00  0.00     0.162 A 
ATOM     73  C   UNL     1       6.179   2.737  -7.256  1.00  0.00     0.161 A 
BRANCH  72  74
ATOM     74  O   UNL     1       7.958   2.084  -5.812  1.00  0.00    -0.487 OA
BRANCH  74  75
ATOM     75  C   UNL     1       7.941   1.166  -4.715  1.00  0.00     0.258 C 
BRANCH  75  76
ATOM     76  C   UNL     1       9.176   0.250  -4.811  1.00  0.00     0.201 C 
BRANCH  76  77
ATOM     77  O   UNL     1       9.281  -0.384  -6.091  1.00  0.00    -0.376 OA
BRANCH  77  78
ATOM     78  C   UNL     1      10.034   0.403  -7.025  1.00  0.00     0.188 CG0
ATOM     79  G   UNL     1       9.668   0.006  -8.454  1.00  0.00     0.000 G0
ENDBRANCH  77  78
ENDBRANCH  76  77
ENDBRANCH  75  76
ENDBRANCH  74  75
ENDBRANCH  72  74
BRANCH  73  80
ATOM     80  O   UNL     1       6.680   1.946  -8.265  1.00  0.00    -0.487 OA
BRANCH  80  81
ATOM     81  C   UNL     1       7.842   2.576  -8.843  1.00  0.00     0.258 C 
BRANCH  81  82
ATOM     82  C   UNL     1       8.534   1.624  -9.825  1.00  0.00     0.201 C 
BRANCH  82  83
ATOM     83  O   UNL     1       9.790   1.122  -9.341  1.00  0.00    -0.376 OA
BRANCH  83  84
ATOM     84  C   UNL     1       9.668   0.006  -8.454  1.00  0.00     0.188 CG0
ATOM     85  G   UNL     1      10.034   0.403  -7.025  1.00  0.00     0.000 G0
ENDBRANCH  83  84
ENDBRANCH  82  83
ENDBRANCH  81  82
ENDBRANCH  80  81
ENDBRANCH  73  80
ENDBRANCH  66  68
ENDBRANCH  65  66
ENDBRANCH  64  65
ENDBRANCH  63  64
ENDBRANCH  62  63
ENDBRANCH  61  62
ENDBRANCH   1  61
TORSDOF 20
