REMARK SMILES Cc1ccc(N2C(=O)C[C@H](Sc3ccccc3C(=O)OCCOCCOCCOCCOC(=O)c3ccc(-c4c5nc(c(-c6ccccc6)c6ccc([nH]6)c(-c6ccccc6)c6nc(c(-c7ccccc7)c7ccc4[nH]7)C=C6)C=C5)cc3)C2=O)cc1
REMARK SMILES IDX 25 1 24 2 23 3 22 4 21 5 20 6 18 7 19 8 17 9 12 10 13 11
REMARK SMILES IDX 14 12 16 13 15 14 11 15 10 16 6 17 7 18 83 19 8 20 9 21
REMARK SMILES IDX 84 22 5 23 1 24 2 25 3 26 86 27 4 28 85 29 26 30 27 31 28 32
REMARK SMILES IDX 29 33 30 34 31 35 32 36 33 37 34 38 35 39 36 40 82 41 37 42
REMARK SMILES IDX 81 43 38 44 39 45 40 46 75 47 41 48 80 49 74 50 76 51 42 52
REMARK SMILES IDX 79 53 73 54 72 55 43 57 65 58 50 59 64 60 51 61 54 62 63 63
REMARK SMILES IDX 77 64 52 65 53 66 62 68 78 69 55 70 44 71 45 72 49 73 46 74
REMARK SMILES IDX 48 75 47 76 66 77 67 78 71 79 68 80 70 81 69 82 56 83 57 84
REMARK SMILES IDX 61 85 58 86 60 87 59 88
REMARK H PARENT 76 56 54 67
REMARK Flexibility Score: inf
ROOT
ATOM      1  C   UNL     1      -3.407   3.074  -0.234  1.00  0.00     0.188 C 
ENDROOT
BRANCH   1   2
ATOM      2  C   UNL     1      -4.835   2.545  -0.048  1.00  0.00     0.188 C 
BRANCH   2   3
ATOM      3  O   UNL     1      -5.351   1.827  -1.155  1.00  0.00    -0.376 OA
BRANCH   3   4
ATOM      4  C   UNL     1      -6.430   0.920  -0.959  1.00  0.00     0.202 C 
BRANCH   4   5
ATOM      5  C   UNL     1      -7.634   1.272  -0.098  1.00  0.00     0.261 C 
BRANCH   5   6
ATOM      6  O   UNL     1      -7.289   2.029   1.045  1.00  0.00    -0.460 OA
BRANCH   6   7
ATOM      7  C   UNL     1      -7.464   1.411   2.222  1.00  0.00     0.339 C 
ATOM      8  O   UNL     1      -8.185   0.453   2.448  1.00  0.00    -0.246 OA
BRANCH   7   9
ATOM      9  C   UNL     1      -6.371   1.924   3.070  1.00  0.00     0.073 A 
ATOM     10  C   UNL     1      -5.554   1.046   3.810  1.00  0.00     0.023 A 
ATOM     11  C   UNL     1      -4.548   1.624   4.594  1.00  0.00     0.016 A 
ATOM     12  C   UNL     1      -4.298   3.003   4.572  1.00  0.00     0.001 A 
ATOM     13  C   UNL     1      -6.095   3.314   3.024  1.00  0.00     0.017 A 
ATOM     14  C   UNL     1      -5.047   3.847   3.761  1.00  0.00     0.001 A 
BRANCH  10  15
ATOM     15  S   UNL     1      -5.788  -0.728   4.012  1.00  0.00    -0.111 SA
BRANCH  15  16
ATOM     16  C   UNL     1      -4.907  -1.580   2.633  1.00  0.00     0.151 C 
ATOM     17  N   UNL     1      -2.868  -0.796   1.800  1.00  0.00    -0.250 N 
ATOM     18  C   UNL     1      -3.785  -0.557   0.817  1.00  0.00     0.235 C 
ATOM     19  C   UNL     1      -3.401  -1.592   2.778  1.00  0.00     0.247 C 
ATOM     20  O   UNL     1      -3.556  -0.154  -0.296  1.00  0.00    -0.274 OA
ATOM     21  C   UNL     1      -5.129  -1.040   1.255  1.00  0.00     0.126 C 
ATOM     22  O   UNL     1      -2.794  -2.270   3.595  1.00  0.00    -0.273 OA
BRANCH  17  23
ATOM     23  C   UNL     1      -1.503  -0.645   1.489  1.00  0.00     0.052 A 
ATOM     24  C   UNL     1       2.479  -0.080  -0.069  1.00  0.00     0.044 C 
ATOM     25  C   UNL     1       1.082  -0.264   0.447  1.00  0.00    -0.051 A 
ATOM     26  C   UNL     1       0.531  -1.550   0.538  1.00  0.00     0.005 A 
ATOM     27  C   UNL     1       0.325   0.832   0.873  1.00  0.00     0.005 A 
ATOM     28  C   UNL     1      -0.751  -1.743   1.063  1.00  0.00     0.027 A 
ATOM     29  C   UNL     1      -0.963   0.642   1.380  1.00  0.00     0.027 A 
ENDBRANCH  17  23
ENDBRANCH  15  16
ENDBRANCH  10  15
ENDBRANCH   7   9
ENDBRANCH   6   7
ENDBRANCH   5   6
ENDBRANCH   4   5
ENDBRANCH   3   4
ENDBRANCH   2   3
ENDBRANCH   1   2
BRANCH   1  30
ATOM     30  O   UNL     1      -3.124   3.816  -1.416  1.00  0.00    -0.377 OA
BRANCH  30  31
ATOM     31  C   UNL     1      -3.006   3.024  -2.597  1.00  0.00     0.188 C 
BRANCH  31  32
ATOM     32  C   UNL     1      -1.970   1.915  -2.593  1.00  0.00     0.188 C 
BRANCH  32  33
ATOM     33  O   UNL     1      -2.682   0.695  -2.759  1.00  0.00    -0.376 OA
BRANCH  33  34
ATOM     34  C   UNL     1      -1.901  -0.484  -2.850  1.00  0.00     0.202 C 
BRANCH  34  35
ATOM     35  C   UNL     1      -0.964  -0.463  -4.063  1.00  0.00     0.261 C 
BRANCH  35  36
ATOM     36  O   UNL     1      -1.744  -0.481  -5.287  1.00  0.00    -0.460 OA
BRANCH  36  37
ATOM     37  C   UNL     1      -2.004   0.723  -5.877  1.00  0.00     0.338 C 
ATOM     38  O   UNL     1      -1.156   1.475  -6.328  1.00  0.00    -0.246 OA
BRANCH  37  39
ATOM     39  C   UNL     1      -3.458   1.071  -5.774  1.00  0.00     0.060 A 
ATOM     40  C   UNL     1      -3.943   2.331  -6.164  1.00  0.00     0.016 A 
ATOM     41  C   UNL     1      -4.284   0.242  -5.033  1.00  0.00     0.016 A 
ATOM     42  C   UNL     1      -5.173   2.813  -5.664  1.00  0.00     0.010 A 
ATOM     43  C   UNL     1      -5.403   0.784  -4.428  1.00  0.00     0.010 A 
ATOM     44  C   UNL     1      -5.866   2.083  -4.704  1.00  0.00    -0.014 A 
BRANCH  44  45
ATOM     45  C   UNL     1      -6.984   2.591  -3.856  1.00  0.00     0.031 A 
ATOM     46  C   UNL     1      -8.197   1.696  -3.700  1.00  0.00     0.074 A 
ATOM     47  C   UNL     1      -6.736   3.609  -2.976  1.00  0.00     0.049 A 
ATOM     48  N   UNL     1      -9.193   1.907  -2.907  1.00  0.00    -0.248 NA
ATOM     49  C   UNL     1      -8.344   0.396  -4.370  1.00  0.00     0.031 C 
ATOM     50  C   UNL     1      -7.421   3.920  -1.718  1.00  0.00     0.029 A 
ATOM     51  N   UNL     1      -5.748   4.598  -2.987  1.00  0.00    -0.354 N 
ATOM     52  C   UNL     1      -9.849   0.704  -2.671  1.00  0.00     0.074 A 
ATOM     53  C   UNL     1      -9.326  -0.188  -3.673  1.00  0.00     0.031 C 
ATOM     54  C   UNL     1      -6.899   4.994  -1.101  1.00  0.00     0.029 A 
ATOM     55  C   UNL     1      -6.142   5.649  -2.125  1.00  0.00     0.049 A 
ATOM     56  H   UNL     1      -4.914   4.569  -3.510  1.00  0.00     0.167 HD
ATOM     57  C   UNL     1     -10.645   0.576  -1.560  1.00  0.00     0.031 A 
ATOM     58  C   UNL     1      -6.571   6.822  -2.675  1.00  0.00     0.031 A 
ATOM     59  C   UNL     1     -10.811   1.874  -0.854  1.00  0.00     0.049 A 
ATOM     60  C   UNL     1      -8.111   6.935  -2.558  1.00  0.00     0.074 A 
ATOM     61  C   UNL     1     -10.712   2.304   0.460  1.00  0.00     0.029 A 
ATOM     62  N   UNL     1     -10.920   3.047  -1.610  1.00  0.00    -0.354 N 
ATOM     63  N   UNL     1      -8.921   5.919  -2.325  1.00  0.00    -0.248 NA
ATOM     64  C   UNL     1      -8.846   8.188  -2.497  1.00  0.00     0.031 C 
ATOM     65  C   UNL     1     -10.660   3.736   0.460  1.00  0.00     0.029 A 
ATOM     66  C   UNL     1     -10.797   4.190  -0.847  1.00  0.00     0.049 A 
ATOM     67  H   UNL     1     -11.069   3.056  -2.583  1.00  0.00     0.167 HD
ATOM     68  C   UNL     1     -10.168   6.330  -1.939  1.00  0.00     0.074 A 
ATOM     69  C   UNL     1     -10.083   7.771  -2.149  1.00  0.00     0.031 C 
ATOM     70  C   UNL     1     -11.145   5.493  -1.437  1.00  0.00     0.031 A 
BRANCH  57  71
ATOM     71  C   UNL     1     -11.140  -0.758  -0.962  1.00  0.00    -0.014 A 
ATOM     72  C   UNL     1     -11.943  -0.750   0.201  1.00  0.00     0.009 A 
ATOM     73  C   UNL     1     -10.806  -2.048  -1.425  1.00  0.00     0.009 A 
ATOM     74  C   UNL     1     -12.352  -1.923   0.866  1.00  0.00     0.001 A 
ATOM     75  C   UNL     1     -11.241  -3.231  -0.786  1.00  0.00     0.001 A 
ATOM     76  C   UNL     1     -12.006  -3.169   0.368  1.00  0.00     0.000 A 
ENDBRANCH  57  71
BRANCH  58  77
ATOM     77  C   UNL     1      -5.540   7.249  -3.692  1.00  0.00    -0.014 A 
ATOM     78  C   UNL     1      -4.252   7.527  -3.147  1.00  0.00     0.009 A 
ATOM     79  C   UNL     1      -5.577   6.718  -4.993  1.00  0.00     0.009 A 
ATOM     80  C   UNL     1      -3.080   7.042  -3.751  1.00  0.00     0.001 A 
ATOM     81  C   UNL     1      -4.389   6.272  -5.611  1.00  0.00     0.001 A 
ATOM     82  C   UNL     1      -3.157   6.368  -4.962  1.00  0.00     0.000 A 
ENDBRANCH  58  77
BRANCH  70  83
ATOM     83  C   UNL     1     -12.646   5.745  -1.497  1.00  0.00    -0.014 A 
ATOM     84  C   UNL     1     -13.254   6.971  -1.735  1.00  0.00     0.009 A 
ATOM     85  C   UNL     1     -13.528   4.629  -1.412  1.00  0.00     0.009 A 
ATOM     86  C   UNL     1     -14.633   7.064  -1.975  1.00  0.00     0.001 A 
ATOM     87  C   UNL     1     -14.894   4.708  -1.661  1.00  0.00     0.001 A 
ATOM     88  C   UNL     1     -15.446   5.934  -1.967  1.00  0.00     0.000 A 
ENDBRANCH  70  83
ENDBRANCH  44  45
ENDBRANCH  37  39
ENDBRANCH  36  37
ENDBRANCH  35  36
ENDBRANCH  34  35
ENDBRANCH  33  34
ENDBRANCH  32  33
ENDBRANCH  31  32
ENDBRANCH  30  31
ENDBRANCH   1  30
TORSDOF 23
