REMARK SMILES COc1cccc([C@H]2C=C(C(=O)OCCOCCOCCOCCOC(=O)c3ccc(-c4c5nc(c(-c6ccccc6)c6ccc([nH]6)c(-c6ccccc6)c6nc(c(-c7ccccc7)c7ccc4[nH]7)C=C6)C=C5)cc3)Nc3nnnn32)c1OC
REMARK SMILES IDX 19 1 18 2 17 3 16 4 15 5 14 6 13 7 11 8 12 9 10 10 8 11 9 12
REMARK SMILES IDX 81 13 77 14 80 15 76 16 78 17 79 18 7 20 3 21 4 22 82 23
REMARK SMILES IDX 5 24 6 25 2 26 1 27 83 28 84 29 20 30 21 31 22 32 23 33
REMARK SMILES IDX 24 34 25 35 26 36 27 37 28 38 29 39 75 40 30 41 74 42 31 43
REMARK SMILES IDX 32 44 33 45 68 46 34 47 73 48 67 49 69 50 35 51 72 52 66 53
REMARK SMILES IDX 65 54 36 56 58 57 43 58 57 59 44 60 47 61 56 62 70 63 45 64
REMARK SMILES IDX 46 65 55 67 71 68 48 69 37 70 38 71 42 72 39 73 41 74 40 75
REMARK SMILES IDX 59 76 60 77 64 78 61 79 63 80 62 81 49 82 50 83 54 84 51 85
REMARK SMILES IDX 53 86 52 87
REMARK H PARENT 76 19 69 55 47 66
REMARK Flexibility Score: inf
ROOT
ATOM      1  O   UNL     1       7.873  -2.061   5.042  1.00  0.00    -0.377 OA
ENDROOT
BRANCH   1   2
ATOM      2  C   UNL     1       8.137  -2.571   3.745  1.00  0.00     0.188 C 
BRANCH   2   3
ATOM      3  C   UNL     1       8.814  -1.566   2.792  1.00  0.00     0.188 C 
BRANCH   3   4
ATOM      4  O   UNL     1       9.461  -0.503   3.467  1.00  0.00    -0.376 OA
BRANCH   4   5
ATOM      5  C   UNL     1       8.825   0.739   3.698  1.00  0.00     0.202 C 
BRANCH   5   6
ATOM      6  C   UNL     1       7.342   0.907   4.090  1.00  0.00     0.261 C 
BRANCH   6   7
ATOM      7  O   UNL     1       6.423  -0.106   3.686  1.00  0.00    -0.459 OA
BRANCH   7   8
ATOM      8  C   UNL     1       6.048  -0.096   2.392  1.00  0.00     0.354 C 
ATOM      9  O   UNL     1       6.370   0.730   1.551  1.00  0.00    -0.244 OA
BRANCH   8  10
ATOM     10  C   UNL     1       5.364  -1.389   2.044  1.00  0.00     0.126 C 
ATOM     11  C   UNL     1       3.876  -3.357   2.511  1.00  0.00     0.172 C 
ATOM     12  C   UNL     1       4.596  -2.070   2.923  1.00  0.00     0.039 C 
ATOM     13  N   UNL     1       4.010  -3.580   1.067  1.00  0.00    -0.200 N 
ATOM     14  C   UNL     1       4.872  -2.894   0.253  1.00  0.00     0.248 A 
ATOM     15  N   UNL     1       3.177  -4.322   0.314  1.00  0.00    -0.043 NA
ATOM     16  N   UNL     1       5.565  -1.859   0.757  1.00  0.00    -0.317 N 
ATOM     17  N   UNL     1       4.755  -3.371  -0.962  1.00  0.00    -0.090 NA
ATOM     18  N   UNL     1       3.698  -4.259  -0.910  1.00  0.00    -0.022 NA
ATOM     19  H   UNL     1       6.240  -1.419   0.191  1.00  0.00     0.170 HD
BRANCH  11  20
ATOM     20  C   UNL     1       4.179  -4.585   3.404  1.00  0.00     0.027 A 
ATOM     21  C   UNL     1       4.422  -7.000   3.722  1.00  0.00     0.161 A 
ATOM     22  C   UNL     1       4.089  -6.869   5.072  1.00  0.00     0.050 A 
ATOM     23  C   UNL     1       4.554  -5.860   2.905  1.00  0.00     0.166 A 
ATOM     24  C   UNL     1       3.867  -5.606   5.613  1.00  0.00     0.004 A 
ATOM     25  C   UNL     1       3.873  -4.484   4.781  1.00  0.00     0.010 A 
BRANCH  21  26
ATOM     26  O   UNL     1       4.368  -8.262   3.188  1.00  0.00    -0.493 OA
ATOM     27  C   UNL     1       5.571  -9.005   3.333  1.00  0.00     0.278 C 
ENDBRANCH  21  26
BRANCH  23  28
ATOM     28  O   UNL     1       5.132  -5.855   1.666  1.00  0.00    -0.492 OA
ATOM     29  C   UNL     1       5.032  -6.999   0.832  1.00  0.00     0.278 C 
ENDBRANCH  23  28
ENDBRANCH  11  20
ENDBRANCH   8  10
ENDBRANCH   7   8
ENDBRANCH   6   7
ENDBRANCH   5   6
ENDBRANCH   4   5
ENDBRANCH   3   4
ENDBRANCH   2   3
ENDBRANCH   1   2
BRANCH   1  30
ATOM     30  C   UNL     1       8.963  -1.911   5.955  1.00  0.00     0.188 C 
BRANCH  30  31
ATOM     31  C   UNL     1      10.447  -2.059   5.531  1.00  0.00     0.188 C 
BRANCH  31  32
ATOM     32  O   UNL     1      10.678  -2.947   4.449  1.00  0.00    -0.376 OA
BRANCH  32  33
ATOM     33  C   UNL     1      11.252  -4.213   4.718  1.00  0.00     0.202 C 
BRANCH  33  34
ATOM     34  C   UNL     1      10.396  -5.192   5.531  1.00  0.00     0.261 C 
BRANCH  34  35
ATOM     35  O   UNL     1       9.934  -4.706   6.801  1.00  0.00    -0.460 OA
BRANCH  35  36
ATOM     36  C   UNL     1      10.873  -4.447   7.732  1.00  0.00     0.338 C 
ATOM     37  O   UNL     1      12.082  -4.606   7.628  1.00  0.00    -0.246 OA
BRANCH  36  38
ATOM     38  C   UNL     1      10.220  -3.754   8.858  1.00  0.00     0.060 A 
ATOM     39  C   UNL     1      10.669  -2.477   9.217  1.00  0.00     0.016 A 
ATOM     40  C   UNL     1       9.175  -4.362   9.558  1.00  0.00     0.016 A 
ATOM     41  C   UNL     1      10.107  -1.825  10.313  1.00  0.00     0.010 A 
ATOM     42  C   UNL     1       8.624  -3.714  10.667  1.00  0.00     0.010 A 
ATOM     43  C   UNL     1       9.117  -2.462  11.074  1.00  0.00    -0.014 A 
BRANCH  43  44
ATOM     44  C   UNL     1       8.753  -1.906  12.399  1.00  0.00     0.031 A 
ATOM     45  C   UNL     1       9.392  -2.499  13.626  1.00  0.00     0.074 A 
ATOM     46  C   UNL     1       7.918  -0.859  12.514  1.00  0.00     0.049 A 
ATOM     47  N   UNL     1       9.254  -2.162  14.883  1.00  0.00    -0.248 NA
ATOM     48  C   UNL     1      10.314  -3.625  13.402  1.00  0.00     0.031 C 
ATOM     49  C   UNL     1       7.276  -0.160  11.402  1.00  0.00     0.029 A 
ATOM     50  N   UNL     1       7.479  -0.194  13.631  1.00  0.00    -0.354 N 
ATOM     51  C   UNL     1      10.070  -3.031  15.597  1.00  0.00     0.074 A 
ATOM     52  C   UNL     1      10.662  -3.940  14.640  1.00  0.00     0.031 C 
ATOM     53  C   UNL     1       6.532   0.846  11.894  1.00  0.00     0.029 A 
ATOM     54  C   UNL     1       6.621   0.841  13.354  1.00  0.00     0.049 A 
ATOM     55  H   UNL     1       7.754  -0.436  14.545  1.00  0.00     0.167 HD
ATOM     56  C   UNL     1      10.316  -3.067  16.928  1.00  0.00     0.031 A 
ATOM     57  C   UNL     1       5.976   1.681  14.185  1.00  0.00     0.031 A 
ATOM     58  C   UNL     1       9.705  -2.184  17.886  1.00  0.00     0.049 A 
ATOM     59  C   UNL     1       6.187   1.558  15.672  1.00  0.00     0.074 A 
ATOM     60  C   UNL     1       9.883  -2.140  19.258  1.00  0.00     0.029 A 
ATOM     61  N   UNL     1       8.786  -1.194  17.571  1.00  0.00    -0.354 N 
ATOM     62  N   UNL     1       6.974   0.745  16.334  1.00  0.00    -0.248 NA
ATOM     63  C   UNL     1       5.426   2.483  16.523  1.00  0.00     0.031 C 
ATOM     64  C   UNL     1       9.024  -1.167  19.779  1.00  0.00     0.029 A 
ATOM     65  C   UNL     1       8.368  -0.552  18.725  1.00  0.00     0.049 A 
ATOM     66  H   UNL     1       8.477  -0.979  16.661  1.00  0.00     0.167 HD
ATOM     67  C   UNL     1       6.833   1.086  17.675  1.00  0.00     0.074 A 
ATOM     68  C   UNL     1       5.897   2.191  17.726  1.00  0.00     0.031 C 
ATOM     69  C   UNL     1       7.429   0.541  18.765  1.00  0.00     0.031 A 
BRANCH  56  70
ATOM     70  C   UNL     1      11.261  -4.130  17.422  1.00  0.00    -0.014 A 
ATOM     71  C   UNL     1      12.631  -4.096  17.111  1.00  0.00     0.009 A 
ATOM     72  C   UNL     1      10.773  -5.181  18.213  1.00  0.00     0.009 A 
ATOM     73  C   UNL     1      13.481  -5.116  17.543  1.00  0.00     0.001 A 
ATOM     74  C   UNL     1      11.632  -6.181  18.673  1.00  0.00     0.001 A 
ATOM     75  C   UNL     1      12.982  -6.156  18.326  1.00  0.00     0.000 A 
ENDBRANCH  56  70
BRANCH  57  76
ATOM     76  C   UNL     1       5.066   2.724  13.638  1.00  0.00    -0.014 A 
ATOM     77  C   UNL     1       5.388   4.085  13.750  1.00  0.00     0.009 A 
ATOM     78  C   UNL     1       3.856   2.363  13.025  1.00  0.00     0.009 A 
ATOM     79  C   UNL     1       4.506   5.063  13.284  1.00  0.00     0.001 A 
ATOM     80  C   UNL     1       2.990   3.342  12.531  1.00  0.00     0.001 A 
ATOM     81  C   UNL     1       3.311   4.691  12.671  1.00  0.00     0.000 A 
ENDBRANCH  57  76
BRANCH  69  82
ATOM     82  C   UNL     1       7.123   1.166  20.101  1.00  0.00    -0.014 A 
ATOM     83  C   UNL     1       5.853   1.067  20.690  1.00  0.00     0.009 A 
ATOM     84  C   UNL     1       8.135   1.857  20.788  1.00  0.00     0.009 A 
ATOM     85  C   UNL     1       5.589   1.692  21.912  1.00  0.00     0.001 A 
ATOM     86  C   UNL     1       7.879   2.447  22.026  1.00  0.00     0.001 A 
ATOM     87  C   UNL     1       6.602   2.378  22.580  1.00  0.00     0.000 A 
ENDBRANCH  69  82
ENDBRANCH  43  44
ENDBRANCH  36  38
ENDBRANCH  35  36
ENDBRANCH  34  35
ENDBRANCH  33  34
ENDBRANCH  32  33
ENDBRANCH  31  32
ENDBRANCH  30  31
ENDBRANCH   1  30
TORSDOF 23
