REMARK SMILES O=C(NC1(C(=O)OCCOCCOCCOCCOC(=O)c2ccc(-c3c4nc(c(-c5ccccc5)c5ccc([nH]5)c(-c5ccccc5)c5nc(c(-c6ccccc6)c6ccc3[nH]6)C=C5)C=C4)cc2)CC[NH2+]CC1)OCC1c2ccccc2-c2ccccc21
REMARK SMILES IDX 12 1 11 2 10 3 9 4 8 5 7 6 5 7 6 8 4 9 70 10 74 11 71 12
REMARK SMILES IDX 73 13 72 14 3 17 1 18 2 19 75 21 76 22 77 23 78 24 89 25
REMARK SMILES IDX 79 26 83 27 84 28 88 29 80 30 82 31 85 32 87 33 81 34 86 35
REMARK SMILES IDX 13 36 14 37 15 38 16 39 17 40 18 41 19 42 20 43 21 44 22 45
REMARK SMILES IDX 23 46 69 47 24 48 68 49 25 50 26 51 27 52 62 53 28 54 67 55
REMARK SMILES IDX 61 56 63 57 29 58 66 59 60 60 59 61 30 63 52 64 37 65 51 66
REMARK SMILES IDX 38 67 41 68 50 69 64 70 39 71 40 72 49 74 65 75 42 76 31 77
REMARK SMILES IDX 32 78 36 79 33 80 35 81 34 82 53 83 54 84 58 85 55 86 57 87
REMARK SMILES IDX 56 88 43 89 44 90 48 91 45 92 47 93 46 94
REMARK H PARENT 72 15 72 16 3 20 63 62 41 73
REMARK Flexibility Score: inf
ROOT
ATOM      1  C   UNL     1       5.245   1.436  -3.088  1.00  0.00     0.188 C 
ENDROOT
BRANCH   1   2
ATOM      2  C   UNL     1       4.134   1.589  -2.041  1.00  0.00     0.188 C 
BRANCH   2   3
ATOM      3  O   UNL     1       4.422   2.377  -0.899  1.00  0.00    -0.376 OA
BRANCH   3   4
ATOM      4  C   UNL     1       5.511   2.068  -0.032  1.00  0.00     0.202 C 
BRANCH   4   5
ATOM      5  C   UNL     1       6.290   0.755  -0.053  1.00  0.00     0.261 C 
BRANCH   5   6
ATOM      6  O   UNL     1       5.473  -0.263  -0.565  1.00  0.00    -0.461 OA
BRANCH   6   7
ATOM      7  C   UNL     1       5.742  -1.533  -0.186  1.00  0.00     0.332 C 
ATOM      8  O   UNL     1       6.786  -1.934   0.306  1.00  0.00    -0.249 OA
BRANCH   7   9
ATOM      9  C   UNL     1       4.511  -2.363  -0.579  1.00  0.00     0.151 C 
ATOM     10  C   UNL     1       4.510  -2.231  -2.146  1.00  0.00     0.102 C 
ATOM     11  C   UNL     1       4.626  -3.800  -0.052  1.00  0.00     0.102 C 
ATOM     12  C   UNL     1       4.189  -3.467  -2.956  1.00  0.00     0.263 C 
ATOM     13  C   UNL     1       4.193  -4.868  -1.049  1.00  0.00     0.263 C 
ATOM     14  N   UNL     1       4.802  -4.635  -2.353  1.00  0.00    -0.346 N 
ATOM     15  H   UNL     1       5.803  -4.476  -2.240  1.00  0.00     0.346 HD
ATOM     16  H   UNL     1       4.658  -5.448  -2.951  1.00  0.00     0.346 HD
BRANCH   9  17
ATOM     17  N   UNL     1       3.292  -1.680  -0.035  1.00  0.00    -0.305 N 
ATOM     18  O   UNL     1       1.981  -0.524   1.375  1.00  0.00    -0.225 OA
ATOM     19  C   UNL     1       3.104  -0.950   1.119  1.00  0.00     0.408 C 
ATOM     20  H   UNL     1       2.489  -1.767  -0.598  1.00  0.00     0.168 HD
BRANCH  19  21
ATOM     21  O   UNL     1       4.219  -0.663   1.872  1.00  0.00    -0.449 OA
BRANCH  21  22
ATOM     22  C   UNL     1       4.021   0.459   2.774  1.00  0.00     0.248 C 
BRANCH  22  23
ATOM     23  C   UNL     1       5.245   0.973   3.619  1.00  0.00     0.088 C 
ATOM     24  C   UNL     1       6.629   0.366   3.398  1.00  0.00    -0.029 A 
ATOM     25  C   UNL     1       5.545   2.472   3.370  1.00  0.00    -0.029 A 
ATOM     26  C   UNL     1       7.008  -0.966   3.410  1.00  0.00     0.005 A 
ATOM     27  C   UNL     1       7.575   1.375   3.076  1.00  0.00    -0.014 A 
ATOM     28  C   UNL     1       6.906   2.655   3.034  1.00  0.00    -0.014 A 
ATOM     29  C   UNL     1       4.657   3.539   3.305  1.00  0.00     0.005 A 
ATOM     30  C   UNL     1       8.322  -1.287   3.041  1.00  0.00     0.000 A 
ATOM     31  C   UNL     1       8.878   1.056   2.715  1.00  0.00     0.009 A 
ATOM     32  C   UNL     1       7.376   3.883   2.586  1.00  0.00     0.009 A 
ATOM     33  C   UNL     1       5.127   4.770   2.832  1.00  0.00     0.000 A 
ATOM     34  C   UNL     1       9.244  -0.289   2.686  1.00  0.00     0.001 A 
ATOM     35  C   UNL     1       6.472   4.940   2.468  1.00  0.00     0.001 A 
ENDBRANCH  22  23
ENDBRANCH  21  22
ENDBRANCH  19  21
ENDBRANCH   9  17
ENDBRANCH   7   9
ENDBRANCH   6   7
ENDBRANCH   5   6
ENDBRANCH   4   5
ENDBRANCH   3   4
ENDBRANCH   2   3
ENDBRANCH   1   2
BRANCH   1  36
ATOM     36  O   UNL     1       6.543   1.643  -2.561  1.00  0.00    -0.377 OA
BRANCH  36  37
ATOM     37  C   UNL     1       7.110   2.933  -2.747  1.00  0.00     0.188 C 
BRANCH  37  38
ATOM     38  C   UNL     1       6.271   4.194  -2.437  1.00  0.00     0.188 C 
BRANCH  38  39
ATOM     39  O   UNL     1       4.979   4.167  -3.028  1.00  0.00    -0.376 OA
BRANCH  39  40
ATOM     40  C   UNL     1       4.758   5.043  -4.119  1.00  0.00     0.202 C 
BRANCH  40  41
ATOM     41  C   UNL     1       5.394   4.572  -5.435  1.00  0.00     0.261 C 
BRANCH  41  42
ATOM     42  O   UNL     1       6.819   4.361  -5.394  1.00  0.00    -0.460 OA
BRANCH  42  43
ATOM     43  C   UNL     1       7.602   5.423  -5.096  1.00  0.00     0.338 C 
ATOM     44  O   UNL     1       7.242   6.582  -5.000  1.00  0.00    -0.246 OA
BRANCH  43  45
ATOM     45  C   UNL     1       8.932   4.924  -4.645  1.00  0.00     0.060 A 
ATOM     46  C   UNL     1       9.478   5.459  -3.468  1.00  0.00     0.016 A 
ATOM     47  C   UNL     1       9.610   3.905  -5.324  1.00  0.00     0.016 A 
ATOM     48  C   UNL     1      10.726   5.032  -3.006  1.00  0.00     0.010 A 
ATOM     49  C   UNL     1      10.872   3.493  -4.875  1.00  0.00     0.010 A 
ATOM     50  C   UNL     1      11.460   4.096  -3.747  1.00  0.00    -0.014 A 
BRANCH  50  51
ATOM     51  C   UNL     1      12.932   4.019  -3.558  1.00  0.00     0.031 A 
ATOM     52  C   UNL     1      13.776   4.931  -4.415  1.00  0.00     0.074 A 
ATOM     53  C   UNL     1      13.523   3.214  -2.656  1.00  0.00     0.049 A 
ATOM     54  N   UNL     1      15.077   5.043  -4.489  1.00  0.00    -0.248 NA
ATOM     55  C   UNL     1      13.043   5.840  -5.314  1.00  0.00     0.031 C 
ATOM     56  C   UNL     1      12.837   2.330  -1.718  1.00  0.00     0.029 A 
ATOM     57  N   UNL     1      14.858   3.017  -2.392  1.00  0.00    -0.354 N 
ATOM     58  C   UNL     1      15.313   6.022  -5.447  1.00  0.00     0.074 A 
ATOM     59  C   UNL     1      14.028   6.455  -5.945  1.00  0.00     0.031 C 
ATOM     60  C   UNL     1      13.758   1.677  -0.984  1.00  0.00     0.029 A 
ATOM     61  C   UNL     1      15.097   2.072  -1.423  1.00  0.00     0.049 A 
ATOM     62  H   UNL     1      15.576   3.507  -2.854  1.00  0.00     0.167 HD
ATOM     63  C   UNL     1      16.492   6.525  -5.879  1.00  0.00     0.031 A 
ATOM     64  C   UNL     1      16.262   1.573  -0.963  1.00  0.00     0.031 A 
ATOM     65  C   UNL     1      17.776   6.092  -5.406  1.00  0.00     0.049 A 
ATOM     66  C   UNL     1      17.568   2.078  -1.531  1.00  0.00     0.074 A 
ATOM     67  C   UNL     1      19.028   6.545  -5.780  1.00  0.00     0.029 A 
ATOM     68  N   UNL     1      17.970   5.096  -4.464  1.00  0.00    -0.354 N 
ATOM     69  N   UNL     1      17.778   3.018  -2.421  1.00  0.00    -0.248 NA
ATOM     70  C   UNL     1      18.799   1.449  -1.024  1.00  0.00     0.031 C 
ATOM     71  C   UNL     1      19.984   5.780  -5.106  1.00  0.00     0.029 A 
ATOM     72  C   UNL     1      19.325   4.898  -4.265  1.00  0.00     0.049 A 
ATOM     73  H   UNL     1      17.252   4.603  -4.005  1.00  0.00     0.167 HD
ATOM     74  C   UNL     1      19.160   3.116  -2.553  1.00  0.00     0.074 A 
ATOM     75  C   UNL     1      19.738   2.149  -1.645  1.00  0.00     0.031 C 
ATOM     76  C   UNL     1      19.886   3.936  -3.353  1.00  0.00     0.031 A 
BRANCH  63  77
ATOM     77  C   UNL     1      16.438   7.571  -6.956  1.00  0.00    -0.014 A 
ATOM     78  C   UNL     1      15.980   8.871  -6.692  1.00  0.00     0.009 A 
ATOM     79  C   UNL     1      16.858   7.247  -8.255  1.00  0.00     0.009 A 
ATOM     80  C   UNL     1      15.914   9.817  -7.716  1.00  0.00     0.001 A 
ATOM     81  C   UNL     1      16.819   8.203  -9.270  1.00  0.00     0.001 A 
ATOM     82  C   UNL     1      16.338   9.484  -9.003  1.00  0.00     0.000 A 
ENDBRANCH  63  77
BRANCH  64  83
ATOM     83  C   UNL     1      16.271   0.508   0.079  1.00  0.00    -0.014 A 
ATOM     84  C   UNL     1      16.773   0.765   1.364  1.00  0.00     0.009 A 
ATOM     85  C   UNL     1      15.827  -0.789  -0.225  1.00  0.00     0.009 A 
ATOM     86  C   UNL     1      16.857  -0.258   2.312  1.00  0.00     0.001 A 
ATOM     87  C   UNL     1      15.884  -1.803   0.735  1.00  0.00     0.001 A 
ATOM     88  C   UNL     1      16.409  -1.540   1.998  1.00  0.00     0.000 A 
ENDBRANCH  64  83
BRANCH  76  89
ATOM     89  C   UNL     1      21.384   3.864  -3.252  1.00  0.00    -0.014 A 
ATOM     90  C   UNL     1      22.102   2.772  -3.765  1.00  0.00     0.009 A 
ATOM     91  C   UNL     1      22.092   4.938  -2.689  1.00  0.00     0.009 A 
ATOM     92  C   UNL     1      23.496   2.745  -3.685  1.00  0.00     0.001 A 
ATOM     93  C   UNL     1      23.487   4.922  -2.639  1.00  0.00     0.001 A 
ATOM     94  C   UNL     1      24.187   3.821  -3.129  1.00  0.00     0.000 A 
ENDBRANCH  76  89
ENDBRANCH  50  51
ENDBRANCH  43  45
ENDBRANCH  42  43
ENDBRANCH  41  42
ENDBRANCH  40  41
ENDBRANCH  39  40
ENDBRANCH  38  39
ENDBRANCH  37  38
ENDBRANCH  36  37
ENDBRANCH   1  36
TORSDOF 24
