REMARK SMILES Cc1cccc(Cn2c(=O)c3sccc3n(CC(=O)OCCOCCOCCOCCOC(=O)c3ccc(-c4c5nc(c(-c6ccccc6)c6ccc([nH]6)c(-c6ccccc6)c6nc(c(-c7ccccc7)c7ccc4[nH]7)C=C6)C=C5)cc3)c2=O)c1
REMARK SMILES IDX 25 1 24 2 23 3 22 4 21 5 20 6 18 7 19 8 17 9 16 10 8 11 9 12
REMARK SMILES IDX 83 13 10 14 11 15 84 16 12 17 15 18 13 19 14 20 7 21 6 22
REMARK SMILES IDX 1 23 2 24 3 25 85 26 4 27 5 28 26 29 27 30 28 31 29 32 30 33
REMARK SMILES IDX 31 34 32 35 33 36 34 37 35 38 36 39 82 40 37 41 81 42 38 43
REMARK SMILES IDX 39 44 40 45 75 46 41 47 80 48 74 49 76 50 42 51 79 52 73 53
REMARK SMILES IDX 72 54 43 56 65 57 50 58 64 59 51 60 54 61 63 62 77 63 52 64
REMARK SMILES IDX 53 65 62 67 78 68 55 69 44 70 45 71 49 72 46 73 48 74 47 75
REMARK SMILES IDX 66 76 67 77 71 78 68 79 70 80 69 81 56 82 57 83 61 84 58 85
REMARK SMILES IDX 60 86 59 87
REMARK H PARENT 76 55 54 66
REMARK Flexibility Score: inf
ROOT
ATOM      1  C   UNL     1      -5.388   3.013  -4.110  1.00  0.00     0.188 C 
ENDROOT
BRANCH   1   2
ATOM      2  C   UNL     1      -5.977   2.835  -5.530  1.00  0.00     0.188 C 
BRANCH   2   3
ATOM      3  O   UNL     1      -6.897   1.804  -5.858  1.00  0.00    -0.376 OA
BRANCH   3   4
ATOM      4  C   UNL     1      -7.825   1.457  -4.862  1.00  0.00     0.202 C 
BRANCH   4   5
ATOM      5  C   UNL     1      -7.507   0.056  -4.361  1.00  0.00     0.261 C 
BRANCH   5   6
ATOM      6  O   UNL     1      -6.266  -0.020  -3.638  1.00  0.00    -0.462 OA
BRANCH   6   7
ATOM      7  C   UNL     1      -5.195  -0.452  -4.348  1.00  0.00     0.326 C 
ATOM      8  O   UNL     1      -5.212  -0.768  -5.533  1.00  0.00    -0.250 OA
BRANCH   7   9
ATOM      9  C   UNL     1      -3.938  -0.536  -3.493  1.00  0.00     0.250 C 
BRANCH   9  10
ATOM     10  N   UNL     1      -3.262   0.711  -3.109  1.00  0.00    -0.281 N 
ATOM     11  N   UNL     1      -2.397   2.076  -1.350  1.00  0.00    -0.254 N 
ATOM     12  C   UNL     1      -1.864   3.038  -2.199  1.00  0.00     0.274 A 
ATOM     13  C   UNL     1      -3.282   1.065  -1.751  1.00  0.00     0.332 A 
ATOM     14  O   UNL     1      -1.317   4.068  -1.790  1.00  0.00    -0.268 OA
ATOM     15  C   UNL     1      -2.026   2.713  -3.587  1.00  0.00     0.116 A 
ATOM     16  O   UNL     1      -4.014   0.485  -0.946  1.00  0.00    -0.247 OA
ATOM     17  S   UNL     1      -1.537   3.742  -4.848  1.00  0.00    -0.136 S 
ATOM     18  C   UNL     1      -2.647   1.569  -4.028  1.00  0.00     0.070 A 
ATOM     19  C   UNL     1      -2.195   2.680  -6.021  1.00  0.00     0.068 A 
ATOM     20  C   UNL     1      -2.676   1.515  -5.453  1.00  0.00     0.039 A 
BRANCH  11  21
ATOM     21  C   UNL     1      -1.997   2.096   0.052  1.00  0.00     0.166 C 
BRANCH  21  22
ATOM     22  C   UNL     1      -1.037   0.939   0.293  1.00  0.00    -0.028 A 
ATOM     23  C   UNL     1       2.660   0.078  -0.141  1.00  0.00     0.044 C 
ATOM     24  C   UNL     1       1.182  -0.046   0.083  1.00  0.00    -0.051 A 
ATOM     25  C   UNL     1       0.626  -1.316   0.285  1.00  0.00     0.003 A 
ATOM     26  C   UNL     1       0.341   1.078   0.065  1.00  0.00     0.009 A 
ATOM     27  C   UNL     1      -0.733  -1.460   0.539  1.00  0.00     0.001 A 
ATOM     28  C   UNL     1      -1.552  -0.336   0.575  1.00  0.00     0.005 A 
ENDBRANCH  21  22
ENDBRANCH  11  21
ENDBRANCH   9  10
ENDBRANCH   7   9
ENDBRANCH   6   7
ENDBRANCH   5   6
ENDBRANCH   4   5
ENDBRANCH   3   4
ENDBRANCH   2   3
ENDBRANCH   1   2
BRANCH   1  29
ATOM     29  O   UNL     1      -5.954   3.758  -3.050  1.00  0.00    -0.377 OA
BRANCH  29  30
ATOM     30  C   UNL     1      -6.327   5.086  -3.314  1.00  0.00     0.188 C 
BRANCH  30  31
ATOM     31  C   UNL     1      -5.402   5.962  -4.112  1.00  0.00     0.188 C 
BRANCH  31  32
ATOM     32  O   UNL     1      -5.787   5.739  -5.456  1.00  0.00    -0.376 OA
BRANCH  32  33
ATOM     33  C   UNL     1      -5.257   6.617  -6.423  1.00  0.00     0.202 C 
BRANCH  33  34
ATOM     34  C   UNL     1      -5.707   8.063  -6.199  1.00  0.00     0.261 C 
BRANCH  34  35
ATOM     35  O   UNL     1      -7.150   8.082  -6.084  1.00  0.00    -0.460 OA
BRANCH  35  36
ATOM     36  C   UNL     1      -7.668   8.465  -4.889  1.00  0.00     0.338 C 
ATOM     37  O   UNL     1      -7.196   9.336  -4.155  1.00  0.00    -0.246 OA
BRANCH  36  38
ATOM     38  C   UNL     1      -8.700   7.484  -4.428  1.00  0.00     0.060 A 
ATOM     39  C   UNL     1      -9.116   7.483  -3.081  1.00  0.00     0.016 A 
ATOM     40  C   UNL     1      -8.986   6.379  -5.223  1.00  0.00     0.016 A 
ATOM     41  C   UNL     1      -9.634   6.313  -2.484  1.00  0.00     0.010 A 
ATOM     42  C   UNL     1      -9.450   5.217  -4.617  1.00  0.00     0.010 A 
ATOM     43  C   UNL     1      -9.713   5.135  -3.228  1.00  0.00    -0.014 A 
BRANCH  43  44
ATOM     44  C   UNL     1      -9.801   3.749  -2.679  1.00  0.00     0.031 A 
ATOM     45  C   UNL     1     -10.672   2.754  -3.389  1.00  0.00     0.074 A 
ATOM     46  C   UNL     1      -8.847   3.280  -1.822  1.00  0.00     0.049 A 
ATOM     47  N   UNL     1     -10.703   1.489  -3.144  1.00  0.00    -0.248 NA
ATOM     48  C   UNL     1     -11.578   3.107  -4.483  1.00  0.00     0.031 C 
ATOM     49  C   UNL     1      -8.349   1.904  -1.711  1.00  0.00     0.029 A 
ATOM     50  N   UNL     1      -8.039   3.942  -0.909  1.00  0.00    -0.354 N 
ATOM     51  C   UNL     1     -11.347   0.843  -4.176  1.00  0.00     0.074 A 
ATOM     52  C   UNL     1     -11.922   1.905  -4.962  1.00  0.00     0.031 C 
ATOM     53  C   UNL     1      -7.366   1.800  -0.806  1.00  0.00     0.029 A 
ATOM     54  C   UNL     1      -7.402   3.021  -0.054  1.00  0.00     0.049 A 
ATOM     55  H   UNL     1      -7.927   4.919  -0.865  1.00  0.00     0.167 HD
ATOM     56  C   UNL     1     -11.215  -0.512  -4.296  1.00  0.00     0.031 A 
ATOM     57  C   UNL     1      -7.665   3.072   1.281  1.00  0.00     0.031 A 
ATOM     58  C   UNL     1     -10.621  -1.124  -3.083  1.00  0.00     0.049 A 
ATOM     59  C   UNL     1      -8.611   1.933   1.655  1.00  0.00     0.074 A 
ATOM     60  C   UNL     1      -9.618  -2.046  -2.826  1.00  0.00     0.029 A 
ATOM     61  N   UNL     1     -10.994  -0.634  -1.823  1.00  0.00    -0.354 N 
ATOM     62  N   UNL     1      -9.308   1.263   0.759  1.00  0.00    -0.248 NA
ATOM     63  C   UNL     1      -8.745   1.331   2.978  1.00  0.00     0.031 C 
ATOM     64  C   UNL     1      -9.263  -1.939  -1.444  1.00  0.00     0.029 A 
ATOM     65  C   UNL     1     -10.146  -1.065  -0.826  1.00  0.00     0.049 A 
ATOM     66  H   UNL     1     -11.772  -0.050  -1.669  1.00  0.00     0.167 HD
ATOM     67  C   UNL     1      -9.846   0.136   1.302  1.00  0.00     0.074 A 
ATOM     68  C   UNL     1      -9.511   0.251   2.713  1.00  0.00     0.031 C 
ATOM     69  C   UNL     1     -10.486  -0.836   0.580  1.00  0.00     0.031 A 
BRANCH  56  70
ATOM     70  C   UNL     1     -11.479  -1.282  -5.592  1.00  0.00    -0.014 A 
ATOM     71  C   UNL     1     -11.322  -2.683  -5.627  1.00  0.00     0.009 A 
ATOM     72  C   UNL     1     -11.782  -0.692  -6.838  1.00  0.00     0.009 A 
ATOM     73  C   UNL     1     -11.444  -3.433  -6.812  1.00  0.00     0.001 A 
ATOM     74  C   UNL     1     -11.950  -1.439  -8.019  1.00  0.00     0.001 A 
ATOM     75  C   UNL     1     -11.769  -2.812  -8.009  1.00  0.00     0.000 A 
ENDBRANCH  56  70
BRANCH  57  76
ATOM     76  C   UNL     1      -7.412   4.483   1.753  1.00  0.00    -0.014 A 
ATOM     77  C   UNL     1      -6.041   4.855   1.658  1.00  0.00     0.009 A 
ATOM     78  C   UNL     1      -8.362   5.492   1.500  1.00  0.00     0.009 A 
ATOM     79  C   UNL     1      -5.652   6.054   1.038  1.00  0.00     0.001 A 
ATOM     80  C   UNL     1      -7.960   6.709   0.906  1.00  0.00     0.001 A 
ATOM     81  C   UNL     1      -6.618   6.957   0.613  1.00  0.00     0.000 A 
ENDBRANCH  57  76
BRANCH  69  82
ATOM     82  C   UNL     1     -11.576  -1.721   1.143  1.00  0.00    -0.014 A 
ATOM     83  C   UNL     1     -12.213  -1.476   2.362  1.00  0.00     0.009 A 
ATOM     84  C   UNL     1     -12.161  -2.708   0.311  1.00  0.00     0.009 A 
ATOM     85  C   UNL     1     -13.354  -2.191   2.740  1.00  0.00     0.001 A 
ATOM     86  C   UNL     1     -13.329  -3.383   0.658  1.00  0.00     0.001 A 
ATOM     87  C   UNL     1     -13.921  -3.128   1.883  1.00  0.00     0.000 A 
ENDBRANCH  69  82
ENDBRANCH  43  44
ENDBRANCH  36  38
ENDBRANCH  35  36
ENDBRANCH  34  35
ENDBRANCH  33  34
ENDBRANCH  32  33
ENDBRANCH  31  32
ENDBRANCH  30  31
ENDBRANCH  29  30
ENDBRANCH   1  29
TORSDOF 23
