REMARK SMILES C[N@H+]1[C@H](C(=O)OCCOCCOCCOCCOC(=O)c2ccc(-c3c4nc(c(-c5ccccc5)c5ccc([nH]5)c(-c5ccccc5)c5nc(c(-c6ccccc6)c6ccc3[nH]6)C=C5)C=C4)cc2)C[C@H](C(=O)NCC2(CO)CCCC2)[C@@H]1c1ccccc1F
REMARK SMILES IDX 10 1 9 2 8 3 7 4 6 5 4 6 5 7 3 8 1 9 2 10 82 11 69 13 70 14
REMARK SMILES IDX 83 15 84 16 88 17 85 18 87 19 89 20 86 21 71 22 72 23 73 24
REMARK SMILES IDX 74 26 75 27 78 28 81 29 79 30 80 31 76 32 77 33 11 35 12 36
REMARK SMILES IDX 13 37 14 38 15 39 16 40 17 41 18 42 19 43 20 44 21 45 22 46
REMARK SMILES IDX 68 47 23 48 67 49 24 50 25 51 26 52 61 53 27 54 66 55 60 56
REMARK SMILES IDX 62 57 28 58 65 59 59 60 58 61 29 63 51 64 36 65 50 66 37 67
REMARK SMILES IDX 40 68 49 69 63 70 38 71 39 72 48 74 64 75 41 76 30 77 31 78
REMARK SMILES IDX 35 79 32 80 34 81 33 82 52 83 53 84 57 85 54 86 56 87 55 88
REMARK SMILES IDX 42 89 43 90 47 91 44 92 46 93 45 94
REMARK H PARENT 2 12 73 25 77 34 62 62 40 73
REMARK Flexibility Score: inf
ROOT
ATOM      1  C   UNL     1      -2.331   3.533  -0.272  1.00  0.00     0.188 C 
ENDROOT
BRANCH   1   2
ATOM      2  O   UNL     1      -1.534   4.704  -0.462  1.00  0.00    -0.376 OA
BRANCH   2   3
ATOM      3  C   UNL     1      -0.752   4.837  -1.634  1.00  0.00     0.202 C 
BRANCH   3   4
ATOM      4  C   UNL     1       0.493   3.942  -1.722  1.00  0.00     0.261 C 
BRANCH   4   5
ATOM      5  O   UNL     1       0.370   2.609  -1.189  1.00  0.00    -0.459 OA
BRANCH   5   6
ATOM      6  C   UNL     1       0.465   2.483   0.164  1.00  0.00     0.365 C 
ATOM      7  O   UNL     1       0.707   3.419   0.923  1.00  0.00    -0.245 OA
BRANCH   6   8
ATOM      8  C   UNL     1       0.484   1.034   0.668  1.00  0.00     0.296 C 
ATOM      9  C   UNL     1      -1.664  -0.113   0.859  1.00  0.00     0.333 C 
ATOM     10  N   UNL     1      -0.425   0.004   0.078  1.00  0.00    -0.319 N 
ATOM     11  C   UNL     1       0.357  -1.264   0.168  1.00  0.00     0.231 C 
ATOM     12  H   UNL     1      -0.705   0.237  -0.875  1.00  0.00     0.349 HD
ATOM     13  C   UNL     1       1.884   0.557   0.347  1.00  0.00     0.097 C 
ATOM     14  C   UNL     1       1.782  -0.848  -0.236  1.00  0.00     0.148 C 
BRANCH  11  15
ATOM     15  C   UNL     1      -0.121  -2.552  -0.473  1.00  0.00     0.046 A 
ATOM     16  C   UNL     1       0.529  -3.746  -0.083  1.00  0.00     0.013 A 
ATOM     17  C   UNL     1      -1.070  -2.643  -1.495  1.00  0.00     0.132 A 
ATOM     18  C   UNL     1       0.278  -4.961  -0.724  1.00  0.00     0.001 A 
ATOM     19  C   UNL     1      -1.327  -3.859  -2.137  1.00  0.00     0.040 A 
ATOM     20  F   UNL     1      -1.750  -1.565  -1.908  1.00  0.00    -0.206 F 
ATOM     21  C   UNL     1      -0.643  -5.015  -1.764  1.00  0.00     0.003 A 
ENDBRANCH  11  15
BRANCH  14  22
ATOM     22  C   UNL     1       2.144  -0.916  -1.730  1.00  0.00     0.229 C 
ATOM     23  O   UNL     1       1.460  -1.471  -2.588  1.00  0.00    -0.275 OA
ATOM     24  N   UNL     1       3.366  -0.447  -2.138  1.00  0.00    -0.355 N 
ATOM     25  H   UNL     1       3.591  -0.628  -3.079  1.00  0.00     0.163 HD
BRANCH  24  26
ATOM     26  C   UNL     1       4.373   0.274  -1.391  1.00  0.00     0.125 C 
BRANCH  26  27
ATOM     27  C   UNL     1       5.749  -0.388  -1.334  1.00  0.00     0.011 C 
ATOM     28  C   UNL     1       6.459   0.064  -0.040  1.00  0.00     0.011 C 
ATOM     29  C   UNL     1       5.668  -1.906  -1.112  1.00  0.00     0.011 C 
ATOM     30  C   UNL     1       7.501  -1.006   0.238  1.00  0.00     0.001 C 
ATOM     31  C   UNL     1       6.977  -2.280  -0.421  1.00  0.00     0.001 C 
BRANCH  27  32
ATOM     32  C   UNL     1       6.566  -0.001  -2.578  1.00  0.00     0.164 C 
BRANCH  32  33
ATOM     33  O   UNL     1       5.893  -0.363  -3.778  1.00  0.00    -0.396 OA
ATOM     34  H   UNL     1       5.763  -1.324  -3.798  1.00  0.00     0.210 HD
ENDBRANCH  32  33
ENDBRANCH  27  32
ENDBRANCH  26  27
ENDBRANCH  24  26
ENDBRANCH  14  22
ENDBRANCH   6   8
ENDBRANCH   5   6
ENDBRANCH   4   5
ENDBRANCH   3   4
ENDBRANCH   2   3
ENDBRANCH   1   2
BRANCH   1  35
ATOM     35  C   UNL     1      -2.435   2.433  -1.357  1.00  0.00     0.188 C 
BRANCH  35  36
ATOM     36  O   UNL     1      -2.381   2.939  -2.680  1.00  0.00    -0.377 OA
BRANCH  36  37
ATOM     37  C   UNL     1      -3.623   2.974  -3.351  1.00  0.00     0.188 C 
BRANCH  37  38
ATOM     38  C   UNL     1      -4.715   3.771  -2.623  1.00  0.00     0.188 C 
BRANCH  38  39
ATOM     39  O   UNL     1      -4.989   3.258  -1.325  1.00  0.00    -0.376 OA
BRANCH  39  40
ATOM     40  C   UNL     1      -6.111   2.426  -1.104  1.00  0.00     0.202 C 
BRANCH  40  41
ATOM     41  C   UNL     1      -6.121   1.015  -1.714  1.00  0.00     0.261 C 
BRANCH  41  42
ATOM     42  O   UNL     1      -5.818   0.894  -3.108  1.00  0.00    -0.460 OA
BRANCH  42  43
ATOM     43  C   UNL     1      -6.612   1.536  -3.998  1.00  0.00     0.338 C 
ATOM     44  O   UNL     1      -7.596   2.191  -3.763  1.00  0.00    -0.246 OA
BRANCH  43  45
ATOM     45  C   UNL     1      -5.920   1.465  -5.311  1.00  0.00     0.060 A 
ATOM     46  C   UNL     1      -5.592   2.659  -5.968  1.00  0.00     0.016 A 
ATOM     47  C   UNL     1      -5.548   0.234  -5.857  1.00  0.00     0.016 A 
ATOM     48  C   UNL     1      -4.902   2.625  -7.180  1.00  0.00     0.010 A 
ATOM     49  C   UNL     1      -4.894   0.199  -7.091  1.00  0.00     0.010 A 
ATOM     50  C   UNL     1      -4.593   1.393  -7.769  1.00  0.00    -0.014 A 
BRANCH  50  51
ATOM     51  C   UNL     1      -4.179   1.345  -9.191  1.00  0.00     0.031 A 
ATOM     52  C   UNL     1      -5.253   1.146 -10.224  1.00  0.00     0.074 A 
ATOM     53  C   UNL     1      -2.895   1.482  -9.562  1.00  0.00     0.049 A 
ATOM     54  N   UNL     1      -5.147   1.010 -11.520  1.00  0.00    -0.248 NA
ATOM     55  C   UNL     1      -6.637   1.090  -9.722  1.00  0.00     0.031 C 
ATOM     56  C   UNL     1      -1.771   1.732  -8.663  1.00  0.00     0.029 A 
ATOM     57  N   UNL     1      -2.324   1.417 -10.809  1.00  0.00    -0.354 N 
ATOM     58  C   UNL     1      -6.446   0.844 -11.985  1.00  0.00     0.074 A 
ATOM     59  C   UNL     1      -7.320   0.869 -10.834  1.00  0.00     0.031 C 
ATOM     60  C   UNL     1      -0.639   1.787  -9.389  1.00  0.00     0.029 A 
ATOM     61  C   UNL     1      -0.956   1.538 -10.794  1.00  0.00     0.049 A 
ATOM     62  H   UNL     1      -2.845   1.296 -11.636  1.00  0.00     0.167 HD
ATOM     63  C   UNL     1      -6.875   0.686 -13.258  1.00  0.00     0.031 A 
ATOM     64  C   UNL     1      -0.064   1.431 -11.799  1.00  0.00     0.031 A 
ATOM     65  C   UNL     1      -6.002   0.633 -14.399  1.00  0.00     0.049 A 
ATOM     66  C   UNL     1      -0.557   1.155 -13.197  1.00  0.00     0.074 A 
ATOM     67  C   UNL     1      -6.336   0.483 -15.733  1.00  0.00     0.029 A 
ATOM     68  N   UNL     1      -4.620   0.716 -14.336  1.00  0.00    -0.354 N 
ATOM     69  N   UNL     1      -1.788   1.028 -13.632  1.00  0.00    -0.248 NA
ATOM     70  C   UNL     1       0.465   1.012 -14.245  1.00  0.00     0.031 C 
ATOM     71  C   UNL     1      -5.151   0.409 -16.471  1.00  0.00     0.029 A 
ATOM     72  C   UNL     1      -4.083   0.587 -15.605  1.00  0.00     0.049 A 
ATOM     73  H   UNL     1      -4.098   0.848 -13.512  1.00  0.00     0.167 HD
ATOM     74  C   UNL     1      -1.689   0.823 -15.004  1.00  0.00     0.074 A 
ATOM     75  C   UNL     1      -0.279   0.857 -15.331  1.00  0.00     0.031 C 
ATOM     76  C   UNL     1      -2.677   0.626 -15.913  1.00  0.00     0.031 A 
BRANCH  63  77
ATOM     77  C   UNL     1      -8.352   0.510 -13.472  1.00  0.00    -0.014 A 
ATOM     78  C   UNL     1      -9.252   1.570 -13.279  1.00  0.00     0.009 A 
ATOM     79  C   UNL     1      -8.848  -0.734 -13.890  1.00  0.00     0.009 A 
ATOM     80  C   UNL     1     -10.622   1.378 -13.467  1.00  0.00     0.001 A 
ATOM     81  C   UNL     1     -10.215  -0.915 -14.108  1.00  0.00     0.001 A 
ATOM     82  C   UNL     1     -11.101   0.137 -13.887  1.00  0.00     0.000 A 
ENDBRANCH  63  77
BRANCH  64  83
ATOM     83  C   UNL     1       1.394   1.554 -11.525  1.00  0.00    -0.014 A 
ATOM     84  C   UNL     1       2.131   2.636 -12.030  1.00  0.00     0.009 A 
ATOM     85  C   UNL     1       2.064   0.568 -10.782  1.00  0.00     0.009 A 
ATOM     86  C   UNL     1       3.510   2.715 -11.819  1.00  0.00     0.001 A 
ATOM     87  C   UNL     1       3.437   0.666 -10.546  1.00  0.00     0.001 A 
ATOM     88  C   UNL     1       4.161   1.733 -11.074  1.00  0.00     0.000 A 
ENDBRANCH  64  83
BRANCH  76  89
ATOM     89  C   UNL     1      -2.275   0.478 -17.355  1.00  0.00    -0.014 A 
ATOM     90  C   UNL     1      -1.629  -0.677 -17.822  1.00  0.00     0.009 A 
ATOM     91  C   UNL     1      -2.603   1.491 -18.271  1.00  0.00     0.009 A 
ATOM     92  C   UNL     1      -1.293  -0.800 -19.172  1.00  0.00     0.001 A 
ATOM     93  C   UNL     1      -2.295   1.351 -19.625  1.00  0.00     0.001 A 
ATOM     94  C   UNL     1      -1.632   0.210 -20.072  1.00  0.00     0.000 A 
ENDBRANCH  76  89
ENDBRANCH  50  51
ENDBRANCH  43  45
ENDBRANCH  42  43
ENDBRANCH  41  42
ENDBRANCH  40  41
ENDBRANCH  39  40
ENDBRANCH  38  39
ENDBRANCH  37  38
ENDBRANCH  36  37
ENDBRANCH  35  36
ENDBRANCH   1  35
TORSDOF 26
