REMARK SMILES C[C@H]1CCCCC[C@H]1NC(=O)c1csc(/C=C/C(=O)OCCOCCOCCOCCOC(=O)c2ccc(-c3c4nc(c(-c5ccccc5)c5ccc([nH]5)c(-c5ccccc5)c5nc(c(-c6ccccc6)c6ccc3[nH]6)C=C5)C=C4)cc2)c1
REMARK SMILES IDX 24 1 23 2 22 3 21 4 20 5 18 6 19 7 17 8 16 9 15 10 12 11
REMARK SMILES IDX 13 12 83 13 14 14 10 15 9 16 11 18 8 19 2 20 1 21 3 22 4 23
REMARK SMILES IDX 7 25 6 26 5 27 25 29 26 30 27 31 28 32 29 33 30 34 31 35
REMARK SMILES IDX 32 36 33 37 34 38 35 39 36 40 82 41 37 42 81 43 38 44 39 45
REMARK SMILES IDX 40 46 75 47 41 48 80 49 74 50 76 51 42 52 79 53 73 54 72 55
REMARK SMILES IDX 43 57 65 58 50 59 64 60 51 61 54 62 63 63 77 64 52 65 53 66
REMARK SMILES IDX 62 68 78 69 55 70 44 71 45 72 49 73 46 74 48 75 47 76 66 77
REMARK SMILES IDX 67 78 71 79 68 80 70 81 69 82 56 83 57 84 61 85 58 86 60 87
REMARK SMILES IDX 59 88
REMARK H PARENT 9 17 76 56 54 67
REMARK Flexibility Score: 90.00
ROOT
ATOM      1  C   UNL     1      -5.634   0.198  -6.555  1.00  0.00     0.188 C 
ENDROOT
BRANCH   1   2
ATOM      2  O   UNL     1      -5.880   0.900  -7.761  1.00  0.00    -0.376 OA
BRANCH   2   3
ATOM      3  C   UNL     1      -6.531   2.155  -7.727  1.00  0.00     0.202 C 
BRANCH   3   4
ATOM      4  C   UNL     1      -5.984   3.293  -6.850  1.00  0.00     0.261 C 
BRANCH   4   5
ATOM      5  O   UNL     1      -5.494   2.922  -5.559  1.00  0.00    -0.460 OA
BRANCH   5   6
ATOM      6  C   UNL     1      -6.418   2.668  -4.610  1.00  0.00     0.330 C 
ATOM      7  O   UNL     1      -7.629   2.728  -4.751  1.00  0.00    -0.247 OA
BRANCH   6   8
ATOM      8  C   UNL     1      -5.785   2.148  -3.380  1.00  0.00     0.095 C 
ATOM      9  C   UNL     1      -4.488   2.311  -3.066  1.00  0.00     0.026 C 
BRANCH   9  10
ATOM     10  C   UNL     1      -3.925   1.814  -1.851  1.00  0.00     0.028 A 
ATOM     11  C   UNL     1      -2.577   1.669   0.098  1.00  0.00     0.051 A 
ATOM     12  C   UNL     1      -3.503   0.666   0.303  1.00  0.00     0.079 A 
ATOM     13  C   UNL     1      -2.828   2.313  -1.165  1.00  0.00     0.033 A 
ATOM     14  S   UNL     1      -4.545   0.436  -1.026  1.00  0.00    -0.144 S 
BRANCH  11  15
ATOM     15  C   UNL     1      -1.574   2.123   1.060  1.00  0.00     0.252 C 
ATOM     16  N   UNL     1      -0.927   1.236   1.882  1.00  0.00    -0.349 N 
ATOM     17  H   UNL     1      -0.440   1.650   2.630  1.00  0.00     0.164 HD
ATOM     18  O   UNL     1      -1.285   3.315   1.157  1.00  0.00    -0.269 OA
BRANCH  16  19
ATOM     19  C   UNL     1      -0.839  -0.224   1.831  1.00  0.00     0.085 C 
BRANCH  19  20
ATOM     20  C   UNL     1       0.594  -0.677   1.478  1.00  0.00     0.008 C 
ATOM     21  C   UNL     1       1.669  -0.148   2.436  1.00  0.00     0.010 C 
BRANCH  20  22
ATOM     22  C   UNL     1       0.687  -2.204   1.280  1.00  0.00     0.005 C 
BRANCH  22  23
ATOM     23  C   UNL     1       0.623  -3.042   2.554  1.00  0.00     0.000 CG0
ATOM     24  G   UNL     1      -0.765  -3.321   3.126  1.00  0.00     0.000 G0
ENDBRANCH  22  23
ENDBRANCH  20  22
ENDBRANCH  19  20
BRANCH  19  25
ATOM     25  C   UNL     1      -1.415  -0.820   3.123  1.00  0.00     0.025 C 
BRANCH  25  26
ATOM     26  C   UNL     1      -1.853  -2.270   2.949  1.00  0.00     0.002 C 
BRANCH  26  27
ATOM     27  C   UNL     1      -0.765  -3.321   3.126  1.00  0.00     0.000 CG0
ATOM     28  G   UNL     1       0.623  -3.042   2.554  1.00  0.00     0.000 G0
ENDBRANCH  26  27
ENDBRANCH  25  26
ENDBRANCH  19  25
ENDBRANCH  16  19
ENDBRANCH  11  15
ENDBRANCH   9  10
ENDBRANCH   6   8
ENDBRANCH   5   6
ENDBRANCH   4   5
ENDBRANCH   3   4
ENDBRANCH   2   3
ENDBRANCH   1   2
BRANCH   1  29
ATOM     29  C   UNL     1      -4.153   0.217  -6.128  1.00  0.00     0.188 C 
BRANCH  29  30
ATOM     30  O   UNL     1      -3.319   1.214  -6.700  1.00  0.00    -0.377 OA
BRANCH  30  31
ATOM     31  C   UNL     1      -3.163   1.285  -8.118  1.00  0.00     0.188 C 
BRANCH  31  32
ATOM     32  C   UNL     1      -3.618   0.157  -9.079  1.00  0.00     0.188 C 
BRANCH  32  33
ATOM     33  O   UNL     1      -3.898  -1.081  -8.450  1.00  0.00    -0.376 OA
BRANCH  33  34
ATOM     34  C   UNL     1      -3.002  -2.155  -8.666  1.00  0.00     0.202 C 
BRANCH  34  35
ATOM     35  C   UNL     1      -1.580  -1.984  -8.119  1.00  0.00     0.261 C 
BRANCH  35  36
ATOM     36  O   UNL     1      -0.895  -0.782  -8.503  1.00  0.00    -0.460 OA
BRANCH  36  37
ATOM     37  C   UNL     1      -0.560  -0.647  -9.802  1.00  0.00     0.338 C 
ATOM     38  O   UNL     1      -0.779  -1.434 -10.710  1.00  0.00    -0.246 OA
BRANCH  37  39
ATOM     39  C   UNL     1      -0.020   0.715  -9.981  1.00  0.00     0.060 A 
ATOM     40  C   UNL     1      -0.667   1.608 -10.846  1.00  0.00     0.016 A 
ATOM     41  C   UNL     1       1.125   1.107  -9.283  1.00  0.00     0.016 A 
ATOM     42  C   UNL     1      -0.146   2.888 -11.044  1.00  0.00     0.010 A 
ATOM     43  C   UNL     1       1.655   2.380  -9.497  1.00  0.00     0.010 A 
ATOM     44  C   UNL     1       1.044   3.263 -10.406  1.00  0.00    -0.014 A 
BRANCH  44  45
ATOM     45  C   UNL     1       1.779   4.474 -10.842  1.00  0.00     0.031 A 
ATOM     46  C   UNL     1       2.923   4.295 -11.805  1.00  0.00     0.074 A 
ATOM     47  C   UNL     1       1.449   5.702 -10.405  1.00  0.00     0.049 A 
ATOM     48  N   UNL     1       3.780   5.176 -12.252  1.00  0.00    -0.248 NA
ATOM     49  C   UNL     1       3.127   2.933 -12.329  1.00  0.00     0.031 C 
ATOM     50  C   UNL     1       0.327   6.020  -9.523  1.00  0.00     0.029 A 
ATOM     51  N   UNL     1       2.045   6.916 -10.642  1.00  0.00    -0.354 N 
ATOM     52  C   UNL     1       4.626   4.475 -13.103  1.00  0.00     0.074 A 
ATOM     53  C   UNL     1       4.205   3.092 -13.082  1.00  0.00     0.031 C 
ATOM     54  C   UNL     1       0.322   7.344  -9.285  1.00  0.00     0.029 A 
ATOM     55  C   UNL     1       1.464   7.958  -9.961  1.00  0.00     0.049 A 
ATOM     56  H   UNL     1       2.816   7.029 -11.244  1.00  0.00     0.167 HD
ATOM     57  C   UNL     1       5.658   4.941 -13.844  1.00  0.00     0.031 A 
ATOM     58  C   UNL     1       1.834   9.252  -9.873  1.00  0.00     0.031 A 
ATOM     59  C   UNL     1       6.092   6.311 -13.849  1.00  0.00     0.049 A 
ATOM     60  C   UNL     1       3.061   9.721 -10.617  1.00  0.00     0.074 A 
ATOM     61  C   UNL     1       7.138   6.880 -14.554  1.00  0.00     0.029 A 
ATOM     62  N   UNL     1       5.504   7.325 -13.111  1.00  0.00    -0.354 N 
ATOM     63  N   UNL     1       3.850   9.053 -11.423  1.00  0.00    -0.248 NA
ATOM     64  C   UNL     1       3.442  11.131 -10.441  1.00  0.00     0.031 C 
ATOM     65  C   UNL     1       7.216   8.230 -14.200  1.00  0.00     0.029 A 
ATOM     66  C   UNL     1       6.175   8.515 -13.331  1.00  0.00     0.049 A 
ATOM     67  H   UNL     1       4.724   7.215 -12.520  1.00  0.00     0.167 HD
ATOM     68  C   UNL     1       4.788   9.970 -11.885  1.00  0.00     0.074 A 
ATOM     69  C   UNL     1       4.463  11.243 -11.278  1.00  0.00     0.031 C 
ATOM     70  C   UNL     1       5.824   9.779 -12.739  1.00  0.00     0.031 A 
BRANCH  57  71
ATOM     71  C   UNL     1       6.404   3.951 -14.694  1.00  0.00    -0.014 A 
ATOM     72  C   UNL     1       5.816   3.387 -15.838  1.00  0.00     0.009 A 
ATOM     73  C   UNL     1       7.727   3.611 -14.373  1.00  0.00     0.009 A 
ATOM     74  C   UNL     1       6.530   2.482 -16.626  1.00  0.00     0.001 A 
ATOM     75  C   UNL     1       8.449   2.730 -15.180  1.00  0.00     0.001 A 
ATOM     76  C   UNL     1       7.847   2.160 -16.301  1.00  0.00     0.000 A 
ENDBRANCH  57  71
BRANCH  58  77
ATOM     77  C   UNL     1       1.065  10.209  -9.030  1.00  0.00    -0.014 A 
ATOM     78  C   UNL     1       0.394  11.296  -9.613  1.00  0.00     0.009 A 
ATOM     79  C   UNL     1       1.055  10.082  -7.632  1.00  0.00     0.009 A 
ATOM     80  C   UNL     1      -0.229  12.258  -8.813  1.00  0.00     0.001 A 
ATOM     81  C   UNL     1       0.400  11.026  -6.837  1.00  0.00     0.001 A 
ATOM     82  C   UNL     1      -0.227  12.121  -7.427  1.00  0.00     0.000 A 
ENDBRANCH  58  77
BRANCH  70  83
ATOM     83  C   UNL     1       6.637  10.982 -13.132  1.00  0.00    -0.014 A 
ATOM     84  C   UNL     1       7.505  11.614 -12.229  1.00  0.00     0.009 A 
ATOM     85  C   UNL     1       6.568  11.455 -14.453  1.00  0.00     0.009 A 
ATOM     86  C   UNL     1       8.262  12.717 -12.634  1.00  0.00     0.001 A 
ATOM     87  C   UNL     1       7.351  12.535 -14.863  1.00  0.00     0.001 A 
ATOM     88  C   UNL     1       8.189  13.171 -13.950  1.00  0.00     0.000 A 
ENDBRANCH  70  83
ENDBRANCH  44  45
ENDBRANCH  37  39
ENDBRANCH  36  37
ENDBRANCH  35  36
ENDBRANCH  34  35
ENDBRANCH  33  34
ENDBRANCH  32  33
ENDBRANCH  31  32
ENDBRANCH  30  31
ENDBRANCH  29  30
ENDBRANCH   1  29
TORSDOF 23
