REMARK SMILES Cc1cccc(NC(=O)[C@H]2CCCCC[C@@H]2[NH3+])c1C(=O)OCCOCCOCCOCCOC(=O)c1ccc(-c2c3nc(c(-c4ccccc4)c4ccc([nH]4)c(-c4ccccc4)c4nc(c(-c5ccccc5)c5ccc2[nH]5)C=C4)C=C3)cc1
REMARK SMILES IDX 25 1 24 2 23 3 22 4 21 5 19 6 20 7 18 8 1 9 2 10 3 11 4 12
REMARK SMILES IDX 6 13 5 14 7 15 8 16 9 18 10 19 11 20 12 21 13 22 14 23 16 25
REMARK SMILES IDX 15 26 17 28 26 32 27 33 28 34 29 35 30 36 31 37 32 38 33 39
REMARK SMILES IDX 34 40 35 41 36 42 37 43 83 44 38 45 82 46 39 47 40 48 41 49
REMARK SMILES IDX 76 50 42 51 81 52 75 53 77 54 43 55 80 56 74 57 73 58 44 60
REMARK SMILES IDX 66 61 51 62 65 63 52 64 55 65 64 66 78 67 53 68 54 69 63 71
REMARK SMILES IDX 79 72 56 73 45 74 46 75 50 76 47 77 49 78 48 79 67 80 68 81
REMARK SMILES IDX 72 82 69 83 71 84 70 85 57 86 58 87 62 88 59 89 61 90 60 91
REMARK H PARENT 7 17 17 29 17 30 17 31 77 59 55 70
REMARK Flexibility Score: 90.00
ROOT
ATOM      1  C   UNL     1      -7.323   2.876   1.297  1.00  0.00     0.188 C 
ENDROOT
BRANCH   1   2
ATOM      2  O   UNL     1      -7.832   2.325   2.499  1.00  0.00    -0.376 OA
BRANCH   2   3
ATOM      3  C   UNL     1      -7.318   2.854   3.720  1.00  0.00     0.202 C 
BRANCH   3   4
ATOM      4  C   UNL     1      -5.818   3.052   3.862  1.00  0.00     0.261 C 
BRANCH   4   5
ATOM      5  O   UNL     1      -5.468   4.210   3.088  1.00  0.00    -0.460 OA
BRANCH   5   6
ATOM      6  C   UNL     1      -4.164   4.413   2.840  1.00  0.00     0.340 C 
ATOM      7  O   UNL     1      -3.206   3.993   3.454  1.00  0.00    -0.246 OA
BRANCH   6   8
ATOM      8  C   UNL     1      -4.084   4.682   1.396  1.00  0.00     0.086 A 
ATOM      9  C   UNL     1      -5.180   6.982   1.583  1.00  0.00     0.045 C 
ATOM     10  C   UNL     1      -4.445   5.914   0.830  1.00  0.00    -0.034 A 
ATOM     11  C   UNL     1      -4.170   6.106  -0.523  1.00  0.00     0.004 A 
ATOM     12  C   UNL     1      -3.677   5.055  -1.297  1.00  0.00     0.002 A 
ATOM     13  C   UNL     1      -3.738   3.558   0.596  1.00  0.00     0.056 A 
ATOM     14  C   UNL     1      -3.515   3.776  -0.754  1.00  0.00     0.027 A 
BRANCH  13  15
ATOM     15  N   UNL     1      -3.827   2.292   1.228  1.00  0.00    -0.325 N 
ATOM     16  C   UNL     1      -4.007   1.002   0.872  1.00  0.00     0.233 C 
ATOM     17  H   UNL     1      -3.731   2.378   2.204  1.00  0.00     0.169 HD
ATOM     18  O   UNL     1      -4.491   0.269   1.740  1.00  0.00    -0.274 OA
BRANCH  16  19
ATOM     19  C   UNL     1      -3.647   0.486  -0.493  1.00  0.00     0.137 C 
BRANCH  19  20
ATOM     20  C   UNL     1      -3.022  -0.920  -0.384  1.00  0.00     0.020 C 
BRANCH  20  21
ATOM     21  C   UNL     1      -3.924  -2.087   0.018  1.00  0.00     0.001 C 
BRANCH  21  22
ATOM     22  C   UNL     1      -4.761  -2.696  -1.096  1.00  0.00     0.000 C 
BRANCH  22  23
ATOM     23  C   UNL     1      -5.359  -1.736  -2.112  1.00  0.00     0.006 CG0
ATOM     24  G   UNL     1      -5.864  -0.419  -1.531  1.00  0.00     0.000 G0
ENDBRANCH  22  23
ENDBRANCH  21  22
ENDBRANCH  20  21
ENDBRANCH  19  20
BRANCH  19  25
ATOM     25  C   UNL     1      -4.814   0.703  -1.469  1.00  0.00     0.193 C 
BRANCH  25  26
ATOM     26  C   UNL     1      -5.864  -0.419  -1.531  1.00  0.00     0.066 CG0
ATOM     27  G   UNL     1      -5.359  -1.736  -2.112  1.00  0.00     0.000 G0
ENDBRANCH  25  26
BRANCH  25  28
ATOM     28  N   UNL     1      -4.272   0.997  -2.809  1.00  0.00    -0.354 N 
ATOM     29  H   UNL     1      -3.755   0.187  -3.152  1.00  0.00     0.344 HD
ATOM     30  H   UNL     1      -3.648   1.801  -2.755  1.00  0.00     0.344 HD
ATOM     31  H   UNL     1      -5.040   1.205  -3.449  1.00  0.00     0.344 HD
ENDBRANCH  25  28
ENDBRANCH  19  25
ENDBRANCH  16  19
ENDBRANCH  13  15
ENDBRANCH   6   8
ENDBRANCH   5   6
ENDBRANCH   4   5
ENDBRANCH   3   4
ENDBRANCH   2   3
ENDBRANCH   1   2
BRANCH   1  32
ATOM     32  C   UNL     1      -7.997   4.085   0.630  1.00  0.00     0.188 C 
BRANCH  32  33
ATOM     33  O   UNL     1      -8.044   5.335   1.302  1.00  0.00    -0.377 OA
BRANCH  33  34
ATOM     34  C   UNL     1      -9.145   5.588   2.172  1.00  0.00     0.188 C 
BRANCH  34  35
ATOM     35  C   UNL     1     -10.510   5.044   1.767  1.00  0.00     0.188 C 
BRANCH  35  36
ATOM     36  O   UNL     1     -10.536   3.643   2.034  1.00  0.00    -0.376 OA
BRANCH  36  37
ATOM     37  C   UNL     1     -11.407   2.867   1.219  1.00  0.00     0.202 C 
BRANCH  37  38
ATOM     38  C   UNL     1     -12.881   3.276   1.321  1.00  0.00     0.261 C 
BRANCH  38  39
ATOM     39  O   UNL     1     -13.358   3.043   2.661  1.00  0.00    -0.460 OA
BRANCH  39  40
ATOM     40  C   UNL     1     -13.481   4.154   3.436  1.00  0.00     0.338 C 
ATOM     41  O   UNL     1     -14.057   5.181   3.116  1.00  0.00    -0.246 OA
BRANCH  40  42
ATOM     42  C   UNL     1     -12.565   4.055   4.608  1.00  0.00     0.060 A 
ATOM     43  C   UNL     1     -12.368   5.169   5.442  1.00  0.00     0.016 A 
ATOM     44  C   UNL     1     -11.660   3.004   4.645  1.00  0.00     0.016 A 
ATOM     45  C   UNL     1     -11.168   5.310   6.156  1.00  0.00     0.010 A 
ATOM     46  C   UNL     1     -10.439   3.212   5.246  1.00  0.00     0.010 A 
ATOM     47  C   UNL     1     -10.151   4.380   5.965  1.00  0.00    -0.014 A 
BRANCH  47  48
ATOM     48  C   UNL     1      -8.734   4.565   6.335  1.00  0.00     0.031 A 
ATOM     49  C   UNL     1      -8.029   3.428   7.023  1.00  0.00     0.074 A 
ATOM     50  C   UNL     1      -8.020   5.533   5.695  1.00  0.00     0.049 A 
ATOM     51  N   UNL     1      -6.758   3.355   7.208  1.00  0.00    -0.248 NA
ATOM     52  C   UNL     1      -8.697   2.207   7.484  1.00  0.00     0.031 C 
ATOM     53  C   UNL     1      -6.571   5.585   5.505  1.00  0.00     0.029 A 
ATOM     54  N   UNL     1      -8.414   6.675   5.009  1.00  0.00    -0.354 N 
ATOM     55  C   UNL     1      -6.409   2.048   7.478  1.00  0.00     0.074 A 
ATOM     56  C   UNL     1      -7.665   1.378   7.693  1.00  0.00     0.031 C 
ATOM     57  C   UNL     1      -6.191   6.715   4.896  1.00  0.00     0.029 A 
ATOM     58  C   UNL     1      -7.340   7.572   4.957  1.00  0.00     0.049 A 
ATOM     59  H   UNL     1      -9.306   6.829   4.621  1.00  0.00     0.167 HD
ATOM     60  C   UNL     1      -5.095   1.685   7.374  1.00  0.00     0.031 A 
ATOM     61  C   UNL     1      -7.322   8.726   5.688  1.00  0.00     0.031 A 
ATOM     62  C   UNL     1      -4.223   2.865   7.205  1.00  0.00     0.049 A 
ATOM     63  C   UNL     1      -6.260   8.565   6.796  1.00  0.00     0.074 A 
ATOM     64  C   UNL     1      -3.241   3.229   6.305  1.00  0.00     0.029 A 
ATOM     65  N   UNL     1      -4.465   4.012   7.975  1.00  0.00    -0.354 N 
ATOM     66  N   UNL     1      -5.995   7.422   7.407  1.00  0.00    -0.248 NA
ATOM     67  C   UNL     1      -5.204   9.557   7.018  1.00  0.00     0.031 C 
ATOM     68  C   UNL     1      -3.061   4.645   6.406  1.00  0.00     0.029 A 
ATOM     69  C   UNL     1      -3.865   5.132   7.432  1.00  0.00     0.049 A 
ATOM     70  H   UNL     1      -4.997   4.019   8.803  1.00  0.00     0.167 HD
ATOM     71  C   UNL     1      -4.696   7.448   7.871  1.00  0.00     0.074 A 
ATOM     72  C   UNL     1      -4.278   8.833   7.674  1.00  0.00     0.031 C 
ATOM     73  C   UNL     1      -3.858   6.396   8.159  1.00  0.00     0.031 A 
BRANCH  60  74
ATOM     74  C   UNL     1      -4.577   0.250   7.260  1.00  0.00    -0.014 A 
ATOM     75  C   UNL     1      -3.188   0.011   7.172  1.00  0.00     0.009 A 
ATOM     76  C   UNL     1      -5.384  -0.899   7.145  1.00  0.00     0.009 A 
ATOM     77  C   UNL     1      -2.645  -1.272   6.975  1.00  0.00     0.001 A 
ATOM     78  C   UNL     1      -4.847  -2.193   6.984  1.00  0.00     0.001 A 
ATOM     79  C   UNL     1      -3.475  -2.379   6.892  1.00  0.00     0.000 A 
ENDBRANCH  60  74
BRANCH  61  80
ATOM     80  C   UNL     1      -8.652   9.413   5.589  1.00  0.00    -0.014 A 
ATOM     81  C   UNL     1      -8.940   9.893   4.283  1.00  0.00     0.009 A 
ATOM     82  C   UNL     1      -9.740   8.994   6.373  1.00  0.00     0.009 A 
ATOM     83  C   UNL     1     -10.190   9.673   3.687  1.00  0.00     0.001 A 
ATOM     84  C   UNL     1     -11.009   8.821   5.779  1.00  0.00     0.001 A 
ATOM     85  C   UNL     1     -11.209   9.082   4.422  1.00  0.00     0.000 A 
ENDBRANCH  61  80
BRANCH  73  86
ATOM     86  C   UNL     1      -2.882   6.463   9.315  1.00  0.00    -0.014 A 
ATOM     87  C   UNL     1      -2.927   7.474  10.278  1.00  0.00     0.009 A 
ATOM     88  C   UNL     1      -2.059   5.344   9.596  1.00  0.00     0.009 A 
ATOM     89  C   UNL     1      -2.188   7.372  11.459  1.00  0.00     0.001 A 
ATOM     90  C   UNL     1      -1.361   5.216  10.794  1.00  0.00     0.001 A 
ATOM     91  C   UNL     1      -1.424   6.238  11.725  1.00  0.00     0.000 A 
ENDBRANCH  73  86
ENDBRANCH  47  48
ENDBRANCH  40  42
ENDBRANCH  39  40
ENDBRANCH  38  39
ENDBRANCH  37  38
ENDBRANCH  36  37
ENDBRANCH  35  36
ENDBRANCH  34  35
ENDBRANCH  33  34
ENDBRANCH  32  33
ENDBRANCH   1  32
TORSDOF 23
