REMARK SMILES CCc1cccc(C)c1Nc1ccccc1CC(=O)OCCOCCOCCOCCOC(=O)c1ccc(-c2c3nc(c(-c4ccccc4)c4ccc([nH]4)c(-c4ccccc4)c4nc(c(-c5ccccc5)c5ccc2[nH]5)C=C4)C=C3)cc1
REMARK SMILES IDX 25 1 24 2 23 3 22 4 21 5 20 6 18 7 19 8 17 9 16 10 11 11
REMARK SMILES IDX 12 12 13 13 15 14 14 15 10 16 9 18 3 19 4 20 5 21 7 22 6 23
REMARK SMILES IDX 8 24 2 25 1 26 26 27 27 28 28 29 29 30 30 31 31 32 32 33
REMARK SMILES IDX 33 34 34 35 35 36 36 37 82 38 37 39 81 40 38 41 39 42 40 43
REMARK SMILES IDX 75 44 41 45 80 46 74 47 76 48 42 49 79 50 73 51 72 52 43 54
REMARK SMILES IDX 65 55 50 56 64 57 51 58 54 59 63 60 77 61 52 62 53 63 62 65
REMARK SMILES IDX 78 66 55 67 44 68 45 69 49 70 46 71 48 72 47 73 66 74 67 75
REMARK SMILES IDX 71 76 68 77 70 78 69 79 56 80 57 81 61 82 58 83 60 84 59 85
REMARK H PARENT 10 17 76 53 54 64
REMARK Flexibility Score: inf
ROOT
ATOM      1  C   UNL     1       0.062   3.236   0.563  1.00  0.00     0.188 C 
ENDROOT
BRANCH   1   2
ATOM      2  C   UNL     1       1.587   1.813   0.950  1.00  0.00     0.188 C 
BRANCH   2   3
ATOM      3  O   UNL     1       0.897   0.485   2.361  1.00  0.00    -0.376 OA
BRANCH   3   4
ATOM      4  C   UNL     1       0.507   0.893   4.019  1.00  0.00     0.202 C 
BRANCH   4   5
ATOM      5  C   UNL     1       1.433   2.151   4.839  1.00  0.00     0.261 C 
BRANCH   5   6
ATOM      6  O   UNL     1       1.837   3.624   4.104  1.00  0.00    -0.463 OA
BRANCH   6   7
ATOM      7  C   UNL     1       2.922   4.131   3.381  1.00  0.00     0.310 C 
ATOM      8  O   UNL     1       3.917   4.441   4.057  1.00  0.00    -0.252 OA
BRANCH   7   9
ATOM      9  C   UNL     1       3.140   4.168   1.694  1.00  0.00     0.160 C 
BRANCH   9  10
ATOM     10  C   UNL     1       2.231   4.234   0.225  1.00  0.00    -0.013 A 
ATOM     11  C   UNL     1       1.835   3.131  -0.998  1.00  0.00     0.042 A 
ATOM     12  C   UNL     1       1.357   3.701  -2.218  1.00  0.00     0.026 A 
ATOM     13  C   UNL     1       0.962   5.068  -2.214  1.00  0.00     0.002 A 
ATOM     14  C   UNL     1       1.841   5.586   0.035  1.00  0.00     0.006 A 
ATOM     15  C   UNL     1       1.154   5.957  -1.123  1.00  0.00     0.000 A 
BRANCH  11  16
ATOM     16  N   UNL     1       0.589   1.802  -0.761  1.00  0.00    -0.355 N 
ATOM     17  H   UNL     1       0.261   1.382  -1.589  1.00  0.00     0.167 HD
BRANCH  16  18
ATOM     18  C   UNL     1      -0.165   1.111   0.860  1.00  0.00     0.045 A 
ATOM     19  C   UNL     1       0.682  -0.419   0.548  1.00  0.00    -0.024 A 
ATOM     20  C   UNL     1       2.164  -0.775   1.280  1.00  0.00     0.006 A 
ATOM     21  C   UNL     1       2.935   0.218   2.309  1.00  0.00     0.001 A 
ATOM     22  C   UNL     1       0.484   2.245   2.318  1.00  0.00    -0.027 A 
ATOM     23  C   UNL     1       2.243   1.690   2.829  1.00  0.00     0.005 A 
ATOM     24  C   UNL     1      -0.167   3.512   2.932  1.00  0.00     0.046 C 
BRANCH  19  25
ATOM     25  C   UNL     1       0.227  -1.498  -0.381  1.00  0.00     0.034 C 
ATOM     26  C   UNL     1       1.003  -1.395  -1.681  1.00  0.00     0.009 C 
ENDBRANCH  19  25
ENDBRANCH  16  18
ENDBRANCH  11  16
ENDBRANCH   9  10
ENDBRANCH   7   9
ENDBRANCH   6   7
ENDBRANCH   5   6
ENDBRANCH   4   5
ENDBRANCH   3   4
ENDBRANCH   2   3
ENDBRANCH   1   2
BRANCH   1  27
ATOM     27  O   UNL     1      -1.448   2.917   0.306  1.00  0.00    -0.377 OA
BRANCH  27  28
ATOM     28  C   UNL     1      -2.438   3.032   1.317  1.00  0.00     0.188 C 
BRANCH  28  29
ATOM     29  C   UNL     1      -3.596   2.118   1.052  1.00  0.00     0.188 C 
BRANCH  29  30
ATOM     30  O   UNL     1      -3.073   0.799   0.930  1.00  0.00    -0.376 OA
BRANCH  30  31
ATOM     31  C   UNL     1      -3.314   0.213  -0.338  1.00  0.00     0.202 C 
BRANCH  31  32
ATOM     32  C   UNL     1      -4.790  -0.162  -0.444  1.00  0.00     0.261 C 
BRANCH  32  33
ATOM     33  O   UNL     1      -5.173  -0.821   0.793  1.00  0.00    -0.460 OA
BRANCH  33  34
ATOM     34  C   UNL     1      -5.889  -0.047   1.659  1.00  0.00     0.338 C 
ATOM     35  O   UNL     1      -6.798   0.703   1.331  1.00  0.00    -0.246 OA
BRANCH  34  36
ATOM     36  C   UNL     1      -5.248   0.021   3.021  1.00  0.00     0.060 A 
ATOM     37  C   UNL     1      -5.696   0.998   3.932  1.00  0.00     0.016 A 
ATOM     38  C   UNL     1      -4.010  -0.576   3.245  1.00  0.00     0.016 A 
ATOM     39  C   UNL     1      -4.848   1.482   4.949  1.00  0.00     0.010 A 
ATOM     40  C   UNL     1      -3.153  -0.037   4.206  1.00  0.00     0.010 A 
ATOM     41  C   UNL     1      -3.531   1.026   5.048  1.00  0.00    -0.014 A 
BRANCH  41  42
ATOM     42  C   UNL     1      -2.478   1.689   5.877  1.00  0.00     0.031 A 
ATOM     43  C   UNL     1      -1.478   0.829   6.664  1.00  0.00     0.074 A 
ATOM     44  C   UNL     1      -2.207   3.008   5.652  1.00  0.00     0.049 A 
ATOM     45  N   UNL     1      -0.392   1.236   7.248  1.00  0.00    -0.248 NA
ATOM     46  C   UNL     1      -1.589  -0.628   6.779  1.00  0.00     0.031 C 
ATOM     47  C   UNL     1      -0.975   3.676   6.035  1.00  0.00     0.029 A 
ATOM     48  N   UNL     1      -2.819   4.033   4.945  1.00  0.00    -0.354 N 
ATOM     49  C   UNL     1       0.466   0.164   7.457  1.00  0.00     0.074 A 
ATOM     50  C   UNL     1      -0.374  -0.986   7.225  1.00  0.00     0.031 C 
ATOM     51  C   UNL     1      -0.832   4.891   5.481  1.00  0.00     0.029 A 
ATOM     52  C   UNL     1      -2.179   5.267   5.194  1.00  0.00     0.049 A 
ATOM     53  H   UNL     1      -3.595   3.916   4.351  1.00  0.00     0.167 HD
ATOM     54  C   UNL     1       1.814   0.374   7.656  1.00  0.00     0.031 A 
ATOM     55  C   UNL     1      -2.720   6.239   5.999  1.00  0.00     0.031 A 
ATOM     56  C   UNL     1       2.150   1.815   7.821  1.00  0.00     0.049 A 
ATOM     57  C   UNL     1      -1.928   6.341   7.352  1.00  0.00     0.074 A 
ATOM     58  C   UNL     1       3.084   2.677   7.256  1.00  0.00     0.029 A 
ATOM     59  N   UNL     1       1.305   2.643   8.563  1.00  0.00    -0.354 N 
ATOM     60  N   UNL     1      -1.366   5.302   7.952  1.00  0.00    -0.248 NA
ATOM     61  C   UNL     1      -1.410   7.594   7.912  1.00  0.00     0.031 C 
ATOM     62  C   UNL     1       2.606   4.014   7.422  1.00  0.00     0.029 A 
ATOM     63  C   UNL     1       1.491   3.982   8.252  1.00  0.00     0.049 A 
ATOM     64  H   UNL     1       0.656   2.315   9.227  1.00  0.00     0.167 HD
ATOM     65  C   UNL     1      -0.286   5.712   8.708  1.00  0.00     0.074 A 
ATOM     66  C   UNL     1      -0.439   7.162   8.748  1.00  0.00     0.031 C 
ATOM     67  C   UNL     1       0.850   5.015   9.060  1.00  0.00     0.031 A 
BRANCH  54  68
ATOM     68  C   UNL     1       2.927  -0.688   7.502  1.00  0.00    -0.014 A 
ATOM     69  C   UNL     1       4.281  -0.317   7.690  1.00  0.00     0.009 A 
ATOM     70  C   UNL     1       2.748  -2.027   7.102  1.00  0.00     0.009 A 
ATOM     71  C   UNL     1       5.365  -1.190   7.474  1.00  0.00     0.001 A 
ATOM     72  C   UNL     1       3.828  -2.924   6.924  1.00  0.00     0.001 A 
ATOM     73  C   UNL     1       5.138  -2.503   7.099  1.00  0.00     0.000 A 
ENDBRANCH  54  68
BRANCH  55  74
ATOM     74  C   UNL     1      -4.133   6.500   5.565  1.00  0.00    -0.014 A 
ATOM     75  C   UNL     1      -4.225   7.111   4.285  1.00  0.00     0.009 A 
ATOM     76  C   UNL     1      -5.122   5.556   5.897  1.00  0.00     0.009 A 
ATOM     77  C   UNL     1      -5.048   6.570   3.284  1.00  0.00     0.001 A 
ATOM     78  C   UNL     1      -5.964   5.037   4.893  1.00  0.00     0.001 A 
ATOM     79  C   UNL     1      -5.873   5.490   3.576  1.00  0.00     0.000 A 
ENDBRANCH  55  74
BRANCH  67  80
ATOM     80  C   UNL     1       1.435   5.126  10.454  1.00  0.00    -0.014 A 
ATOM     81  C   UNL     1       0.673   5.602  11.520  1.00  0.00     0.009 A 
ATOM     82  C   UNL     1       2.634   4.431  10.771  1.00  0.00     0.009 A 
ATOM     83  C   UNL     1       1.074   5.369  12.838  1.00  0.00     0.001 A 
ATOM     84  C   UNL     1       3.005   4.151  12.082  1.00  0.00     0.001 A 
ATOM     85  C   UNL     1       2.220   4.625  13.119  1.00  0.00     0.000 A 
ENDBRANCH  67  80
ENDBRANCH  41  42
ENDBRANCH  34  36
ENDBRANCH  33  34
ENDBRANCH  32  33
ENDBRANCH  31  32
ENDBRANCH  30  31
ENDBRANCH  29  30
ENDBRANCH  28  29
ENDBRANCH  27  28
ENDBRANCH   1  27
TORSDOF 24
