REMARK SMILES CCC(=O)N1[C@H](C(=O)OCCOCCOCCOCCOC(=O)c2ccc(-c3c4nc(c(-c5ccccc5)c5ccc([nH]5)c(-c5ccccc5)c5nc(c(-c6ccccc6)c6ccc3[nH]6)C=C5)C=C4)cc2)Cc2c([nH]c3ccccc23)[C@@H]1CC(C)C
REMARK SMILES IDX 15 1 14 2 13 3 12 4 11 5 10 6 9 7 7 8 8 9 6 10 5 11 82 12
REMARK SMILES IDX 72 13 74 14 73 15 75 16 81 17 76 18 80 20 77 21 79 22 78 23
REMARK SMILES IDX 3 24 4 25 2 26 1 27 83 28 84 29 85 30 86 31 16 32 17 33
REMARK SMILES IDX 18 34 19 35 20 36 21 37 22 38 23 39 24 40 25 41 71 42 26 43
REMARK SMILES IDX 70 44 27 45 28 46 29 47 64 48 30 49 69 50 63 51 65 52 31 53
REMARK SMILES IDX 68 54 62 55 61 56 32 58 54 59 39 60 53 61 40 62 43 63 52 64
REMARK SMILES IDX 66 65 41 66 42 67 51 69 67 70 44 71 33 72 34 73 38 74 35 75
REMARK SMILES IDX 37 76 36 77 55 78 56 79 60 80 57 81 59 82 58 83 45 84 46 85
REMARK SMILES IDX 50 86 47 87 49 88 48 89
REMARK H PARENT 75 19 65 57 43 68
REMARK Flexibility Score: inf
ROOT
ATOM      1  O   UNL     1       3.591   3.708  -2.635  1.00  0.00    -0.377 OA
ENDROOT
BRANCH   1   2
ATOM      2  C   UNL     1       3.072   2.774  -1.692  1.00  0.00     0.188 C 
BRANCH   2   3
ATOM      3  C   UNL     1       3.656   2.762  -0.273  1.00  0.00     0.188 C 
BRANCH   3   4
ATOM      4  O   UNL     1       5.034   3.078  -0.091  1.00  0.00    -0.376 OA
BRANCH   4   5
ATOM      5  C   UNL     1       5.982   2.532  -1.003  1.00  0.00     0.202 C 
BRANCH   5   6
ATOM      6  C   UNL     1       6.159   1.024  -0.890  1.00  0.00     0.261 C 
BRANCH   6   7
ATOM      7  O   UNL     1       5.044   0.344  -1.498  1.00  0.00    -0.462 OA
BRANCH   7   8
ATOM      8  C   UNL     1       4.481  -0.655  -0.788  1.00  0.00     0.329 C 
ATOM      9  O   UNL     1       4.834  -0.982   0.342  1.00  0.00    -0.250 OA
BRANCH   8  10
ATOM     10  C   UNL     1       3.444  -1.466  -1.578  1.00  0.00     0.200 C 
ATOM     11  N   UNL     1       2.655  -0.843  -2.707  1.00  0.00    -0.320 N 
ATOM     12  C   UNL     1       3.154  -0.943  -4.119  1.00  0.00     0.133 C 
ATOM     13  C   UNL     1       4.149  -2.801  -1.927  1.00  0.00     0.075 C 
ATOM     14  C   UNL     1       4.232  -1.949  -4.245  1.00  0.00     0.042 A 
ATOM     15  C   UNL     1       4.781  -2.729  -3.260  1.00  0.00    -0.015 A 
ATOM     16  N   UNL     1       4.874  -2.251  -5.416  1.00  0.00    -0.356 N 
ATOM     17  C   UNL     1       6.027  -3.195  -3.757  1.00  0.00     0.003 A 
ATOM     18  C   UNL     1       6.067  -2.865  -5.115  1.00  0.00     0.046 A 
ATOM     19  H   UNL     1       4.538  -2.060  -6.322  1.00  0.00     0.166 HD
ATOM     20  C   UNL     1       7.158  -3.799  -3.181  1.00  0.00     0.010 A 
ATOM     21  C   UNL     1       7.179  -3.096  -5.928  1.00  0.00     0.026 A 
ATOM     22  C   UNL     1       8.299  -3.994  -3.970  1.00  0.00     0.001 A 
ATOM     23  C   UNL     1       8.307  -3.646  -5.320  1.00  0.00     0.002 A 
BRANCH  11  24
ATOM     24  C   UNL     1       1.339  -0.398  -2.599  1.00  0.00     0.223 C 
ATOM     25  O   UNL     1       0.668  -0.215  -3.629  1.00  0.00    -0.275 OA
BRANCH  24  26
ATOM     26  C   UNL     1       0.618  -0.000  -1.305  1.00  0.00     0.097 C 
ATOM     27  C   UNL     1       1.034  -0.347   0.102  1.00  0.00     0.014 C 
ENDBRANCH  24  26
ENDBRANCH  11  24
BRANCH  12  28
ATOM     28  C   UNL     1       3.498   0.407  -4.829  1.00  0.00     0.034 C 
BRANCH  28  29
ATOM     29  C   UNL     1       4.778   1.222  -4.506  1.00  0.00    -0.015 C 
ATOM     30  C   UNL     1       6.131   0.531  -4.634  1.00  0.00     0.007 C 
ATOM     31  C   UNL     1       4.816   2.478  -5.386  1.00  0.00     0.007 C 
ENDBRANCH  28  29
ENDBRANCH  12  28
ENDBRANCH   8  10
ENDBRANCH   7   8
ENDBRANCH   6   7
ENDBRANCH   5   6
ENDBRANCH   4   5
ENDBRANCH   3   4
ENDBRANCH   2   3
ENDBRANCH   1   2
BRANCH   1  32
ATOM     32  C   UNL     1       3.860   5.017  -2.160  1.00  0.00     0.188 C 
BRANCH  32  33
ATOM     33  C   UNL     1       2.640   5.869  -1.822  1.00  0.00     0.188 C 
BRANCH  33  34
ATOM     34  O   UNL     1       1.550   5.105  -1.319  1.00  0.00    -0.376 OA
BRANCH  34  35
ATOM     35  C   UNL     1       0.344   5.282  -2.065  1.00  0.00     0.202 C 
BRANCH  35  36
ATOM     36  C   UNL     1       0.248   4.473  -3.372  1.00  0.00     0.261 C 
BRANCH  36  37
ATOM     37  O   UNL     1       1.334   4.621  -4.305  1.00  0.00    -0.460 OA
BRANCH  37  38
ATOM     38  C   UNL     1       1.413   5.775  -4.989  1.00  0.00     0.338 C 
ATOM     39  O   UNL     1       0.724   6.779  -4.831  1.00  0.00    -0.246 OA
BRANCH  38  40
ATOM     40  C   UNL     1       2.504   5.675  -5.974  1.00  0.00     0.060 A 
ATOM     41  C   UNL     1       3.720   6.327  -5.747  1.00  0.00     0.016 A 
ATOM     42  C   UNL     1       2.286   4.990  -7.172  1.00  0.00     0.016 A 
ATOM     43  C   UNL     1       4.719   6.309  -6.728  1.00  0.00     0.010 A 
ATOM     44  C   UNL     1       3.280   4.983  -8.157  1.00  0.00     0.010 A 
ATOM     45  C   UNL     1       4.493   5.667  -7.954  1.00  0.00    -0.014 A 
BRANCH  45  46
ATOM     46  C   UNL     1       5.435   5.850  -9.089  1.00  0.00     0.031 A 
ATOM     47  C   UNL     1       5.129   6.907 -10.117  1.00  0.00     0.074 A 
ATOM     48  C   UNL     1       6.543   5.098  -9.221  1.00  0.00     0.049 A 
ATOM     49  N   UNL     1       5.775   7.212 -11.215  1.00  0.00    -0.248 NA
ATOM     50  C   UNL     1       3.937   7.735  -9.869  1.00  0.00     0.031 C 
ATOM     51  C   UNL     1       6.995   4.082  -8.275  1.00  0.00     0.029 A 
ATOM     52  N   UNL     1       7.489   5.071 -10.218  1.00  0.00    -0.354 N 
ATOM     53  C   UNL     1       5.072   8.267 -11.784  1.00  0.00     0.074 A 
ATOM     54  C   UNL     1       3.933   8.527 -10.931  1.00  0.00     0.031 C 
ATOM     55  C   UNL     1       8.120   3.515  -8.745  1.00  0.00     0.029 A 
ATOM     56  C   UNL     1       8.454   4.110 -10.037  1.00  0.00     0.049 A 
ATOM     57  H   UNL     1       7.475   5.683 -10.990  1.00  0.00     0.167 HD
ATOM     58  C   UNL     1       5.351   8.965 -12.910  1.00  0.00     0.031 A 
ATOM     59  C   UNL     1       9.479   3.741 -10.831  1.00  0.00     0.031 A 
ATOM     60  C   UNL     1       6.463   8.692 -13.782  1.00  0.00     0.049 A 
ATOM     61  C   UNL     1       9.702   4.456 -12.139  1.00  0.00     0.074 A 
ATOM     62  C   UNL     1       6.824   9.344 -14.949  1.00  0.00     0.029 A 
ATOM     63  N   UNL     1       7.385   7.677 -13.589  1.00  0.00    -0.354 N 
ATOM     64  N   UNL     1       9.046   5.469 -12.652  1.00  0.00    -0.248 NA
ATOM     65  C   UNL     1      10.816   3.981 -12.974  1.00  0.00     0.031 C 
ATOM     66  C   UNL     1       7.931   8.686 -15.492  1.00  0.00     0.029 A 
ATOM     67  C   UNL     1       8.299   7.666 -14.630  1.00  0.00     0.049 A 
ATOM     68  H   UNL     1       7.391   7.056 -12.825  1.00  0.00     0.167 HD
ATOM     69  C   UNL     1       9.691   5.775 -13.845  1.00  0.00     0.074 A 
ATOM     70  C   UNL     1      10.794   4.848 -13.976  1.00  0.00     0.031 C 
ATOM     71  C   UNL     1       9.397   6.742 -14.748  1.00  0.00     0.031 A 
BRANCH  58  72
ATOM     72  C   UNL     1       4.412  10.079 -13.280  1.00  0.00    -0.014 A 
ATOM     73  C   UNL     1       4.372  11.272 -12.540  1.00  0.00     0.009 A 
ATOM     74  C   UNL     1       3.578   9.947 -14.401  1.00  0.00     0.009 A 
ATOM     75  C   UNL     1       3.491  12.296 -12.896  1.00  0.00     0.001 A 
ATOM     76  C   UNL     1       2.720  10.983 -14.772  1.00  0.00     0.001 A 
ATOM     77  C   UNL     1       2.670  12.152 -14.014  1.00  0.00     0.000 A 
ENDBRANCH  58  72
BRANCH  59  78
ATOM     78  C   UNL     1      10.378   2.624 -10.430  1.00  0.00    -0.014 A 
ATOM     79  C   UNL     1      11.723   2.866 -10.110  1.00  0.00     0.009 A 
ATOM     80  C   UNL     1       9.906   1.302 -10.411  1.00  0.00     0.009 A 
ATOM     81  C   UNL     1      12.583   1.807  -9.810  1.00  0.00     0.001 A 
ATOM     82  C   UNL     1      10.761   0.247 -10.082  1.00  0.00     0.001 A 
ATOM     83  C   UNL     1      12.101   0.499  -9.793  1.00  0.00     0.000 A 
ENDBRANCH  59  78
BRANCH  71  84
ATOM     84  C   UNL     1      10.309   6.883 -15.937  1.00  0.00    -0.014 A 
ATOM     85  C   UNL     1      10.318   5.936 -16.972  1.00  0.00     0.009 A 
ATOM     86  C   UNL     1      11.140   8.011 -16.041  1.00  0.00     0.009 A 
ATOM     87  C   UNL     1      11.164   6.099 -18.072  1.00  0.00     0.001 A 
ATOM     88  C   UNL     1      11.961   8.187 -17.156  1.00  0.00     0.001 A 
ATOM     89  C   UNL     1      11.980   7.227 -18.165  1.00  0.00     0.000 A 
ENDBRANCH  71  84
ENDBRANCH  45  46
ENDBRANCH  38  40
ENDBRANCH  37  38
ENDBRANCH  36  37
ENDBRANCH  35  36
ENDBRANCH  34  35
ENDBRANCH  33  34
ENDBRANCH  32  33
ENDBRANCH   1  32
TORSDOF 24
