REMARK SMILES CC[NH2+][C@@]1(C(=O)OCCOCCOCCOCCOC(=O)c2ccc(-c3c4nc(c(-c5ccccc5)c5ccc([nH]5)c(-c5ccccc5)c5nc(c(-c6ccccc6)c6ccc3[nH]6)C=C5)C=C4)cc2)CCC[C@H]1CCN1C(=O)CCC1=O
REMARK SMILES IDX 12 1 11 2 10 3 9 4 8 5 7 6 5 7 6 8 4 9 70 10 73 11 71 12
REMARK SMILES IDX 72 13 3 14 2 17 1 18 74 19 75 20 76 21 77 22 81 23 78 24
REMARK SMILES IDX 79 25 80 26 82 27 13 28 14 29 15 30 16 31 17 32 18 33 19 34
REMARK SMILES IDX 20 35 21 36 22 37 23 38 69 39 24 40 68 41 25 42 26 43 27 44
REMARK SMILES IDX 62 45 28 46 67 47 61 48 63 49 29 50 66 51 60 52 59 53 30 55
REMARK SMILES IDX 52 56 37 57 51 58 38 59 41 60 50 61 64 62 39 63 40 64 49 66
REMARK SMILES IDX 65 67 42 68 31 69 32 70 36 71 33 72 35 73 34 74 53 75 54 76
REMARK SMILES IDX 58 77 55 78 57 79 56 80 43 81 44 82 48 83 45 84 47 85 46 86
REMARK H PARENT 3 15 3 16 63 54 41 65
REMARK Flexibility Score: inf
ROOT
ATOM      1  C   UNL     1       3.483  -0.602   4.237  1.00  0.00     0.188 C 
ENDROOT
BRANCH   1   2
ATOM      2  C   UNL     1       3.790   0.888   4.412  1.00  0.00     0.188 C 
BRANCH   2   3
ATOM      3  O   UNL     1       4.090   1.230   5.748  1.00  0.00    -0.376 OA
BRANCH   3   4
ATOM      4  C   UNL     1       3.125   1.996   6.441  1.00  0.00     0.202 C 
BRANCH   4   5
ATOM      5  C   UNL     1       1.671   1.486   6.568  1.00  0.00     0.261 C 
BRANCH   5   6
ATOM      6  O   UNL     1       1.173   0.592   5.552  1.00  0.00    -0.459 OA
BRANCH   6   7
ATOM      7  C   UNL     1       0.482   1.162   4.533  1.00  0.00     0.368 C 
ATOM      8  O   UNL     1       0.339   2.380   4.437  1.00  0.00    -0.245 OA
BRANCH   7   9
ATOM      9  C   UNL     1      -0.135   0.128   3.482  1.00  0.00     0.197 C 
ATOM     10  C   UNL     1      -1.656   0.284   3.690  1.00  0.00     0.081 C 
ATOM     11  C   UNL     1       0.063  -1.413   3.751  1.00  0.00     0.064 C 
ATOM     12  C   UNL     1      -1.918  -0.529   4.954  1.00  0.00     0.008 C 
ATOM     13  C   UNL     1      -0.998  -1.738   4.844  1.00  0.00     0.011 C 
BRANCH   9  14
ATOM     14  N   UNL     1       0.426   0.579   2.202  1.00  0.00    -0.332 N 
ATOM     15  H   UNL     1       0.806   1.513   2.357  1.00  0.00     0.347 HD
ATOM     16  H   UNL     1       1.090  -0.156   1.959  1.00  0.00     0.347 HD
BRANCH  14  17
ATOM     17  C   UNL     1      -0.430   0.661   1.038  1.00  0.00     0.257 C 
ATOM     18  C   UNL     1       0.411   0.951  -0.204  1.00  0.00     0.071 C 
ENDBRANCH  14  17
ENDBRANCH   9  14
BRANCH  11  19
ATOM     19  C   UNL     1      -0.164  -2.440   2.590  1.00  0.00     0.033 C 
BRANCH  19  20
ATOM     20  C   UNL     1       0.738  -2.504   1.346  1.00  0.00     0.129 C 
BRANCH  20  21
ATOM     21  N   UNL     1       2.102  -2.977   1.486  1.00  0.00    -0.283 N 
ATOM     22  C   UNL     1       2.441  -4.299   1.516  1.00  0.00     0.229 C 
ATOM     23  C   UNL     1       3.183  -2.176   1.254  1.00  0.00     0.229 C 
ATOM     24  O   UNL     1       1.677  -5.250   1.590  1.00  0.00    -0.274 OA
ATOM     25  C   UNL     1       3.930  -4.432   1.376  1.00  0.00     0.110 C 
ATOM     26  C   UNL     1       4.415  -3.019   1.132  1.00  0.00     0.110 C 
ATOM     27  O   UNL     1       3.174  -0.960   1.118  1.00  0.00    -0.274 OA
ENDBRANCH  20  21
ENDBRANCH  19  20
ENDBRANCH  11  19
ENDBRANCH   7   9
ENDBRANCH   6   7
ENDBRANCH   5   6
ENDBRANCH   4   5
ENDBRANCH   3   4
ENDBRANCH   2   3
ENDBRANCH   1   2
BRANCH   1  28
ATOM     28  O   UNL     1       3.093  -1.415   5.340  1.00  0.00    -0.377 OA
BRANCH  28  29
ATOM     29  C   UNL     1       3.826  -1.370   6.559  1.00  0.00     0.188 C 
BRANCH  29  30
ATOM     30  C   UNL     1       5.347  -1.130   6.520  1.00  0.00     0.188 C 
BRANCH  30  31
ATOM     31  O   UNL     1       5.921  -1.135   5.227  1.00  0.00    -0.376 OA
BRANCH  31  32
ATOM     32  C   UNL     1       6.407  -2.364   4.710  1.00  0.00     0.202 C 
BRANCH  32  33
ATOM     33  C   UNL     1       5.497  -3.604   4.765  1.00  0.00     0.261 C 
BRANCH  33  34
ATOM     34  O   UNL     1       5.085  -4.034   6.069  1.00  0.00    -0.460 OA
BRANCH  34  35
ATOM     35  C   UNL     1       6.051  -4.320   6.962  1.00  0.00     0.338 C 
ATOM     36  O   UNL     1       7.258  -4.339   6.777  1.00  0.00    -0.246 OA
BRANCH  35  37
ATOM     37  C   UNL     1       5.404  -4.400   8.280  1.00  0.00     0.060 A 
ATOM     38  C   UNL     1       5.787  -3.487   9.269  1.00  0.00     0.016 A 
ATOM     39  C   UNL     1       4.420  -5.360   8.531  1.00  0.00     0.016 A 
ATOM     40  C   UNL     1       5.219  -3.561  10.534  1.00  0.00     0.010 A 
ATOM     41  C   UNL     1       3.871  -5.453   9.809  1.00  0.00     0.010 A 
ATOM     42  C   UNL     1       4.305  -4.581  10.823  1.00  0.00    -0.014 A 
BRANCH  42  43
ATOM     43  C   UNL     1       4.019  -4.873  12.243  1.00  0.00     0.031 A 
ATOM     44  C   UNL     1       4.833  -5.945  12.915  1.00  0.00     0.074 A 
ATOM     45  C   UNL     1       3.136  -4.139  12.938  1.00  0.00     0.049 A 
ATOM     46  N   UNL     1       4.818  -6.341  14.160  1.00  0.00    -0.248 NA
ATOM     47  C   UNL     1       5.802  -6.661  12.066  1.00  0.00     0.031 C 
ATOM     48  C   UNL     1       2.342  -3.035  12.401  1.00  0.00     0.029 A 
ATOM     49  N   UNL     1       2.776  -4.205  14.259  1.00  0.00    -0.354 N 
ATOM     50  C   UNL     1       5.769  -7.352  14.241  1.00  0.00     0.074 A 
ATOM     51  C   UNL     1       6.316  -7.534  12.916  1.00  0.00     0.031 C 
ATOM     52  C   UNL     1       1.589  -2.522  13.389  1.00  0.00     0.029 A 
ATOM     53  C   UNL     1       1.827  -3.280  14.616  1.00  0.00     0.049 A 
ATOM     54  H   UNL     1       3.161  -4.854  14.891  1.00  0.00     0.167 HD
ATOM     55  C   UNL     1       6.158  -8.059  15.327  1.00  0.00     0.031 A 
ATOM     56  C   UNL     1       1.215  -3.082  15.798  1.00  0.00     0.031 A 
ATOM     57  C   UNL     1       5.594  -7.884  16.637  1.00  0.00     0.049 A 
ATOM     58  C   UNL     1       1.604  -3.944  16.972  1.00  0.00     0.074 A 
ATOM     59  C   UNL     1       5.911  -8.548  17.808  1.00  0.00     0.029 A 
ATOM     60  N   UNL     1       4.586  -6.983  16.945  1.00  0.00    -0.354 N 
ATOM     61  N   UNL     1       2.515  -4.885  17.044  1.00  0.00    -0.248 NA
ATOM     62  C   UNL     1       0.886  -3.704  18.231  1.00  0.00     0.031 C 
ATOM     63  C   UNL     1       5.047  -8.095  18.810  1.00  0.00     0.029 A 
ATOM     64  C   UNL     1       4.246  -7.094  18.281  1.00  0.00     0.049 A 
ATOM     65  H   UNL     1       4.174  -6.356  16.307  1.00  0.00     0.167 HD
ATOM     66  C   UNL     1       2.502  -5.328  18.361  1.00  0.00     0.074 A 
ATOM     67  C   UNL     1       1.507  -4.535  19.055  1.00  0.00     0.031 C 
ATOM     68  C   UNL     1       3.246  -6.299  18.948  1.00  0.00     0.031 A 
BRANCH  55  69
ATOM     69  C   UNL     1       7.205  -9.119  15.121  1.00  0.00    -0.014 A 
ATOM     70  C   UNL     1       8.537  -8.791  14.818  1.00  0.00     0.009 A 
ATOM     71  C   UNL     1       6.853 -10.472  15.246  1.00  0.00     0.009 A 
ATOM     72  C   UNL     1       9.483  -9.797  14.606  1.00  0.00     0.001 A 
ATOM     73  C   UNL     1       7.808 -11.474  15.067  1.00  0.00     0.001 A 
ATOM     74  C   UNL     1       9.119 -11.137  14.737  1.00  0.00     0.000 A 
ENDBRANCH  55  69
BRANCH  56  75
ATOM     75  C   UNL     1       0.159  -2.043  15.931  1.00  0.00    -0.014 A 
ATOM     76  C   UNL     1       0.350  -0.915  16.743  1.00  0.00     0.009 A 
ATOM     77  C   UNL     1      -1.065  -2.191  15.258  1.00  0.00     0.009 A 
ATOM     78  C   UNL     1      -0.671   0.026  16.901  1.00  0.00     0.001 A 
ATOM     79  C   UNL     1      -2.071  -1.232  15.391  1.00  0.00     0.001 A 
ATOM     80  C   UNL     1      -1.878  -0.131  16.221  1.00  0.00     0.000 A 
ENDBRANCH  56  75
BRANCH  68  81
ATOM     81  C   UNL     1       3.037  -6.527  20.421  1.00  0.00    -0.014 A 
ATOM     82  C   UNL     1       1.848  -7.083  20.918  1.00  0.00     0.009 A 
ATOM     83  C   UNL     1       4.063  -6.201  21.322  1.00  0.00     0.009 A 
ATOM     84  C   UNL     1       1.673  -7.262  22.291  1.00  0.00     0.001 A 
ATOM     85  C   UNL     1       3.900  -6.416  22.691  1.00  0.00     0.001 A 
ATOM     86  C   UNL     1       2.700  -6.933  23.176  1.00  0.00     0.000 A 
ENDBRANCH  68  81
ENDBRANCH  42  43
ENDBRANCH  35  37
ENDBRANCH  34  35
ENDBRANCH  33  34
ENDBRANCH  32  33
ENDBRANCH  31  32
ENDBRANCH  30  31
ENDBRANCH  29  30
ENDBRANCH  28  29
ENDBRANCH   1  28
TORSDOF 25
