REMARK SMILES O=C(CCC(=O)N1CCCn2nc(-c3ccccc3)cc21)OCCOCCOCCOCCOC(=O)c1ccc(-c2c3nc(c(-c4ccccc4)c4ccc([nH]4)c(-c4ccccc4)c4nc(c(-c5ccccc5)c5ccc2[nH]5)C=C4)C=C3)cc1
REMARK SMILES IDX 27 1 26 2 25 3 24 4 23 5 22 6 2 7 1 8 3 9 4 10 5 11 6 12
REMARK SMILES IDX 7 13 8 14 21 15 9 16 11 17 20 18 10 19 12 20 13 21 14 22
REMARK SMILES IDX 15 23 19 24 16 25 18 26 17 27 28 28 29 29 30 30 31 31 32 32
REMARK SMILES IDX 33 33 34 34 35 35 36 36 37 37 38 38 84 39 39 40 83 41 40 42
REMARK SMILES IDX 41 43 42 44 77 45 43 46 82 47 76 48 78 49 44 50 81 51 75 52
REMARK SMILES IDX 74 53 45 55 67 56 52 57 66 58 53 59 56 60 65 61 79 62 54 63
REMARK SMILES IDX 55 64 64 66 80 67 57 68 46 69 47 70 51 71 48 72 50 73 49 74
REMARK SMILES IDX 68 75 69 76 73 77 70 78 72 79 71 80 58 81 59 82 63 83 60 84
REMARK SMILES IDX 62 85 61 86
REMARK H PARENT 78 54 56 65
REMARK Flexibility Score: inf
ROOT
ATOM      1  C   UNL     1       2.261  -1.416   2.233  1.00  0.00     0.188 C 
ENDROOT
BRANCH   1   2
ATOM      2  C   UNL     1       3.091  -2.413   1.402  1.00  0.00     0.188 C 
BRANCH   2   3
ATOM      3  O   UNL     1       4.487  -2.145   1.439  1.00  0.00    -0.376 OA
BRANCH   3   4
ATOM      4  C   UNL     1       5.120  -1.545   0.329  1.00  0.00     0.202 C 
BRANCH   4   5
ATOM      5  C   UNL     1       4.826  -0.058   0.177  1.00  0.00     0.261 C 
BRANCH   5   6
ATOM      6  O   UNL     1       3.427   0.256   0.017  1.00  0.00    -0.463 OA
BRANCH   6   7
ATOM      7  C   UNL     1       2.589  -0.269  -0.897  1.00  0.00     0.306 C 
ATOM      8  O   UNL     1       1.378  -0.260  -0.700  1.00  0.00    -0.252 OA
BRANCH   7   9
ATOM      9  C   UNL     1       3.151  -0.616  -2.234  1.00  0.00     0.132 C 
BRANCH   9  10
ATOM     10  C   UNL     1       3.098   0.625  -3.106  1.00  0.00     0.112 C 
BRANCH  10  11
ATOM     11  C   UNL     1       4.171   1.578  -2.665  1.00  0.00     0.228 C 
ATOM     12  O   UNL     1       5.336   1.357  -2.981  1.00  0.00    -0.274 OA
BRANCH  11  13
ATOM     13  N   UNL     1       3.872   2.665  -1.749  1.00  0.00    -0.297 N 
ATOM     14  C   UNL     1       2.524   2.974  -1.202  1.00  0.00     0.129 C 
ATOM     15  C   UNL     1       4.848   3.618  -1.455  1.00  0.00     0.134 A 
ATOM     16  C   UNL     1       2.659   3.442   0.253  1.00  0.00     0.046 C 
ATOM     17  N   UNL     1       4.692   4.601  -0.516  1.00  0.00    -0.249 N 
ATOM     18  C   UNL     1       6.021   3.905  -2.096  1.00  0.00     0.077 A 
ATOM     19  C   UNL     1       3.536   4.693   0.353  1.00  0.00     0.148 C 
ATOM     20  N   UNL     1       5.541   5.629  -0.670  1.00  0.00    -0.171 NA
ATOM     21  C   UNL     1       6.292   5.250  -1.718  1.00  0.00     0.095 A 
BRANCH  21  22
ATOM     22  C   UNL     1       7.084   6.179  -2.507  1.00  0.00     0.002 A 
ATOM     23  C   UNL     1       8.034   7.024  -1.938  1.00  0.00     0.010 A 
ATOM     24  C   UNL     1       6.843   6.234  -3.893  1.00  0.00     0.010 A 
ATOM     25  C   UNL     1       8.752   7.900  -2.757  1.00  0.00     0.001 A 
ATOM     26  C   UNL     1       7.553   7.113  -4.703  1.00  0.00     0.001 A 
ATOM     27  C   UNL     1       8.512   7.943  -4.134  1.00  0.00     0.000 A 
ENDBRANCH  21  22
ENDBRANCH  11  13
ENDBRANCH  10  11
ENDBRANCH   9  10
ENDBRANCH   7   9
ENDBRANCH   6   7
ENDBRANCH   5   6
ENDBRANCH   4   5
ENDBRANCH   3   4
ENDBRANCH   2   3
ENDBRANCH   1   2
BRANCH   1  28
ATOM     28  O   UNL     1       2.634  -1.305   3.603  1.00  0.00    -0.377 OA
BRANCH  28  29
ATOM     29  C   UNL     1       3.956  -0.840   3.834  1.00  0.00     0.188 C 
BRANCH  29  30
ATOM     30  C   UNL     1       5.024  -1.927   4.100  1.00  0.00     0.188 C 
BRANCH  30  31
ATOM     31  O   UNL     1       4.681  -3.294   4.282  1.00  0.00    -0.376 OA
BRANCH  31  32
ATOM     32  C   UNL     1       3.438  -3.654   4.861  1.00  0.00     0.202 C 
BRANCH  32  33
ATOM     33  C   UNL     1       3.136  -3.215   6.299  1.00  0.00     0.261 C 
BRANCH  33  34
ATOM     34  O   UNL     1       3.433  -1.841   6.587  1.00  0.00    -0.460 OA
BRANCH  34  35
ATOM     35  C   UNL     1       4.609  -1.637   7.214  1.00  0.00     0.338 C 
ATOM     36  O   UNL     1       5.403  -2.493   7.606  1.00  0.00    -0.246 OA
BRANCH  35  37
ATOM     37  C   UNL     1       4.945  -0.202   7.226  1.00  0.00     0.060 A 
ATOM     38  C   UNL     1       6.234   0.168   6.812  1.00  0.00     0.016 A 
ATOM     39  C   UNL     1       4.053   0.757   7.712  1.00  0.00     0.016 A 
ATOM     40  C   UNL     1       6.671   1.476   6.968  1.00  0.00     0.010 A 
ATOM     41  C   UNL     1       4.505   2.066   7.908  1.00  0.00     0.010 A 
ATOM     42  C   UNL     1       5.838   2.401   7.606  1.00  0.00    -0.014 A 
BRANCH  42  43
ATOM     43  C   UNL     1       6.492   3.541   8.287  1.00  0.00     0.031 A 
ATOM     44  C   UNL     1       6.955   3.318   9.706  1.00  0.00     0.074 A 
ATOM     45  C   UNL     1       6.758   4.694   7.654  1.00  0.00     0.049 A 
ATOM     46  N   UNL     1       7.597   4.124  10.510  1.00  0.00    -0.248 NA
ATOM     47  C   UNL     1       6.658   1.997  10.291  1.00  0.00     0.031 C 
ATOM     48  C   UNL     1       6.432   4.997   6.262  1.00  0.00     0.029 A 
ATOM     49  N   UNL     1       7.384   5.825   8.111  1.00  0.00    -0.354 N 
ATOM     50  C   UNL     1       7.769   3.412  11.692  1.00  0.00     0.074 A 
ATOM     51  C   UNL     1       7.146   2.123  11.513  1.00  0.00     0.031 C 
ATOM     52  C   UNL     1       6.865   6.239   5.977  1.00  0.00     0.029 A 
ATOM     53  C   UNL     1       7.474   6.821   7.172  1.00  0.00     0.049 A 
ATOM     54  H   UNL     1       7.736   5.913   9.026  1.00  0.00     0.167 HD
ATOM     55  C   UNL     1       8.396   3.793  12.828  1.00  0.00     0.031 A 
ATOM     56  C   UNL     1       7.987   8.062   7.276  1.00  0.00     0.031 A 
ATOM     57  C   UNL     1       9.003   5.080  13.013  1.00  0.00     0.049 A 
ATOM     58  C   UNL     1       8.607   8.494   8.580  1.00  0.00     0.074 A 
ATOM     59  C   UNL     1       9.661   5.573  14.125  1.00  0.00     0.029 A 
ATOM     60  N   UNL     1       9.019   6.082  12.056  1.00  0.00    -0.354 N 
ATOM     61  N   UNL     1       8.774   7.810   9.687  1.00  0.00    -0.248 NA
ATOM     62  C   UNL     1       9.122   9.870   8.640  1.00  0.00     0.031 C 
ATOM     63  C   UNL     1      10.028   6.896  13.859  1.00  0.00     0.029 A 
ATOM     64  C   UNL     1       9.655   7.201  12.559  1.00  0.00     0.049 A 
ATOM     65  H   UNL     1       8.634   6.007  11.153  1.00  0.00     0.167 HD
ATOM     66  C   UNL     1       9.450   8.656  10.559  1.00  0.00     0.074 A 
ATOM     67  C   UNL     1       9.666   9.900   9.849  1.00  0.00     0.031 C 
ATOM     68  C   UNL     1       9.865   8.425  11.829  1.00  0.00     0.031 A 
BRANCH  55  69
ATOM     69  C   UNL     1       8.396   2.816  13.970  1.00  0.00    -0.014 A 
ATOM     70  C   UNL     1       9.167   1.642  13.934  1.00  0.00     0.009 A 
ATOM     71  C   UNL     1       7.601   3.072  15.097  1.00  0.00     0.009 A 
ATOM     72  C   UNL     1       9.109   0.726  14.987  1.00  0.00     0.001 A 
ATOM     73  C   UNL     1       7.568   2.169  16.161  1.00  0.00     0.001 A 
ATOM     74  C   UNL     1       8.313   0.993  16.101  1.00  0.00     0.000 A 
ENDBRANCH  55  69
BRANCH  56  75
ATOM     75  C   UNL     1       7.940   8.991   6.117  1.00  0.00    -0.014 A 
ATOM     76  C   UNL     1       9.117   9.366   5.452  1.00  0.00     0.009 A 
ATOM     77  C   UNL     1       6.718   9.531   5.689  1.00  0.00     0.009 A 
ATOM     78  C   UNL     1       9.073  10.284   4.400  1.00  0.00     0.001 A 
ATOM     79  C   UNL     1       6.673  10.427   4.619  1.00  0.00     0.001 A 
ATOM     80  C   UNL     1       7.852  10.810   3.982  1.00  0.00     0.000 A 
ENDBRANCH  56  75
BRANCH  68  81
ATOM     81  C   UNL     1      10.645   9.515  12.509  1.00  0.00    -0.014 A 
ATOM     82  C   UNL     1      10.032  10.701  12.939  1.00  0.00     0.009 A 
ATOM     83  C   UNL     1      12.015   9.327  12.756  1.00  0.00     0.009 A 
ATOM     84  C   UNL     1      10.785  11.695  13.566  1.00  0.00     0.001 A 
ATOM     85  C   UNL     1      12.758  10.309  13.411  1.00  0.00     0.001 A 
ATOM     86  C   UNL     1      12.145  11.497  13.805  1.00  0.00     0.000 A 
ENDBRANCH  68  81
ENDBRANCH  42  43
ENDBRANCH  35  37
ENDBRANCH  34  35
ENDBRANCH  33  34
ENDBRANCH  32  33
ENDBRANCH  31  32
ENDBRANCH  30  31
ENDBRANCH  29  30
ENDBRANCH  28  29
ENDBRANCH   1  28
TORSDOF 24
