REMARK SMILES O=C(OCCOCCOCCOCCOC(=O)c1ccc(-c2c3nc(c(-c4ccccc4)c4ccc([nH]4)c(-c4ccccc4)c4nc(c(-c5ccccc5)c5ccc2[nH]5)C=C4)C=C3)cc1)C1=Cc2cc(Cl)cc(-c3ccc(Cl)cc3)c2O[C@@H]1C(F)(F)F
REMARK SMILES IDX 10 1 9 2 8 3 7 4 6 5 5 6 4 7 3 8 2 9 1 10 66 11 67 12 83 13
REMARK SMILES IDX 68 14 82 15 69 16 81 17 70 18 73 19 71 20 72 21 84 22 85 23
REMARK SMILES IDX 86 24 87 25 74 26 75 27 80 28 76 29 79 30 77 31 78 32 11 33
REMARK SMILES IDX 12 34 13 35 14 36 15 37 16 38 17 39 18 40 19 41 65 42 20 43
REMARK SMILES IDX 64 44 21 45 22 46 23 47 58 48 24 49 63 50 57 51 59 52 25 53
REMARK SMILES IDX 62 54 56 55 55 56 26 58 48 59 33 60 47 61 34 62 37 63 46 64
REMARK SMILES IDX 60 65 35 66 36 67 45 69 61 70 38 71 27 72 28 73 32 74 29 75
REMARK SMILES IDX 31 76 30 77 49 78 50 79 54 80 51 81 53 82 52 83 39 84 40 85
REMARK SMILES IDX 44 86 41 87 43 88 42 89
REMARK H PARENT 59 57 37 68
REMARK Flexibility Score: inf
ROOT
ATOM      1  C   UNL     1       2.677   2.738  -3.420  1.00  0.00     0.188 C 
ENDROOT
BRANCH   1   2
ATOM      2  O   UNL     1       1.510   3.304  -2.829  1.00  0.00    -0.377 OA
BRANCH   2   3
ATOM      3  C   UNL     1       0.630   2.374  -2.199  1.00  0.00     0.188 C 
BRANCH   3   4
ATOM      4  C   UNL     1       1.059   2.047  -0.774  1.00  0.00     0.188 C 
BRANCH   4   5
ATOM      5  O   UNL     1       2.316   1.407  -0.715  1.00  0.00    -0.376 OA
BRANCH   5   6
ATOM      6  C   UNL     1       2.438   0.120  -1.289  1.00  0.00     0.202 C 
BRANCH   6   7
ATOM      7  C   UNL     1       2.054  -1.080  -0.414  1.00  0.00     0.261 C 
BRANCH   7   8
ATOM      8  O   UNL     1       1.859  -0.736   0.969  1.00  0.00    -0.460 OA
BRANCH   8   9
ATOM      9  C   UNL     1       2.624  -1.420   1.863  1.00  0.00     0.338 C 
ATOM     10  O   UNL     1       2.273  -2.478   2.361  1.00  0.00    -0.246 OA
BRANCH   9  11
ATOM     11  C   UNL     1       3.884  -0.699   2.233  1.00  0.00     0.087 C 
ATOM     12  C   UNL     1       4.958  -1.482   2.451  1.00  0.00     0.027 C 
ATOM     13  C   UNL     1       4.107   0.596   1.510  1.00  0.00     0.316 C 
ATOM     14  C   UNL     1       5.991  -1.442   1.398  1.00  0.00     0.019 A 
ATOM     15  O   UNL     1       4.916   0.414   0.309  1.00  0.00    -0.475 OA
ATOM     16  C   UNL     1       7.093  -2.297   1.433  1.00  0.00     0.032 A 
ATOM     17  C   UNL     1       5.730  -0.697   0.243  1.00  0.00     0.135 A 
ATOM     18  C   UNL     1       7.869  -2.461   0.287  1.00  0.00     0.042 A 
ATOM     19  C   UNL     1       6.313  -1.104  -0.983  1.00  0.00     0.026 A 
ATOM     20  Cl  UNL     1       9.271  -3.454   0.331  1.00  0.00    -0.084 Cl
ATOM     21  C   UNL     1       7.449  -1.924  -0.927  1.00  0.00     0.033 A 
BRANCH  13  22
ATOM     22  C   UNL     1       4.457   1.732   2.480  1.00  0.00     0.430 C 
ATOM     23  F   UNL     1       4.284   2.948   1.914  1.00  0.00    -0.167 F 
ATOM     24  F   UNL     1       3.614   1.695   3.553  1.00  0.00    -0.167 F 
ATOM     25  F   UNL     1       5.712   1.664   2.963  1.00  0.00    -0.167 F 
ENDBRANCH  13  22
BRANCH  19  26
ATOM     26  C   UNL     1       5.583  -1.053  -2.271  1.00  0.00    -0.015 A 
ATOM     27  C   UNL     1       4.790  -2.168  -2.653  1.00  0.00     0.010 A 
ATOM     28  C   UNL     1       5.591   0.048  -3.120  1.00  0.00     0.010 A 
ATOM     29  C   UNL     1       3.956  -2.140  -3.778  1.00  0.00     0.021 A 
ATOM     30  C   UNL     1       4.737   0.081  -4.236  1.00  0.00     0.021 A 
ATOM     31  C   UNL     1       3.902  -0.991  -4.546  1.00  0.00     0.041 A 
ATOM     32  Cl  UNL     1       2.828  -0.887  -5.887  1.00  0.00    -0.084 Cl
ENDBRANCH  19  26
ENDBRANCH   9  11
ENDBRANCH   8   9
ENDBRANCH   7   8
ENDBRANCH   6   7
ENDBRANCH   5   6
ENDBRANCH   4   5
ENDBRANCH   3   4
ENDBRANCH   2   3
ENDBRANCH   1   2
BRANCH   1  33
ATOM     33  C   UNL     1       4.005   3.043  -2.689  1.00  0.00     0.188 C 
BRANCH  33  34
ATOM     34  O   UNL     1       4.418   4.362  -2.361  1.00  0.00    -0.376 OA
BRANCH  34  35
ATOM     35  C   UNL     1       3.493   5.412  -2.529  1.00  0.00     0.202 C 
BRANCH  35  36
ATOM     36  C   UNL     1       3.317   5.880  -3.984  1.00  0.00     0.261 C 
BRANCH  36  37
ATOM     37  O   UNL     1       3.811   4.973  -4.994  1.00  0.00    -0.460 OA
BRANCH  37  38
ATOM     38  C   UNL     1       5.158   4.890  -5.168  1.00  0.00     0.338 C 
ATOM     39  O   UNL     1       5.995   5.618  -4.684  1.00  0.00    -0.246 OA
BRANCH  38  40
ATOM     40  C   UNL     1       5.476   3.655  -5.965  1.00  0.00     0.060 A 
ATOM     41  C   UNL     1       6.668   2.958  -5.703  1.00  0.00     0.016 A 
ATOM     42  C   UNL     1       4.611   3.155  -6.943  1.00  0.00     0.016 A 
ATOM     43  C   UNL     1       7.000   1.784  -6.416  1.00  0.00     0.010 A 
ATOM     44  C   UNL     1       4.942   1.985  -7.652  1.00  0.00     0.010 A 
ATOM     45  C   UNL     1       6.147   1.288  -7.412  1.00  0.00    -0.014 A 
BRANCH  45  46
ATOM     46  C   UNL     1       6.536   0.191  -8.358  1.00  0.00     0.031 A 
ATOM     47  C   UNL     1       7.007   0.586  -9.731  1.00  0.00     0.074 A 
ATOM     48  C   UNL     1       6.417  -1.130  -8.100  1.00  0.00     0.049 A 
ATOM     49  N   UNL     1       7.241  -0.168 -10.774  1.00  0.00    -0.248 NA
ATOM     50  C   UNL     1       7.282   2.016  -9.940  1.00  0.00     0.031 C 
ATOM     51  C   UNL     1       6.150  -1.729  -6.804  1.00  0.00     0.029 A 
ATOM     52  N   UNL     1       6.448  -2.218  -8.950  1.00  0.00    -0.354 N 
ATOM     53  C   UNL     1       7.723   0.689 -11.751  1.00  0.00     0.074 A 
ATOM     54  C   UNL     1       7.685   2.027 -11.201  1.00  0.00     0.031 C 
ATOM     55  C   UNL     1       5.862  -3.035  -6.959  1.00  0.00     0.029 A 
ATOM     56  C   UNL     1       5.984  -3.381  -8.370  1.00  0.00     0.049 A 
ATOM     57  H   UNL     1       6.770  -2.168  -9.879  1.00  0.00     0.167 HD
ATOM     58  C   UNL     1       8.190   0.389 -12.984  1.00  0.00     0.031 A 
ATOM     59  C   UNL     1       5.677  -4.581  -8.907  1.00  0.00     0.031 A 
ATOM     60  C   UNL     1       8.218  -0.928 -13.557  1.00  0.00     0.049 A 
ATOM     61  C   UNL     1       5.990  -4.848 -10.357  1.00  0.00     0.074 A 
ATOM     62  C   UNL     1       8.730  -1.318 -14.782  1.00  0.00     0.029 A 
ATOM     63  N   UNL     1       7.689  -2.060 -12.964  1.00  0.00    -0.354 N 
ATOM     64  N   UNL     1       6.546  -4.053 -11.236  1.00  0.00    -0.248 NA
ATOM     65  C   UNL     1       5.692  -6.194 -10.875  1.00  0.00     0.031 C 
ATOM     66  C   UNL     1       8.436  -2.672 -14.967  1.00  0.00     0.029 A 
ATOM     67  C   UNL     1       7.802  -3.138 -13.828  1.00  0.00     0.049 A 
ATOM     68  H   UNL     1       7.291  -2.095 -12.065  1.00  0.00     0.167 HD
ATOM     69  C   UNL     1       6.734  -4.822 -12.378  1.00  0.00     0.074 A 
ATOM     70  C   UNL     1       6.220  -6.142 -12.090  1.00  0.00     0.031 C 
ATOM     71  C   UNL     1       7.308  -4.461 -13.550  1.00  0.00     0.031 A 
BRANCH  58  72
ATOM     72  C   UNL     1       8.698   1.529 -13.813  1.00  0.00    -0.014 A 
ATOM     73  C   UNL     1       9.917   2.156 -13.511  1.00  0.00     0.009 A 
ATOM     74  C   UNL     1       7.966   1.953 -14.931  1.00  0.00     0.009 A 
ATOM     75  C   UNL     1      10.379   3.210 -14.300  1.00  0.00     0.001 A 
ATOM     76  C   UNL     1       8.444   2.989 -15.733  1.00  0.00     0.001 A 
ATOM     77  C   UNL     1       9.645   3.621 -15.412  1.00  0.00     0.000 A 
ENDBRANCH  58  72
BRANCH  59  78
ATOM     78  C   UNL     1       5.013  -5.644  -8.099  1.00  0.00    -0.014 A 
ATOM     79  C   UNL     1       5.684  -6.834  -7.772  1.00  0.00     0.009 A 
ATOM     80  C   UNL     1       3.655  -5.523  -7.761  1.00  0.00     0.009 A 
ATOM     81  C   UNL     1       4.997  -7.898  -7.179  1.00  0.00     0.001 A 
ATOM     82  C   UNL     1       2.976  -6.580  -7.145  1.00  0.00     0.001 A 
ATOM     83  C   UNL     1       3.643  -7.772  -6.870  1.00  0.00     0.000 A 
ENDBRANCH  59  78
BRANCH  71  84
ATOM     84  C   UNL     1       7.474  -5.513 -14.610  1.00  0.00    -0.014 A 
ATOM     85  C   UNL     1       6.376  -6.018 -15.323  1.00  0.00     0.009 A 
ATOM     86  C   UNL     1       8.764  -5.953 -14.952  1.00  0.00     0.009 A 
ATOM     87  C   UNL     1       6.565  -6.953 -16.343  1.00  0.00     0.001 A 
ATOM     88  C   UNL     1       8.953  -6.862 -15.993  1.00  0.00     0.001 A 
ATOM     89  C   UNL     1       7.853  -7.367 -16.684  1.00  0.00     0.000 A 
ENDBRANCH  71  84
ENDBRANCH  45  46
ENDBRANCH  38  40
ENDBRANCH  37  38
ENDBRANCH  36  37
ENDBRANCH  35  36
ENDBRANCH  34  35
ENDBRANCH  33  34
ENDBRANCH   1  33
TORSDOF 22
