REMARK SMILES COc1ccc([C@H]2CC(c3ccccc3)=NN2C(=O)CCCC(=O)OCCOCCOCCOCCOC(=O)c2ccc(-c3c4nc(c(-c5ccccc5)c5ccc([nH]5)c(-c5ccccc5)c5nc(c(-c6ccccc6)c6ccc3[nH]6)C=C5)C=C4)cc2)cc1
REMARK SMILES IDX 29 1 28 2 27 3 26 4 25 5 23 6 24 7 22 8 21 9 20 10 18 11
REMARK SMILES IDX 19 12 17 13 7 14 8 15 9 16 16 17 6 18 3 19 4 20 89 21 5 22
REMARK SMILES IDX 88 23 2 24 1 25 10 26 11 27 15 28 12 29 14 30 13 31 30 32
REMARK SMILES IDX 31 33 32 34 33 35 34 36 35 37 36 38 37 39 38 40 39 41 40 42
REMARK SMILES IDX 41 43 87 44 42 45 86 46 43 47 44 48 45 49 80 50 46 51 85 52
REMARK SMILES IDX 79 53 81 54 47 55 84 56 78 57 77 58 48 60 70 61 55 62 69 63
REMARK SMILES IDX 56 64 59 65 68 66 82 67 57 68 58 69 67 71 83 72 60 73 49 74
REMARK SMILES IDX 50 75 54 76 51 77 53 78 52 79 71 80 72 81 76 82 73 83 75 84
REMARK SMILES IDX 74 85 61 86 62 87 66 88 63 89 65 90 64 91
REMARK H PARENT 81 59 59 70
REMARK Flexibility Score: inf
ROOT
ATOM      1  C   UNL     1      -2.684   4.001   3.776  1.00  0.00     0.188 C 
ENDROOT
BRANCH   1   2
ATOM      2  O   UNL     1      -3.071   4.811   4.886  1.00  0.00    -0.376 OA
BRANCH   2   3
ATOM      3  C   UNL     1      -2.356   4.628   6.103  1.00  0.00     0.202 C 
BRANCH   3   4
ATOM      4  C   UNL     1      -1.087   5.497   6.286  1.00  0.00     0.261 C 
BRANCH   4   5
ATOM      5  O   UNL     1      -0.230   5.623   5.137  1.00  0.00    -0.463 OA
BRANCH   5   6
ATOM      6  C   UNL     1       0.224   4.449   4.662  1.00  0.00     0.305 C 
ATOM      7  O   UNL     1      -0.028   3.386   5.219  1.00  0.00    -0.252 OA
BRANCH   6   8
ATOM      8  C   UNL     1       1.040   4.533   3.385  1.00  0.00     0.123 C 
BRANCH   8   9
ATOM      9  C   UNL     1       1.832   5.770   3.108  1.00  0.00     0.022 C 
BRANCH   9  10
ATOM     10  C   UNL     1       2.783   6.061   4.252  1.00  0.00     0.103 C 
BRANCH  10  11
ATOM     11  C   UNL     1       4.014   5.167   4.443  1.00  0.00     0.243 C 
ATOM     12  O   UNL     1       5.099   5.692   4.137  1.00  0.00    -0.273 OA
BRANCH  11  13
ATOM     13  N   UNL     1       3.987   3.938   5.107  1.00  0.00    -0.225 N 
ATOM     14  C   UNL     1       3.001   2.816   5.334  1.00  0.00     0.147 C 
ATOM     15  C   UNL     1       3.577   1.981   6.461  1.00  0.00     0.091 C 
ATOM     16  C   UNL     1       4.833   2.740   6.698  1.00  0.00     0.071 C 
ATOM     17  N   UNL     1       5.061   3.769   5.954  1.00  0.00    -0.174 NA
BRANCH  14  18
ATOM     18  C   UNL     1       2.679   1.897   4.139  1.00  0.00    -0.023 A 
ATOM     19  C   UNL     1       1.673   0.947   1.694  1.00  0.00     0.118 A 
ATOM     20  C   UNL     1       0.885   0.861   2.833  1.00  0.00     0.047 A 
ATOM     21  C   UNL     1       3.001   1.361   1.790  1.00  0.00     0.047 A 
ATOM     22  C   UNL     1       1.411   1.272   4.063  1.00  0.00     0.010 A 
ATOM     23  C   UNL     1       3.509   1.828   3.012  1.00  0.00     0.010 A 
BRANCH  19  24
ATOM     24  O   UNL     1       1.078   0.837   0.467  1.00  0.00    -0.497 OA
ATOM     25  C   UNL     1       1.203  -0.474  -0.069  1.00  0.00     0.278 C 
ENDBRANCH  19  24
ENDBRANCH  14  18
BRANCH  16  26
ATOM     26  C   UNL     1       5.737   2.353   7.767  1.00  0.00    -0.002 A 
ATOM     27  C   UNL     1       6.106   3.314   8.709  1.00  0.00     0.010 A 
ATOM     28  C   UNL     1       6.251   1.060   7.793  1.00  0.00     0.010 A 
ATOM     29  C   UNL     1       7.017   2.970   9.699  1.00  0.00     0.001 A 
ATOM     30  C   UNL     1       7.175   0.729   8.775  1.00  0.00     0.001 A 
ATOM     31  C   UNL     1       7.556   1.682   9.725  1.00  0.00     0.000 A 
ENDBRANCH  16  26
ENDBRANCH  11  13
ENDBRANCH  10  11
ENDBRANCH   9  10
ENDBRANCH   8   9
ENDBRANCH   6   8
ENDBRANCH   5   6
ENDBRANCH   4   5
ENDBRANCH   3   4
ENDBRANCH   2   3
ENDBRANCH   1   2
BRANCH   1  32
ATOM     32  C   UNL     1      -2.109   4.775   2.580  1.00  0.00     0.188 C 
BRANCH  32  33
ATOM     33  O   UNL     1      -1.608   6.085   2.809  1.00  0.00    -0.377 OA
BRANCH  33  34
ATOM     34  C   UNL     1      -2.483   7.023   3.442  1.00  0.00     0.188 C 
BRANCH  34  35
ATOM     35  C   UNL     1      -3.992   6.921   3.145  1.00  0.00     0.188 C 
BRANCH  35  36
ATOM     36  O   UNL     1      -4.335   6.159   2.005  1.00  0.00    -0.376 OA
BRANCH  36  37
ATOM     37  C   UNL     1      -4.302   6.784   0.730  1.00  0.00     0.202 C 
BRANCH  37  38
ATOM     38  C   UNL     1      -3.063   7.594   0.303  1.00  0.00     0.261 C 
BRANCH  38  39
ATOM     39  O   UNL     1      -2.703   8.731   1.111  1.00  0.00    -0.460 OA
BRANCH  39  40
ATOM     40  C   UNL     1      -3.655   9.620   1.452  1.00  0.00     0.338 C 
ATOM     41  O   UNL     1      -4.810   9.661   1.058  1.00  0.00    -0.246 OA
BRANCH  40  42
ATOM     42  C   UNL     1      -3.139  10.432   2.576  1.00  0.00     0.060 A 
ATOM     43  C   UNL     1      -3.834  10.416   3.795  1.00  0.00     0.016 A 
ATOM     44  C   UNL     1      -1.991  11.212   2.429  1.00  0.00     0.016 A 
ATOM     45  C   UNL     1      -3.418  11.222   4.850  1.00  0.00     0.010 A 
ATOM     46  C   UNL     1      -1.598  12.055   3.474  1.00  0.00     0.010 A 
ATOM     47  C   UNL     1      -2.345  12.100   4.665  1.00  0.00    -0.014 A 
BRANCH  47  48
ATOM     48  C   UNL     1      -2.229  13.257   5.585  1.00  0.00     0.031 A 
ATOM     49  C   UNL     1      -2.918  14.535   5.179  1.00  0.00     0.074 A 
ATOM     50  C   UNL     1      -1.629  13.159   6.783  1.00  0.00     0.049 A 
ATOM     51  N   UNL     1      -2.993  15.677   5.811  1.00  0.00    -0.248 NA
ATOM     52  C   UNL     1      -3.627  14.517   3.886  1.00  0.00     0.031 C 
ATOM     53  C   UNL     1      -1.000  11.956   7.326  1.00  0.00     0.029 A 
ATOM     54  N   UNL     1      -1.467  14.100   7.769  1.00  0.00    -0.354 N 
ATOM     55  C   UNL     1      -3.756  16.506   4.997  1.00  0.00     0.074 A 
ATOM     56  C   UNL     1      -4.088  15.755   3.809  1.00  0.00     0.031 C 
ATOM     57  C   UNL     1      -0.516  12.235   8.550  1.00  0.00     0.029 A 
ATOM     58  C   UNL     1      -0.775  13.640   8.862  1.00  0.00     0.049 A 
ATOM     59  H   UNL     1      -1.814  15.019   7.699  1.00  0.00     0.167 HD
ATOM     60  C   UNL     1      -4.158  17.778   5.221  1.00  0.00     0.031 A 
ATOM     61  C   UNL     1      -0.383  14.290   9.976  1.00  0.00     0.031 A 
ATOM     62  C   UNL     1      -3.816  18.535   6.391  1.00  0.00     0.049 A 
ATOM     63  C   UNL     1      -0.743  15.746  10.144  1.00  0.00     0.074 A 
ATOM     64  C   UNL     1      -4.156  19.839   6.704  1.00  0.00     0.029 A 
ATOM     65  N   UNL     1      -3.050  18.055   7.441  1.00  0.00    -0.354 N 
ATOM     66  N   UNL     1      -1.471  16.517   9.372  1.00  0.00    -0.248 NA
ATOM     67  C   UNL     1      -0.229  16.418  11.347  1.00  0.00     0.031 C 
ATOM     68  C   UNL     1      -3.549  20.166   7.920  1.00  0.00     0.029 A 
ATOM     69  C   UNL     1      -2.887  19.045   8.394  1.00  0.00     0.049 A 
ATOM     70  H   UNL     1      -2.677  17.145   7.500  1.00  0.00     0.167 HD
ATOM     71  C   UNL     1      -1.533  17.748  10.014  1.00  0.00     0.074 A 
ATOM     72  C   UNL     1      -0.786  17.616  11.247  1.00  0.00     0.031 C 
ATOM     73  C   UNL     1      -2.152  18.889   9.621  1.00  0.00     0.031 A 
BRANCH  60  74
ATOM     74  C   UNL     1      -4.990  18.438   4.158  1.00  0.00    -0.014 A 
ATOM     75  C   UNL     1      -6.324  18.059   3.938  1.00  0.00     0.009 A 
ATOM     76  C   UNL     1      -4.443  19.480   3.393  1.00  0.00     0.009 A 
ATOM     77  C   UNL     1      -7.085  18.695   2.955  1.00  0.00     0.001 A 
ATOM     78  C   UNL     1      -5.216  20.133   2.432  1.00  0.00     0.001 A 
ATOM     79  C   UNL     1      -6.534  19.735   2.209  1.00  0.00     0.000 A 
ENDBRANCH  60  74
BRANCH  61  80
ATOM     80  C   UNL     1       0.425  13.597  11.017  1.00  0.00    -0.014 A 
ATOM     81  C   UNL     1      -0.082  13.404  12.312  1.00  0.00     0.009 A 
ATOM     82  C   UNL     1       1.739  13.189  10.740  1.00  0.00     0.009 A 
ATOM     83  C   UNL     1       0.724  12.859  13.316  1.00  0.00     0.001 A 
ATOM     84  C   UNL     1       2.531  12.613  11.736  1.00  0.00     0.001 A 
ATOM     85  C   UNL     1       2.028  12.463  13.026  1.00  0.00     0.000 A 
ENDBRANCH  61  80
BRANCH  73  86
ATOM     86  C   UNL     1      -2.094  20.067  10.555  1.00  0.00    -0.014 A 
ATOM     87  C   UNL     1      -0.903  20.779  10.766  1.00  0.00     0.009 A 
ATOM     88  C   UNL     1      -3.266  20.498  11.198  1.00  0.00     0.009 A 
ATOM     89  C   UNL     1      -0.880  21.873  11.633  1.00  0.00     0.001 A 
ATOM     90  C   UNL     1      -3.247  21.613  12.036  1.00  0.00     0.001 A 
ATOM     91  C   UNL     1      -2.052  22.292  12.262  1.00  0.00     0.000 A 
ENDBRANCH  73  86
ENDBRANCH  47  48
ENDBRANCH  40  42
ENDBRANCH  39  40
ENDBRANCH  38  39
ENDBRANCH  37  38
ENDBRANCH  36  37
ENDBRANCH  35  36
ENDBRANCH  34  35
ENDBRANCH  33  34
ENDBRANCH  32  33
ENDBRANCH   1  32
TORSDOF 27
