REMARK SMILES O=C(OCCOCCOCCOCCOC(=O)[C@H](Cc1ccc(O)cc1)NC(=O)c1ccc(Cl)s1)c1ccc(-c2c3nc(c(-c4ccccc4)c4ccc([nH]4)c(-c4ccccc4)c4nc(c(-c5ccccc5)c5ccc2[nH]5)C=C4)C=C3)cc1
REMARK SMILES IDX 10 1 9 2 8 3 7 4 6 5 5 6 4 7 3 8 2 9 1 10 36 11 37 12 83 13
REMARK SMILES IDX 38 14 82 15 39 16 40 17 41 18 76 19 42 20 81 21 75 22 77 23
REMARK SMILES IDX 43 24 80 25 74 26 73 27 44 29 66 30 51 31 65 32 52 33 55 34
REMARK SMILES IDX 64 35 78 36 53 37 54 38 63 40 79 41 56 42 45 43 46 44 50 45
REMARK SMILES IDX 47 46 49 47 48 48 67 49 68 50 72 51 69 52 71 53 70 54 57 55
REMARK SMILES IDX 58 56 62 57 59 58 61 59 60 60 11 61 12 62 13 63 14 64 15 65
REMARK SMILES IDX 16 66 17 67 18 68 27 69 28 70 29 72 30 73 31 74 35 75 32 76
REMARK SMILES IDX 33 77 34 78 19 79 20 80 21 81 26 82 22 83 25 84 23 85 24 86
REMARK H PARENT 77 28 55 39 27 71 24 87
REMARK Flexibility Score: inf
ROOT
ATOM      1  C   UNL     1       4.279   2.706  -1.597  1.00  0.00     0.188 C 
ENDROOT
BRANCH   1   2
ATOM      2  O   UNL     1       4.784   1.377  -1.630  1.00  0.00    -0.377 OA
BRANCH   2   3
ATOM      3  C   UNL     1       3.840   0.340  -1.393  1.00  0.00     0.188 C 
BRANCH   3   4
ATOM      4  C   UNL     1       3.130   0.472  -0.049  1.00  0.00     0.188 C 
BRANCH   4   5
ATOM      5  O   UNL     1       2.138   1.503  -0.126  1.00  0.00    -0.376 OA
BRANCH   5   6
ATOM      6  C   UNL     1       2.019   2.322   1.034  1.00  0.00     0.202 C 
BRANCH   6   7
ATOM      7  C   UNL     1       1.038   1.784   2.074  1.00  0.00     0.261 C 
BRANCH   7   8
ATOM      8  O   UNL     1       1.120   0.361   2.222  1.00  0.00    -0.460 OA
BRANCH   8   9
ATOM      9  C   UNL     1       0.518  -0.610   1.493  1.00  0.00     0.338 C 
ATOM     10  O   UNL     1       0.742  -1.777   1.819  1.00  0.00    -0.246 OA
BRANCH   9  11
ATOM     11  C   UNL     1      -0.381  -0.387   0.305  1.00  0.00     0.060 A 
ATOM     12  C   UNL     1      -0.681   0.837  -0.300  1.00  0.00     0.016 A 
ATOM     13  C   UNL     1      -0.972  -1.541  -0.251  1.00  0.00     0.016 A 
ATOM     14  C   UNL     1      -1.580   0.931  -1.357  1.00  0.00     0.010 A 
ATOM     15  C   UNL     1      -1.883  -1.461  -1.310  1.00  0.00     0.010 A 
ATOM     16  C   UNL     1      -2.221  -0.210  -1.828  1.00  0.00    -0.014 A 
BRANCH  16  17
ATOM     17  C   UNL     1      -3.418  -0.014  -2.661  1.00  0.00     0.031 A 
ATOM     18  C   UNL     1      -4.739   0.064  -1.950  1.00  0.00     0.074 A 
ATOM     19  C   UNL     1      -3.303   0.263  -3.969  1.00  0.00     0.049 A 
ATOM     20  N   UNL     1      -5.933   0.264  -2.436  1.00  0.00    -0.248 NA
ATOM     21  C   UNL     1      -4.698  -0.065  -0.481  1.00  0.00     0.031 C 
ATOM     22  C   UNL     1      -2.042   0.368  -4.704  1.00  0.00     0.029 A 
ATOM     23  N   UNL     1      -4.263   0.547  -4.902  1.00  0.00    -0.354 N 
ATOM     24  C   UNL     1      -6.782   0.280  -1.336  1.00  0.00     0.074 A 
ATOM     25  C   UNL     1      -5.974   0.067  -0.159  1.00  0.00     0.031 C 
ATOM     26  C   UNL     1      -2.307   0.707  -5.977  1.00  0.00     0.029 A 
ATOM     27  C   UNL     1      -3.754   0.790  -6.154  1.00  0.00     0.049 A 
ATOM     28  H   UNL     1      -5.225   0.574  -4.696  1.00  0.00     0.167 HD
ATOM     29  C   UNL     1      -8.123   0.446  -1.315  1.00  0.00     0.031 A 
ATOM     30  C   UNL     1      -4.402   1.023  -7.311  1.00  0.00     0.031 A 
ATOM     31  C   UNL     1      -8.912   0.600  -2.502  1.00  0.00     0.049 A 
ATOM     32  C   UNL     1      -5.908   1.048  -7.284  1.00  0.00     0.074 A 
ATOM     33  C   UNL     1     -10.286   0.646  -2.636  1.00  0.00     0.029 A 
ATOM     34  N   UNL     1      -8.374   0.727  -3.775  1.00  0.00    -0.354 N 
ATOM     35  N   UNL     1      -6.717   0.971  -6.252  1.00  0.00    -0.248 NA
ATOM     36  C   UNL     1      -6.591   1.175  -8.577  1.00  0.00     0.031 C 
ATOM     37  C   UNL     1     -10.579   0.759  -4.000  1.00  0.00     0.029 A 
ATOM     38  C   UNL     1      -9.387   0.835  -4.707  1.00  0.00     0.049 A 
ATOM     39  H   UNL     1      -7.412   0.738  -3.983  1.00  0.00     0.167 HD
ATOM     40  C   UNL     1      -8.002   1.050  -6.769  1.00  0.00     0.074 A 
ATOM     41  C   UNL     1      -7.863   1.206  -8.204  1.00  0.00     0.031 C 
ATOM     42  C   UNL     1      -9.195   0.991  -6.125  1.00  0.00     0.031 A 
BRANCH  29  43
ATOM     43  C   UNL     1      -8.788   0.366   0.028  1.00  0.00    -0.014 A 
ATOM     44  C   UNL     1      -8.688   1.415   0.957  1.00  0.00     0.009 A 
ATOM     45  C   UNL     1      -9.458  -0.809   0.399  1.00  0.00     0.009 A 
ATOM     46  C   UNL     1      -9.213   1.271   2.244  1.00  0.00     0.001 A 
ATOM     47  C   UNL     1     -10.000  -0.942   1.679  1.00  0.00     0.001 A 
ATOM     48  C   UNL     1      -9.867   0.093   2.603  1.00  0.00     0.000 A 
ENDBRANCH  29  43
BRANCH  30  49
ATOM     49  C   UNL     1      -3.649   1.175  -8.585  1.00  0.00    -0.014 A 
ATOM     50  C   UNL     1      -3.670   2.380  -9.303  1.00  0.00     0.009 A 
ATOM     51  C   UNL     1      -2.921   0.093  -9.109  1.00  0.00     0.009 A 
ATOM     52  C   UNL     1      -3.000   2.490 -10.526  1.00  0.00     0.001 A 
ATOM     53  C   UNL     1      -2.228   0.214 -10.316  1.00  0.00     0.001 A 
ATOM     54  C   UNL     1      -2.277   1.409 -11.029  1.00  0.00     0.000 A 
ENDBRANCH  30  49
BRANCH  42  55
ATOM     55  C   UNL     1     -10.426   1.123  -6.971  1.00  0.00    -0.014 A 
ATOM     56  C   UNL     1     -10.872   0.059  -7.768  1.00  0.00     0.009 A 
ATOM     57  C   UNL     1     -11.174   2.308  -6.922  1.00  0.00     0.009 A 
ATOM     58  C   UNL     1     -12.037   0.191  -8.524  1.00  0.00     0.001 A 
ATOM     59  C   UNL     1     -12.351   2.427  -7.659  1.00  0.00     0.001 A 
ATOM     60  C   UNL     1     -12.777   1.372  -8.465  1.00  0.00     0.000 A 
ENDBRANCH  42  55
ENDBRANCH  16  17
ENDBRANCH   9  11
ENDBRANCH   8   9
ENDBRANCH   7   8
ENDBRANCH   6   7
ENDBRANCH   5   6
ENDBRANCH   4   5
ENDBRANCH   3   4
ENDBRANCH   2   3
ENDBRANCH   1   2
BRANCH   1  61
ATOM     61  C   UNL     1       3.079   3.035  -2.506  1.00  0.00     0.188 C 
BRANCH  61  62
ATOM     62  O   UNL     1       3.009   2.194  -3.647  1.00  0.00    -0.376 OA
BRANCH  62  63
ATOM     63  C   UNL     1       3.566   2.718  -4.845  1.00  0.00     0.202 C 
BRANCH  63  64
ATOM     64  C   UNL     1       5.078   2.982  -4.798  1.00  0.00     0.261 C 
BRANCH  64  65
ATOM     65  O   UNL     1       5.529   4.064  -3.944  1.00  0.00    -0.462 OA
BRANCH  65  66
ATOM     66  C   UNL     1       4.982   5.297  -4.082  1.00  0.00     0.329 C 
ATOM     67  O   UNL     1       4.126   5.588  -4.908  1.00  0.00    -0.250 OA
BRANCH  66  68
ATOM     68  C   UNL     1       5.537   6.282  -3.032  1.00  0.00     0.197 C 
BRANCH  68  69
ATOM     69  N   UNL     1       5.383   7.596  -3.655  1.00  0.00    -0.338 N 
ATOM     70  C   UNL     1       6.357   8.480  -4.035  1.00  0.00     0.262 C 
ATOM     71  H   UNL     1       4.457   7.883  -3.824  1.00  0.00     0.164 HD
ATOM     72  O   UNL     1       6.012   9.566  -4.500  1.00  0.00    -0.268 OA
BRANCH  70  73
ATOM     73  C   UNL     1       7.729   8.075  -3.848  1.00  0.00     0.093 A 
ATOM     74  C   UNL     1       8.406   7.008  -4.413  1.00  0.00     0.027 A 
ATOM     75  S   UNL     1       8.715   8.952  -2.759  1.00  0.00    -0.118 S 
ATOM     76  C   UNL     1       9.719   6.865  -3.874  1.00  0.00     0.033 A 
ATOM     77  C   UNL     1       9.988   7.859  -2.968  1.00  0.00     0.094 A 
ATOM     78  Cl  UNL     1      11.438   8.060  -2.073  1.00  0.00    -0.072 Cl
ENDBRANCH  70  73
ENDBRANCH  68  69
BRANCH  68  79
ATOM     79  C   UNL     1       4.814   6.162  -1.675  1.00  0.00     0.072 C 
BRANCH  79  80
ATOM     80  C   UNL     1       5.084   7.188  -0.591  1.00  0.00    -0.045 A 
ATOM     81  C   UNL     1       4.753   8.539  -0.767  1.00  0.00     0.007 A 
ATOM     82  C   UNL     1       5.554   6.780   0.671  1.00  0.00     0.007 A 
ATOM     83  C   UNL     1       4.910   9.462   0.272  1.00  0.00     0.046 A 
ATOM     84  C   UNL     1       5.695   7.699   1.716  1.00  0.00     0.046 A 
ATOM     85  C   UNL     1       5.375   9.033   1.507  1.00  0.00     0.115 A 
BRANCH  85  86
ATOM     86  O   UNL     1       5.519   9.897   2.551  1.00  0.00    -0.508 OA
ATOM     87  H   UNL     1       5.311  10.804   2.441  1.00  0.00     0.293 HD
ENDBRANCH  85  86
ENDBRANCH  79  80
ENDBRANCH  68  79
ENDBRANCH  66  68
ENDBRANCH  65  66
ENDBRANCH  64  65
ENDBRANCH  63  64
ENDBRANCH  62  63
ENDBRANCH  61  62
ENDBRANCH   1  61
TORSDOF 25
