REMARK SMILES Cc1cccc(C)c1Nc1ccccc1CC(=O)OCCOCCOCCOCCOC(=O)c1ccc(-c2c3nc(c(-c4ccccc4)c4ccc([nH]4)c(-c4ccccc4)c4nc(c(-c5ccccc5)c5ccc2[nH]5)C=C4)C=C3)cc1
REMARK SMILES IDX 24 1 23 2 22 3 21 4 20 5 19 6 17 7 18 8 16 9 15 10 10 11
REMARK SMILES IDX 11 12 12 13 14 14 13 15 9 16 8 18 1 19 2 20 3 21 4 22 6 23
REMARK SMILES IDX 5 24 7 25 25 26 26 27 27 28 28 29 29 30 30 31 31 32 32 33
REMARK SMILES IDX 33 34 34 35 35 36 81 37 36 38 80 39 37 40 38 41 39 42 74 43
REMARK SMILES IDX 40 44 79 45 73 46 75 47 41 48 78 49 72 50 71 51 42 53 64 54
REMARK SMILES IDX 49 55 63 56 50 57 53 58 62 59 76 60 51 61 52 62 61 64 77 65
REMARK SMILES IDX 54 66 43 67 44 68 48 69 45 70 47 71 46 72 65 73 66 74 70 75
REMARK SMILES IDX 67 76 69 77 68 78 55 79 56 80 60 81 57 82 59 83 58 84
REMARK H PARENT 9 17 75 52 53 63
REMARK Flexibility Score: inf
ROOT
ATOM      1  C   UNL     1      -2.678   4.690   3.651  1.00  0.00     0.188 C 
ENDROOT
BRANCH   1   2
ATOM      2  C   UNL     1      -3.193   3.591   4.606  1.00  0.00     0.188 C 
BRANCH   2   3
ATOM      3  O   UNL     1      -2.473   3.230   5.785  1.00  0.00    -0.376 OA
BRANCH   3   4
ATOM      4  C   UNL     1      -1.155   3.716   5.976  1.00  0.00     0.202 C 
BRANCH   4   5
ATOM      5  C   UNL     1      -0.073   3.210   4.997  1.00  0.00     0.261 C 
BRANCH   5   6
ATOM      6  O   UNL     1      -0.508   3.016   3.630  1.00  0.00    -0.463 OA
BRANCH   6   7
ATOM      7  C   UNL     1      -0.808   1.749   3.262  1.00  0.00     0.310 C 
ATOM      8  O   UNL     1      -0.530   0.772   3.958  1.00  0.00    -0.252 OA
BRANCH   7   9
ATOM      9  C   UNL     1      -1.662   1.576   2.015  1.00  0.00     0.160 C 
BRANCH   9  10
ATOM     10  C   UNL     1      -1.882   2.647   0.942  1.00  0.00    -0.013 A 
ATOM     11  C   UNL     1      -0.962   2.944  -0.081  1.00  0.00     0.042 A 
ATOM     12  C   UNL     1      -1.214   4.020  -0.963  1.00  0.00     0.026 A 
ATOM     13  C   UNL     1      -2.425   4.707  -0.943  1.00  0.00     0.002 A 
ATOM     14  C   UNL     1      -3.140   3.292   0.871  1.00  0.00     0.006 A 
ATOM     15  C   UNL     1      -3.409   4.308  -0.054  1.00  0.00     0.000 A 
BRANCH  11  16
ATOM     16  N   UNL     1       0.090   2.085  -0.444  1.00  0.00    -0.355 N 
ATOM     17  H   UNL     1       0.929   2.542  -0.684  1.00  0.00     0.167 HD
BRANCH  16  18
ATOM     18  C   UNL     1       0.144   0.673  -0.523  1.00  0.00     0.044 A 
ATOM     19  C   UNL     1       2.641   0.879  -0.048  1.00  0.00     0.046 C 
ATOM     20  C   UNL     1       1.389   0.061  -0.234  1.00  0.00    -0.027 A 
ATOM     21  C   UNL     1       1.460  -1.327  -0.043  1.00  0.00     0.005 A 
ATOM     22  C   UNL     1       0.320  -2.115  -0.144  1.00  0.00     0.001 A 
ATOM     23  C   UNL     1      -0.995  -0.154  -0.729  1.00  0.00    -0.027 A 
ATOM     24  C   UNL     1      -0.893  -1.536  -0.495  1.00  0.00     0.005 A 
ATOM     25  C   UNL     1      -2.365   0.344  -1.121  1.00  0.00     0.046 C 
ENDBRANCH  16  18
ENDBRANCH  11  16
ENDBRANCH   9  10
ENDBRANCH   7   9
ENDBRANCH   6   7
ENDBRANCH   5   6
ENDBRANCH   4   5
ENDBRANCH   3   4
ENDBRANCH   2   3
ENDBRANCH   1   2
BRANCH   1  26
ATOM     26  O   UNL     1      -1.823   5.636   4.260  1.00  0.00    -0.377 OA
BRANCH  26  27
ATOM     27  C   UNL     1      -2.382   6.915   4.445  1.00  0.00     0.188 C 
BRANCH  27  28
ATOM     28  C   UNL     1      -3.705   6.930   5.221  1.00  0.00     0.188 C 
BRANCH  28  29
ATOM     29  O   UNL     1      -4.703   6.112   4.621  1.00  0.00    -0.376 OA
BRANCH  29  30
ATOM     30  C   UNL     1      -5.729   6.716   3.854  1.00  0.00     0.202 C 
BRANCH  30  31
ATOM     31  C   UNL     1      -5.373   7.329   2.488  1.00  0.00     0.261 C 
BRANCH  31  32
ATOM     32  O   UNL     1      -4.232   8.194   2.429  1.00  0.00    -0.460 OA
BRANCH  32  33
ATOM     33  C   UNL     1      -4.295   9.368   3.101  1.00  0.00     0.338 C 
ATOM     34  O   UNL     1      -5.226   9.792   3.742  1.00  0.00    -0.246 OA
BRANCH  33  35
ATOM     35  C   UNL     1      -2.931   9.956   3.087  1.00  0.00     0.060 A 
ATOM     36  C   UNL     1      -2.282  10.170   4.311  1.00  0.00     0.016 A 
ATOM     37  C   UNL     1      -2.280  10.249   1.885  1.00  0.00     0.016 A 
ATOM     38  C   UNL     1      -0.987  10.689   4.338  1.00  0.00     0.010 A 
ATOM     39  C   UNL     1      -0.999  10.810   1.915  1.00  0.00     0.010 A 
ATOM     40  C   UNL     1      -0.359  11.058   3.143  1.00  0.00    -0.014 A 
BRANCH  40  41
ATOM     41  C   UNL     1       0.849  11.915   3.195  1.00  0.00     0.031 A 
ATOM     42  C   UNL     1       0.654  13.405   3.119  1.00  0.00     0.074 A 
ATOM     43  C   UNL     1       2.082  11.400   3.340  1.00  0.00     0.049 A 
ATOM     44  N   UNL     1       1.544  14.363   3.121  1.00  0.00    -0.248 NA
ATOM     45  C   UNL     1      -0.739  13.876   3.031  1.00  0.00     0.031 C 
ATOM     46  C   UNL     1       2.399   9.981   3.483  1.00  0.00     0.029 A 
ATOM     47  N   UNL     1       3.303  12.027   3.387  1.00  0.00    -0.354 N 
ATOM     48  C   UNL     1       0.821  15.546   3.028  1.00  0.00     0.074 A 
ATOM     49  C   UNL     1      -0.577  15.187   2.941  1.00  0.00     0.031 C 
ATOM     50  C   UNL     1       3.733   9.844   3.593  1.00  0.00     0.029 A 
ATOM     51  C   UNL     1       4.363  11.160   3.493  1.00  0.00     0.049 A 
ATOM     52  H   UNL     1       3.409  13.005   3.349  1.00  0.00     0.167 HD
ATOM     53  C   UNL     1       1.277  16.820   3.017  1.00  0.00     0.031 A 
ATOM     54  C   UNL     1       5.689  11.403   3.486  1.00  0.00     0.031 A 
ATOM     55  C   UNL     1       2.668  17.176   3.076  1.00  0.00     0.049 A 
ATOM     56  C   UNL     1       6.178  12.825   3.374  1.00  0.00     0.074 A 
ATOM     57  C   UNL     1       3.235  18.438   3.077  1.00  0.00     0.029 A 
ATOM     58  N   UNL     1       3.713  16.266   3.131  1.00  0.00    -0.354 N 
ATOM     59  N   UNL     1       5.485  13.938   3.312  1.00  0.00    -0.248 NA
ATOM     60  C   UNL     1       7.634  13.024   3.338  1.00  0.00     0.031 C 
ATOM     61  C   UNL     1       4.625  18.290   3.063  1.00  0.00     0.029 A 
ATOM     62  C   UNL     1       4.923  16.938   3.131  1.00  0.00     0.049 A 
ATOM     63  H   UNL     1       3.609  15.287   3.164  1.00  0.00     0.167 HD
ATOM     64  C   UNL     1       6.420  14.967   3.264  1.00  0.00     0.074 A 
ATOM     65  C   UNL     1       7.727  14.346   3.319  1.00  0.00     0.031 C 
ATOM     66  C   UNL     1       6.216  16.305   3.185  1.00  0.00     0.031 A 
BRANCH  53  67
ATOM     67  C   UNL     1       0.258  17.917   2.888  1.00  0.00    -0.014 A 
ATOM     68  C   UNL     1      -0.632  18.219   3.931  1.00  0.00     0.009 A 
ATOM     69  C   UNL     1       0.201  18.673   1.707  1.00  0.00     0.009 A 
ATOM     70  C   UNL     1      -1.581  19.232   3.780  1.00  0.00     0.001 A 
ATOM     71  C   UNL     1      -0.727  19.706   1.571  1.00  0.00     0.001 A 
ATOM     72  C   UNL     1      -1.624  19.978   2.602  1.00  0.00     0.000 A 
ENDBRANCH  53  67
BRANCH  54  73
ATOM     73  C   UNL     1       6.659  10.277   3.559  1.00  0.00    -0.014 A 
ATOM     74  C   UNL     1       7.492  10.115   4.677  1.00  0.00     0.009 A 
ATOM     75  C   UNL     1       6.782   9.375   2.489  1.00  0.00     0.009 A 
ATOM     76  C   UNL     1       8.445   9.093   4.710  1.00  0.00     0.001 A 
ATOM     77  C   UNL     1       7.713   8.335   2.538  1.00  0.00     0.001 A 
ATOM     78  C   UNL     1       8.551   8.201   3.643  1.00  0.00     0.000 A 
ENDBRANCH  54  73
BRANCH  66  79
ATOM     79  C   UNL     1       7.429  17.195   3.198  1.00  0.00    -0.014 A 
ATOM     80  C   UNL     1       8.307  17.258   2.104  1.00  0.00     0.009 A 
ATOM     81  C   UNL     1       7.668  18.023   4.307  1.00  0.00     0.009 A 
ATOM     82  C   UNL     1       9.418  18.103   2.138  1.00  0.00     0.001 A 
ATOM     83  C   UNL     1       8.759  18.892   4.324  1.00  0.00     0.001 A 
ATOM     84  C   UNL     1       9.639  18.924   3.244  1.00  0.00     0.000 A 
ENDBRANCH  66  79
ENDBRANCH  40  41
ENDBRANCH  33  35
ENDBRANCH  32  33
ENDBRANCH  31  32
ENDBRANCH  30  31
ENDBRANCH  29  30
ENDBRANCH  28  29
ENDBRANCH  27  28
ENDBRANCH  26  27
ENDBRANCH   1  26
TORSDOF 23
