REMARK SMILES Cc1cc(C(=O)N2[C@@H](C(=O)OCCOCCOCCOCCOC(=O)c3ccc(-c4c5nc(c(-c6ccccc6)c6ccc([nH]6)c(-c6ccccc6)c6nc(c(-c7ccccc7)c7ccc4[nH]7)C=C6)C=C5)cc3)C[C@H]3CCCC[C@H]32)c(C)s1
REMARK SMILES IDX 17 1 16 2 15 3 14 4 13 5 12 6 11 7 9 8 10 9 8 10 7 11 80 12
REMARK SMILES IDX 74 13 75 14 79 15 76 16 78 17 77 18 5 19 6 20 4 21 1 22 2 23
REMARK SMILES IDX 3 24 83 25 81 26 82 27 18 28 19 29 20 30 21 31 22 32 23 33
REMARK SMILES IDX 24 34 25 35 26 36 27 37 73 38 28 39 72 40 29 41 30 42 31 43
REMARK SMILES IDX 66 44 32 45 71 46 65 47 67 48 33 49 70 50 64 51 63 52 34 54
REMARK SMILES IDX 56 55 41 56 55 57 42 58 45 59 54 60 68 61 43 62 44 63 53 65
REMARK SMILES IDX 69 66 46 67 35 68 36 69 40 70 37 71 39 72 38 73 57 74 58 75
REMARK SMILES IDX 62 76 59 77 61 78 60 79 47 80 48 81 52 82 49 83 51 84 50 85
REMARK H PARENT 67 53 45 64
REMARK Flexibility Score: inf
ROOT
ATOM      1  O   UNL     1       2.643  -7.069  -2.622  1.00  0.00    -0.377 OA
ENDROOT
BRANCH   1   2
ATOM      2  C   UNL     1       1.263  -6.737  -2.667  1.00  0.00     0.188 C 
BRANCH   2   3
ATOM      3  C   UNL     1       0.518  -6.247  -3.922  1.00  0.00     0.188 C 
BRANCH   3   4
ATOM      4  O   UNL     1       1.366  -5.680  -4.896  1.00  0.00    -0.376 OA
BRANCH   4   5
ATOM      5  C   UNL     1       1.420  -4.272  -4.986  1.00  0.00     0.202 C 
BRANCH   5   6
ATOM      6  C   UNL     1       1.885  -3.454  -3.768  1.00  0.00     0.261 C 
BRANCH   6   7
ATOM      7  O   UNL     1       1.345  -3.745  -2.464  1.00  0.00    -0.462 OA
BRANCH   7   8
ATOM      8  C   UNL     1       0.023  -3.547  -2.230  1.00  0.00     0.328 C 
ATOM      9  O   UNL     1      -0.789  -3.263  -3.103  1.00  0.00    -0.250 OA
BRANCH   8  10
ATOM     10  C   UNL     1      -0.375  -3.829  -0.758  1.00  0.00     0.196 C 
ATOM     11  N   UNL     1       0.711  -3.718   0.244  1.00  0.00    -0.322 N 
ATOM     12  C   UNL     1       0.823  -4.905   1.087  1.00  0.00     0.089 C 
ATOM     13  C   UNL     1      -0.988  -5.218  -0.504  1.00  0.00     0.043 C 
ATOM     14  C   UNL     1      -0.549  -5.565   0.928  1.00  0.00     0.014 C 
ATOM     15  C   UNL     1       2.052  -5.766   0.778  1.00  0.00     0.025 C 
ATOM     16  C   UNL     1      -0.602  -7.035   1.319  1.00  0.00     0.006 C 
ATOM     17  C   UNL     1       1.919  -7.227   1.200  1.00  0.00     0.002 C 
ATOM     18  C   UNL     1       0.582  -7.857   0.836  1.00  0.00     0.000 C 
BRANCH  11  19
ATOM     19  C   UNL     1       1.359  -2.550   0.636  1.00  0.00     0.255 C 
ATOM     20  O   UNL     1       2.419  -2.572   1.257  1.00  0.00    -0.269 OA
BRANCH  19  21
ATOM     21  C   UNL     1       0.659  -1.291   0.362  1.00  0.00     0.053 A 
ATOM     22  C   UNL     1      -2.609   0.590   0.029  1.00  0.00     0.056 C 
ATOM     23  C   UNL     1      -1.197   0.131   0.122  1.00  0.00     0.003 A 
ATOM     24  C   UNL     1      -0.742  -1.072   0.601  1.00  0.00     0.029 A 
ATOM     25  S   UNL     1       0.101   1.124  -0.353  1.00  0.00    -0.145 S 
ATOM     26  C   UNL     1       1.262  -0.101  -0.016  1.00  0.00     0.014 A 
ATOM     27  C   UNL     1       2.712   0.230  -0.154  1.00  0.00     0.057 C 
ENDBRANCH  19  21
ENDBRANCH  11  19
ENDBRANCH   8  10
ENDBRANCH   7   8
ENDBRANCH   6   7
ENDBRANCH   5   6
ENDBRANCH   4   5
ENDBRANCH   3   4
ENDBRANCH   2   3
ENDBRANCH   1   2
BRANCH   1  28
ATOM     28  C   UNL     1       3.357  -7.165  -3.837  1.00  0.00     0.188 C 
BRANCH  28  29
ATOM     29  C   UNL     1       2.861  -8.250  -4.807  1.00  0.00     0.188 C 
BRANCH  29  30
ATOM     30  O   UNL     1       1.559  -8.723  -4.500  1.00  0.00    -0.376 OA
BRANCH  30  31
ATOM     31  C   UNL     1       1.410  -9.978  -3.862  1.00  0.00     0.202 C 
BRANCH  31  32
ATOM     32  C   UNL     1       2.107 -10.275  -2.521  1.00  0.00     0.261 C 
BRANCH  32  33
ATOM     33  O   UNL     1       3.455  -9.826  -2.364  1.00  0.00    -0.460 OA
BRANCH  33  34
ATOM     34  C   UNL     1       4.410 -10.493  -3.047  1.00  0.00     0.338 C 
ATOM     35  O   UNL     1       4.262 -11.428  -3.801  1.00  0.00    -0.246 OA
BRANCH  34  36
ATOM     36  C   UNL     1       5.676  -9.752  -2.854  1.00  0.00     0.060 A 
ATOM     37  C   UNL     1       6.286  -9.159  -3.967  1.00  0.00     0.016 A 
ATOM     38  C   UNL     1       6.243  -9.633  -1.583  1.00  0.00     0.016 A 
ATOM     39  C   UNL     1       7.475  -8.451  -3.814  1.00  0.00     0.010 A 
ATOM     40  C   UNL     1       7.458  -8.960  -1.438  1.00  0.00     0.010 A 
ATOM     41  C   UNL     1       8.090  -8.392  -2.558  1.00  0.00    -0.014 A 
BRANCH  41  42
ATOM     42  C   UNL     1       9.496  -7.939  -2.469  1.00  0.00     0.031 A 
ATOM     43  C   UNL     1      10.575  -8.984  -2.518  1.00  0.00     0.074 A 
ATOM     44  C   UNL     1       9.811  -6.636  -2.383  1.00  0.00     0.049 A 
ATOM     45  N   UNL     1      11.873  -8.844  -2.437  1.00  0.00    -0.248 NA
ATOM     46  C   UNL     1      10.127 -10.378  -2.681  1.00  0.00     0.031 C 
ATOM     47  C   UNL     1       8.855  -5.530  -2.382  1.00  0.00     0.029 A 
ATOM     48  N   UNL     1      11.036  -6.027  -2.276  1.00  0.00    -0.354 N 
ATOM     49  C   UNL     1      12.393 -10.128  -2.528  1.00  0.00     0.074 A 
ATOM     50  C   UNL     1      11.274 -11.037  -2.643  1.00  0.00     0.031 C 
ATOM     51  C   UNL     1       9.532  -4.374  -2.266  1.00  0.00     0.029 A 
ATOM     52  C   UNL     1      10.961  -4.663  -2.150  1.00  0.00     0.049 A 
ATOM     53  H   UNL     1      11.887  -6.522  -2.288  1.00  0.00     0.167 HD
ATOM     54  C   UNL     1      13.689 -10.517  -2.518  1.00  0.00     0.031 A 
ATOM     55  C   UNL     1      11.935  -3.757  -1.937  1.00  0.00     0.031 A 
ATOM     56  C   UNL     1      14.797  -9.613  -2.378  1.00  0.00     0.049 A 
ATOM     57  C   UNL     1      13.365  -4.224  -1.839  1.00  0.00     0.074 A 
ATOM     58  C   UNL     1      16.150  -9.903  -2.367  1.00  0.00     0.029 A 
ATOM     59  N   UNL     1      14.678  -8.242  -2.208  1.00  0.00    -0.354 N 
ATOM     60  N   UNL     1      13.852  -5.436  -1.958  1.00  0.00    -0.248 NA
ATOM     61  C   UNL     1      14.382  -3.192  -1.585  1.00  0.00     0.031 C 
ATOM     62  C   UNL     1      16.846  -8.717  -2.119  1.00  0.00     0.029 A 
ATOM     63  C   UNL     1      15.933  -7.676  -2.055  1.00  0.00     0.049 A 
ATOM     64  H   UNL     1      13.829  -7.745  -2.197  1.00  0.00     0.167 HD
ATOM     65  C   UNL     1      15.230  -5.309  -1.826  1.00  0.00     0.074 A 
ATOM     66  C   UNL     1      15.502  -3.900  -1.633  1.00  0.00     0.031 C 
ATOM     67  C   UNL     1      16.185  -6.271  -1.863  1.00  0.00     0.031 A 
BRANCH  54  68
ATOM     68  C   UNL     1      13.967 -11.992  -2.608  1.00  0.00    -0.014 A 
ATOM     69  C   UNL     1      13.728 -12.716  -3.787  1.00  0.00     0.009 A 
ATOM     70  C   UNL     1      14.495 -12.664  -1.494  1.00  0.00     0.009 A 
ATOM     71  C   UNL     1      13.976 -14.090  -3.835  1.00  0.00     0.001 A 
ATOM     72  C   UNL     1      14.773 -14.030  -1.556  1.00  0.00     0.001 A 
ATOM     73  C   UNL     1      14.504 -14.744  -2.722  1.00  0.00     0.000 A 
ENDBRANCH  54  68
BRANCH  55  74
ATOM     74  C   UNL     1      11.594  -2.318  -1.770  1.00  0.00    -0.014 A 
ATOM     75  C   UNL     1      11.995  -1.367  -2.721  1.00  0.00     0.009 A 
ATOM     76  C   UNL     1      10.883  -1.885  -0.639  1.00  0.00     0.009 A 
ATOM     77  C   UNL     1      11.716  -0.011  -2.529  1.00  0.00     0.001 A 
ATOM     78  C   UNL     1      10.576  -0.534  -0.466  1.00  0.00     0.001 A 
ATOM     79  C   UNL     1      11.002   0.403  -1.405  1.00  0.00     0.000 A 
ENDBRANCH  55  74
BRANCH  67  80
ATOM     80  C   UNL     1      17.619  -5.830  -1.737  1.00  0.00    -0.014 A 
ATOM     81  C   UNL     1      18.137  -5.347  -0.525  1.00  0.00     0.009 A 
ATOM     82  C   UNL     1      18.477  -5.947  -2.843  1.00  0.00     0.009 A 
ATOM     83  C   UNL     1      19.475  -4.956  -0.435  1.00  0.00     0.001 A 
ATOM     84  C   UNL     1      19.822  -5.590  -2.740  1.00  0.00     0.001 A 
ATOM     85  C   UNL     1      20.317  -5.084  -1.540  1.00  0.00     0.000 A 
ENDBRANCH  67  80
ENDBRANCH  41  42
ENDBRANCH  34  36
ENDBRANCH  33  34
ENDBRANCH  32  33
ENDBRANCH  31  32
ENDBRANCH  30  31
ENDBRANCH  29  30
ENDBRANCH  28  29
ENDBRANCH   1  28
TORSDOF 22
