REMARK SMILES Cc1cc(C(=O)N[C@H]2C=C[C@H](C(=O)OCCOCCOCCOCCOC(=O)c3ccc(-c4c5nc(c(-c6ccccc6)c6ccc([nH]6)c(-c6ccccc6)c6nc(c(-c7ccccc7)c7ccc4[nH]7)C=C6)C=C5)cc3)C2)ccc1F
REMARK SMILES IDX 20 1 19 2 18 3 17 4 16 5 15 6 14 7 12 8 13 9 11 10 8 11 9 12
REMARK SMILES IDX 77 13 10 14 7 15 5 16 6 17 4 19 1 20 2 21 3 22 80 23 79 24
REMARK SMILES IDX 81 25 78 26 21 27 22 28 23 29 24 30 25 31 26 32 27 33 28 34
REMARK SMILES IDX 29 35 30 36 76 37 31 38 75 39 32 40 33 41 34 42 69 43 35 44
REMARK SMILES IDX 74 45 68 46 70 47 36 48 73 49 67 50 66 51 37 53 59 54 44 55
REMARK SMILES IDX 58 56 45 57 48 58 57 59 71 60 46 61 47 62 56 64 72 65 49 66
REMARK SMILES IDX 38 67 39 68 43 69 40 70 42 71 41 72 60 73 61 74 65 75 62 76
REMARK SMILES IDX 64 77 63 78 50 79 51 80 55 81 52 82 54 83 53 84
REMARK H PARENT 7 18 70 52 48 63
REMARK Flexibility Score: inf
ROOT
ATOM      1  O   UNL     1       1.227   6.196   3.365  1.00  0.00    -0.377 OA
ENDROOT
BRANCH   1   2
ATOM      2  C   UNL     1       0.863   4.848   3.604  1.00  0.00     0.188 C 
BRANCH   2   3
ATOM      3  C   UNL     1       1.557   3.806   2.714  1.00  0.00     0.188 C 
BRANCH   3   4
ATOM      4  O   UNL     1       2.812   4.245   2.206  1.00  0.00    -0.376 OA
BRANCH   4   5
ATOM      5  C   UNL     1       2.889   4.431   0.797  1.00  0.00     0.202 C 
BRANCH   5   6
ATOM      6  C   UNL     1       2.113   5.624   0.220  1.00  0.00     0.261 C 
BRANCH   6   7
ATOM      7  O   UNL     1       0.755   5.700   0.683  1.00  0.00    -0.463 OA
BRANCH   7   8
ATOM      8  C   UNL     1      -0.222   5.148  -0.072  1.00  0.00     0.312 C 
ATOM      9  O   UNL     1      -0.045   4.631  -1.168  1.00  0.00    -0.252 OA
BRANCH   8  10
ATOM     10  C   UNL     1      -1.539   5.129   0.717  1.00  0.00     0.124 C 
ATOM     11  C   UNL     1      -2.756   3.380  -0.384  1.00  0.00     0.106 C 
ATOM     12  C   UNL     1      -3.451   4.691  -0.579  1.00  0.00    -0.006 C 
ATOM     13  C   UNL     1      -1.973   3.670   0.900  1.00  0.00     0.048 C 
ATOM     14  C   UNL     1      -2.727   5.676  -0.025  1.00  0.00    -0.014 C 
BRANCH  11  15
ATOM     15  N   UNL     1      -3.656   2.271  -0.290  1.00  0.00    -0.346 N 
ATOM     16  C   UNL     1      -3.409   0.918  -0.324  1.00  0.00     0.251 C 
ATOM     17  O   UNL     1      -4.394   0.176  -0.329  1.00  0.00    -0.269 OA
ATOM     18  H   UNL     1      -4.604   2.515  -0.185  1.00  0.00     0.164 HD
BRANCH  16  19
ATOM     19  C   UNL     1      -2.041   0.291  -0.290  1.00  0.00     0.040 A 
ATOM     20  C   UNL     1       1.697   0.995  -0.654  1.00  0.00     0.047 C 
ATOM     21  C   UNL     1       0.407   0.260  -0.450  1.00  0.00    -0.015 A 
ATOM     22  C   UNL     1      -0.828   0.914  -0.614  1.00  0.00     0.020 A 
ATOM     23  C   UNL     1       0.417  -1.061  -0.011  1.00  0.00     0.126 A 
ATOM     24  C   UNL     1      -0.769  -1.730   0.250  1.00  0.00     0.040 A 
ATOM     25  F   UNL     1       1.582  -1.699   0.165  1.00  0.00    -0.207 F 
ATOM     26  C   UNL     1      -1.987  -1.056   0.118  1.00  0.00     0.017 A 
ENDBRANCH  16  19
ENDBRANCH  11  15
ENDBRANCH   8  10
ENDBRANCH   7   8
ENDBRANCH   6   7
ENDBRANCH   5   6
ENDBRANCH   4   5
ENDBRANCH   3   4
ENDBRANCH   2   3
ENDBRANCH   1   2
BRANCH   1  27
ATOM     27  C   UNL     1       2.519   6.652   3.763  1.00  0.00     0.188 C 
BRANCH  27  28
ATOM     28  C   UNL     1       3.529   5.765   4.527  1.00  0.00     0.188 C 
BRANCH  28  29
ATOM     29  O   UNL     1       2.952   4.848   5.447  1.00  0.00    -0.376 OA
BRANCH  29  30
ATOM     30  C   UNL     1       3.064   5.185   6.825  1.00  0.00     0.202 C 
BRANCH  30  31
ATOM     31  C   UNL     1       2.084   6.276   7.270  1.00  0.00     0.261 C 
BRANCH  31  32
ATOM     32  O   UNL     1       2.337   7.574   6.707  1.00  0.00    -0.460 OA
BRANCH  32  33
ATOM     33  C   UNL     1       3.540   8.130   6.963  1.00  0.00     0.338 C 
ATOM     34  O   UNL     1       4.418   7.698   7.689  1.00  0.00    -0.246 OA
BRANCH  33  35
ATOM     35  C   UNL     1       3.708   9.286   6.062  1.00  0.00     0.060 A 
ATOM     36  C   UNL     1       4.847   9.342   5.248  1.00  0.00     0.016 A 
ATOM     37  C   UNL     1       2.756  10.307   6.027  1.00  0.00     0.016 A 
ATOM     38  C   UNL     1       5.062  10.452   4.433  1.00  0.00     0.010 A 
ATOM     39  C   UNL     1       2.980  11.425   5.223  1.00  0.00     0.010 A 
ATOM     40  C   UNL     1       4.154  11.519   4.455  1.00  0.00    -0.014 A 
BRANCH  40  41
ATOM     41  C   UNL     1       4.534  12.820   3.859  1.00  0.00     0.031 A 
ATOM     42  C   UNL     1       5.194  13.838   4.748  1.00  0.00     0.074 A 
ATOM     43  C   UNL     1       4.307  13.096   2.564  1.00  0.00     0.049 A 
ATOM     44  N   UNL     1       5.606  15.047   4.463  1.00  0.00    -0.248 NA
ATOM     45  C   UNL     1       5.420  13.437   6.147  1.00  0.00     0.031 C 
ATOM     46  C   UNL     1       3.711  12.184   1.591  1.00  0.00     0.029 A 
ATOM     47  N   UNL     1       4.555  14.241   1.849  1.00  0.00    -0.354 N 
ATOM     48  C   UNL     1       6.133  15.550   5.645  1.00  0.00     0.074 A 
ATOM     49  C   UNL     1       5.968  14.529   6.656  1.00  0.00     0.031 C 
ATOM     50  C   UNL     1       3.639  12.807   0.401  1.00  0.00     0.029 A 
ATOM     51  C   UNL     1       4.157  14.167   0.538  1.00  0.00     0.049 A 
ATOM     52  H   UNL     1       4.979  15.039   2.240  1.00  0.00     0.167 HD
ATOM     53  C   UNL     1       6.708  16.753   5.873  1.00  0.00     0.031 A 
ATOM     54  C   UNL     1       4.196  15.099  -0.433  1.00  0.00     0.031 A 
ATOM     55  C   UNL     1       6.854  17.780   4.880  1.00  0.00     0.049 A 
ATOM     56  C   UNL     1       4.757  16.464  -0.131  1.00  0.00     0.074 A 
ATOM     57  C   UNL     1       7.444  19.025   5.007  1.00  0.00     0.029 A 
ATOM     58  N   UNL     1       6.390  17.685   3.578  1.00  0.00    -0.354 N 
ATOM     59  N   UNL     1       5.294  16.913   0.978  1.00  0.00    -0.248 NA
ATOM     60  C   UNL     1       4.718  17.451  -1.222  1.00  0.00     0.031 C 
ATOM     61  C   UNL     1       7.288  19.706   3.795  1.00  0.00     0.029 A 
ATOM     62  C   UNL     1       6.648  18.863   2.899  1.00  0.00     0.049 A 
ATOM     63  H   UNL     1       5.942  16.897   3.194  1.00  0.00     0.167 HD
ATOM     64  C   UNL     1       5.684  18.220   0.709  1.00  0.00     0.074 A 
ATOM     65  C   UNL     1       5.329  18.490  -0.668  1.00  0.00     0.031 C 
ATOM     66  C   UNL     1       6.288  19.115   1.529  1.00  0.00     0.031 A 
BRANCH  53  67
ATOM     67  C   UNL     1       7.181  17.030   7.270  1.00  0.00    -0.014 A 
ATOM     68  C   UNL     1       8.326  16.404   7.790  1.00  0.00     0.009 A 
ATOM     69  C   UNL     1       6.472  17.933   8.077  1.00  0.00     0.009 A 
ATOM     70  C   UNL     1       8.729  16.651   9.103  1.00  0.00     0.001 A 
ATOM     71  C   UNL     1       6.892  18.196   9.381  1.00  0.00     0.001 A 
ATOM     72  C   UNL     1       8.014  17.548   9.896  1.00  0.00     0.000 A 
ENDBRANCH  53  67
BRANCH  54  73
ATOM     73  C   UNL     1       3.682  14.786  -1.792  1.00  0.00    -0.014 A 
ATOM     74  C   UNL     1       4.565  14.655  -2.874  1.00  0.00     0.009 A 
ATOM     75  C   UNL     1       2.304  14.649  -2.019  1.00  0.00     0.009 A 
ATOM     76  C   UNL     1       4.077  14.415  -4.160  1.00  0.00     0.001 A 
ATOM     77  C   UNL     1       1.821  14.386  -3.303  1.00  0.00     0.001 A 
ATOM     78  C   UNL     1       2.707  14.278  -4.373  1.00  0.00     0.000 A 
ENDBRANCH  54  73
BRANCH  66  79
ATOM     79  C   UNL     1       6.638  20.456   0.949  1.00  0.00    -0.014 A 
ATOM     80  C   UNL     1       5.652  21.422   0.700  1.00  0.00     0.009 A 
ATOM     81  C   UNL     1       7.982  20.773   0.695  1.00  0.00     0.009 A 
ATOM     82  C   UNL     1       6.003  22.671   0.181  1.00  0.00     0.001 A 
ATOM     83  C   UNL     1       8.333  22.030   0.202  1.00  0.00     0.001 A 
ATOM     84  C   UNL     1       7.343  22.975  -0.062  1.00  0.00     0.000 A 
ENDBRANCH  66  79
ENDBRANCH  40  41
ENDBRANCH  33  35
ENDBRANCH  32  33
ENDBRANCH  31  32
ENDBRANCH  30  31
ENDBRANCH  29  30
ENDBRANCH  28  29
ENDBRANCH  27  28
ENDBRANCH   1  27
TORSDOF 22
