REMARK SMILES COc1ccc(F)cc1[C@H](C)NC(=O)[C@H]1CC=CC[C@@H]1C(=O)OCCOCCOCCOCCOC(=O)c1ccc(-c2c3nc(c(-c4ccccc4)c4ccc([nH]4)c(-c4ccccc4)c4nc(c(-c5ccccc5)c5ccc2[nH]5)C=C4)C=C3)cc1
REMARK SMILES IDX 28 1 27 2 26 3 25 4 24 5 23 6 21 7 22 8 20 9 15 10 16 11
REMARK SMILES IDX 17 12 19 13 18 14 13 15 12 16 14 18 10 19 11 20 9 21 3 22
REMARK SMILES IDX 4 23 5 24 8 25 6 26 7 27 2 28 1 29 29 30 30 31 31 32 32 33
REMARK SMILES IDX 33 34 34 35 35 36 36 37 37 38 38 39 39 40 85 41 40 42 84 43
REMARK SMILES IDX 41 44 42 45 43 46 78 47 44 48 83 49 77 50 79 51 45 52 82 53
REMARK SMILES IDX 76 54 75 55 46 57 68 58 53 59 67 60 54 61 57 62 66 63 80 64
REMARK SMILES IDX 55 65 56 66 65 68 81 69 58 70 47 71 48 72 52 73 49 74 51 75
REMARK SMILES IDX 50 76 69 77 70 78 74 79 71 80 73 81 72 82 59 83 60 84 64 85
REMARK SMILES IDX 61 86 63 87 62 88
REMARK H PARENT 12 17 79 56 57 67
REMARK Flexibility Score: inf
ROOT
ATOM      1  C   UNL     1       0.481  -2.740   3.917  1.00  0.00     0.188 C 
ENDROOT
BRANCH   1   2
ATOM      2  C   UNL     1      -0.340  -1.439   3.832  1.00  0.00     0.188 C 
BRANCH   2   3
ATOM      3  O   UNL     1      -0.483  -0.764   5.073  1.00  0.00    -0.376 OA
BRANCH   3   4
ATOM      4  C   UNL     1      -1.713  -0.843   5.774  1.00  0.00     0.202 C 
BRANCH   4   5
ATOM      5  C   UNL     1      -2.216  -2.221   6.249  1.00  0.00     0.261 C 
BRANCH   5   6
ATOM      6  O   UNL     1      -2.196  -3.263   5.265  1.00  0.00    -0.463 OA
BRANCH   6   7
ATOM      7  C   UNL     1      -2.998  -3.043   4.198  1.00  0.00     0.310 C 
ATOM      8  O   UNL     1      -3.742  -2.075   4.115  1.00  0.00    -0.252 OA
BRANCH   7   9
ATOM      9  C   UNL     1      -2.793  -4.112   3.125  1.00  0.00     0.115 C 
ATOM     10  C   UNL     1      -2.921  -3.484   1.708  1.00  0.00     0.097 C 
ATOM     11  C   UNL     1      -4.356  -2.960   1.522  1.00  0.00     0.041 C 
ATOM     12  C   UNL     1      -5.429  -3.822   2.137  1.00  0.00    -0.030 C 
ATOM     13  C   UNL     1      -3.805  -5.223   3.411  1.00  0.00     0.043 C 
ATOM     14  C   UNL     1      -5.184  -4.852   2.960  1.00  0.00    -0.030 C 
BRANCH  10  15
ATOM     15  C   UNL     1      -2.535  -4.467   0.590  1.00  0.00     0.224 C 
ATOM     16  N   UNL     1      -2.120  -4.052  -0.640  1.00  0.00    -0.349 N 
ATOM     17  H   UNL     1      -2.143  -4.766  -1.318  1.00  0.00     0.164 HD
ATOM     18  O   UNL     1      -2.605  -5.689   0.746  1.00  0.00    -0.275 OA
BRANCH  16  19
ATOM     19  C   UNL     1      -1.646  -2.766  -1.172  1.00  0.00     0.113 C 
ATOM     20  C   UNL     1      -0.127  -2.953  -1.384  1.00  0.00     0.036 C 
BRANCH  19  21
ATOM     21  C   UNL     1      -2.418  -2.291  -2.421  1.00  0.00     0.019 A 
ATOM     22  C   UNL     1      -3.813  -2.471  -2.560  1.00  0.00     0.124 A 
ATOM     23  C   UNL     1      -4.544  -1.868  -3.596  1.00  0.00     0.050 A 
ATOM     24  C   UNL     1      -3.896  -1.104  -4.557  1.00  0.00     0.043 A 
ATOM     25  C   UNL     1      -1.794  -1.512  -3.419  1.00  0.00     0.049 A 
ATOM     26  C   UNL     1      -2.526  -0.944  -4.467  1.00  0.00     0.123 A 
ATOM     27  F   UNL     1      -1.892  -0.197  -5.380  1.00  0.00    -0.207 F 
BRANCH  22  28
ATOM     28  O   UNL     1      -4.477  -3.137  -1.579  1.00  0.00    -0.496 OA
ATOM     29  C   UNL     1      -5.396  -4.136  -2.000  1.00  0.00     0.278 C 
ENDBRANCH  22  28
ENDBRANCH  19  21
ENDBRANCH  16  19
ENDBRANCH  10  15
ENDBRANCH   7   9
ENDBRANCH   6   7
ENDBRANCH   5   6
ENDBRANCH   4   5
ENDBRANCH   3   4
ENDBRANCH   2   3
ENDBRANCH   1   2
BRANCH   1  30
ATOM     30  O   UNL     1       0.617  -3.313   5.205  1.00  0.00    -0.377 OA
BRANCH  30  31
ATOM     31  C   UNL     1       1.307  -2.589   6.223  1.00  0.00     0.188 C 
BRANCH  31  32
ATOM     32  C   UNL     1       2.027  -1.242   5.961  1.00  0.00     0.188 C 
BRANCH  32  33
ATOM     33  O   UNL     1       2.358  -0.990   4.606  1.00  0.00    -0.376 OA
BRANCH  33  34
ATOM     34  C   UNL     1       3.711  -1.119   4.213  1.00  0.00     0.202 C 
BRANCH  34  35
ATOM     35  C   UNL     1       4.329  -2.519   4.307  1.00  0.00     0.261 C 
BRANCH  35  36
ATOM     36  O   UNL     1       4.226  -3.173   5.581  1.00  0.00    -0.460 OA
BRANCH  36  37
ATOM     37  C   UNL     1       4.848  -2.600   6.633  1.00  0.00     0.338 C 
ATOM     38  O   UNL     1       5.516  -1.579   6.633  1.00  0.00    -0.246 OA
BRANCH  37  39
ATOM     39  C   UNL     1       4.422  -3.329   7.846  1.00  0.00     0.060 A 
ATOM     40  C   UNL     1       3.733  -2.648   8.862  1.00  0.00     0.016 A 
ATOM     41  C   UNL     1       4.682  -4.695   7.957  1.00  0.00     0.016 A 
ATOM     42  C   UNL     1       3.331  -3.331  10.012  1.00  0.00     0.010 A 
ATOM     43  C   UNL     1       4.307  -5.368   9.119  1.00  0.00     0.010 A 
ATOM     44  C   UNL     1       3.663  -4.682  10.165  1.00  0.00    -0.014 A 
BRANCH  44  45
ATOM     45  C   UNL     1       3.566  -5.341  11.488  1.00  0.00     0.031 A 
ATOM     46  C   UNL     1       4.819  -5.418  12.317  1.00  0.00     0.074 A 
ATOM     47  C   UNL     1       2.425  -5.904  11.922  1.00  0.00     0.049 A 
ATOM     48  N   UNL     1       5.052  -6.097  13.409  1.00  0.00    -0.248 NA
ATOM     49  C   UNL     1       5.970  -4.631  11.838  1.00  0.00     0.031 C 
ATOM     50  C   UNL     1       1.135  -5.849  11.239  1.00  0.00     0.029 A 
ATOM     51  N   UNL     1       2.185  -6.668  13.039  1.00  0.00    -0.354 N 
ATOM     52  C   UNL     1       6.382  -5.848  13.725  1.00  0.00     0.074 A 
ATOM     53  C   UNL     1       6.908  -4.962  12.712  1.00  0.00     0.031 C 
ATOM     54  C   UNL     1       0.244  -6.579  11.935  1.00  0.00     0.029 A 
ATOM     55  C   UNL     1       0.916  -7.192  13.080  1.00  0.00     0.049 A 
ATOM     56  H   UNL     1       2.857  -6.824  13.741  1.00  0.00     0.167 HD
ATOM     57  C   UNL     1       7.103  -6.327  14.764  1.00  0.00     0.031 A 
ATOM     58  C   UNL     1       0.378  -8.102  13.918  1.00  0.00     0.031 A 
ATOM     59  C   UNL     1       6.575  -7.210  15.766  1.00  0.00     0.049 A 
ATOM     60  C   UNL     1       1.226  -8.679  15.026  1.00  0.00     0.074 A 
ATOM     61  C   UNL     1       7.217  -7.726  16.878  1.00  0.00     0.029 A 
ATOM     62  N   UNL     1       5.286  -7.715  15.771  1.00  0.00    -0.354 N 
ATOM     63  N   UNL     1       2.473  -8.415  15.337  1.00  0.00    -0.248 NA
ATOM     64  C   UNL     1       0.593  -9.679  15.900  1.00  0.00     0.031 C 
ATOM     65  C   UNL     1       6.337  -8.600  17.518  1.00  0.00     0.029 A 
ATOM     66  C   UNL     1       5.122  -8.563  16.850  1.00  0.00     0.049 A 
ATOM     67  H   UNL     1       4.591  -7.502  15.107  1.00  0.00     0.167 HD
ATOM     68  C   UNL     1       2.755  -9.180  16.463  1.00  0.00     0.074 A 
ATOM     69  C   UNL     1       1.552  -9.916  16.784  1.00  0.00     0.031 C 
ATOM     70  C   UNL     1       3.907  -9.263  17.172  1.00  0.00     0.031 A 
BRANCH  57  71
ATOM     71  C   UNL     1       8.553  -5.948  14.850  1.00  0.00    -0.014 A 
ATOM     72  C   UNL     1       8.955  -4.652  15.202  1.00  0.00     0.009 A 
ATOM     73  C   UNL     1       9.533  -6.933  14.644  1.00  0.00     0.009 A 
ATOM     74  C   UNL     1      10.312  -4.346  15.330  1.00  0.00     0.001 A 
ATOM     75  C   UNL     1      10.886  -6.632  14.802  1.00  0.00     0.001 A 
ATOM     76  C   UNL     1      11.274  -5.338  15.140  1.00  0.00     0.000 A 
ENDBRANCH  57  71
BRANCH  58  77
ATOM     77  C   UNL     1      -1.019  -8.579  13.720  1.00  0.00    -0.014 A 
ATOM     78  C   UNL     1      -2.012  -8.321  14.677  1.00  0.00     0.009 A 
ATOM     79  C   UNL     1      -1.353  -9.348  12.593  1.00  0.00     0.009 A 
ATOM     80  C   UNL     1      -3.295  -8.856  14.531  1.00  0.00     0.001 A 
ATOM     81  C   UNL     1      -2.647  -9.851  12.431  1.00  0.00     0.001 A 
ATOM     82  C   UNL     1      -3.612  -9.617  13.408  1.00  0.00     0.000 A 
ENDBRANCH  58  77
BRANCH  70  83
ATOM     83  C   UNL     1       3.916 -10.113  18.412  1.00  0.00    -0.014 A 
ATOM     84  C   UNL     1       3.928 -11.513  18.346  1.00  0.00     0.009 A 
ATOM     85  C   UNL     1       4.022  -9.489  19.667  1.00  0.00     0.009 A 
ATOM     86  C   UNL     1       4.028 -12.271  19.515  1.00  0.00     0.001 A 
ATOM     87  C   UNL     1       4.154 -10.248  20.829  1.00  0.00     0.001 A 
ATOM     88  C   UNL     1       4.152 -11.639  20.753  1.00  0.00     0.000 A 
ENDBRANCH  70  83
ENDBRANCH  44  45
ENDBRANCH  37  39
ENDBRANCH  36  37
ENDBRANCH  35  36
ENDBRANCH  34  35
ENDBRANCH  33  34
ENDBRANCH  32  33
ENDBRANCH  31  32
ENDBRANCH  30  31
ENDBRANCH   1  30
TORSDOF 24
