REMARK SMILES C[C@H]1[C@H](C(=O)OCCOCCOCCOCCOC(=O)c2ccc(-c3c4nc(c(-c5ccccc5)c5ccc([nH]5)c(-c5ccccc5)c5nc(c(-c6ccccc6)c6ccc3[nH]6)C=C5)C=C4)cc2)CC[N@@H+]1Cc1ccc(Br)cc1F
REMARK SMILES IDX 12 1 11 2 10 3 9 4 8 5 7 6 6 7 4 8 5 9 3 10 1 11 2 12 71 13
REMARK SMILES IDX 69 14 70 15 72 17 73 18 74 19 79 20 75 21 78 22 80 23 76 24
REMARK SMILES IDX 77 25 13 26 14 27 15 28 16 29 17 30 18 31 19 32 20 33 21 34
REMARK SMILES IDX 22 35 68 36 23 37 67 38 24 39 25 40 26 41 61 42 27 43 66 44
REMARK SMILES IDX 60 45 62 46 28 47 65 48 59 49 58 50 29 52 51 53 36 54 50 55
REMARK SMILES IDX 37 56 40 57 49 58 63 59 38 60 39 61 48 63 64 64 41 65 30 66
REMARK SMILES IDX 31 67 35 68 32 69 34 70 33 71 52 72 53 73 57 74 54 75 56 76
REMARK SMILES IDX 55 77 42 78 43 79 47 80 44 81 46 82 45 83
REMARK H PARENT 71 16 62 51 40 62
REMARK Flexibility Score: inf
ROOT
ATOM      1  O   UNL     1       2.833   1.698   3.014  1.00  0.00    -0.377 OA
ENDROOT
BRANCH   1   2
ATOM      2  C   UNL     1       1.938   2.087   2.005  1.00  0.00     0.188 C 
BRANCH   2   3
ATOM      3  C   UNL     1       1.775   3.546   1.572  1.00  0.00     0.188 C 
BRANCH   3   4
ATOM      4  O   UNL     1       1.178   4.484   2.446  1.00  0.00    -0.376 OA
BRANCH   4   5
ATOM      5  C   UNL     1      -0.033   4.264   3.142  1.00  0.00     0.202 C 
BRANCH   5   6
ATOM      6  C   UNL     1      -1.208   3.405   2.640  1.00  0.00     0.261 C 
BRANCH   6   7
ATOM      7  O   UNL     1      -0.902   2.247   1.847  1.00  0.00    -0.463 OA
BRANCH   7   8
ATOM      8  C   UNL     1      -1.128   2.354   0.518  1.00  0.00     0.315 C 
ATOM      9  O   UNL     1      -1.623   3.351  -0.001  1.00  0.00    -0.252 OA
BRANCH   8  10
ATOM     10  C   UNL     1      -0.735   1.143  -0.323  1.00  0.00     0.162 C 
ATOM     11  C   UNL     1       1.397  -0.163  -0.728  1.00  0.00     0.076 C 
ATOM     12  C   UNL     1       0.177   0.018   0.200  1.00  0.00     0.195 C 
ATOM     13  N   UNL     1      -0.578  -1.234   0.131  1.00  0.00    -0.328 N 
ATOM     14  C   UNL     1      -2.005   0.441  -0.781  1.00  0.00     0.083 C 
ATOM     15  C   UNL     1      -1.673  -1.038  -0.805  1.00  0.00     0.263 C 
ATOM     16  H   UNL     1       0.028  -1.968  -0.237  1.00  0.00     0.348 HD
BRANCH  13  17
ATOM     17  C   UNL     1      -0.893  -1.885   1.407  1.00  0.00     0.302 C 
BRANCH  17  18
ATOM     18  C   UNL     1      -1.518  -1.057   2.507  1.00  0.00     0.042 A 
ATOM     19  C   UNL     1      -0.774  -0.696   3.646  1.00  0.00     0.014 A 
ATOM     20  C   UNL     1      -2.858  -0.667   2.451  1.00  0.00     0.133 A 
ATOM     21  C   UNL     1      -1.356   0.054   4.673  1.00  0.00     0.016 A 
ATOM     22  C   UNL     1      -3.440   0.107   3.451  1.00  0.00     0.055 A 
ATOM     23  F   UNL     1      -3.626  -1.045   1.420  1.00  0.00    -0.206 F 
ATOM     24  C   UNL     1      -2.685   0.461   4.563  1.00  0.00     0.020 A 
ATOM     25  Br  UNL     1      -3.463   1.509   5.930  1.00  0.00    -0.051 Br
ENDBRANCH  17  18
ENDBRANCH  13  17
ENDBRANCH   8  10
ENDBRANCH   7   8
ENDBRANCH   6   7
ENDBRANCH   5   6
ENDBRANCH   4   5
ENDBRANCH   3   4
ENDBRANCH   2   3
ENDBRANCH   1   2
BRANCH   1  26
ATOM     26  C   UNL     1       2.594   2.304   4.262  1.00  0.00     0.188 C 
BRANCH  26  27
ATOM     27  C   UNL     1       3.553   3.467   4.476  1.00  0.00     0.188 C 
BRANCH  27  28
ATOM     28  O   UNL     1       4.374   3.825   3.383  1.00  0.00    -0.376 OA
BRANCH  28  29
ATOM     29  C   UNL     1       5.275   2.927   2.749  1.00  0.00     0.202 C 
BRANCH  29  30
ATOM     30  C   UNL     1       5.618   1.463   3.133  1.00  0.00     0.261 C 
BRANCH  30  31
ATOM     31  O   UNL     1       5.059   0.876   4.307  1.00  0.00    -0.460 OA
BRANCH  31  32
ATOM     32  C   UNL     1       5.618   1.212   5.481  1.00  0.00     0.338 C 
ATOM     33  O   UNL     1       6.554   1.971   5.667  1.00  0.00    -0.246 OA
BRANCH  32  34
ATOM     34  C   UNL     1       4.771   0.644   6.549  1.00  0.00     0.060 A 
ATOM     35  C   UNL     1       4.200   1.525   7.475  1.00  0.00     0.016 A 
ATOM     36  C   UNL     1       4.535  -0.732   6.639  1.00  0.00     0.016 A 
ATOM     37  C   UNL     1       3.441   1.032   8.529  1.00  0.00     0.010 A 
ATOM     38  C   UNL     1       3.801  -1.231   7.720  1.00  0.00     0.010 A 
ATOM     39  C   UNL     1       3.299  -0.350   8.694  1.00  0.00    -0.014 A 
BRANCH  39  40
ATOM     40  C   UNL     1       2.878  -0.846  10.024  1.00  0.00     0.031 A 
ATOM     41  C   UNL     1       3.957  -1.214  11.009  1.00  0.00     0.074 A 
ATOM     42  C   UNL     1       1.585  -0.868  10.389  1.00  0.00     0.049 A 
ATOM     43  N   UNL     1       3.850  -1.600  12.254  1.00  0.00    -0.248 NA
ATOM     44  C   UNL     1       5.345  -1.126  10.523  1.00  0.00     0.031 C 
ATOM     45  C   UNL     1       0.458  -0.475   9.547  1.00  0.00     0.029 A 
ATOM     46  N   UNL     1       1.011  -1.225  11.582  1.00  0.00    -0.354 N 
ATOM     47  C   UNL     1       5.152  -1.802  12.695  1.00  0.00     0.074 A 
ATOM     48  C   UNL     1       6.029  -1.536  11.578  1.00  0.00     0.031 C 
ATOM     49  C   UNL     1      -0.679  -0.610  10.254  1.00  0.00     0.029 A 
ATOM     50  C   UNL     1      -0.358  -1.121  11.586  1.00  0.00     0.049 A 
ATOM     51  H   UNL     1       1.530  -1.527  12.362  1.00  0.00     0.167 HD
ATOM     52  C   UNL     1       5.584  -2.166  13.925  1.00  0.00     0.031 A 
ATOM     53  C   UNL     1      -1.246  -1.415  12.554  1.00  0.00     0.031 A 
ATOM     54  C   UNL     1       4.711  -2.449  15.031  1.00  0.00     0.049 A 
ATOM     55  C   UNL     1      -0.745  -1.904  13.889  1.00  0.00     0.074 A 
ATOM     56  C   UNL     1       5.046  -2.825  16.320  1.00  0.00     0.029 A 
ATOM     57  N   UNL     1       3.327  -2.394  14.975  1.00  0.00    -0.354 N 
ATOM     58  N   UNL     1       0.489  -2.070  14.303  1.00  0.00    -0.248 NA
ATOM     59  C   UNL     1      -1.765  -2.228  14.897  1.00  0.00     0.031 C 
ATOM     60  C   UNL     1       3.861  -3.063  17.025  1.00  0.00     0.029 A 
ATOM     61  C   UNL     1       2.791  -2.759  16.198  1.00  0.00     0.049 A 
ATOM     62  H   UNL     1       2.803  -2.135  14.183  1.00  0.00     0.167 HD
ATOM     63  C   UNL     1       0.394  -2.484  15.628  1.00  0.00     0.074 A 
ATOM     64  C   UNL     1      -1.018  -2.524  15.951  1.00  0.00     0.031 C 
ATOM     65  C   UNL     1       1.383  -2.798  16.501  1.00  0.00     0.031 A 
BRANCH  52  66
ATOM     66  C   UNL     1       7.067  -2.322  14.117  1.00  0.00    -0.014 A 
ATOM     67  C   UNL     1       7.931  -1.214  14.109  1.00  0.00     0.009 A 
ATOM     68  C   UNL     1       7.608  -3.600  14.323  1.00  0.00     0.009 A 
ATOM     69  C   UNL     1       9.307  -1.388  14.266  1.00  0.00     0.001 A 
ATOM     70  C   UNL     1       8.981  -3.768  14.513  1.00  0.00     0.001 A 
ATOM     71  C   UNL     1       9.830  -2.664  14.473  1.00  0.00     0.000 A 
ENDBRANCH  52  66
BRANCH  53  72
ATOM     72  C   UNL     1      -2.705  -1.272  12.301  1.00  0.00    -0.014 A 
ATOM     73  C   UNL     1      -3.465  -0.311  12.984  1.00  0.00     0.009 A 
ATOM     74  C   UNL     1      -3.352  -2.126  11.393  1.00  0.00     0.009 A 
ATOM     75  C   UNL     1      -4.846  -0.230  12.788  1.00  0.00     0.001 A 
ATOM     76  C   UNL     1      -4.727  -2.021  11.174  1.00  0.00     0.001 A 
ATOM     77  C   UNL     1      -5.475  -1.081  11.881  1.00  0.00     0.000 A 
ENDBRANCH  53  72
BRANCH  65  78
ATOM     78  C   UNL     1       0.974  -3.167  17.902  1.00  0.00    -0.014 A 
ATOM     79  C   UNL     1       0.295  -4.363  18.182  1.00  0.00     0.009 A 
ATOM     80  C   UNL     1       1.298  -2.307  18.965  1.00  0.00     0.009 A 
ATOM     81  C   UNL     1      -0.095  -4.665  19.489  1.00  0.00     0.001 A 
ATOM     82  C   UNL     1       0.940  -2.630  20.274  1.00  0.00     0.001 A 
ATOM     83  C   UNL     1       0.231  -3.801  20.533  1.00  0.00     0.000 A 
ENDBRANCH  65  78
ENDBRANCH  39  40
ENDBRANCH  32  34
ENDBRANCH  31  32
ENDBRANCH  30  31
ENDBRANCH  29  30
ENDBRANCH  28  29
ENDBRANCH  27  28
ENDBRANCH  26  27
ENDBRANCH   1  26
TORSDOF 22
