REMARK SMILES Cc1cccc(NC(=O)c2c(NC(=O)C[C@@H](C)CC(=O)OCCOCCOCCOCCOC(=O)c3ccc(-c4c5nc(c(-c6ccccc6)c6ccc([nH]6)c(-c6ccccc6)c6nc(c(-c7ccccc7)c7ccc4[nH]7)C=C6)C=C5)cc3)sc3c2CCCCC3)c1
REMARK SMILES IDX 25 1 24 2 23 3 22 4 21 5 19 6 20 7 18 8 16 9 17 10 15 11
REMARK SMILES IDX 13 12 12 13 14 15 11 16 10 17 86 18 84 19 85 20 8 21 7 22
REMARK SMILES IDX 9 24 6 25 1 26 2 27 3 28 92 29 4 30 5 31 87 32 88 33 91 35
REMARK SMILES IDX 90 36 89 37 26 39 27 40 28 41 29 42 30 43 31 44 32 45 33 46
REMARK SMILES IDX 34 47 35 48 36 49 37 50 83 51 38 52 82 53 39 54 40 55 41 56
REMARK SMILES IDX 76 57 42 58 81 59 75 60 77 61 43 62 80 63 74 64 73 65 44 67
REMARK SMILES IDX 66 68 51 69 65 70 52 71 55 72 64 73 78 74 53 75 54 76 63 78
REMARK SMILES IDX 79 79 56 80 45 81 46 82 50 83 47 84 49 85 48 86 67 87 68 88
REMARK SMILES IDX 72 89 69 90 71 91 70 92 57 93 58 94 62 95 59 96 61 97 60 98
REMARK H PARENT 12 14 7 23 77 66 55 77
REMARK Flexibility Score: 90.00
ROOT
ATOM      1  C   UNL     1      -5.437  -2.540  -5.425  1.00  0.00     0.188 C 
ENDROOT
BRANCH   1   2
ATOM      2  O   UNL     1      -6.532  -3.126  -6.110  1.00  0.00    -0.376 OA
BRANCH   2   3
ATOM      3  C   UNL     1      -7.715  -3.267  -5.330  1.00  0.00     0.202 C 
BRANCH   3   4
ATOM      4  C   UNL     1      -7.662  -4.260  -4.171  1.00  0.00     0.261 C 
BRANCH   4   5
ATOM      5  O   UNL     1      -7.502  -3.523  -2.953  1.00  0.00    -0.463 OA
BRANCH   5   6
ATOM      6  C   UNL     1      -6.458  -3.845  -2.153  1.00  0.00     0.306 C 
ATOM      7  O   UNL     1      -5.751  -4.817  -2.247  1.00  0.00    -0.252 OA
BRANCH   6   8
ATOM      8  C   UNL     1      -6.247  -2.708  -1.174  1.00  0.00     0.126 C 
BRANCH   8   9
ATOM      9  C   UNL     1      -5.913  -1.408  -1.944  1.00  0.00     0.006 C 
ATOM     10  C   UNL     1      -4.427  -1.131  -1.842  1.00  0.00     0.009 C 
BRANCH   9  11
ATOM     11  C   UNL     1      -6.906  -0.242  -1.720  1.00  0.00     0.104 C 
BRANCH  11  12
ATOM     12  C   UNL     1      -6.440   1.217  -1.880  1.00  0.00     0.225 C 
ATOM     13  N   UNL     1      -5.609   1.834  -0.982  1.00  0.00    -0.317 N 
ATOM     14  H   UNL     1      -5.339   2.755  -1.198  1.00  0.00     0.170 HD
ATOM     15  O   UNL     1      -6.788   1.887  -2.860  1.00  0.00    -0.275 OA
BRANCH  13  16
ATOM     16  C   UNL     1      -5.111   1.311   0.184  1.00  0.00     0.108 A 
ATOM     17  C   UNL     1      -3.867   1.492   0.775  1.00  0.00     0.078 A 
ATOM     18  C   UNL     1      -3.686   0.457   1.800  1.00  0.00    -0.019 A 
ATOM     19  S   UNL     1      -6.132   0.395   1.176  1.00  0.00    -0.122 S 
ATOM     20  C   UNL     1      -4.777  -0.410   1.791  1.00  0.00     0.011 A 
BRANCH  17  21
ATOM     21  C   UNL     1      -2.955   2.544   0.302  1.00  0.00     0.258 C 
ATOM     22  N   UNL     1      -1.602   2.341   0.121  1.00  0.00    -0.322 N 
ATOM     23  H   UNL     1      -1.067   3.166   0.167  1.00  0.00     0.170 HD
ATOM     24  O   UNL     1      -3.389   3.675   0.070  1.00  0.00    -0.269 OA
BRANCH  22  25
ATOM     25  C   UNL     1      -0.844   1.184  -0.116  1.00  0.00     0.041 A 
ATOM     26  C   UNL     1       2.815   0.138   0.103  1.00  0.00     0.044 C 
ATOM     27  C   UNL     1       1.333   0.095  -0.115  1.00  0.00    -0.049 A 
ATOM     28  C   UNL     1       0.722  -1.123  -0.439  1.00  0.00     0.003 A 
ATOM     29  C   UNL     1       0.543   1.247   0.040  1.00  0.00     0.029 A 
ATOM     30  C   UNL     1      -0.645  -1.173  -0.670  1.00  0.00     0.002 A 
ATOM     31  C   UNL     1      -1.407  -0.015  -0.532  1.00  0.00     0.026 A 
ENDBRANCH  22  25
ENDBRANCH  17  21
BRANCH  18  32
ATOM     32  C   UNL     1      -2.476   0.249   2.673  1.00  0.00     0.037 C 
BRANCH  32  33
ATOM     33  C   UNL     1      -2.761  -0.630   3.897  1.00  0.00     0.005 CG0
ATOM     34  G   UNL     1      -2.813  -2.136   3.592  1.00  0.00     0.000 G0
ENDBRANCH  32  33
ENDBRANCH  18  32
BRANCH  20  35
ATOM     35  C   UNL     1      -4.936  -1.817   2.269  1.00  0.00     0.047 C 
BRANCH  35  36
ATOM     36  C   UNL     1      -3.595  -2.535   2.343  1.00  0.00     0.006 C 
BRANCH  36  37
ATOM     37  C   UNL     1      -2.813  -2.136   3.592  1.00  0.00     0.001 CG0
ATOM     38  G   UNL     1      -2.761  -0.630   3.897  1.00  0.00     0.000 G0
ENDBRANCH  36  37
ENDBRANCH  35  36
ENDBRANCH  20  35
ENDBRANCH  13  16
ENDBRANCH  11  12
ENDBRANCH   9  11
ENDBRANCH   8   9
ENDBRANCH   6   8
ENDBRANCH   5   6
ENDBRANCH   4   5
ENDBRANCH   3   4
ENDBRANCH   2   3
ENDBRANCH   1   2
BRANCH   1  39
ATOM     39  C   UNL     1      -5.380  -1.005  -5.343  1.00  0.00     0.188 C 
BRANCH  39  40
ATOM     40  O   UNL     1      -6.499  -0.336  -4.790  1.00  0.00    -0.377 OA
BRANCH  40  41
ATOM     41  C   UNL     1      -7.412   0.327  -5.655  1.00  0.00     0.188 C 
BRANCH  41  42
ATOM     42  C   UNL     1      -6.863   0.914  -6.933  1.00  0.00     0.188 C 
BRANCH  42  43
ATOM     43  O   UNL     1      -6.678  -0.187  -7.822  1.00  0.00    -0.376 OA
BRANCH  43  44
ATOM     44  C   UNL     1      -5.792   0.051  -8.903  1.00  0.00     0.202 C 
BRANCH  44  45
ATOM     45  C   UNL     1      -6.292   1.166  -9.820  1.00  0.00     0.261 C 
BRANCH  45  46
ATOM     46  O   UNL     1      -7.506   0.717 -10.460  1.00  0.00    -0.460 OA
BRANCH  46  47
ATOM     47  C   UNL     1      -8.646   1.326 -10.033  1.00  0.00     0.338 C 
ATOM     48  O   UNL     1      -8.863   2.524 -10.108  1.00  0.00    -0.246 OA
BRANCH  47  49
ATOM     49  C   UNL     1      -9.510   0.365  -9.283  1.00  0.00     0.060 A 
ATOM     50  C   UNL     1     -10.589   0.839  -8.522  1.00  0.00     0.016 A 
ATOM     51  C   UNL     1      -9.104  -0.956  -9.130  1.00  0.00     0.016 A 
ATOM     52  C   UNL     1     -11.157   0.038  -7.515  1.00  0.00     0.010 A 
ATOM     53  C   UNL     1      -9.606  -1.704  -8.077  1.00  0.00     0.010 A 
ATOM     54  C   UNL     1     -10.612  -1.214  -7.230  1.00  0.00    -0.014 A 
BRANCH  54  55
ATOM     55  C   UNL     1     -10.876  -2.000  -6.003  1.00  0.00     0.031 A 
ATOM     56  C   UNL     1     -11.136  -3.472  -6.091  1.00  0.00     0.074 A 
ATOM     57  C   UNL     1     -10.540  -1.472  -4.795  1.00  0.00     0.049 A 
ATOM     58  N   UNL     1     -11.300  -4.241  -5.069  1.00  0.00    -0.248 NA
ATOM     59  C   UNL     1     -11.179  -4.236  -7.339  1.00  0.00     0.031 C 
ATOM     60  C   UNL     1     -10.219  -2.179  -3.553  1.00  0.00     0.029 A 
ATOM     61  N   UNL     1     -10.419  -0.143  -4.414  1.00  0.00    -0.354 N 
ATOM     62  C   UNL     1     -11.039  -5.535  -5.454  1.00  0.00     0.074 A 
ATOM     63  C   UNL     1     -11.087  -5.497  -6.893  1.00  0.00     0.031 C 
ATOM     64  C   UNL     1     -10.100  -1.324  -2.530  1.00  0.00     0.029 A 
ATOM     65  C   UNL     1     -10.543  -0.044  -3.019  1.00  0.00     0.049 A 
ATOM     66  H   UNL     1     -10.270   0.613  -5.027  1.00  0.00     0.167 HD
ATOM     67  C   UNL     1     -10.646  -6.434  -4.501  1.00  0.00     0.031 A 
ATOM     68  C   UNL     1     -11.605   0.636  -2.507  1.00  0.00     0.031 A 
ATOM     69  C   UNL     1     -10.846  -5.912  -3.130  1.00  0.00     0.049 A 
ATOM     70  C   UNL     1     -12.577  -0.367  -1.899  1.00  0.00     0.074 A 
ATOM     71  C   UNL     1     -10.054  -5.781  -2.000  1.00  0.00     0.029 A 
ATOM     72  N   UNL     1     -12.019  -5.200  -2.844  1.00  0.00    -0.354 N 
ATOM     73  N   UNL     1     -12.626  -1.628  -2.276  1.00  0.00    -0.248 NA
ATOM     74  C   UNL     1     -13.357  -0.140  -0.685  1.00  0.00     0.031 C 
ATOM     75  C   UNL     1     -10.684  -4.833  -1.131  1.00  0.00     0.029 A 
ATOM     76  C   UNL     1     -11.901  -4.455  -1.688  1.00  0.00     0.049 A 
ATOM     77  H   UNL     1     -12.829  -5.227  -3.401  1.00  0.00     0.167 HD
ATOM     78  C   UNL     1     -13.184  -2.384  -1.284  1.00  0.00     0.074 A 
ATOM     79  C   UNL     1     -13.723  -1.397  -0.358  1.00  0.00     0.031 C 
ATOM     80  C   UNL     1     -13.065  -3.744  -1.154  1.00  0.00     0.031 A 
BRANCH  67  81
ATOM     81  C   UNL     1      -9.865  -7.707  -4.816  1.00  0.00    -0.014 A 
ATOM     82  C   UNL     1      -9.562  -8.628  -3.794  1.00  0.00     0.009 A 
ATOM     83  C   UNL     1      -9.302  -8.005  -6.075  1.00  0.00     0.009 A 
ATOM     84  C   UNL     1      -8.769  -9.769  -4.017  1.00  0.00     0.001 A 
ATOM     85  C   UNL     1      -8.542  -9.164  -6.317  1.00  0.00     0.001 A 
ATOM     86  C   UNL     1      -8.270 -10.046  -5.284  1.00  0.00     0.000 A 
ENDBRANCH  67  81
BRANCH  68  87
ATOM     87  C   UNL     1     -11.707   1.974  -3.187  1.00  0.00    -0.014 A 
ATOM     88  C   UNL     1     -10.640   2.857  -2.873  1.00  0.00     0.009 A 
ATOM     89  C   UNL     1     -12.282   2.105  -4.466  1.00  0.00     0.009 A 
ATOM     90  C   UNL     1     -10.028   3.654  -3.853  1.00  0.00     0.001 A 
ATOM     91  C   UNL     1     -11.677   2.932  -5.440  1.00  0.00     0.001 A 
ATOM     92  C   UNL     1     -10.521   3.656  -5.151  1.00  0.00     0.000 A 
ENDBRANCH  68  87
BRANCH  80  93
ATOM     93  C   UNL     1     -14.112  -4.604  -0.488  1.00  0.00    -0.014 A 
ATOM     94  C   UNL     1     -15.415  -4.162  -0.243  1.00  0.00     0.009 A 
ATOM     95  C   UNL     1     -13.870  -5.993  -0.346  1.00  0.00     0.009 A 
ATOM     96  C   UNL     1     -16.423  -5.058   0.128  1.00  0.00     0.001 A 
ATOM     97  C   UNL     1     -14.883  -6.895  -0.032  1.00  0.00     0.001 A 
ATOM     98  C   UNL     1     -16.162  -6.424   0.210  1.00  0.00     0.000 A 
ENDBRANCH  80  93
ENDBRANCH  54  55
ENDBRANCH  47  49
ENDBRANCH  46  47
ENDBRANCH  45  46
ENDBRANCH  44  45
ENDBRANCH  43  44
ENDBRANCH  42  43
ENDBRANCH  41  42
ENDBRANCH  40  41
ENDBRANCH  39  40
ENDBRANCH   1  39
TORSDOF 26
