REMARK SMILES O=C(OCCOCCOCCOCCOC(=O)[C@@H]1C[C@@H]2CC[C@H]1N2C(=O)C[C@H]1CCCCO1)c1ccc(-c2c3nc(c(-c4ccccc4)c4ccc([nH]4)c(-c4ccccc4)c4nc(c(-c5ccccc5)c5ccc2[nH]5)C=C4)C=C3)cc1
REMARK SMILES IDX 10 1 9 2 8 3 7 4 6 5 5 6 4 7 3 8 2 9 1 10 34 11 35 12 81 13
REMARK SMILES IDX 36 14 80 15 37 16 38 17 39 18 74 19 40 20 79 21 73 22 75 23
REMARK SMILES IDX 41 24 78 25 72 26 71 27 42 29 64 30 49 31 63 32 50 33 53 34
REMARK SMILES IDX 62 35 76 36 51 37 52 38 61 40 77 41 54 42 43 43 44 44 48 45
REMARK SMILES IDX 45 46 47 47 46 48 65 49 66 50 70 51 67 52 69 53 68 54 55 55
REMARK SMILES IDX 56 56 60 57 57 58 59 59 58 60 11 61 12 62 13 63 14 64 15 65
REMARK SMILES IDX 16 66 17 67 18 68 19 69 23 70 20 71 22 72 24 73 21 74 25 75
REMARK SMILES IDX 26 76 27 77 28 78 29 79 33 80 30 81 32 82 31 83
REMARK H PARENT 75 28 53 39
REMARK Flexibility Score: inf
ROOT
ATOM      1  C   UNL     1       6.577   8.201   0.978  1.00  0.00     0.188 C 
ENDROOT
BRANCH   1   2
ATOM      2  O   UNL     1       6.316   9.540   1.361  1.00  0.00    -0.377 OA
BRANCH   2   3
ATOM      3  C   UNL     1       7.027  10.531   0.644  1.00  0.00     0.188 C 
BRANCH   3   4
ATOM      4  C   UNL     1       8.526  10.279   0.606  1.00  0.00     0.188 C 
BRANCH   4   5
ATOM      5  O   UNL     1       8.828   9.077  -0.111  1.00  0.00    -0.376 OA
BRANCH   5   6
ATOM      6  C   UNL     1       9.815   8.230   0.481  1.00  0.00     0.202 C 
BRANCH   6   7
ATOM      7  C   UNL     1      11.254   8.719   0.327  1.00  0.00     0.261 C 
BRANCH   7   8
ATOM      8  O   UNL     1      11.369  10.148   0.268  1.00  0.00    -0.460 OA
BRANCH   8   9
ATOM      9  C   UNL     1      11.239  10.966  -0.803  1.00  0.00     0.338 C 
ATOM     10  O   UNL     1      11.412  12.177  -0.624  1.00  0.00    -0.246 OA
BRANCH   9  11
ATOM     11  C   UNL     1      10.847  10.528  -2.183  1.00  0.00     0.060 A 
ATOM     12  C   UNL     1      10.268   9.304  -2.518  1.00  0.00     0.016 A 
ATOM     13  C   UNL     1      11.021  11.464  -3.219  1.00  0.00     0.016 A 
ATOM     14  C   UNL     1       9.871   9.001  -3.805  1.00  0.00     0.010 A 
ATOM     15  C   UNL     1      10.661  11.161  -4.535  1.00  0.00     0.010 A 
ATOM     16  C   UNL     1      10.105   9.912  -4.824  1.00  0.00    -0.014 A 
BRANCH  16  17
ATOM     17  C   UNL     1      10.004   9.382  -6.187  1.00  0.00     0.031 A 
ATOM     18  C   UNL     1      11.277   8.918  -6.825  1.00  0.00     0.074 A 
ATOM     19  C   UNL     1       8.798   9.120  -6.715  1.00  0.00     0.049 A 
ATOM     20  N   UNL     1      11.478   8.431  -8.016  1.00  0.00    -0.248 NA
ATOM     21  C   UNL     1      12.493   8.988  -5.989  1.00  0.00     0.031 C 
ATOM     22  C   UNL     1       7.513   9.348  -6.047  1.00  0.00     0.029 A 
ATOM     23  N   UNL     1       8.458   8.560  -7.914  1.00  0.00    -0.354 N 
ATOM     24  C   UNL     1      12.842   8.178  -8.086  1.00  0.00     0.074 A 
ATOM     25  C   UNL     1      13.424   8.553  -6.821  1.00  0.00     0.031 C 
ATOM     26  C   UNL     1       6.522   8.925  -6.850  1.00  0.00     0.029 A 
ATOM     27  C   UNL     1       7.101   8.471  -8.108  1.00  0.00     0.049 A 
ATOM     28  H   UNL     1       9.120   8.252  -8.574  1.00  0.00     0.167 HD
ATOM     29  C   UNL     1      13.541   7.692  -9.135  1.00  0.00     0.031 A 
ATOM     30  C   UNL     1       6.423   8.108  -9.211  1.00  0.00     0.031 A 
ATOM     31  C   UNL     1      12.919   7.351 -10.382  1.00  0.00     0.049 A 
ATOM     32  C   UNL     1       7.233   7.718 -10.418  1.00  0.00     0.074 A 
ATOM     33  C   UNL     1      13.504   6.941 -11.563  1.00  0.00     0.029 A 
ATOM     34  N   UNL     1      11.546   7.388 -10.596  1.00  0.00    -0.354 N 
ATOM     35  N   UNL     1       8.535   7.582 -10.530  1.00  0.00    -0.248 NA
ATOM     36  C   UNL     1       6.489   7.449 -11.653  1.00  0.00     0.031 C 
ATOM     37  C   UNL     1      12.485   6.787 -12.510  1.00  0.00     0.029 A 
ATOM     38  C   UNL     1      11.262   7.032 -11.898  1.00  0.00     0.049 A 
ATOM     39  H   UNL     1      10.875   7.631  -9.918  1.00  0.00     0.167 HD
ATOM     40  C   UNL     1       8.768   7.194 -11.840  1.00  0.00     0.074 A 
ATOM     41  C   UNL     1       7.466   7.094 -12.476  1.00  0.00     0.031 C 
ATOM     42  C   UNL     1       9.942   6.946 -12.473  1.00  0.00     0.031 A 
BRANCH  29  43
ATOM     43  C   UNL     1      15.034   7.631  -8.988  1.00  0.00    -0.014 A 
ATOM     44  C   UNL     1      15.663   6.700  -8.145  1.00  0.00     0.009 A 
ATOM     45  C   UNL     1      15.824   8.576  -9.661  1.00  0.00     0.009 A 
ATOM     46  C   UNL     1      17.047   6.745  -7.950  1.00  0.00     0.001 A 
ATOM     47  C   UNL     1      17.209   8.601  -9.486  1.00  0.00     0.001 A 
ATOM     48  C   UNL     1      17.817   7.694  -8.621  1.00  0.00     0.000 A 
ENDBRANCH  29  43
BRANCH  30  49
ATOM     49  C   UNL     1       4.938   8.190  -9.254  1.00  0.00    -0.014 A 
ATOM     50  C   UNL     1       4.151   7.048  -9.457  1.00  0.00     0.009 A 
ATOM     51  C   UNL     1       4.293   9.433  -9.117  1.00  0.00     0.009 A 
ATOM     52  C   UNL     1       2.759   7.152  -9.553  1.00  0.00     0.001 A 
ATOM     53  C   UNL     1       2.902   9.530  -9.179  1.00  0.00     0.001 A 
ATOM     54  C   UNL     1       2.136   8.391  -9.409  1.00  0.00     0.000 A 
ENDBRANCH  30  49
BRANCH  42  55
ATOM     55  C   UNL     1       9.854   6.503 -13.902  1.00  0.00    -0.014 A 
ATOM     56  C   UNL     1       9.507   7.400 -14.923  1.00  0.00     0.009 A 
ATOM     57  C   UNL     1      10.180   5.178 -14.230  1.00  0.00     0.009 A 
ATOM     58  C   UNL     1       9.457   6.965 -16.247  1.00  0.00     0.001 A 
ATOM     59  C   UNL     1      10.163   4.757 -15.557  1.00  0.00     0.001 A 
ATOM     60  C   UNL     1       9.792   5.648 -16.563  1.00  0.00     0.000 A 
ENDBRANCH  42  55
ENDBRANCH  16  17
ENDBRANCH   9  11
ENDBRANCH   8   9
ENDBRANCH   7   8
ENDBRANCH   6   7
ENDBRANCH   5   6
ENDBRANCH   4   5
ENDBRANCH   3   4
ENDBRANCH   2   3
ENDBRANCH   1   2
BRANCH   1  61
ATOM     61  C   UNL     1       6.240   7.701  -0.430  1.00  0.00     0.188 C 
BRANCH  61  62
ATOM     62  O   UNL     1       5.670   8.714  -1.228  1.00  0.00    -0.376 OA
BRANCH  62  63
ATOM     63  C   UNL     1       4.252   8.799  -1.218  1.00  0.00     0.202 C 
BRANCH  63  64
ATOM     64  C   UNL     1       3.463   8.858   0.117  1.00  0.00     0.261 C 
BRANCH  64  65
ATOM     65  O   UNL     1       3.900   7.991   1.196  1.00  0.00    -0.463 OA
BRANCH  65  66
ATOM     66  C   UNL     1       3.386   6.761   1.356  1.00  0.00     0.311 C 
ATOM     67  O   UNL     1       2.453   6.334   0.672  1.00  0.00    -0.252 OA
BRANCH  66  68
ATOM     68  C   UNL     1       4.096   5.875   2.393  1.00  0.00     0.124 C 
ATOM     69  C   UNL     1       3.174   5.443   3.563  1.00  0.00     0.042 C 
ATOM     70  C   UNL     1       5.406   6.192   3.160  1.00  0.00     0.099 C 
ATOM     71  C   UNL     1       4.138   5.387   4.775  1.00  0.00     0.086 C 
ATOM     72  C   UNL     1       5.281   7.389   4.121  1.00  0.00     0.028 C 
ATOM     73  N   UNL     1       5.394   5.110   4.117  1.00  0.00    -0.336 N 
ATOM     74  C   UNL     1       4.389   6.830   5.247  1.00  0.00     0.027 C 
BRANCH  73  75
ATOM     75  C   UNL     1       6.305   4.135   4.414  1.00  0.00     0.225 C 
ATOM     76  O   UNL     1       6.144   3.384   5.377  1.00  0.00    -0.275 OA
BRANCH  75  77
ATOM     77  C   UNL     1       7.561   4.033   3.547  1.00  0.00     0.132 C 
BRANCH  77  78
ATOM     78  C   UNL     1       7.251   3.626   2.106  1.00  0.00     0.127 C 
ATOM     79  C   UNL     1       8.482   3.684   1.193  1.00  0.00     0.033 C 
ATOM     80  O   UNL     1       6.734   2.294   2.087  1.00  0.00    -0.378 OA
ATOM     81  C   UNL     1       8.075   3.302  -0.233  1.00  0.00     0.005 C 
ATOM     82  C   UNL     1       6.214   1.946   0.804  1.00  0.00     0.160 C 
ATOM     83  C   UNL     1       7.312   1.979  -0.252  1.00  0.00     0.029 C 
ENDBRANCH  77  78
ENDBRANCH  75  77
ENDBRANCH  73  75
ENDBRANCH  66  68
ENDBRANCH  65  66
ENDBRANCH  64  65
ENDBRANCH  63  64
ENDBRANCH  62  63
ENDBRANCH  61  62
ENDBRANCH   1  61
TORSDOF 23
