REMARK SMILES O=C(OCCOCCOCCOCCOC(=O)c1ccc2nc(-c3c[nH]nc3-c3ccc(F)cc3F)[nH]c2c1)c1ccc(-c2c3nc(c(-c4ccccc4)c4ccc([nH]4)c(-c4ccccc4)c4nc(c(-c5ccccc5)c5ccc2[nH]5)C=C4)C=C3)cc1
REMARK SMILES IDX 9 1 8 2 7 3 6 4 5 5 4 6 3 7 2 8 1 9 40 10 41 11 87 12 42 13
REMARK SMILES IDX 86 14 43 15 44 16 45 17 80 18 46 19 85 20 79 21 81 22 47 23
REMARK SMILES IDX 84 24 78 25 77 26 48 28 70 29 55 30 69 31 56 32 59 33 68 34
REMARK SMILES IDX 82 35 57 36 58 37 67 39 83 40 60 41 49 42 50 43 54 44 51 45
REMARK SMILES IDX 53 46 52 47 71 48 72 49 76 50 73 51 75 52 74 53 61 54 62 55
REMARK SMILES IDX 66 56 63 57 65 58 64 59 10 60 11 61 12 62 13 63 14 64 15 65
REMARK SMILES IDX 16 66 17 67 18 68 19 69 39 70 20 71 38 72 21 73 37 74 22 75
REMARK SMILES IDX 23 76 24 78 25 79 28 80 26 81 27 82 29 84 30 85 35 86 31 87
REMARK SMILES IDX 34 88 36 89 32 90 33 91
REMARK H PARENT 81 27 59 38 37 77 26 83
REMARK Flexibility Score: inf
ROOT
ATOM      1  O   UNL     1       2.816   1.470  -3.843  1.00  0.00    -0.377 OA
ENDROOT
BRANCH   1   2
ATOM      2  C   UNL     1       2.050   1.329  -2.650  1.00  0.00     0.188 C 
BRANCH   2   3
ATOM      3  C   UNL     1       2.495   0.206  -1.713  1.00  0.00     0.188 C 
BRANCH   3   4
ATOM      4  O   UNL     1       3.805   0.442  -1.213  1.00  0.00    -0.376 OA
BRANCH   4   5
ATOM      5  C   UNL     1       4.628  -0.665  -0.878  1.00  0.00     0.202 C 
BRANCH   5   6
ATOM      6  C   UNL     1       4.031  -1.748   0.019  1.00  0.00     0.261 C 
BRANCH   6   7
ATOM      7  O   UNL     1       2.661  -1.562   0.424  1.00  0.00    -0.460 OA
BRANCH   7   8
ATOM      8  C   UNL     1       2.100  -0.802   1.391  1.00  0.00     0.338 C 
ATOM      9  O   UNL     1       0.900  -0.928   1.625  1.00  0.00    -0.246 OA
BRANCH   8  10
ATOM     10  C   UNL     1       2.864   0.165   2.218  1.00  0.00     0.060 A 
ATOM     11  C   UNL     1       3.884   0.976   1.738  1.00  0.00     0.016 A 
ATOM     12  C   UNL     1       2.450   0.353   3.543  1.00  0.00     0.016 A 
ATOM     13  C   UNL     1       4.636   1.776   2.578  1.00  0.00     0.010 A 
ATOM     14  C   UNL     1       3.129   1.244   4.379  1.00  0.00     0.010 A 
ATOM     15  C   UNL     1       4.279   1.895   3.914  1.00  0.00    -0.014 A 
BRANCH  15  16
ATOM     16  C   UNL     1       5.241   2.535   4.830  1.00  0.00     0.031 A 
ATOM     17  C   UNL     1       5.935   1.652   5.828  1.00  0.00     0.074 A 
ATOM     18  C   UNL     1       5.598   3.821   4.660  1.00  0.00     0.049 A 
ATOM     19  N   UNL     1       6.760   1.972   6.787  1.00  0.00    -0.248 NA
ATOM     20  C   UNL     1       5.660   0.206   5.731  1.00  0.00     0.031 C 
ATOM     21  C   UNL     1       5.091   4.713   3.612  1.00  0.00     0.029 A 
ATOM     22  N   UNL     1       6.509   4.587   5.334  1.00  0.00    -0.354 N 
ATOM     23  C   UNL     1       7.042   0.780   7.445  1.00  0.00     0.074 A 
ATOM     24  C   UNL     1       6.306  -0.268   6.782  1.00  0.00     0.031 C 
ATOM     25  C   UNL     1       5.742   5.885   3.680  1.00  0.00     0.029 A 
ATOM     26  C   UNL     1       6.634   5.859   4.832  1.00  0.00     0.049 A 
ATOM     27  H   UNL     1       7.026   4.258   6.105  1.00  0.00     0.167 HD
ATOM     28  C   UNL     1       7.839   0.588   8.520  1.00  0.00     0.031 A 
ATOM     29  C   UNL     1       7.365   6.894   5.285  1.00  0.00     0.031 A 
ATOM     30  C   UNL     1       8.577   1.651   9.140  1.00  0.00     0.049 A 
ATOM     31  C   UNL     1       8.178   6.678   6.531  1.00  0.00     0.074 A 
ATOM     32  C   UNL     1       9.376   1.614  10.265  1.00  0.00     0.029 A 
ATOM     33  N   UNL     1       8.608   2.955   8.662  1.00  0.00    -0.354 N 
ATOM     34  N   UNL     1       8.363   5.572   7.216  1.00  0.00    -0.248 NA
ATOM     35  C   UNL     1       8.865   7.852   7.080  1.00  0.00     0.031 C 
ATOM     36  C   UNL     1       9.851   2.910  10.496  1.00  0.00     0.029 A 
ATOM     37  C   UNL     1       9.400   3.739   9.478  1.00  0.00     0.049 A 
ATOM     38  H   UNL     1       8.135   3.274   7.859  1.00  0.00     0.167 HD
ATOM     39  C   UNL     1       9.202   5.912   8.267  1.00  0.00     0.074 A 
ATOM     40  C   UNL     1       9.507   7.322   8.112  1.00  0.00     0.031 C 
ATOM     41  C   UNL     1       9.677   5.138   9.275  1.00  0.00     0.031 A 
BRANCH  28  42
ATOM     42  C   UNL     1       7.850  -0.789   9.121  1.00  0.00    -0.014 A 
ATOM     43  C   UNL     1       8.451  -1.882   8.476  1.00  0.00     0.009 A 
ATOM     44  C   UNL     1       7.182  -1.005  10.337  1.00  0.00     0.009 A 
ATOM     45  C   UNL     1       8.338  -3.168   9.012  1.00  0.00     0.001 A 
ATOM     46  C   UNL     1       7.097  -2.285  10.885  1.00  0.00     0.001 A 
ATOM     47  C   UNL     1       7.662  -3.369  10.215  1.00  0.00     0.000 A 
ENDBRANCH  28  42
BRANCH  29  48
ATOM     48  C   UNL     1       7.312   8.219   4.607  1.00  0.00    -0.014 A 
ATOM     49  C   UNL     1       8.454   8.767   4.003  1.00  0.00     0.009 A 
ATOM     50  C   UNL     1       6.115   8.954   4.570  1.00  0.00     0.009 A 
ATOM     51  C   UNL     1       8.402  10.028   3.399  1.00  0.00     0.001 A 
ATOM     52  C   UNL     1       6.058  10.197   3.937  1.00  0.00     0.001 A 
ATOM     53  C   UNL     1       7.204  10.739   3.361  1.00  0.00     0.000 A 
ENDBRANCH  29  48
BRANCH  41  54
ATOM     54  C   UNL     1      10.611   5.798  10.245  1.00  0.00    -0.014 A 
ATOM     55  C   UNL     1      10.145   6.718  11.195  1.00  0.00     0.009 A 
ATOM     56  C   UNL     1      11.972   5.458  10.225  1.00  0.00     0.009 A 
ATOM     57  C   UNL     1      11.037   7.315  12.087  1.00  0.00     0.001 A 
ATOM     58  C   UNL     1      12.854   6.031  11.139  1.00  0.00     0.001 A 
ATOM     59  C   UNL     1      12.387   6.967  12.061  1.00  0.00     0.000 A 
ENDBRANCH  41  54
ENDBRANCH  15  16
ENDBRANCH   8  10
ENDBRANCH   7   8
ENDBRANCH   6   7
ENDBRANCH   5   6
ENDBRANCH   4   5
ENDBRANCH   3   4
ENDBRANCH   2   3
ENDBRANCH   1   2
BRANCH   1  60
ATOM     60  C   UNL     1       4.231   1.445  -3.693  1.00  0.00     0.188 C 
BRANCH  60  61
ATOM     61  C   UNL     1       4.905   2.520  -2.807  1.00  0.00     0.188 C 
BRANCH  61  62
ATOM     62  O   UNL     1       4.008   3.276  -2.006  1.00  0.00    -0.376 OA
BRANCH  62  63
ATOM     63  C   UNL     1       3.847   4.640  -2.379  1.00  0.00     0.202 C 
BRANCH  63  64
ATOM     64  C   UNL     1       3.165   4.926  -3.729  1.00  0.00     0.261 C 
BRANCH  64  65
ATOM     65  O   UNL     1       3.659   4.194  -4.864  1.00  0.00    -0.460 OA
BRANCH  65  66
ATOM     66  C   UNL     1       4.864   4.530  -5.375  1.00  0.00     0.338 C 
ATOM     67  O   UNL     1       5.607   5.412  -4.983  1.00  0.00    -0.246 OA
BRANCH  66  68
ATOM     68  C   UNL     1       5.242   3.468  -6.343  1.00  0.00     0.062 A 
ATOM     69  C   UNL     1       4.373   3.110  -7.382  1.00  0.00     0.018 A 
ATOM     70  C   UNL     1       6.428   2.746  -6.097  1.00  0.00     0.044 A 
ATOM     71  C   UNL     1       4.684   2.039  -8.233  1.00  0.00     0.031 A 
ATOM     72  C   UNL     1       6.660   1.632  -6.910  1.00  0.00     0.067 A 
ATOM     73  C   UNL     1       5.851   1.298  -7.991  1.00  0.00     0.089 A 
ATOM     74  N   UNL     1       7.618   0.648  -6.895  1.00  0.00    -0.338 N 
ATOM     75  N   UNL     1       6.394   0.257  -8.699  1.00  0.00    -0.228 NA
ATOM     76  C   UNL     1       7.481  -0.089  -8.043  1.00  0.00     0.142 A 
ATOM     77  H   UNL     1       8.285   0.498  -6.186  1.00  0.00     0.168 HD
BRANCH  76  78
ATOM     78  C   UNL     1       8.560  -0.925  -8.606  1.00  0.00     0.063 A 
ATOM     79  C   UNL     1       8.933  -2.186  -8.217  1.00  0.00     0.117 A 
ATOM     80  C   UNL     1       9.470  -0.544  -9.629  1.00  0.00     0.106 A 
ATOM     81  N   UNL     1       9.961  -2.525  -9.050  1.00  0.00    -0.284 N 
ATOM     82  N   UNL     1      10.350  -1.529  -9.866  1.00  0.00    -0.175 NA
ATOM     83  H   UNL     1      10.379  -3.416  -9.053  1.00  0.00     0.189 HD
BRANCH  80  84
ATOM     84  C   UNL     1       9.577   0.761 -10.263  1.00  0.00     0.039 A 
ATOM     85  C   UNL     1       9.859   1.891  -9.475  1.00  0.00     0.016 A 
ATOM     86  C   UNL     1       9.365   0.926 -11.634  1.00  0.00     0.135 A 
ATOM     87  C   UNL     1       9.906   3.159 -10.052  1.00  0.00     0.040 A 
ATOM     88  C   UNL     1       9.420   2.190 -12.216  1.00  0.00     0.079 A 
ATOM     89  F   UNL     1       9.079  -0.124 -12.418  1.00  0.00    -0.206 F 
ATOM     90  C   UNL     1       9.685   3.295 -11.418  1.00  0.00     0.126 A 
ATOM     91  F   UNL     1       9.730   4.515 -11.970  1.00  0.00    -0.207 F 
ENDBRANCH  80  84
ENDBRANCH  76  78
ENDBRANCH  66  68
ENDBRANCH  65  66
ENDBRANCH  64  65
ENDBRANCH  63  64
ENDBRANCH  62  63
ENDBRANCH  61  62
ENDBRANCH  60  61
ENDBRANCH   1  60
TORSDOF 22
