REMARK SMILES CCOc1cc2nccc(Nc3ccc(C(=O)OCCOCCOCCOCCOC(=O)c4ccc(-c5c6nc(c(-c7ccccc7)c7ccc([nH]7)c(-c7ccccc7)c7nc(c(-c8ccccc8)c8ccc5[nH]8)C=C7)C=C6)cc4)cc3)c2cc1OCC
REMARK SMILES IDX 23 1 22 2 21 3 20 4 19 5 18 6 16 7 17 8 15 9 12 10 13 11
REMARK SMILES IDX 82 12 14 13 81 14 11 15 10 17 4 18 5 19 85 20 6 21 84 22
REMARK SMILES IDX 7 23 83 24 8 25 9 26 3 27 2 28 1 29 86 30 87 31 88 32 24 33
REMARK SMILES IDX 25 34 26 35 27 36 28 37 29 38 30 39 31 40 32 41 33 42 34 43
REMARK SMILES IDX 80 44 35 45 79 46 36 47 37 48 38 49 73 50 39 51 78 52 72 53
REMARK SMILES IDX 74 54 40 55 77 56 71 57 70 58 41 60 63 61 48 62 62 63 49 64
REMARK SMILES IDX 52 65 61 66 75 67 50 68 51 69 60 71 76 72 53 73 42 74 43 75
REMARK SMILES IDX 47 76 44 77 46 78 45 79 64 80 65 81 69 82 66 83 68 84 67 85
REMARK SMILES IDX 54 86 55 87 59 88 56 89 58 90 57 91
REMARK H PARENT 11 16 74 59 52 70
REMARK Flexibility Score: inf
ROOT
ATOM      1  C   UNL     1      13.618  -1.158   0.575  1.00  0.00     0.188 C 
ENDROOT
BRANCH   1   2
ATOM      2  C   UNL     1      14.316  -1.828   1.775  1.00  0.00     0.188 C 
BRANCH   2   3
ATOM      3  O   UNL     1      15.524  -2.510   1.455  1.00  0.00    -0.376 OA
BRANCH   3   4
ATOM      4  C   UNL     1      15.527  -3.916   1.656  1.00  0.00     0.202 C 
BRANCH   4   5
ATOM      5  C   UNL     1      14.853  -4.697   0.522  1.00  0.00     0.261 C 
BRANCH   5   6
ATOM      6  O   UNL     1      13.476  -4.352   0.319  1.00  0.00    -0.460 OA
BRANCH   6   7
ATOM      7  C   UNL     1      12.640  -4.647   1.337  1.00  0.00     0.338 C 
ATOM      8  O   UNL     1      12.922  -5.230   2.371  1.00  0.00    -0.246 OA
BRANCH   7   9
ATOM      9  C   UNL     1      11.341  -3.995   1.088  1.00  0.00     0.060 A 
ATOM     10  C   UNL     1       8.805  -2.886   0.731  1.00  0.00     0.038 A 
ATOM     11  C   UNL     1       9.409  -2.870   1.995  1.00  0.00     0.027 A 
ATOM     12  C   UNL     1       9.518  -3.383  -0.365  1.00  0.00     0.027 A 
ATOM     13  C   UNL     1      10.668  -3.435   2.179  1.00  0.00     0.018 A 
ATOM     14  C   UNL     1      10.789  -3.930  -0.194  1.00  0.00     0.018 A 
BRANCH  10  15
ATOM     15  N   UNL     1       7.443  -2.557   0.633  1.00  0.00    -0.355 N 
ATOM     16  H   UNL     1       7.208  -1.624   0.843  1.00  0.00     0.167 HD
BRANCH  15  17
ATOM     17  C   UNL     1       6.361  -3.405   0.269  1.00  0.00     0.050 A 
ATOM     18  C   UNL     1       2.345  -2.083   0.483  1.00  0.00     0.163 A 
ATOM     19  C   UNL     1       2.664  -3.388   0.090  1.00  0.00     0.079 A 
ATOM     20  C   UNL     1       3.371  -1.178   0.746  1.00  0.00     0.161 A 
ATOM     21  C   UNL     1       3.983  -3.821  -0.018  1.00  0.00     0.076 A 
ATOM     22  C   UNL     1       4.694  -1.602   0.657  1.00  0.00     0.063 A 
ATOM     23  N   UNL     1       4.211  -5.090  -0.392  1.00  0.00    -0.256 NA
ATOM     24  C   UNL     1       5.027  -2.923   0.298  1.00  0.00     0.028 A 
ATOM     25  C   UNL     1       5.489  -5.514  -0.447  1.00  0.00     0.114 A 
ATOM     26  C   UNL     1       6.576  -4.725  -0.132  1.00  0.00     0.047 A 
BRANCH  18  27
ATOM     27  O   UNL     1       1.055  -1.710   0.739  1.00  0.00    -0.490 OA
BRANCH  27  28
ATOM     28  C   UNL     1       0.141  -1.932  -0.337  1.00  0.00     0.226 C 
ATOM     29  C   UNL     1      -0.951  -0.879  -0.218  1.00  0.00     0.049 C 
ENDBRANCH  27  28
ENDBRANCH  18  27
BRANCH  20  30
ATOM     30  O   UNL     1       3.247   0.130   1.125  1.00  0.00    -0.490 OA
BRANCH  30  31
ATOM     31  C   UNL     1       2.251   0.911   0.466  1.00  0.00     0.226 C 
ATOM     32  C   UNL     1       2.406   0.943  -1.049  1.00  0.00     0.049 C 
ENDBRANCH  30  31
ENDBRANCH  20  30
ENDBRANCH  15  17
ENDBRANCH  10  15
ENDBRANCH   7   9
ENDBRANCH   6   7
ENDBRANCH   5   6
ENDBRANCH   4   5
ENDBRANCH   3   4
ENDBRANCH   2   3
ENDBRANCH   1   2
BRANCH   1  33
ATOM     33  O   UNL     1      14.153  -1.339  -0.726  1.00  0.00    -0.377 OA
BRANCH  33  34
ATOM     34  C   UNL     1      15.550  -1.184  -0.943  1.00  0.00     0.188 C 
BRANCH  34  35
ATOM     35  C   UNL     1      16.409  -0.267  -0.044  1.00  0.00     0.188 C 
BRANCH  35  36
ATOM     36  O   UNL     1      15.669   0.640   0.762  1.00  0.00    -0.376 OA
BRANCH  36  37
ATOM     37  C   UNL     1      15.776   2.012   0.411  1.00  0.00     0.202 C 
BRANCH  37  38
ATOM     38  C   UNL     1      14.985   2.390  -0.845  1.00  0.00     0.261 C 
BRANCH  38  39
ATOM     39  O   UNL     1      15.422   1.747  -2.054  1.00  0.00    -0.460 OA
BRANCH  39  40
ATOM     40  C   UNL     1      16.686   1.988  -2.467  1.00  0.00     0.338 C 
ATOM     41  O   UNL     1      17.513   2.715  -1.952  1.00  0.00    -0.246 OA
BRANCH  40  42
ATOM     42  C   UNL     1      16.960   1.061  -3.582  1.00  0.00     0.060 A 
ATOM     43  C   UNL     1      18.000   0.129  -3.463  1.00  0.00     0.016 A 
ATOM     44  C   UNL     1      16.159   1.093  -4.724  1.00  0.00     0.016 A 
ATOM     45  C   UNL     1      18.245  -0.774  -4.499  1.00  0.00     0.010 A 
ATOM     46  C   UNL     1      16.420   0.206  -5.767  1.00  0.00     0.010 A 
ATOM     47  C   UNL     1      17.474  -0.719  -5.667  1.00  0.00    -0.014 A 
BRANCH  47  48
ATOM     48  C   UNL     1      17.849  -1.508  -6.863  1.00  0.00     0.031 A 
ATOM     49  C   UNL     1      18.688  -0.846  -7.918  1.00  0.00     0.074 A 
ATOM     50  C   UNL     1      17.406  -2.765  -7.037  1.00  0.00     0.049 A 
ATOM     51  N   UNL     1      19.027  -1.283  -9.102  1.00  0.00    -0.248 NA
ATOM     52  C   UNL     1      19.209   0.492  -7.593  1.00  0.00     0.031 C 
ATOM     53  C   UNL     1      16.617  -3.530  -6.074  1.00  0.00     0.029 A 
ATOM     54  N   UNL     1      17.543  -3.611  -8.111  1.00  0.00    -0.354 N 
ATOM     55  C   UNL     1      19.786  -0.269  -9.671  1.00  0.00     0.074 A 
ATOM     56  C   UNL     1      19.849   0.810  -8.709  1.00  0.00     0.031 C 
ATOM     57  C   UNL     1      16.316  -4.726  -6.612  1.00  0.00     0.029 A 
ATOM     58  C   UNL     1      16.855  -4.791  -7.969  1.00  0.00     0.049 A 
ATOM     59  H   UNL     1      18.081  -3.392  -8.905  1.00  0.00     0.167 HD
ATOM     60  C   UNL     1      20.375  -0.237 -10.889  1.00  0.00     0.031 A 
ATOM     61  C   UNL     1      16.651  -5.790  -8.851  1.00  0.00     0.031 A 
ATOM     62  C   UNL     1      20.296  -1.299 -11.853  1.00  0.00     0.049 A 
ATOM     63  C   UNL     1      17.240  -5.690 -10.234  1.00  0.00     0.074 A 
ATOM     64  C   UNL     1      20.886  -1.372 -13.103  1.00  0.00     0.029 A 
ATOM     65  N   UNL     1      19.569  -2.465 -11.681  1.00  0.00    -0.354 N 
ATOM     66  N   UNL     1      17.993  -4.747 -10.748  1.00  0.00    -0.248 NA
ATOM     67  C   UNL     1      16.945  -6.792 -11.163  1.00  0.00     0.031 C 
ATOM     68  C   UNL     1      20.463  -2.557 -13.713  1.00  0.00     0.029 A 
ATOM     69  C   UNL     1      19.660  -3.247 -12.820  1.00  0.00     0.049 A 
ATOM     70  H   UNL     1      19.063  -2.703 -10.871  1.00  0.00     0.167 HD
ATOM     71  C   UNL     1      18.277  -5.151 -12.047  1.00  0.00     0.074 A 
ATOM     72  C   UNL     1      17.630  -6.432 -12.239  1.00  0.00     0.031 C 
ATOM     73  C   UNL     1      19.009  -4.518 -12.996  1.00  0.00     0.031 A 
BRANCH  60  74
ATOM     74  C   UNL     1      21.120   1.011 -11.263  1.00  0.00    -0.014 A 
ATOM     75  C   UNL     1      22.360   1.323 -10.685  1.00  0.00     0.009 A 
ATOM     76  C   UNL     1      20.586   1.870 -12.236  1.00  0.00     0.009 A 
ATOM     77  C   UNL     1      23.038   2.486 -11.056  1.00  0.00     0.001 A 
ATOM     78  C   UNL     1      21.278   3.018 -12.623  1.00  0.00     0.001 A 
ATOM     79  C   UNL     1      22.499   3.329 -12.028  1.00  0.00     0.000 A 
ENDBRANCH  60  74
BRANCH  61  80
ATOM     80  C   UNL     1      15.806  -6.955  -8.479  1.00  0.00    -0.014 A 
ATOM     81  C   UNL     1      16.369  -8.230  -8.323  1.00  0.00     0.009 A 
ATOM     82  C   UNL     1      14.420  -6.802  -8.312  1.00  0.00     0.009 A 
ATOM     83  C   UNL     1      15.560  -9.332  -8.033  1.00  0.00     0.001 A 
ATOM     84  C   UNL     1      13.617  -7.900  -7.994  1.00  0.00     0.001 A 
ATOM     85  C   UNL     1      14.186  -9.165  -7.865  1.00  0.00     0.000 A 
ENDBRANCH  61  80
BRANCH  73  86
ATOM     86  C   UNL     1      19.173  -5.207 -14.322  1.00  0.00    -0.014 A 
ATOM     87  C   UNL     1      18.118  -5.268 -15.245  1.00  0.00     0.009 A 
ATOM     88  C   UNL     1      20.422  -5.742 -14.678  1.00  0.00     0.009 A 
ATOM     89  C   UNL     1      18.305  -5.871 -16.491  1.00  0.00     0.001 A 
ATOM     90  C   UNL     1      20.613  -6.319 -15.934  1.00  0.00     0.001 A 
ATOM     91  C   UNL     1      19.553  -6.389 -16.837  1.00  0.00     0.000 A 
ENDBRANCH  73  86
ENDBRANCH  47  48
ENDBRANCH  40  42
ENDBRANCH  39  40
ENDBRANCH  38  39
ENDBRANCH  37  38
ENDBRANCH  36  37
ENDBRANCH  35  36
ENDBRANCH  34  35
ENDBRANCH  33  34
ENDBRANCH   1  33
TORSDOF 26
