REMARK SMILES C[C@@H](C(=O)OCCOCCOCCOCCOC(=O)c1ccc(-c2c3nc(c(-c4ccccc4)c4ccc([nH]4)c(-c4ccccc4)c4nc(c(-c5ccccc5)c5ccc2[nH]5)C=C4)C=C3)cc1)N1C(=O)CSc2cccn2-c2ccccc21
REMARK SMILES IDX 9 1 8 2 7 3 6 4 5 5 3 6 4 7 2 8 1 9 68 10 69 11 70 12 83 14
REMARK SMILES IDX 78 15 82 16 79 17 81 18 80 19 77 20 73 21 76 22 74 23 75 24
REMARK SMILES IDX 72 25 71 26 10 28 11 29 12 30 13 31 14 32 15 33 16 34 17 35
REMARK SMILES IDX 18 36 19 37 20 38 21 39 67 40 22 41 66 42 23 43 24 44 25 45
REMARK SMILES IDX 60 46 26 47 65 48 59 49 61 50 27 51 64 52 58 53 57 54 28 56
REMARK SMILES IDX 50 57 35 58 49 59 36 60 39 61 48 62 62 63 37 64 38 65 47 67
REMARK SMILES IDX 63 68 40 69 29 70 30 71 34 72 31 73 33 74 32 75 51 76 52 77
REMARK SMILES IDX 56 78 53 79 55 80 54 81 41 82 42 83 46 84 43 85 45 86 44 87
REMARK H PARENT 61 55 39 66
REMARK Flexibility Score: 80.00
ROOT
ATOM      1  C   UNL     1       0.077   2.849  -1.896  1.00  0.00     0.188 C 
ENDROOT
BRANCH   1   2
ATOM      2  O   UNL     1       0.630   4.133  -1.659  1.00  0.00    -0.376 OA
BRANCH   2   3
ATOM      3  C   UNL     1       1.587   4.236  -0.621  1.00  0.00     0.202 C 
BRANCH   3   4
ATOM      4  C   UNL     1       1.431   3.495   0.737  1.00  0.00     0.261 C 
BRANCH   4   5
ATOM      5  O   UNL     1       0.857   2.163   0.797  1.00  0.00    -0.462 OA
BRANCH   5   6
ATOM      6  C   UNL     1      -0.402   1.996   1.311  1.00  0.00     0.329 C 
ATOM      7  O   UNL     1      -1.109   2.931   1.678  1.00  0.00    -0.250 OA
BRANCH   6   8
ATOM      8  C   UNL     1      -0.855   0.490   1.440  1.00  0.00     0.197 C 
ATOM      9  C   UNL     1       0.136  -0.550   0.907  1.00  0.00     0.044 C 
BRANCH   8  10
ATOM     10  N   UNL     1      -2.259   0.277   0.953  1.00  0.00    -0.296 N 
BRANCH  10  11
ATOM     11  C   UNL     1      -2.553   0.671  -0.344  1.00  0.00     0.238 CG0
ATOM     12  O   UNL     1      -1.684   0.871  -1.188  1.00  0.00    -0.274 OA
ATOM     13  G   UNL     1      -4.014   0.803  -0.693  1.00  0.00     0.000 G0
ENDBRANCH  10  11
BRANCH  10  14
ATOM     14  C   UNL     1      -3.011  -0.823   1.503  1.00  0.00     0.069 A 
ATOM     15  C   UNL     1      -2.954  -2.146   0.994  1.00  0.00     0.070 A 
ATOM     16  C   UNL     1      -3.889  -0.569   2.558  1.00  0.00     0.028 A 
ATOM     17  C   UNL     1      -3.486  -3.217   1.726  1.00  0.00     0.029 A 
ATOM     18  C   UNL     1      -4.604  -1.620   3.145  1.00  0.00     0.002 A 
ATOM     19  C   UNL     1      -4.341  -2.943   2.787  1.00  0.00     0.002 A 
BRANCH  15  20
ATOM     20  N   UNL     1      -2.686  -2.408  -0.381  1.00  0.00    -0.310 N 
ATOM     21  C   UNL     1      -3.268  -1.762  -1.467  1.00  0.00     0.080 A 
ATOM     22  C   UNL     1      -2.035  -3.516  -0.900  1.00  0.00     0.092 A 
ATOM     23  C   UNL     1      -2.654  -2.198  -2.618  1.00  0.00     0.035 A 
ATOM     24  C   UNL     1      -1.918  -3.351  -2.267  1.00  0.00     0.021 A 
BRANCH  21  25
ATOM     25  S   UNL     1      -4.681  -0.739  -1.345  1.00  0.00    -0.098 SA
BRANCH  25  26
ATOM     26  C   UNL     1      -4.014   0.803  -0.693  1.00  0.00     0.177 CG0
ATOM     27  G   UNL     1      -2.553   0.671  -0.344  1.00  0.00     0.000 G0
ENDBRANCH  25  26
ENDBRANCH  21  25
ENDBRANCH  15  20
ENDBRANCH  10  14
ENDBRANCH   8  10
ENDBRANCH   6   8
ENDBRANCH   5   6
ENDBRANCH   4   5
ENDBRANCH   3   4
ENDBRANCH   2   3
ENDBRANCH   1   2
BRANCH   1  28
ATOM     28  C   UNL     1       1.038   1.640  -1.996  1.00  0.00     0.188 C 
BRANCH  28  29
ATOM     29  O   UNL     1       2.408   2.011  -2.048  1.00  0.00    -0.377 OA
BRANCH  29  30
ATOM     30  C   UNL     1       2.970   2.142  -3.346  1.00  0.00     0.188 C 
BRANCH  30  31
ATOM     31  C   UNL     1       2.115   2.801  -4.446  1.00  0.00     0.188 C 
BRANCH  31  32
ATOM     32  O   UNL     1       0.811   2.257  -4.576  1.00  0.00    -0.376 OA
BRANCH  32  33
ATOM     33  C   UNL     1       0.522   1.270  -5.549  1.00  0.00     0.202 C 
BRANCH  33  34
ATOM     34  C   UNL     1       1.197  -0.105  -5.423  1.00  0.00     0.261 C 
BRANCH  34  35
ATOM     35  O   UNL     1       2.628  -0.107  -5.354  1.00  0.00    -0.460 OA
BRANCH  35  36
ATOM     36  C   UNL     1       3.301   0.410  -6.407  1.00  0.00     0.338 C 
ATOM     37  O   UNL     1       2.840   0.832  -7.441  1.00  0.00    -0.246 OA
BRANCH  36  38
ATOM     38  C   UNL     1       4.716   0.546  -5.995  1.00  0.00     0.060 A 
ATOM     39  C   UNL     1       5.306   1.815  -6.028  1.00  0.00     0.016 A 
ATOM     40  C   UNL     1       5.449  -0.566  -5.573  1.00  0.00     0.016 A 
ATOM     41  C   UNL     1       6.647   1.970  -5.679  1.00  0.00     0.010 A 
ATOM     42  C   UNL     1       6.798  -0.414  -5.244  1.00  0.00     0.010 A 
ATOM     43  C   UNL     1       7.411   0.849  -5.331  1.00  0.00    -0.014 A 
BRANCH  43  44
ATOM     44  C   UNL     1       8.887   0.963  -5.255  1.00  0.00     0.031 A 
ATOM     45  C   UNL     1       9.697   0.533  -6.448  1.00  0.00     0.074 A 
ATOM     46  C   UNL     1       9.498   1.460  -4.166  1.00  0.00     0.049 A 
ATOM     47  N   UNL     1      10.996   0.496  -6.602  1.00  0.00    -0.248 NA
ATOM     48  C   UNL     1       8.938   0.083  -7.626  1.00  0.00     0.031 C 
ATOM     49  C   UNL     1       8.825   1.959  -2.969  1.00  0.00     0.029 A 
ATOM     50  N   UNL     1      10.834   1.620  -3.895  1.00  0.00    -0.354 N 
ATOM     51  C   UNL     1      11.207   0.013  -7.887  1.00  0.00     0.074 A 
ATOM     52  C   UNL     1       9.908  -0.263  -8.458  1.00  0.00     0.031 C 
ATOM     53  C   UNL     1       9.754   2.361  -2.084  1.00  0.00     0.029 A 
ATOM     54  C   UNL     1      11.084   2.112  -2.638  1.00  0.00     0.049 A 
ATOM     55  H   UNL     1      11.545   1.402  -4.540  1.00  0.00     0.167 HD
ATOM     56  C   UNL     1      12.379  -0.178  -8.538  1.00  0.00     0.031 A 
ATOM     57  C   UNL     1      12.254   2.312  -1.999  1.00  0.00     0.031 A 
ATOM     58  C   UNL     1      13.672   0.075  -7.962  1.00  0.00     0.049 A 
ATOM     59  C   UNL     1      13.546   2.001  -2.710  1.00  0.00     0.074 A 
ATOM     60  C   UNL     1      14.919  -0.084  -8.540  1.00  0.00     0.029 A 
ATOM     61  N   UNL     1      13.883   0.532  -6.670  1.00  0.00    -0.354 N 
ATOM     62  N   UNL     1      13.736   1.564  -3.932  1.00  0.00    -0.248 NA
ATOM     63  C   UNL     1      14.788   2.220  -1.953  1.00  0.00     0.031 C 
ATOM     64  C   UNL     1      15.887   0.213  -7.576  1.00  0.00     0.029 A 
ATOM     65  C   UNL     1      15.242   0.631  -6.422  1.00  0.00     0.049 A 
ATOM     66  H   UNL     1      13.173   0.753  -6.025  1.00  0.00     0.167 HD
ATOM     67  C   UNL     1      15.114   1.488  -4.100  1.00  0.00     0.074 A 
ATOM     68  C   UNL     1      15.712   1.940  -2.861  1.00  0.00     0.031 C 
ATOM     69  C   UNL     1      15.822   1.083  -5.184  1.00  0.00     0.031 A 
BRANCH  56  70
ATOM     70  C   UNL     1      12.311  -0.728  -9.936  1.00  0.00    -0.014 A 
ATOM     71  C   UNL     1      11.810   0.037 -11.002  1.00  0.00     0.009 A 
ATOM     72  C   UNL     1      12.783  -2.025 -10.196  1.00  0.00     0.009 A 
ATOM     73  C   UNL     1      11.748  -0.498 -12.290  1.00  0.00     0.001 A 
ATOM     74  C   UNL     1      12.751  -2.545 -11.491  1.00  0.00     0.001 A 
ATOM     75  C   UNL     1      12.225  -1.786 -12.534  1.00  0.00     0.000 A 
ENDBRANCH  56  70
BRANCH  57  76
ATOM     76  C   UNL     1      12.265   2.805  -0.595  1.00  0.00    -0.014 A 
ATOM     77  C   UNL     1      12.781   4.072  -0.280  1.00  0.00     0.009 A 
ATOM     78  C   UNL     1      11.785   1.993   0.445  1.00  0.00     0.009 A 
ATOM     79  C   UNL     1      12.845   4.500   1.049  1.00  0.00     0.001 A 
ATOM     80  C   UNL     1      11.818   2.438   1.768  1.00  0.00     0.001 A 
ATOM     81  C   UNL     1      12.359   3.686   2.071  1.00  0.00     0.000 A 
ENDBRANCH  57  76
BRANCH  69  82
ATOM     82  C   UNL     1      17.323   1.154  -5.098  1.00  0.00    -0.014 A 
ATOM     83  C   UNL     1      18.056   0.282  -4.279  1.00  0.00     0.009 A 
ATOM     84  C   UNL     1      18.018   2.084  -5.891  1.00  0.00     0.009 A 
ATOM     85  C   UNL     1      19.450   0.365  -4.227  1.00  0.00     0.001 A 
ATOM     86  C   UNL     1      19.412   2.140  -5.864  1.00  0.00     0.001 A 
ATOM     87  C   UNL     1      20.126   1.289  -5.024  1.00  0.00     0.000 A 
ENDBRANCH  69  82
ENDBRANCH  43  44
ENDBRANCH  36  38
ENDBRANCH  35  36
ENDBRANCH  34  35
ENDBRANCH  33  34
ENDBRANCH  32  33
ENDBRANCH  31  32
ENDBRANCH  30  31
ENDBRANCH  29  30
ENDBRANCH  28  29
ENDBRANCH   1  28
TORSDOF 21
