REMARK SMILES O=C(OCCOCCOCCOCCOC(=O)c1cc(-c2ccc(C(F)(F)F)cc2)cc([N+](=O)[O-])c1)c1ccc(-c2c3nc(c(-c4ccccc4)c4ccc([nH]4)c(-c4ccccc4)c4nc(c(-c5ccccc5)c5ccc2[nH]5)C=C4)C=C3)cc1
REMARK SMILES IDX 9 1 8 2 7 3 6 4 5 5 4 6 3 7 2 8 1 9 37 10 38 11 84 12 39 13
REMARK SMILES IDX 83 14 40 15 41 16 42 17 77 18 43 19 82 20 76 21 78 22 44 23
REMARK SMILES IDX 81 24 75 25 74 26 45 28 67 29 52 30 66 31 53 32 56 33 65 34
REMARK SMILES IDX 79 35 54 36 55 37 64 39 80 40 57 41 46 42 47 43 51 44 48 45
REMARK SMILES IDX 50 46 49 47 68 48 69 49 73 50 70 51 72 52 71 53 58 54 59 55
REMARK SMILES IDX 63 56 60 57 62 58 61 59 10 60 11 61 12 62 13 63 14 64 15 65
REMARK SMILES IDX 16 66 17 67 18 68 19 69 36 70 20 71 32 72 31 73 21 74 22 75
REMARK SMILES IDX 30 76 23 77 29 78 24 79 25 80 26 81 27 82 28 83 33 84 34 85
REMARK SMILES IDX 35 86
REMARK H PARENT 78 27 56 38
REMARK Flexibility Score: inf
ROOT
ATOM      1  O   UNL     1       2.455   2.293  -3.271  1.00  0.00    -0.377 OA
ENDROOT
BRANCH   1   2
ATOM      2  C   UNL     1       1.782   1.899  -2.079  1.00  0.00     0.188 C 
BRANCH   2   3
ATOM      3  C   UNL     1       2.272   0.607  -1.423  1.00  0.00     0.188 C 
BRANCH   3   4
ATOM      4  O   UNL     1       3.626   0.694  -0.978  1.00  0.00    -0.376 OA
BRANCH   4   5
ATOM      5  C   UNL     1       4.473  -0.425  -1.242  1.00  0.00     0.202 C 
BRANCH   5   6
ATOM      6  C   UNL     1       4.164  -1.696  -0.450  1.00  0.00     0.261 C 
BRANCH   6   7
ATOM      7  O   UNL     1       2.800  -1.796  -0.013  1.00  0.00    -0.460 OA
BRANCH   7   8
ATOM      8  C   UNL     1       2.221  -1.282   1.099  1.00  0.00     0.338 C 
ATOM      9  O   UNL     1       1.029  -1.518   1.296  1.00  0.00    -0.246 OA
BRANCH   8  10
ATOM     10  C   UNL     1       2.930  -0.432   2.104  1.00  0.00     0.060 A 
ATOM     11  C   UNL     1       4.081   0.312   1.862  1.00  0.00     0.016 A 
ATOM     12  C   UNL     1       2.350  -0.331   3.381  1.00  0.00     0.016 A 
ATOM     13  C   UNL     1       4.698   1.059   2.844  1.00  0.00     0.010 A 
ATOM     14  C   UNL     1       2.951   0.433   4.385  1.00  0.00     0.010 A 
ATOM     15  C   UNL     1       4.155   1.091   4.119  1.00  0.00    -0.014 A 
BRANCH  15  16
ATOM     16  C   UNL     1       5.037   1.604   5.174  1.00  0.00     0.031 A 
ATOM     17  C   UNL     1       5.754   0.588   6.011  1.00  0.00     0.074 A 
ATOM     18  C   UNL     1       5.353   2.910   5.201  1.00  0.00     0.049 A 
ATOM     19  N   UNL     1       6.590   0.765   6.995  1.00  0.00    -0.248 NA
ATOM     20  C   UNL     1       5.510  -0.828   5.676  1.00  0.00     0.031 C 
ATOM     21  C   UNL     1       4.849   3.922   4.266  1.00  0.00     0.029 A 
ATOM     22  N   UNL     1       6.215   3.597   6.005  1.00  0.00    -0.354 N 
ATOM     23  C   UNL     1       6.928  -0.511   7.426  1.00  0.00     0.074 A 
ATOM     24  C   UNL     1       6.215  -1.455   6.601  1.00  0.00     0.031 C 
ATOM     25  C   UNL     1       5.438   5.098   4.537  1.00  0.00     0.029 A 
ATOM     26  C   UNL     1       6.288   4.936   5.708  1.00  0.00     0.049 A 
ATOM     27  H   UNL     1       6.734   3.175   6.727  1.00  0.00     0.167 HD
ATOM     28  C   UNL     1       7.753  -0.853   8.440  1.00  0.00     0.031 A 
ATOM     29  C   UNL     1       6.947   5.915   6.352  1.00  0.00     0.031 A 
ATOM     30  C   UNL     1       8.435   0.123   9.241  1.00  0.00     0.049 A 
ATOM     31  C   UNL     1       7.741   5.523   7.568  1.00  0.00     0.074 A 
ATOM     32  C   UNL     1       9.236  -0.066  10.348  1.00  0.00     0.029 A 
ATOM     33  N   UNL     1       8.383   1.492   9.003  1.00  0.00    -0.354 N 
ATOM     34  N   UNL     1       7.983   4.324   8.046  1.00  0.00    -0.248 NA
ATOM     35  C   UNL     1       8.340   6.615   8.341  1.00  0.00     0.031 C 
ATOM     36  C   UNL     1       9.615   1.197  10.820  1.00  0.00     0.029 A 
ATOM     37  C   UNL     1       9.114   2.166   9.961  1.00  0.00     0.049 A 
ATOM     38  H   UNL     1       7.896   1.918   8.261  1.00  0.00     0.167 HD
ATOM     39  C   UNL     1       8.784   4.512   9.162  1.00  0.00     0.074 A 
ATOM     40  C   UNL     1       9.001   5.944   9.274  1.00  0.00     0.031 C 
ATOM     41  C   UNL     1       9.297   3.596  10.021  1.00  0.00     0.031 A 
BRANCH  28  42
ATOM     42  C   UNL     1       7.833  -2.313   8.787  1.00  0.00    -0.014 A 
ATOM     43  C   UNL     1       8.449  -3.252   7.942  1.00  0.00     0.009 A 
ATOM     44  C   UNL     1       7.202  -2.768   9.955  1.00  0.00     0.009 A 
ATOM     45  C   UNL     1       8.383  -4.618   8.236  1.00  0.00     0.001 A 
ATOM     46  C   UNL     1       7.165  -4.129  10.263  1.00  0.00     0.001 A 
ATOM     47  C   UNL     1       7.742  -5.054   9.396  1.00  0.00     0.000 A 
ENDBRANCH  28  42
BRANCH  29  48
ATOM     48  C   UNL     1       6.826   7.332   5.915  1.00  0.00    -0.014 A 
ATOM     49  C   UNL     1       7.946   8.052   5.474  1.00  0.00     0.009 A 
ATOM     50  C   UNL     1       5.582   7.986   5.959  1.00  0.00     0.009 A 
ATOM     51  C   UNL     1       7.828   9.398   5.115  1.00  0.00     0.001 A 
ATOM     52  C   UNL     1       5.461   9.321   5.568  1.00  0.00     0.001 A 
ATOM     53  C   UNL     1       6.587  10.030   5.159  1.00  0.00     0.000 A 
ENDBRANCH  29  48
BRANCH  41  54
ATOM     54  C   UNL     1      10.181   4.123  11.113  1.00  0.00    -0.014 A 
ATOM     55  C   UNL     1       9.659   4.853  12.190  1.00  0.00     0.009 A 
ATOM     56  C   UNL     1      11.555   3.839  11.075  1.00  0.00     0.009 A 
ATOM     57  C   UNL     1      10.508   5.325  13.191  1.00  0.00     0.001 A 
ATOM     58  C   UNL     1      12.393   4.279  12.097  1.00  0.00     0.001 A 
ATOM     59  C   UNL     1      11.871   5.032  13.147  1.00  0.00     0.000 A 
ENDBRANCH  41  54
ENDBRANCH  15  16
ENDBRANCH   8  10
ENDBRANCH   7   8
ENDBRANCH   6   7
ENDBRANCH   5   6
ENDBRANCH   4   5
ENDBRANCH   3   4
ENDBRANCH   2   3
ENDBRANCH   1   2
BRANCH   1  60
ATOM     60  C   UNL     1       3.873   2.185  -3.266  1.00  0.00     0.188 C 
BRANCH  60  61
ATOM     61  C   UNL     1       4.680   2.989  -2.218  1.00  0.00     0.188 C 
BRANCH  61  62
ATOM     62  O   UNL     1       3.880   3.573  -1.211  1.00  0.00    -0.376 OA
BRANCH  62  63
ATOM     63  C   UNL     1       3.530   4.941  -1.351  1.00  0.00     0.202 C 
BRANCH  63  64
ATOM     64  C   UNL     1       3.068   5.542  -2.699  1.00  0.00     0.261 C 
BRANCH  64  65
ATOM     65  O   UNL     1       3.580   4.973  -3.917  1.00  0.00    -0.460 OA
BRANCH  65  66
ATOM     66  C   UNL     1       4.791   5.361  -4.373  1.00  0.00     0.338 C 
ATOM     67  O   UNL     1       5.545   6.173  -3.863  1.00  0.00    -0.246 OA
BRANCH  66  68
ATOM     68  C   UNL     1       5.161   4.440  -5.480  1.00  0.00     0.067 A 
ATOM     69  C   UNL     1       6.266   3.580  -5.312  1.00  0.00     0.025 A 
ATOM     70  C   UNL     1       4.353   4.333  -6.614  1.00  0.00     0.101 A 
ATOM     71  C   UNL     1       6.539   2.559  -6.241  1.00  0.00    -0.011 A 
ATOM     72  C   UNL     1       4.675   3.372  -7.582  1.00  0.00     0.270 A 
ATOM     73  C   UNL     1       5.736   2.471  -7.387  1.00  0.00     0.094 A 
BRANCH  71  74
ATOM     74  C   UNL     1       7.685   1.658  -6.066  1.00  0.00    -0.018 A 
ATOM     75  C   UNL     1       7.612   0.464  -5.329  1.00  0.00     0.009 A 
ATOM     76  C   UNL     1       8.904   1.988  -6.673  1.00  0.00     0.009 A 
ATOM     77  C   UNL     1       8.737  -0.366  -5.197  1.00  0.00     0.014 A 
ATOM     78  C   UNL     1      10.024   1.165  -6.543  1.00  0.00     0.014 A 
ATOM     79  C   UNL     1       9.957  -0.020  -5.800  1.00  0.00     0.056 A 
BRANCH  79  80
ATOM     80  C   UNL     1      11.176  -0.901  -5.649  1.00  0.00     0.416 C 
ATOM     81  F   UNL     1      11.559  -1.038  -4.349  1.00  0.00    -0.166 F 
ATOM     82  F   UNL     1      10.971  -2.164  -6.114  1.00  0.00    -0.166 F 
ATOM     83  F   UNL     1      12.271  -0.432  -6.311  1.00  0.00    -0.166 F 
ENDBRANCH  79  80
ENDBRANCH  71  74
BRANCH  72  84
ATOM     84  N   UNL     1       3.924   3.334  -8.843  1.00  0.00     0.062 N 
ATOM     85  O   UNL     1       4.346   2.592  -9.740  1.00  0.00    -0.258 OA
ATOM     86  O   UNL     1       2.932   4.069  -8.943  1.00  0.00    -0.258 OA
ENDBRANCH  72  84
ENDBRANCH  66  68
ENDBRANCH  65  66
ENDBRANCH  64  65
ENDBRANCH  63  64
ENDBRANCH  62  63
ENDBRANCH  61  62
ENDBRANCH  60  61
ENDBRANCH   1  60
TORSDOF 23
