REMARK SMILES CC[N@@H+]1CC[C@H](C[NH2+]Cc2cc(C(=O)OCCOCCOCCOCCOC(=O)c3ccc(-c4c5nc(c(-c6ccccc6)c6ccc([nH]6)c(-c6ccccc6)c6nc(c(-c7ccccc7)c7ccc4[nH]7)C=C6)C=C5)cc3)cs2)C1
REMARK SMILES IDX 19 1 18 2 17 3 16 4 15 5 13 6 14 7 12 8 10 9 11 10 79 11
REMARK SMILES IDX 78 12 9 13 8 14 7 17 6 18 3 19 4 20 80 21 5 23 2 24 1 25
REMARK SMILES IDX 20 26 21 27 22 28 23 29 24 30 25 31 26 32 27 33 28 34 29 35
REMARK SMILES IDX 30 36 31 37 77 38 32 39 76 40 33 41 34 42 35 43 70 44 36 45
REMARK SMILES IDX 75 46 69 47 71 48 37 49 74 50 68 51 67 52 38 54 60 55 45 56
REMARK SMILES IDX 59 57 46 58 49 59 58 60 72 61 47 62 48 63 57 65 73 66 50 67
REMARK SMILES IDX 39 68 40 69 44 70 41 71 43 72 42 73 61 74 62 75 66 76 63 77
REMARK SMILES IDX 65 78 64 79 51 80 52 81 56 82 53 83 55 84 54 85
REMARK H PARENT 8 15 8 16 3 22 71 53 49 64
REMARK Flexibility Score: inf
ROOT
ATOM      1  C   UNL     1       5.750  -0.839   5.690  1.00  0.00     0.188 C 
ENDROOT
BRANCH   1   2
ATOM      2  O   UNL     1       5.187  -2.095   6.066  1.00  0.00    -0.376 OA
BRANCH   2   3
ATOM      3  C   UNL     1       3.847  -2.326   5.652  1.00  0.00     0.202 C 
BRANCH   3   4
ATOM      4  C   UNL     1       3.751  -2.904   4.233  1.00  0.00     0.261 C 
BRANCH   4   5
ATOM      5  O   UNL     1       4.273  -2.049   3.207  1.00  0.00    -0.460 OA
BRANCH   5   6
ATOM      6  C   UNL     1       3.698  -0.826   3.079  1.00  0.00     0.339 C 
ATOM      7  O   UNL     1       2.679  -0.465   3.655  1.00  0.00    -0.246 OA
BRANCH   6   8
ATOM      8  C   UNL     1       4.527   0.062   2.280  1.00  0.00     0.071 A 
ATOM      9  C   UNL     1       5.964   0.772   0.578  1.00  0.00     0.059 A 
ATOM     10  C   UNL     1       5.351  -0.315   1.169  1.00  0.00     0.037 A 
ATOM     11  S   UNL     1       5.776   2.188   1.529  1.00  0.00    -0.142 S 
ATOM     12  C   UNL     1       4.651   1.411   2.554  1.00  0.00     0.081 A 
BRANCH   9  13
ATOM     13  C   UNL     1       6.618   0.844  -0.774  1.00  0.00     0.308 C 
BRANCH  13  14
ATOM     14  N   UNL     1       5.641   0.570  -1.850  1.00  0.00    -0.341 N 
ATOM     15  H   UNL     1       6.111   0.647  -2.752  1.00  0.00     0.346 HD
ATOM     16  H   UNL     1       5.270  -0.370  -1.712  1.00  0.00     0.346 HD
BRANCH  14  17
ATOM     17  C   UNL     1       4.519   1.518  -1.813  1.00  0.00     0.270 C 
BRANCH  17  18
ATOM     18  C   UNL     1       3.327   1.123  -2.687  1.00  0.00     0.105 C 
ATOM     19  N   UNL     1       0.932   1.177  -2.282  1.00  0.00    -0.335 N 
ATOM     20  C   UNL     1       1.312  -0.155  -2.754  1.00  0.00     0.262 C 
ATOM     21  C   UNL     1       2.123   2.032  -2.385  1.00  0.00     0.271 C 
ATOM     22  H   UNL     1       0.188   1.539  -2.878  1.00  0.00     0.348 HD
ATOM     23  C   UNL     1       2.792  -0.285  -2.446  1.00  0.00     0.076 C 
BRANCH  19  24
ATOM     24  C   UNL     1       0.290   1.208  -0.962  1.00  0.00     0.258 C 
ATOM     25  C   UNL     1       0.963   0.449   0.180  1.00  0.00     0.071 C 
ENDBRANCH  19  24
ENDBRANCH  17  18
ENDBRANCH  14  17
ENDBRANCH  13  14
ENDBRANCH   9  13
ENDBRANCH   6   8
ENDBRANCH   5   6
ENDBRANCH   4   5
ENDBRANCH   3   4
ENDBRANCH   2   3
ENDBRANCH   1   2
BRANCH   1  26
ATOM     26  C   UNL     1       6.933  -0.959   4.715  1.00  0.00     0.188 C 
BRANCH  26  27
ATOM     27  O   UNL     1       7.296  -2.266   4.309  1.00  0.00    -0.377 OA
BRANCH  27  28
ATOM     28  C   UNL     1       7.681  -3.219   5.295  1.00  0.00     0.188 C 
BRANCH  28  29
ATOM     29  C   UNL     1       7.973  -2.814   6.755  1.00  0.00     0.188 C 
BRANCH  29  30
ATOM     30  O   UNL     1       8.496  -1.500   6.920  1.00  0.00    -0.376 OA
BRANCH  30  31
ATOM     31  C   UNL     1       9.864  -1.411   7.296  1.00  0.00     0.202 C 
BRANCH  31  32
ATOM     32  C   UNL     1      10.819  -1.583   6.112  1.00  0.00     0.261 C 
BRANCH  32  33
ATOM     33  O   UNL     1      10.805  -2.894   5.528  1.00  0.00    -0.460 OA
BRANCH  33  34
ATOM     34  C   UNL     1      11.170  -3.920   6.327  1.00  0.00     0.338 C 
ATOM     35  O   UNL     1      11.562  -3.866   7.478  1.00  0.00    -0.246 OA
BRANCH  34  36
ATOM     36  C   UNL     1      10.847  -5.170   5.618  1.00  0.00     0.060 A 
ATOM     37  C   UNL     1       9.998  -6.096   6.235  1.00  0.00     0.016 A 
ATOM     38  C   UNL     1      11.374  -5.416   4.348  1.00  0.00     0.016 A 
ATOM     39  C   UNL     1       9.696  -7.295   5.589  1.00  0.00     0.010 A 
ATOM     40  C   UNL     1      11.088  -6.623   3.712  1.00  0.00     0.010 A 
ATOM     41  C   UNL     1      10.272  -7.577   4.342  1.00  0.00    -0.014 A 
BRANCH  41  42
ATOM     42  C   UNL     1      10.180  -8.939   3.774  1.00  0.00     0.031 A 
ATOM     43  C   UNL     1      11.279  -9.915   4.084  1.00  0.00     0.074 A 
ATOM     44  C   UNL     1       9.154  -9.298   2.983  1.00  0.00     0.049 A 
ATOM     45  N   UNL     1      11.442 -11.141   3.661  1.00  0.00    -0.248 NA
ATOM     46  C   UNL     1      12.337  -9.441   4.993  1.00  0.00     0.031 C 
ATOM     47  C   UNL     1       8.014  -8.454   2.635  1.00  0.00     0.029 A 
ATOM     48  N   UNL     1       8.921 -10.476   2.321  1.00  0.00    -0.354 N 
ATOM     49  C   UNL     1      12.617 -11.586   4.252  1.00  0.00     0.074 A 
ATOM     50  C   UNL     1      13.140 -10.492   5.042  1.00  0.00     0.031 C 
ATOM     51  C   UNL     1       7.203  -9.140   1.809  1.00  0.00     0.029 A 
ATOM     52  C   UNL     1       7.785 -10.457   1.552  1.00  0.00     0.049 A 
ATOM     53  H   UNL     1       9.512 -11.261   2.391  1.00  0.00     0.167 HD
ATOM     54  C   UNL     1      13.209 -12.798   4.150  1.00  0.00     0.031 A 
ATOM     55  C   UNL     1       7.286 -11.390   0.718  1.00  0.00     0.031 A 
ATOM     56  C   UNL     1      12.713 -13.876   3.341  1.00  0.00     0.049 A 
ATOM     57  C   UNL     1       8.015 -12.697   0.548  1.00  0.00     0.074 A 
ATOM     58  C   UNL     1      13.238 -15.146   3.179  1.00  0.00     0.029 A 
ATOM     59  N   UNL     1      11.583 -13.802   2.543  1.00  0.00    -0.354 N 
ATOM     60  N   UNL     1       9.105 -13.120   1.139  1.00  0.00    -0.248 NA
ATOM     61  C   UNL     1       7.439 -13.654  -0.409  1.00  0.00     0.031 C 
ATOM     62  C   UNL     1      12.450 -15.825   2.242  1.00  0.00     0.029 A 
ATOM     63  C   UNL     1      11.409 -14.993   1.861  1.00  0.00     0.049 A 
ATOM     64  H   UNL     1      10.991 -13.018   2.472  1.00  0.00     0.167 HD
ATOM     65  C   UNL     1       9.334 -14.399   0.644  1.00  0.00     0.074 A 
ATOM     66  C   UNL     1       8.262 -14.687  -0.286  1.00  0.00     0.031 C 
ATOM     67  C   UNL     1      10.340 -15.259   0.935  1.00  0.00     0.031 A 
BRANCH  54  68
ATOM     68  C   UNL     1      14.485 -12.999   4.913  1.00  0.00    -0.014 A 
ATOM     69  C   UNL     1      14.478 -13.152   6.309  1.00  0.00     0.009 A 
ATOM     70  C   UNL     1      15.708 -13.045   4.227  1.00  0.00     0.009 A 
ATOM     71  C   UNL     1      15.677 -13.315   7.006  1.00  0.00     0.001 A 
ATOM     72  C   UNL     1      16.902 -13.231   4.925  1.00  0.00     0.001 A 
ATOM     73  C   UNL     1      16.887 -13.357   6.313  1.00  0.00     0.000 A 
ENDBRANCH  54  68
BRANCH  55  74
ATOM     74  C   UNL     1       6.042 -11.120  -0.045  1.00  0.00    -0.014 A 
ATOM     75  C   UNL     1       4.851 -11.793   0.269  1.00  0.00     0.009 A 
ATOM     76  C   UNL     1       6.046 -10.210  -1.114  1.00  0.00     0.009 A 
ATOM     77  C   UNL     1       3.696 -11.576  -0.486  1.00  0.00     0.001 A 
ATOM     78  C   UNL     1       4.884  -9.978  -1.852  1.00  0.00     0.001 A 
ATOM     79  C   UNL     1       3.712 -10.667  -1.543  1.00  0.00     0.000 A 
ENDBRANCH  55  74
BRANCH  67  80
ATOM     80  C   UNL     1      10.316 -16.600   0.260  1.00  0.00    -0.014 A 
ATOM     81  C   UNL     1      10.661 -16.738  -1.093  1.00  0.00     0.009 A 
ATOM     82  C   UNL     1       9.991 -17.747   1.001  1.00  0.00     0.009 A 
ATOM     83  C   UNL     1      10.654 -17.997  -1.698  1.00  0.00     0.001 A 
ATOM     84  C   UNL     1      10.009 -19.007   0.401  1.00  0.00     0.001 A 
ATOM     85  C   UNL     1      10.333 -19.130  -0.950  1.00  0.00     0.000 A 
ENDBRANCH  67  80
ENDBRANCH  41  42
ENDBRANCH  34  36
ENDBRANCH  33  34
ENDBRANCH  32  33
ENDBRANCH  31  32
ENDBRANCH  30  31
ENDBRANCH  29  30
ENDBRANCH  28  29
ENDBRANCH  27  28
ENDBRANCH  26  27
ENDBRANCH   1  26
TORSDOF 25
