REMARK SMILES CC(=O)Nc1cnc(N2CC=C(c3ccccc3C)CC2)c(C(=O)OCCOCCOCCOCCOC(=O)c2ccc(-c3c4nc(c(-c5ccccc5)c5ccc([nH]5)c(-c5ccccc5)c5nc(c(-c6ccccc6)c6ccc3[nH]6)C=C5)C=C4)cc2)c1
REMARK SMILES IDX 31 1 30 2 29 3 28 4 27 5 26 6 25 7 23 8 24 9 22 10 5 11 6 12
REMARK SMILES IDX 88 13 7 14 8 15 4 16 1 17 2 18 3 19 9 21 10 22 21 23 11 24
REMARK SMILES IDX 20 25 12 26 13 27 14 28 18 29 15 30 17 31 19 32 16 33 32 34
REMARK SMILES IDX 33 35 34 36 35 37 36 38 37 39 38 40 39 41 40 42 41 43 87 44
REMARK SMILES IDX 42 45 86 46 43 47 44 48 45 49 80 50 46 51 85 52 79 53 81 54
REMARK SMILES IDX 47 55 84 56 78 57 77 58 48 60 70 61 55 62 69 63 56 64 59 65
REMARK SMILES IDX 68 66 82 67 57 68 58 69 67 71 83 72 60 73 49 74 50 75 54 76
REMARK SMILES IDX 51 77 53 78 52 79 71 80 72 81 76 82 73 83 75 84 74 85 61 86
REMARK SMILES IDX 62 87 66 88 63 89 65 90 64 91
REMARK H PARENT 4 20 81 59 59 70
REMARK Flexibility Score: inf
ROOT
ATOM      1  O   UNL     1       5.512  -1.497  -3.249  1.00  0.00    -0.377 OA
ENDROOT
BRANCH   1   2
ATOM      2  C   UNL     1       5.352  -0.278  -3.984  1.00  0.00     0.188 C 
BRANCH   2   3
ATOM      3  C   UNL     1       6.152   0.936  -3.504  1.00  0.00     0.188 C 
BRANCH   3   4
ATOM      4  O   UNL     1       5.426   2.126  -3.672  1.00  0.00    -0.376 OA
BRANCH   4   5
ATOM      5  C   UNL     1       5.981   3.270  -3.040  1.00  0.00     0.202 C 
BRANCH   5   6
ATOM      6  C   UNL     1       4.920   3.922  -2.178  1.00  0.00     0.261 C 
BRANCH   6   7
ATOM      7  O   UNL     1       3.710   3.175  -2.209  1.00  0.00    -0.460 OA
BRANCH   7   8
ATOM      8  C   UNL     1       2.771   3.695  -2.994  1.00  0.00     0.342 C 
ATOM      9  O   UNL     1       2.587   4.887  -3.208  1.00  0.00    -0.246 OA
BRANCH   8  10
ATOM     10  C   UNL     1       2.116   2.547  -3.618  1.00  0.00     0.104 A 
ATOM     11  C   UNL     1       1.041   0.407  -3.272  1.00  0.00     0.060 A 
ATOM     12  C   UNL     1       1.058   0.306  -4.660  1.00  0.00     0.139 A 
ATOM     13  C   UNL     1       1.605   1.554  -2.751  1.00  0.00     0.047 A 
ATOM     14  N   UNL     1       1.585   1.227  -5.514  1.00  0.00    -0.236 NA
ATOM     15  C   UNL     1       2.133   2.355  -5.006  1.00  0.00     0.143 A 
BRANCH  11  16
ATOM     16  N   UNL     1       0.512  -0.660  -2.520  1.00  0.00    -0.325 N 
ATOM     17  C   UNL     1       0.164   0.362  -0.259  1.00  0.00     0.114 C 
ATOM     18  C   UNL     1       0.180  -0.805  -1.204  1.00  0.00     0.221 C 
ATOM     19  O   UNL     1      -0.148  -1.927  -0.806  1.00  0.00    -0.275 OA
ATOM     20  H   UNL     1       0.347  -1.470  -3.055  1.00  0.00     0.169 HD
ENDBRANCH  11  16
BRANCH  15  21
ATOM     21  N   UNL     1       2.841   3.130  -5.924  1.00  0.00    -0.352 N 
ATOM     22  C   UNL     1       2.410   4.498  -6.173  1.00  0.00     0.146 C 
ATOM     23  C   UNL     1       4.280   2.921  -5.852  1.00  0.00     0.123 C 
ATOM     24  C   UNL     1       3.381   5.216  -7.071  1.00  0.00    -0.002 C 
ATOM     25  C   UNL     1       5.036   3.367  -7.082  1.00  0.00     0.057 C 
ATOM     26  C   UNL     1       4.554   4.718  -7.506  1.00  0.00    -0.041 C 
BRANCH  26  27
ATOM     27  C   UNL     1       5.324   5.469  -8.503  1.00  0.00    -0.020 A 
ATOM     28  C   UNL     1       5.802   6.749  -8.175  1.00  0.00     0.008 A 
ATOM     29  C   UNL     1       5.463   4.980  -9.817  1.00  0.00    -0.044 A 
ATOM     30  C   UNL     1       6.349   7.568  -9.160  1.00  0.00     0.001 A 
ATOM     31  C   UNL     1       6.019   5.816 -10.791  1.00  0.00     0.004 A 
ATOM     32  C   UNL     1       5.045   3.588 -10.210  1.00  0.00     0.045 C 
ATOM     33  C   UNL     1       6.434   7.109 -10.471  1.00  0.00     0.000 A 
ENDBRANCH  26  27
ENDBRANCH  15  21
ENDBRANCH   8  10
ENDBRANCH   7   8
ENDBRANCH   6   7
ENDBRANCH   5   6
ENDBRANCH   4   5
ENDBRANCH   3   4
ENDBRANCH   2   3
ENDBRANCH   1   2
BRANCH   1  34
ATOM     34  C   UNL     1       6.762  -1.719  -2.610  1.00  0.00     0.188 C 
BRANCH  34  35
ATOM     35  C   UNL     1       7.907  -2.035  -3.550  1.00  0.00     0.188 C 
BRANCH  35  36
ATOM     36  O   UNL     1       8.259  -0.861  -4.275  1.00  0.00    -0.376 OA
BRANCH  36  37
ATOM     37  C   UNL     1       8.914  -1.095  -5.516  1.00  0.00     0.202 C 
BRANCH  37  38
ATOM     38  C   UNL     1      10.220  -1.884  -5.361  1.00  0.00     0.261 C 
BRANCH  38  39
ATOM     39  O   UNL     1      11.151  -1.103  -4.580  1.00  0.00    -0.460 OA
BRANCH  39  40
ATOM     40  C   UNL     1      11.310  -1.490  -3.284  1.00  0.00     0.338 C 
ATOM     41  O   UNL     1      11.509  -2.632  -2.905  1.00  0.00    -0.246 OA
BRANCH  40  42
ATOM     42  C   UNL     1      10.900  -0.380  -2.369  1.00  0.00     0.060 A 
ATOM     43  C   UNL     1      10.747  -0.618  -0.991  1.00  0.00     0.016 A 
ATOM     44  C   UNL     1      10.347   0.765  -2.927  1.00  0.00     0.016 A 
ATOM     45  C   UNL     1       9.898   0.195  -0.218  1.00  0.00     0.010 A 
ATOM     46  C   UNL     1       9.426   1.482  -2.191  1.00  0.00     0.010 A 
ATOM     47  C   UNL     1       9.155   1.195  -0.841  1.00  0.00    -0.014 A 
BRANCH  47  48
ATOM     48  C   UNL     1       7.983   1.906  -0.259  1.00  0.00     0.031 A 
ATOM     49  C   UNL     1       7.989   3.426  -0.328  1.00  0.00     0.074 A 
ATOM     50  C   UNL     1       6.873   1.136  -0.069  1.00  0.00     0.049 A 
ATOM     51  N   UNL     1       7.073   4.236   0.089  1.00  0.00    -0.248 NA
ATOM     52  C   UNL     1       9.102   4.176  -0.932  1.00  0.00     0.031 C 
ATOM     53  C   UNL     1       5.455   1.433  -0.258  1.00  0.00     0.029 A 
ATOM     54  N   UNL     1       6.766  -0.205   0.222  1.00  0.00    -0.354 N 
ATOM     55  C   UNL     1       7.282   5.497  -0.488  1.00  0.00     0.074 A 
ATOM     56  C   UNL     1       8.607   5.413  -1.045  1.00  0.00     0.031 C 
ATOM     57  C   UNL     1       4.651   0.427   0.106  1.00  0.00     0.029 A 
ATOM     58  C   UNL     1       5.502  -0.524   0.727  1.00  0.00     0.049 A 
ATOM     59  H   UNL     1       7.490  -0.859   0.090  1.00  0.00     0.167 HD
ATOM     60  C   UNL     1       6.255   6.413  -0.580  1.00  0.00     0.031 A 
ATOM     61  C   UNL     1       5.353  -0.878   2.029  1.00  0.00     0.031 A 
ATOM     62  C   UNL     1       5.046   5.949   0.153  1.00  0.00     0.049 A 
ATOM     63  C   UNL     1       4.854   0.360   2.816  1.00  0.00     0.074 A 
ATOM     64  C   UNL     1       3.703   5.814  -0.174  1.00  0.00     0.029 A 
ATOM     65  N   UNL     1       5.190   5.249   1.358  1.00  0.00    -0.354 N 
ATOM     66  N   UNL     1       5.080   1.620   2.470  1.00  0.00    -0.248 NA
ATOM     67  C   UNL     1       3.823   0.271   3.855  1.00  0.00     0.031 C 
ATOM     68  C   UNL     1       3.158   4.780   0.645  1.00  0.00     0.029 A 
ATOM     69  C   UNL     1       4.103   4.430   1.602  1.00  0.00     0.049 A 
ATOM     70  H   UNL     1       5.967   5.330   1.957  1.00  0.00     0.167 HD
ATOM     71  C   UNL     1       4.193   2.454   3.117  1.00  0.00     0.074 A 
ATOM     72  C   UNL     1       3.455   1.558   3.998  1.00  0.00     0.031 C 
ATOM     73  C   UNL     1       3.946   3.788   2.898  1.00  0.00     0.031 A 
BRANCH  60  74
ATOM     74  C   UNL     1       6.208   7.604  -1.582  1.00  0.00    -0.014 A 
ATOM     75  C   UNL     1       5.011   8.338  -1.757  1.00  0.00     0.009 A 
ATOM     76  C   UNL     1       7.248   8.012  -2.443  1.00  0.00     0.009 A 
ATOM     77  C   UNL     1       4.841   9.339  -2.737  1.00  0.00     0.001 A 
ATOM     78  C   UNL     1       7.101   9.040  -3.406  1.00  0.00     0.001 A 
ATOM     79  C   UNL     1       5.891   9.695  -3.564  1.00  0.00     0.000 A 
ENDBRANCH  60  74
BRANCH  61  80
ATOM     80  C   UNL     1       6.252  -2.076   2.233  1.00  0.00    -0.014 A 
ATOM     81  C   UNL     1       5.845  -3.191   1.434  1.00  0.00     0.009 A 
ATOM     82  C   UNL     1       7.639  -1.907   2.409  1.00  0.00     0.009 A 
ATOM     83  C   UNL     1       6.754  -3.875   0.609  1.00  0.00     0.001 A 
ATOM     84  C   UNL     1       8.551  -2.632   1.603  1.00  0.00     0.001 A 
ATOM     85  C   UNL     1       8.104  -3.555   0.655  1.00  0.00     0.000 A 
ENDBRANCH  61  80
BRANCH  73  86
ATOM     86  C   UNL     1       3.480   4.728   3.998  1.00  0.00    -0.014 A 
ATOM     87  C   UNL     1       3.677   4.436   5.350  1.00  0.00     0.009 A 
ATOM     88  C   UNL     1       3.099   6.059   3.684  1.00  0.00     0.009 A 
ATOM     89  C   UNL     1       3.487   5.411   6.333  1.00  0.00     0.001 A 
ATOM     90  C   UNL     1       2.963   7.047   4.655  1.00  0.00     0.001 A 
ATOM     91  C   UNL     1       3.152   6.717   5.986  1.00  0.00     0.000 A 
ENDBRANCH  73  86
ENDBRANCH  47  48
ENDBRANCH  40  42
ENDBRANCH  39  40
ENDBRANCH  38  39
ENDBRANCH  37  38
ENDBRANCH  36  37
ENDBRANCH  35  36
ENDBRANCH  34  35
ENDBRANCH   1  34
TORSDOF 23
