REMARK SMILES O=C(OCCOCCOCCOCCOC(=O)c1ccc(-c2c3nc(c(-c4ccccc4)c4ccc([nH]4)c(-c4ccccc4)c4nc(c(-c5ccccc5)c5ccc2[nH]5)C=C4)C=C3)cc1)c1ccc(NC(=O)[C@@H]2CC=CC[C@H]2C(=O)Nc2cccc([N+](=O)[O-])c2)cc1
REMARK SMILES IDX 7 1 6 2 5 3 4 4 3 5 2 6 1 7 66 8 67 9 92 10 68 11 91 12
REMARK SMILES IDX 69 13 70 14 71 15 72 17 73 18 74 19 78 20 75 21 77 22 76 23
REMARK SMILES IDX 79 24 80 25 81 26 82 28 83 29 90 30 84 31 86 32 85 33 87 34
REMARK SMILES IDX 88 35 89 36 8 37 9 38 10 39 11 40 12 41 13 42 14 43 15 44
REMARK SMILES IDX 16 45 17 46 18 47 19 48 65 49 20 50 64 51 21 52 22 53 23 54
REMARK SMILES IDX 58 55 24 56 63 57 57 58 59 59 25 60 62 61 56 62 55 63 26 65
REMARK SMILES IDX 48 66 33 67 47 68 34 69 37 70 46 71 60 72 35 73 36 74 45 76
REMARK SMILES IDX 61 77 38 78 27 79 28 80 32 81 29 82 31 83 30 84 49 85 50 86
REMARK SMILES IDX 54 87 51 88 53 89 52 90 39 91 40 92 44 93 41 94 43 95 42 96
REMARK H PARENT 70 16 81 27 59 64 37 75
REMARK Flexibility Score: inf
ROOT
ATOM      1  C   UNL     1      10.647  -8.537   1.196  1.00  0.00     0.188 C 
ENDROOT
BRANCH   1   2
ATOM      2  O   UNL     1       9.232  -8.464   1.011  1.00  0.00    -0.376 OA
BRANCH   2   3
ATOM      3  C   UNL     1       8.646  -9.615   0.411  1.00  0.00     0.202 C 
BRANCH   3   4
ATOM      4  C   UNL     1       8.347  -9.386  -1.071  1.00  0.00     0.261 C 
BRANCH   4   5
ATOM      5  O   UNL     1       9.523  -8.976  -1.794  1.00  0.00    -0.460 OA
BRANCH   5   6
ATOM      6  C   UNL     1      10.018  -7.750  -2.096  1.00  0.00     0.338 C 
ATOM      7  O   UNL     1      11.088  -7.714  -2.707  1.00  0.00    -0.246 OA
BRANCH   6   8
ATOM      8  C   UNL     1       9.399  -6.427  -1.734  1.00  0.00     0.060 A 
ATOM      9  C   UNL     1       8.322  -6.229  -0.888  1.00  0.00     0.018 A 
ATOM     10  C   UNL     1      10.001  -5.258  -2.238  1.00  0.00     0.018 A 
ATOM     11  C   UNL     1       7.932  -4.942  -0.483  1.00  0.00     0.027 A 
ATOM     12  C   UNL     1       9.645  -3.975  -1.764  1.00  0.00     0.027 A 
ATOM     13  C   UNL     1       8.669  -3.824  -0.778  1.00  0.00     0.041 A 
BRANCH  13  14
ATOM     14  N   UNL     1       8.549  -2.588  -0.113  1.00  0.00    -0.326 N 
ATOM     15  C   UNL     1       7.974  -2.108   1.035  1.00  0.00     0.228 C 
ATOM     16  H   UNL     1       9.004  -1.871  -0.610  1.00  0.00     0.169 HD
ATOM     17  O   UNL     1       8.203  -0.907   1.247  1.00  0.00    -0.274 OA
BRANCH  15  18
ATOM     18  C   UNL     1       7.062  -2.887   2.017  1.00  0.00     0.095 C 
ATOM     19  C   UNL     1       6.182  -1.860   2.785  1.00  0.00     0.041 C 
ATOM     20  C   UNL     1       7.768  -3.857   2.999  1.00  0.00     0.095 C 
ATOM     21  C   UNL     1       5.408  -2.401   3.947  1.00  0.00    -0.030 C 
ATOM     22  C   UNL     1       7.096  -4.162   4.367  1.00  0.00     0.041 C 
ATOM     23  C   UNL     1       5.832  -3.438   4.670  1.00  0.00    -0.030 C 
BRANCH  20  24
ATOM     24  C   UNL     1       8.197  -5.199   2.419  1.00  0.00     0.228 C 
ATOM     25  O   UNL     1       9.389  -5.353   2.121  1.00  0.00    -0.274 OA
ATOM     26  N   UNL     1       7.373  -6.291   2.269  1.00  0.00    -0.326 N 
ATOM     27  H   UNL     1       7.884  -7.125   2.150  1.00  0.00     0.169 HD
BRANCH  26  28
ATOM     28  C   UNL     1       5.979  -6.518   2.244  1.00  0.00     0.048 A 
ATOM     29  C   UNL     1       5.494  -7.763   2.656  1.00  0.00     0.026 A 
ATOM     30  C   UNL     1       5.055  -5.635   1.699  1.00  0.00     0.111 A 
ATOM     31  C   UNL     1       4.122  -8.067   2.596  1.00  0.00     0.009 A 
ATOM     32  C   UNL     1       3.687  -5.925   1.625  1.00  0.00     0.271 A 
ATOM     33  C   UNL     1       3.208  -7.144   2.087  1.00  0.00     0.086 A 
BRANCH  32  34
ATOM     34  N   UNL     1       2.786  -4.942   1.005  1.00  0.00     0.062 N 
ATOM     35  O   UNL     1       1.577  -5.206   0.978  1.00  0.00    -0.258 OA
ATOM     36  O   UNL     1       3.292  -3.910   0.537  1.00  0.00    -0.258 OA
ENDBRANCH  32  34
ENDBRANCH  26  28
ENDBRANCH  20  24
ENDBRANCH  15  18
ENDBRANCH  13  14
ENDBRANCH   6   8
ENDBRANCH   5   6
ENDBRANCH   4   5
ENDBRANCH   3   4
ENDBRANCH   2   3
ENDBRANCH   1   2
BRANCH   1  37
ATOM     37  C   UNL     1      11.165  -9.361   2.392  1.00  0.00     0.188 C 
BRANCH  37  38
ATOM     38  O   UNL     1      10.514  -9.430   3.654  1.00  0.00    -0.377 OA
BRANCH  38  39
ATOM     39  C   UNL     1       9.180  -9.021   3.837  1.00  0.00     0.188 C 
BRANCH  39  40
ATOM     40  C   UNL     1       8.965  -7.793   4.741  1.00  0.00     0.188 C 
BRANCH  40  41
ATOM     41  O   UNL     1       9.802  -6.660   4.644  1.00  0.00    -0.376 OA
BRANCH  41  42
ATOM     42  C   UNL     1      11.209  -6.837   4.756  1.00  0.00     0.202 C 
BRANCH  42  43
ATOM     43  C   UNL     1      11.792  -7.578   5.978  1.00  0.00     0.261 C 
BRANCH  43  44
ATOM     44  O   UNL     1      11.297  -8.917   6.176  1.00  0.00    -0.460 OA
BRANCH  44  45
ATOM     45  C   UNL     1      10.454  -9.106   7.216  1.00  0.00     0.338 C 
ATOM     46  O   UNL     1      10.137  -8.289   8.071  1.00  0.00    -0.246 OA
BRANCH  45  47
ATOM     47  C   UNL     1       9.742 -10.392   7.047  1.00  0.00     0.060 A 
ATOM     48  C   UNL     1       8.338 -10.380   6.955  1.00  0.00     0.016 A 
ATOM     49  C   UNL     1      10.436 -11.600   7.013  1.00  0.00     0.016 A 
ATOM     50  C   UNL     1       7.625 -11.569   6.822  1.00  0.00     0.010 A 
ATOM     51  C   UNL     1       9.716 -12.798   6.945  1.00  0.00     0.010 A 
ATOM     52  C   UNL     1       8.310 -12.786   6.878  1.00  0.00    -0.014 A 
BRANCH  52  53
ATOM     53  C   UNL     1       7.551 -14.023   7.169  1.00  0.00     0.031 A 
ATOM     54  C   UNL     1       7.368 -14.397   8.614  1.00  0.00     0.074 A 
ATOM     55  C   UNL     1       7.027 -14.788   6.196  1.00  0.00     0.049 A 
ATOM     56  N   UNL     1       6.830 -15.468   9.136  1.00  0.00    -0.248 NA
ATOM     57  C   UNL     1       7.866 -13.427   9.604  1.00  0.00     0.031 C 
ATOM     58  C   UNL     1       7.068 -14.494   4.766  1.00  0.00     0.029 A 
ATOM     59  N   UNL     1       6.363 -15.987   6.278  1.00  0.00    -0.354 N 
ATOM     60  C   UNL     1       6.944 -15.308  10.511  1.00  0.00     0.074 A 
ATOM     61  C   UNL     1       7.615 -14.050  10.744  1.00  0.00     0.031 C 
ATOM     62  C   UNL     1       6.474 -15.501   4.100  1.00  0.00     0.029 A 
ATOM     63  C   UNL     1       6.050 -16.526   5.054  1.00  0.00     0.049 A 
ATOM     64  H   UNL     1       6.133 -16.419   7.132  1.00  0.00     0.167 HD
ATOM     65  C   UNL     1       6.530 -16.138  11.497  1.00  0.00     0.031 A 
ATOM     66  C   UNL     1       5.515 -17.724   4.746  1.00  0.00     0.031 A 
ATOM     67  C   UNL     1       5.892 -17.404  11.263  1.00  0.00     0.049 A 
ATOM     68  C   UNL     1       5.157 -18.680   5.856  1.00  0.00     0.074 A 
ATOM     69  C   UNL     1       5.436 -18.323  12.190  1.00  0.00     0.029 A 
ATOM     70  N   UNL     1       5.633 -17.933  10.008  1.00  0.00    -0.354 N 
ATOM     71  N   UNL     1       5.257 -18.518   7.155  1.00  0.00    -0.248 NA
ATOM     72  C   UNL     1       4.608 -19.984   5.456  1.00  0.00     0.031 C 
ATOM     73  C   UNL     1       4.961 -19.439  11.495  1.00  0.00     0.029 A 
ATOM     74  C   UNL     1       5.050 -19.181  10.135  1.00  0.00     0.049 A 
ATOM     75  H   UNL     1       5.835 -17.487   9.154  1.00  0.00     0.167 HD
ATOM     76  C   UNL     1       4.752 -19.682   7.725  1.00  0.00     0.074 A 
ATOM     77  C   UNL     1       4.335 -20.535   6.631  1.00  0.00     0.031 C 
ATOM     78  C   UNL     1       4.638 -20.014   9.035  1.00  0.00     0.031 A 
BRANCH  65  79
ATOM     79  C   UNL     1       6.817 -15.721  12.912  1.00  0.00    -0.014 A 
ATOM     80  C   UNL     1       6.159 -14.631  13.505  1.00  0.00     0.009 A 
ATOM     81  C   UNL     1       7.761 -16.435  13.666  1.00  0.00     0.009 A 
ATOM     82  C   UNL     1       6.470 -14.243  14.810  1.00  0.00     0.001 A 
ATOM     83  C   UNL     1       8.045 -16.066  14.981  1.00  0.00     0.001 A 
ATOM     84  C   UNL     1       7.408 -14.963  15.548  1.00  0.00     0.000 A 
ENDBRANCH  65  79
BRANCH  66  85
ATOM     85  C   UNL     1       5.312 -18.110   3.323  1.00  0.00    -0.014 A 
ATOM     86  C   UNL     1       4.020 -18.275   2.801  1.00  0.00     0.009 A 
ATOM     87  C   UNL     1       6.413 -18.348   2.485  1.00  0.00     0.009 A 
ATOM     88  C   UNL     1       3.835 -18.693   1.481  1.00  0.00     0.001 A 
ATOM     89  C   UNL     1       6.226 -18.735   1.156  1.00  0.00     0.001 A 
ATOM     90  C   UNL     1       4.938 -18.917   0.658  1.00  0.00     0.000 A 
ENDBRANCH  66  85
BRANCH  78  91
ATOM     91  C   UNL     1       3.990 -21.332   9.365  1.00  0.00    -0.014 A 
ATOM     92  C   UNL     1       4.631 -22.554   9.111  1.00  0.00     0.009 A 
ATOM     93  C   UNL     1       2.734 -21.343   9.994  1.00  0.00     0.009 A 
ATOM     94  C   UNL     1       4.012 -23.760   9.448  1.00  0.00     0.001 A 
ATOM     95  C   UNL     1       2.134 -22.548  10.362  1.00  0.00     0.001 A 
ATOM     96  C   UNL     1       2.768 -23.755  10.079  1.00  0.00     0.000 A 
ENDBRANCH  78  91
ENDBRANCH  52  53
ENDBRANCH  45  47
ENDBRANCH  44  45
ENDBRANCH  43  44
ENDBRANCH  42  43
ENDBRANCH  41  42
ENDBRANCH  40  41
ENDBRANCH  39  40
ENDBRANCH  38  39
ENDBRANCH  37  38
ENDBRANCH   1  37
TORSDOF 25
