REMARK SMILES CCN(Cc1ccccn1)c1nc(C)cc(C)c1C(=O)OCCOCCOCCOCCOC(=O)c1ccc(-c2c3nc(c(-c4ccccc4)c4ccc([nH]4)c(-c4ccccc4)c4nc(c(-c5ccccc5)c5ccc2[nH]5)C=C4)C=C3)cc1
REMARK SMILES IDX 26 1 25 2 24 3 23 4 22 5 21 6 19 7 20 8 18 9 11 10 12 11
REMARK SMILES IDX 13 12 16 13 14 14 15 15 17 16 3 17 2 18 1 19 4 20 5 21 6 22
REMARK SMILES IDX 10 23 7 24 9 25 8 26 27 27 28 28 29 29 30 30 31 31 32 32
REMARK SMILES IDX 33 33 34 34 35 35 36 36 37 37 83 38 38 39 82 40 39 41 40 42
REMARK SMILES IDX 41 43 76 44 42 45 81 46 75 47 77 48 43 49 80 50 74 51 73 52
REMARK SMILES IDX 44 54 66 55 51 56 65 57 52 58 55 59 64 60 78 61 53 62 54 63
REMARK SMILES IDX 63 65 79 66 56 67 45 68 46 69 50 70 47 71 49 72 48 73 67 74
REMARK SMILES IDX 68 75 72 76 69 77 71 78 70 79 57 80 58 81 62 82 59 83 61 84
REMARK SMILES IDX 60 85
REMARK H PARENT 77 53 55 64
REMARK Flexibility Score: inf
ROOT
ATOM      1  C   UNL     1       3.229   0.776  -1.183  1.00  0.00     0.188 C 
ENDROOT
BRANCH   1   2
ATOM      2  C   UNL     1       1.895   0.964  -0.427  1.00  0.00     0.188 C 
BRANCH   2   3
ATOM      3  O   UNL     1       1.774   2.157   0.330  1.00  0.00    -0.376 OA
BRANCH   3   4
ATOM      4  C   UNL     1       1.575   2.047   1.728  1.00  0.00     0.202 C 
BRANCH   4   5
ATOM      5  C   UNL     1       2.763   1.465   2.493  1.00  0.00     0.261 C 
BRANCH   5   6
ATOM      6  O   UNL     1       3.253   0.249   1.912  1.00  0.00    -0.460 OA
BRANCH   6   7
ATOM      7  C   UNL     1       2.606  -0.908   2.193  1.00  0.00     0.342 C 
ATOM      8  O   UNL     1       1.699  -1.028   2.995  1.00  0.00    -0.246 OA
BRANCH   7   9
ATOM      9  C   UNL     1       3.149  -1.970   1.296  1.00  0.00     0.105 A 
ATOM     10  C   UNL     1       2.283  -2.908   0.696  1.00  0.00     0.144 A 
ATOM     11  N   UNL     1       2.809  -3.980   0.057  1.00  0.00    -0.235 NA
ATOM     12  C   UNL     1       4.142  -4.155  -0.040  1.00  0.00     0.040 A 
ATOM     13  C   UNL     1       4.555  -2.096   1.100  1.00  0.00    -0.031 A 
ATOM     14  C   UNL     1       4.604  -5.450  -0.632  1.00  0.00     0.067 C 
ATOM     15  C   UNL     1       5.040  -3.212   0.413  1.00  0.00     0.028 A 
ATOM     16  C   UNL     1       5.575  -1.083   1.558  1.00  0.00     0.045 C 
BRANCH  10  17
ATOM     17  N   UNL     1       0.893  -2.832   0.670  1.00  0.00    -0.350 N 
BRANCH  17  18
ATOM     18  C   UNL     1       0.204  -1.944  -0.269  1.00  0.00     0.115 C 
ATOM     19  C   UNL     1      -0.668  -0.928   0.457  1.00  0.00     0.027 C 
ENDBRANCH  17  18
BRANCH  17  20
ATOM     20  C   UNL     1       0.170  -4.064   1.038  1.00  0.00     0.174 C 
BRANCH  20  21
ATOM     21  C   UNL     1       0.186  -5.242   0.065  1.00  0.00     0.060 A 
ATOM     22  C   UNL     1       0.432  -5.117  -1.306  1.00  0.00     0.026 A 
ATOM     23  N   UNL     1      -0.098  -6.453   0.617  1.00  0.00    -0.259 NA
ATOM     24  C   UNL     1       0.442  -6.253  -2.114  1.00  0.00     0.004 A 
ATOM     25  C   UNL     1      -0.074  -7.538  -0.188  1.00  0.00     0.111 A 
ATOM     26  C   UNL     1       0.192  -7.490  -1.544  1.00  0.00     0.020 A 
ENDBRANCH  20  21
ENDBRANCH  17  20
ENDBRANCH  10  17
ENDBRANCH   7   9
ENDBRANCH   6   7
ENDBRANCH   5   6
ENDBRANCH   4   5
ENDBRANCH   3   4
ENDBRANCH   2   3
ENDBRANCH   1   2
BRANCH   1  27
ATOM     27  O   UNL     1       4.029   1.884  -1.580  1.00  0.00    -0.377 OA
BRANCH  27  28
ATOM     28  C   UNL     1       3.515   3.183  -1.344  1.00  0.00     0.188 C 
BRANCH  28  29
ATOM     29  C   UNL     1       2.218   3.539  -2.109  1.00  0.00     0.188 C 
BRANCH  29  30
ATOM     30  O   UNL     1       1.572   2.412  -2.679  1.00  0.00    -0.376 OA
BRANCH  30  31
ATOM     31  C   UNL     1       1.696   2.143  -4.062  1.00  0.00     0.202 C 
BRANCH  31  32
ATOM     32  C   UNL     1       3.072   2.049  -4.739  1.00  0.00     0.261 C 
BRANCH  32  33
ATOM     33  O   UNL     1       4.085   2.954  -4.298  1.00  0.00    -0.460 OA
BRANCH  33  34
ATOM     34  C   UNL     1       3.968   4.253  -4.658  1.00  0.00     0.338 C 
ATOM     35  O   UNL     1       3.102   4.756  -5.330  1.00  0.00    -0.246 OA
BRANCH  34  36
ATOM     36  C   UNL     1       4.986   4.992  -3.871  1.00  0.00     0.060 A 
ATOM     37  C   UNL     1       4.563   6.024  -3.020  1.00  0.00     0.016 A 
ATOM     38  C   UNL     1       6.328   4.603  -3.904  1.00  0.00     0.016 A 
ATOM     39  C   UNL     1       5.486   6.677  -2.206  1.00  0.00     0.010 A 
ATOM     40  C   UNL     1       7.260   5.290  -3.127  1.00  0.00     0.010 A 
ATOM     41  C   UNL     1       6.844   6.350  -2.301  1.00  0.00    -0.014 A 
BRANCH  41  42
ATOM     42  C   UNL     1       7.848   7.301  -1.781  1.00  0.00     0.031 A 
ATOM     43  C   UNL     1       8.337   8.360  -2.729  1.00  0.00     0.074 A 
ATOM     44  C   UNL     1       8.298   7.248  -0.517  1.00  0.00     0.049 A 
ATOM     45  N   UNL     1       9.244   9.284  -2.550  1.00  0.00    -0.248 NA
ATOM     46  C   UNL     1       7.716   8.375  -4.066  1.00  0.00     0.031 C 
ATOM     47  C   UNL     1       7.859   6.302   0.506  1.00  0.00     0.029 A 
ATOM     48  N   UNL     1       9.241   8.019   0.116  1.00  0.00    -0.354 N 
ATOM     49  C   UNL     1       9.300   9.985  -3.748  1.00  0.00     0.074 A 
ATOM     50  C   UNL     1       8.366   9.363  -4.657  1.00  0.00     0.031 C 
ATOM     51  C   UNL     1       8.548   6.537   1.638  1.00  0.00     0.029 A 
ATOM     52  C   UNL     1       9.495   7.627   1.406  1.00  0.00     0.049 A 
ATOM     53  H   UNL     1       9.693   8.780  -0.316  1.00  0.00     0.167 HD
ATOM     54  C   UNL     1      10.058  11.059  -4.062  1.00  0.00     0.031 A 
ATOM     55  C   UNL     1      10.409   8.084   2.284  1.00  0.00     0.031 A 
ATOM     56  C   UNL     1      11.011  11.653  -3.168  1.00  0.00     0.049 A 
ATOM     57  C   UNL     1      11.314   9.221   1.877  1.00  0.00     0.074 A 
ATOM     58  C   UNL     1      11.841  12.736  -3.390  1.00  0.00     0.029 A 
ATOM     59  N   UNL     1      11.265  11.205  -1.881  1.00  0.00    -0.354 N 
ATOM     60  N   UNL     1      11.349   9.890   0.749  1.00  0.00    -0.248 NA
ATOM     61  C   UNL     1      12.300   9.671   2.871  1.00  0.00     0.031 C 
ATOM     62  C   UNL     1      12.641  12.906  -2.256  1.00  0.00     0.029 A 
ATOM     63  C   UNL     1      12.256  11.976  -1.303  1.00  0.00     0.049 A 
ATOM     64  H   UNL     1      10.808  10.450  -1.445  1.00  0.00     0.167 HD
ATOM     65  C   UNL     1      12.332  10.861   0.912  1.00  0.00     0.074 A 
ATOM     66  C   UNL     1      12.858  10.701   2.252  1.00  0.00     0.031 C 
ATOM     67  C   UNL     1      12.759  11.803   0.035  1.00  0.00     0.031 A 
BRANCH  54  68
ATOM     68  C   UNL     1       9.909  11.624  -5.446  1.00  0.00    -0.014 A 
ATOM     69  C   UNL     1       8.741  12.300  -5.835  1.00  0.00     0.009 A 
ATOM     70  C   UNL     1      10.956  11.490  -6.369  1.00  0.00     0.009 A 
ATOM     71  C   UNL     1       8.614  12.803  -7.131  1.00  0.00     0.001 A 
ATOM     72  C   UNL     1      10.839  12.022  -7.654  1.00  0.00     0.001 A 
ATOM     73  C   UNL     1       9.665  12.670  -8.037  1.00  0.00     0.000 A 
ENDBRANCH  54  68
BRANCH  55  74
ATOM     74  C   UNL     1      10.546   7.454   3.625  1.00  0.00    -0.014 A 
ATOM     75  C   UNL     1      10.230   8.166   4.793  1.00  0.00     0.009 A 
ATOM     76  C   UNL     1      11.034   6.143   3.746  1.00  0.00     0.009 A 
ATOM     77  C   UNL     1      10.432   7.591   6.051  1.00  0.00     0.001 A 
ATOM     78  C   UNL     1      11.204   5.559   5.003  1.00  0.00     0.001 A 
ATOM     79  C   UNL     1      10.915   6.288   6.155  1.00  0.00     0.000 A 
ENDBRANCH  55  74
BRANCH  67  80
ATOM     80  C   UNL     1      13.809  12.769   0.512  1.00  0.00    -0.014 A 
ATOM     81  C   UNL     1      15.136  12.368   0.726  1.00  0.00     0.009 A 
ATOM     82  C   UNL     1      13.469  14.120   0.696  1.00  0.00     0.009 A 
ATOM     83  C   UNL     1      16.093  13.293   1.151  1.00  0.00     0.001 A 
ATOM     84  C   UNL     1      14.434  15.048   1.087  1.00  0.00     0.001 A 
ATOM     85  C   UNL     1      15.742  14.632   1.325  1.00  0.00     0.000 A 
ENDBRANCH  67  80
ENDBRANCH  41  42
ENDBRANCH  34  36
ENDBRANCH  33  34
ENDBRANCH  32  33
ENDBRANCH  31  32
ENDBRANCH  30  31
ENDBRANCH  29  30
ENDBRANCH  28  29
ENDBRANCH  27  28
ENDBRANCH   1  27
TORSDOF 24
