REMARK SMILES CC(C)CSc1cc2c(cc1Cl)C=C(C(=O)OCCOCCOCCOCCOC(=O)c1ccc(-c3c4nc(c(-c5ccccc5)c5ccc([nH]5)c(-c5ccccc5)c5nc(c(-c6ccccc6)c6ccc3[nH]6)C=C5)C=C4)cc1)[C@@H](C(F)(F)F)O2
REMARK SMILES IDX 22 1 21 2 20 3 19 4 18 5 17 6 15 7 16 8 14 9 6 10 7 11 11 12
REMARK SMILES IDX 8 13 10 14 12 15 9 16 85 17 13 18 80 19 5 20 4 21 2 22 1 23
REMARK SMILES IDX 3 24 81 25 82 26 83 27 84 28 23 29 24 30 25 31 26 32 27 33
REMARK SMILES IDX 28 34 29 35 30 36 31 37 32 38 33 39 79 40 34 41 78 42 35 43
REMARK SMILES IDX 36 44 37 45 72 46 38 47 77 48 71 49 73 50 39 51 76 52 70 53
REMARK SMILES IDX 69 54 40 56 62 57 47 58 61 59 48 60 51 61 60 62 74 63 49 64
REMARK SMILES IDX 50 65 59 67 75 68 52 69 41 70 42 71 46 72 43 73 45 74 44 75
REMARK SMILES IDX 63 76 64 77 68 78 65 79 67 80 66 81 53 82 54 83 58 84 55 85
REMARK SMILES IDX 57 86 56 87
REMARK H PARENT 73 55 51 66
REMARK Flexibility Score: inf
ROOT
ATOM      1  C   UNL     1      -1.899   7.189   3.872  1.00  0.00     0.188 C 
ENDROOT
BRANCH   1   2
ATOM      2  C   UNL     1      -0.599   7.241   4.695  1.00  0.00     0.188 C 
BRANCH   2   3
ATOM      3  O   UNL     1      -0.228   8.565   5.076  1.00  0.00    -0.376 OA
BRANCH   3   4
ATOM      4  C   UNL     1       0.823   9.177   4.336  1.00  0.00     0.202 C 
BRANCH   4   5
ATOM      5  C   UNL     1       0.510   9.549   2.880  1.00  0.00     0.261 C 
BRANCH   5   6
ATOM      6  O   UNL     1       0.119   8.444   2.048  1.00  0.00    -0.460 OA
BRANCH   6   7
ATOM      7  C   UNL     1       1.046   7.504   1.781  1.00  0.00     0.338 C 
ATOM      8  O   UNL     1       2.213   7.504   2.127  1.00  0.00    -0.246 OA
BRANCH   7   9
ATOM      9  C   UNL     1       0.351   6.366   1.147  1.00  0.00     0.087 C 
ATOM     10  C   UNL     1      -1.457   1.817  -0.044  1.00  0.00     0.030 A 
ATOM     11  C   UNL     1      -1.436   3.078  -0.674  1.00  0.00     0.063 A 
ATOM     12  C   UNL     1      -1.024   1.751   1.289  1.00  0.00     0.055 A 
ATOM     13  C   UNL     1      -0.884   4.197  -0.046  1.00  0.00     0.129 A 
ATOM     14  C   UNL     1      -0.393   2.854   1.885  1.00  0.00     0.033 A 
ATOM     15  Cl  UNL     1      -1.260   0.381   2.314  1.00  0.00    -0.083 Cl
ATOM     16  C   UNL     1      -0.280   4.063   1.198  1.00  0.00     0.019 A 
ATOM     17  O   UNL     1      -0.916   5.375  -0.738  1.00  0.00    -0.475 OA
ATOM     18  C   UNL     1       0.492   5.171   1.738  1.00  0.00     0.027 C 
ATOM     19  C   UNL     1      -0.585   6.599  -0.012  1.00  0.00     0.316 C 
BRANCH  10  20
ATOM     20  S   UNL     1      -2.060   0.490  -1.087  1.00  0.00    -0.124 SA
BRANCH  20  21
ATOM     21  C   UNL     1      -1.067  -1.002  -0.683  1.00  0.00     0.078 C 
BRANCH  21  22
ATOM     22  C   UNL     1       0.433  -1.064  -1.040  1.00  0.00    -0.007 C 
ATOM     23  C   UNL     1       1.316   0.012  -0.412  1.00  0.00     0.008 C 
ATOM     24  C   UNL     1       0.969  -2.440  -0.611  1.00  0.00     0.008 C 
ENDBRANCH  21  22
ENDBRANCH  20  21
ENDBRANCH  10  20
BRANCH  19  25
ATOM     25  C   UNL     1      -0.052   7.603  -1.048  1.00  0.00     0.430 C 
ATOM     26  F   UNL     1      -0.932   7.760  -2.068  1.00  0.00    -0.167 F 
ATOM     27  F   UNL     1       0.151   8.833  -0.528  1.00  0.00    -0.167 F 
ATOM     28  F   UNL     1       1.120   7.193  -1.583  1.00  0.00    -0.167 F 
ENDBRANCH  19  25
ENDBRANCH   7   9
ENDBRANCH   6   7
ENDBRANCH   5   6
ENDBRANCH   4   5
ENDBRANCH   3   4
ENDBRANCH   2   3
ENDBRANCH   1   2
BRANCH   1  29
ATOM     29  O   UNL     1      -2.336   8.469   3.445  1.00  0.00    -0.377 OA
BRANCH  29  30
ATOM     30  C   UNL     1      -3.058   9.267   4.382  1.00  0.00     0.188 C 
BRANCH  30  31
ATOM     31  C   UNL     1      -2.963   9.027   5.906  1.00  0.00     0.188 C 
BRANCH  31  32
ATOM     32  O   UNL     1      -3.116   7.661   6.285  1.00  0.00    -0.376 OA
BRANCH  32  33
ATOM     33  C   UNL     1      -4.317   7.322   6.967  1.00  0.00     0.202 C 
BRANCH  33  34
ATOM     34  C   UNL     1      -5.517   7.134   6.032  1.00  0.00     0.261 C 
BRANCH  34  35
ATOM     35  O   UNL     1      -5.908   8.309   5.304  1.00  0.00    -0.460 OA
BRANCH  35  36
ATOM     36  C   UNL     1      -6.279   9.396   6.015  1.00  0.00     0.338 C 
ATOM     37  O   UNL     1      -6.383   9.491   7.224  1.00  0.00    -0.246 OA
BRANCH  36  38
ATOM     38  C   UNL     1      -6.335  10.531   5.070  1.00  0.00     0.060 A 
ATOM     39  C   UNL     1      -7.081  10.434   3.892  1.00  0.00     0.016 A 
ATOM     40  C   UNL     1      -5.584  11.681   5.344  1.00  0.00     0.016 A 
ATOM     41  C   UNL     1      -7.097  11.504   2.997  1.00  0.00     0.010 A 
ATOM     42  C   UNL     1      -5.589  12.744   4.439  1.00  0.00     0.010 A 
ATOM     43  C   UNL     1      -6.365  12.671   3.272  1.00  0.00    -0.014 A 
BRANCH  43  44
ATOM     44  C   UNL     1      -6.572  13.884   2.448  1.00  0.00     0.031 A 
ATOM     45  C   UNL     1      -5.634  14.275   1.349  1.00  0.00     0.074 A 
ATOM     46  C   UNL     1      -7.643  14.648   2.732  1.00  0.00     0.049 A 
ATOM     47  N   UNL     1      -5.725  15.290   0.527  1.00  0.00    -0.248 NA
ATOM     48  C   UNL     1      -4.450  13.431   1.141  1.00  0.00     0.031 C 
ATOM     49  C   UNL     1      -8.622  14.354   3.782  1.00  0.00     0.029 A 
ATOM     50  N   UNL     1      -8.090  15.817   2.173  1.00  0.00    -0.354 N 
ATOM     51  C   UNL     1      -4.624  15.198  -0.313  1.00  0.00     0.074 A 
ATOM     52  C   UNL     1      -3.857  14.049   0.125  1.00  0.00     0.031 C 
ATOM     53  C   UNL     1      -9.559  15.312   3.784  1.00  0.00     0.029 A 
ATOM     54  C   UNL     1      -9.233  16.301   2.761  1.00  0.00     0.049 A 
ATOM     55  H   UNL     1      -7.636  16.265   1.424  1.00  0.00     0.167 HD
ATOM     56  C   UNL     1      -4.299  15.997  -1.357  1.00  0.00     0.031 A 
ATOM     57  C   UNL     1      -9.942  17.418   2.512  1.00  0.00     0.031 A 
ATOM     58  C   UNL     1      -5.058  17.153  -1.765  1.00  0.00     0.049 A 
ATOM     59  C   UNL     1      -9.513  18.328   1.399  1.00  0.00     0.074 A 
ATOM     60  C   UNL     1      -4.827  17.992  -2.842  1.00  0.00     0.029 A 
ATOM     61  N   UNL     1      -6.178  17.643  -1.111  1.00  0.00    -0.354 N 
ATOM     62  N   UNL     1      -8.511  18.186   0.566  1.00  0.00    -0.248 NA
ATOM     63  C   UNL     1     -10.311  19.542   1.182  1.00  0.00     0.031 C 
ATOM     64  C   UNL     1      -5.758  19.030  -2.796  1.00  0.00     0.029 A 
ATOM     65  C   UNL     1      -6.619  18.798  -1.736  1.00  0.00     0.049 A 
ATOM     66  H   UNL     1      -6.597  17.232  -0.321  1.00  0.00     0.167 HD
ATOM     67  C   UNL     1      -8.572  19.278  -0.289  1.00  0.00     0.074 A 
ATOM     68  C   UNL     1      -9.714  20.069   0.120  1.00  0.00     0.031 C 
ATOM     69  C   UNL     1      -7.753  19.586  -1.323  1.00  0.00     0.031 A 
BRANCH  56  70
ATOM     70  C   UNL     1      -3.069  15.666  -2.158  1.00  0.00    -0.014 A 
ATOM     71  C   UNL     1      -1.969  16.541  -2.146  1.00  0.00     0.009 A 
ATOM     72  C   UNL     1      -3.056  14.572  -3.037  1.00  0.00     0.009 A 
ATOM     73  C   UNL     1      -0.892  16.339  -3.012  1.00  0.00     0.001 A 
ATOM     74  C   UNL     1      -1.965  14.359  -3.884  1.00  0.00     0.001 A 
ATOM     75  C   UNL     1      -0.890  15.248  -3.879  1.00  0.00     0.000 A 
ENDBRANCH  56  70
BRANCH  57  76
ATOM     76  C   UNL     1     -11.149  17.701   3.330  1.00  0.00    -0.014 A 
ATOM     77  C   UNL     1     -11.028  18.027   4.691  1.00  0.00     0.009 A 
ATOM     78  C   UNL     1     -12.430  17.569   2.775  1.00  0.00     0.009 A 
ATOM     79  C   UNL     1     -12.164  18.186   5.486  1.00  0.00     0.001 A 
ATOM     80  C   UNL     1     -13.565  17.758   3.566  1.00  0.00     0.001 A 
ATOM     81  C   UNL     1     -13.431  18.055   4.922  1.00  0.00     0.000 A 
ENDBRANCH  57  76
BRANCH  69  82
ATOM     82  C   UNL     1      -8.046  20.832  -2.111  1.00  0.00    -0.014 A 
ATOM     83  C   UNL     1      -8.488  20.727  -3.440  1.00  0.00     0.009 A 
ATOM     84  C   UNL     1      -7.758  22.102  -1.589  1.00  0.00     0.009 A 
ATOM     85  C   UNL     1      -8.609  21.865  -4.240  1.00  0.00     0.001 A 
ATOM     86  C   UNL     1      -7.907  23.241  -2.383  1.00  0.00     0.001 A 
ATOM     87  C   UNL     1      -8.318  23.120  -3.710  1.00  0.00     0.000 A 
ENDBRANCH  69  82
ENDBRANCH  43  44
ENDBRANCH  36  38
ENDBRANCH  35  36
ENDBRANCH  34  35
ENDBRANCH  33  34
ENDBRANCH  32  33
ENDBRANCH  31  32
ENDBRANCH  30  31
ENDBRANCH  29  30
ENDBRANCH   1  29
TORSDOF 24
