REMARK SMILES O=C(OCCOCCOCCOCCOC(=O)c1ccc(-c2c3nc(c(-c4ccccc4)c4ccc([nH]4)c(-c4ccccc4)c4nc(c(-c5ccccc5)c5ccc2[nH]5)C=C4)C=C3)cc1)C1=Cc2cc(S(F)(F)(F)(F)F)ccc2O[C@H]1C(F)(F)F
REMARK SMILES IDX 10 1 9 2 8 3 7 4 6 5 5 6 4 7 3 8 2 9 1 10 66 11 67 12 81 13
REMARK SMILES IDX 68 14 80 15 69 16 79 17 70 18 78 19 77 20 82 21 83 22 84 23
REMARK SMILES IDX 85 24 71 25 72 26 73 27 74 28 75 29 76 30 11 31 12 32 13 33
REMARK SMILES IDX 14 34 15 35 16 36 17 37 18 38 19 39 65 40 20 41 64 42 21 43
REMARK SMILES IDX 22 44 23 45 58 46 24 47 63 48 57 49 59 50 25 51 62 52 56 53
REMARK SMILES IDX 55 54 26 56 48 57 33 58 47 59 34 60 37 61 46 62 60 63 35 64
REMARK SMILES IDX 36 65 45 67 61 68 38 69 27 70 28 71 32 72 29 73 31 74 30 75
REMARK SMILES IDX 49 76 50 77 54 78 51 79 53 80 52 81 39 82 40 83 44 84 41 85
REMARK SMILES IDX 43 86 42 87
REMARK H PARENT 59 55 37 66
REMARK Flexibility Score: inf
ROOT
ATOM      1  C   UNL     1       4.497   1.265   2.449  1.00  0.00     0.188 C 
ENDROOT
BRANCH   1   2
ATOM      2  O   UNL     1       3.077   1.265   2.449  1.00  0.00    -0.377 OA
BRANCH   2   3
ATOM      3  C   UNL     1       2.603  -0.074   2.483  1.00  0.00     0.188 C 
BRANCH   3   4
ATOM      4  C   UNL     1       3.110  -0.822   1.261  1.00  0.00     0.188 C 
BRANCH   4   5
ATOM      5  O   UNL     1       4.530  -0.822   1.261  1.00  0.00    -0.376 OA
BRANCH   5   6
ATOM      6  C   UNL     1       5.003   0.516   1.226  1.00  0.00     0.202 C 
BRANCH   6   7
ATOM      7  C   UNL     1       4.497   1.201  -0.033  1.00  0.00     0.261 C 
BRANCH   7   8
ATOM      8  O   UNL     1       3.077   1.201  -0.033  1.00  0.00    -0.460 OA
BRANCH   8   9
ATOM      9  C   UNL     1       2.367  -0.028  -0.001  1.00  0.00     0.338 C 
ATOM     10  O   UNL     1       1.096  -0.028  -0.001  1.00  0.00    -0.246 OA
BRANCH   9  11
ATOM     11  C   UNL     1       3.127  -1.344   0.033  1.00  0.00     0.087 C 
ATOM     12  C   UNL     1       4.487  -1.344   0.033  1.00  0.00     0.027 C 
ATOM     13  C   UNL     1       2.367  -2.660   0.066  1.00  0.00     0.316 C 
ATOM     14  C   UNL     1       5.247  -0.028  -0.001  1.00  0.00     0.019 A 
ATOM     15  O   UNL     1       3.674   0.866   1.539  1.00  0.00    -0.475 OA
ATOM     16  C   UNL     1       6.323   0.099  -0.864  1.00  0.00     0.036 A 
ATOM     17  C   UNL     1       4.874   0.973   0.787  1.00  0.00     0.128 A 
ATOM     18  C   UNL     1       7.128   1.236  -0.612  1.00  0.00     0.107 A 
ATOM     19  C   UNL     1       5.638   2.111   0.882  1.00  0.00     0.048 A 
ATOM     20  C   UNL     1       6.748   2.280   0.102  1.00  0.00     0.028 A 
BRANCH  13  21
ATOM     21  C   UNL     1       0.872  -2.383   0.059  1.00  0.00     0.430 C 
ATOM     22  F   UNL     1       0.404  -2.577   1.289  1.00  0.00    -0.167 F 
ATOM     23  F   UNL     1       0.553  -1.157  -0.348  1.00  0.00    -0.167 F 
ATOM     24  F   UNL     1       0.337  -3.278  -0.766  1.00  0.00    -0.167 F 
ENDBRANCH  13  21
BRANCH  18  25
ATOM     25  S   UNL     1       8.795   1.260  -1.318  1.00  0.00     0.310 S 
ATOM     26  F   UNL     1       9.470   1.264   0.117  1.00  0.00    -0.094 F 
ATOM     27  F   UNL     1       8.775   2.833  -1.237  1.00  0.00    -0.094 F 
ATOM     28  F   UNL     1      10.226   1.281  -1.924  1.00  0.00    -0.094 F 
ATOM     29  F   UNL     1       8.851  -0.318  -1.260  1.00  0.00    -0.094 F 
ATOM     30  F   UNL     1       7.388   1.222  -0.598  1.00  0.00    -0.094 F 
ENDBRANCH  18  25
ENDBRANCH   9  11
ENDBRANCH   8   9
ENDBRANCH   7   8
ENDBRANCH   6   7
ENDBRANCH   5   6
ENDBRANCH   4   5
ENDBRANCH   3   4
ENDBRANCH   2   3
ENDBRANCH   1   2
BRANCH   1  31
ATOM     31  C   UNL     1       5.003   0.580   3.708  1.00  0.00     0.188 C 
BRANCH  31  32
ATOM     32  O   UNL     1       4.530  -0.758   3.742  1.00  0.00    -0.376 OA
BRANCH  32  33
ATOM     33  C   UNL     1       3.110  -0.758   3.742  1.00  0.00     0.202 C 
BRANCH  33  34
ATOM     34  C   UNL     1       2.603  -0.010   4.964  1.00  0.00     0.261 C 
BRANCH  34  35
ATOM     35  O   UNL     1       3.077   1.328   4.930  1.00  0.00    -0.460 OA
BRANCH  35  36
ATOM     36  C   UNL     1       4.473   1.588   4.923  1.00  0.00     0.338 C 
ATOM     37  O   UNL     1       5.299   0.622   4.948  1.00  0.00    -0.246 OA
BRANCH  36  38
ATOM     38  C   UNL     1       4.979   3.020   4.887  1.00  0.00     0.060 A 
ATOM     39  C   UNL     1       6.008   3.336   4.014  1.00  0.00     0.016 A 
ATOM     40  C   UNL     1       4.438   3.942   5.675  1.00  0.00     0.016 A 
ATOM     41  C   UNL     1       6.596   4.600   4.255  1.00  0.00     0.010 A 
ATOM     42  C   UNL     1       4.984   5.199   5.758  1.00  0.00     0.010 A 
ATOM     43  C   UNL     1       6.039   5.562   4.968  1.00  0.00    -0.014 A 
BRANCH  43  44
ATOM     44  C   UNL     1       6.544   6.994   4.913  1.00  0.00     0.031 A 
ATOM     45  C   UNL     1       7.001   7.572   6.099  1.00  0.00     0.074 A 
ATOM     46  C   UNL     1       6.523   7.647   3.692  1.00  0.00     0.049 A 
ATOM     47  N   UNL     1       7.512   8.793   6.265  1.00  0.00    -0.248 NA
ATOM     48  C   UNL     1       6.993   6.892   7.403  1.00  0.00     0.031 C 
ATOM     49  C   UNL     1       6.072   7.069   2.490  1.00  0.00     0.029 A 
ATOM     50  N   UNL     1       6.920   8.937   3.417  1.00  0.00    -0.354 N 
ATOM     51  C   UNL     1       7.855   8.979   7.542  1.00  0.00     0.074 A 
ATOM     52  C   UNL     1       7.520   7.761   8.293  1.00  0.00     0.031 C 
ATOM     53  C   UNL     1       6.184   7.999   1.506  1.00  0.00     0.029 A 
ATOM     54  C   UNL     1       6.708   9.175   2.077  1.00  0.00     0.049 A 
ATOM     55  H   UNL     1       7.291   9.578   4.065  1.00  0.00     0.167 HD
ATOM     56  C   UNL     1       8.436  10.115   8.108  1.00  0.00     0.031 A 
ATOM     57  C   UNL     1       6.949  10.345   1.374  1.00  0.00     0.031 A 
ATOM     58  C   UNL     1       8.717  11.270   7.396  1.00  0.00     0.049 A 
ATOM     59  C   UNL     1       7.476  11.502   1.953  1.00  0.00     0.074 A 
ATOM     60  C   UNL     1       9.309  12.421   7.950  1.00  0.00     0.029 A 
ATOM     61  N   UNL     1       8.482  11.516   6.061  1.00  0.00    -0.354 N 
ATOM     62  N   UNL     1       7.856  11.674   3.220  1.00  0.00    -0.248 NA
ATOM     63  C   UNL     1       7.706  12.757   1.225  1.00  0.00     0.031 C 
ATOM     64  C   UNL     1       9.422  13.352   6.965  1.00  0.00     0.029 A 
ATOM     65  C   UNL     1       8.900  12.798   5.780  1.00  0.00     0.049 A 
ATOM     66  H   UNL     1       8.084  10.885   5.419  1.00  0.00     0.167 HD
ATOM     67  C   UNL     1       8.328  12.910   3.394  1.00  0.00     0.074 A 
ATOM     68  C   UNL     1       8.232  13.627   2.115  1.00  0.00     0.031 C 
ATOM     69  C   UNL     1       8.839  13.467   4.568  1.00  0.00     0.031 A 
BRANCH  56  70
ATOM     70  C   UNL     1       8.778  10.083   9.588  1.00  0.00    -0.014 A 
ATOM     71  C   UNL     1       9.668   9.133  10.060  1.00  0.00     0.009 A 
ATOM     72  C   UNL     1       8.217  10.967  10.406  1.00  0.00     0.009 A 
ATOM     73  C   UNL     1       9.682   9.010  11.470  1.00  0.00     0.001 A 
ATOM     74  C   UNL     1       8.385  10.867  11.766  1.00  0.00     0.001 A 
ATOM     75  C   UNL     1       9.203   9.914  12.305  1.00  0.00     0.000 A 
ENDBRANCH  56  70
BRANCH  57  76
ATOM     76  C   UNL     1       6.622  10.370  -0.110  1.00  0.00    -0.014 A 
ATOM     77  C   UNL     1       7.632  10.622  -1.024  1.00  0.00     0.009 A 
ATOM     78  C   UNL     1       5.374  10.150  -0.506  1.00  0.00     0.009 A 
ATOM     79  C   UNL     1       7.166  10.908  -2.329  1.00  0.00     0.001 A 
ATOM     80  C   UNL     1       5.018  10.317  -1.823  1.00  0.00     0.001 A 
ATOM     81  C   UNL     1       5.954  10.624  -2.771  1.00  0.00     0.000 A 
ENDBRANCH  57  76
BRANCH  69  82
ATOM     82  C   UNL     1       9.360  14.894   4.512  1.00  0.00    -0.014 A 
ATOM     83  C   UNL     1       8.486  15.905   4.147  1.00  0.00     0.009 A 
ATOM     84  C   UNL     1      10.627  15.154   4.813  1.00  0.00     0.009 A 
ATOM     85  C   UNL     1       9.122  17.132   3.846  1.00  0.00     0.001 A 
ATOM     86  C   UNL     1      11.147  16.412   4.621  1.00  0.00     0.001 A 
ATOM     87  C   UNL     1      10.354  17.445   4.205  1.00  0.00     0.000 A 
ENDBRANCH  69  82
ENDBRANCH  43  44
ENDBRANCH  36  38
ENDBRANCH  35  36
ENDBRANCH  34  35
ENDBRANCH  33  34
ENDBRANCH  32  33
ENDBRANCH  31  32
ENDBRANCH   1  31
TORSDOF 22
