REMARK SMILES Cc1c(Cl)cccc1NC(=O)C[C@](C)(C(=O)OCCOCCOCCOCCOC(=O)c1ccc(-c2c3nc(c(-c4ccccc4)c4ccc([nH]4)c(-c4ccccc4)c4nc(c(-c5ccccc5)c5ccc2[nH]5)C=C4)C=C3)cc1)c1ccccc1
REMARK SMILES IDX 22 1 21 2 20 3 19 4 18 5 17 6 15 7 16 8 13 9 14 10 12 11
REMARK SMILES IDX 10 12 9 13 11 15 8 16 1 17 2 18 3 19 4 20 5 21 7 22 6 23
REMARK SMILES IDX 80 24 81 25 85 26 82 27 84 28 83 29 23 30 24 31 25 32 26 33
REMARK SMILES IDX 27 34 28 35 29 36 30 37 31 38 32 39 33 40 79 41 34 42 78 43
REMARK SMILES IDX 35 44 36 45 37 46 72 47 38 48 77 49 71 50 73 51 39 52 76 53
REMARK SMILES IDX 70 54 69 55 40 57 62 58 47 59 61 60 48 61 51 62 60 63 74 64
REMARK SMILES IDX 49 65 50 66 59 68 75 69 52 70 41 71 42 72 46 73 43 74 45 75
REMARK SMILES IDX 44 76 63 77 64 78 68 79 65 80 67 81 66 82 53 83 54 84 58 85
REMARK SMILES IDX 55 86 57 87 56 88
REMARK H PARENT 9 14 73 56 51 67
REMARK Flexibility Score: inf
ROOT
ATOM      1  C   UNL     1      -7.486   0.141  -0.700  1.00  0.00     0.188 C 
ENDROOT
BRANCH   1   2
ATOM      2  C   UNL     1      -7.731  -0.640  -1.996  1.00  0.00     0.188 C 
BRANCH   2   3
ATOM      3  O   UNL     1      -8.207  -1.952  -1.779  1.00  0.00    -0.376 OA
BRANCH   3   4
ATOM      4  C   UNL     1      -7.288  -3.027  -1.842  1.00  0.00     0.202 C 
BRANCH   4   5
ATOM      5  C   UNL     1      -5.880  -2.941  -1.235  1.00  0.00     0.261 C 
BRANCH   5   6
ATOM      6  O   UNL     1      -5.285  -1.642  -1.124  1.00  0.00    -0.463 OA
BRANCH   6   7
ATOM      7  C   UNL     1      -4.356  -1.288  -2.035  1.00  0.00     0.316 C 
ATOM      8  O   UNL     1      -4.061  -1.998  -2.992  1.00  0.00    -0.251 OA
BRANCH   7   9
ATOM      9  C   UNL     1      -3.696   0.094  -1.750  1.00  0.00     0.099 C 
ATOM     10  C   UNL     1      -4.198   0.842  -0.475  1.00  0.00     0.029 C 
BRANCH   9  11
ATOM     11  C   UNL     1      -2.172  -0.186  -1.529  1.00  0.00     0.123 C 
BRANCH  11  12
ATOM     12  C   UNL     1      -1.692  -1.633  -1.387  1.00  0.00     0.225 C 
ATOM     13  N   UNL     1      -2.107  -2.531  -0.447  1.00  0.00    -0.326 N 
ATOM     14  H   UNL     1      -1.783  -3.440  -0.637  1.00  0.00     0.169 HD
ATOM     15  O   UNL     1      -0.864  -2.060  -2.203  1.00  0.00    -0.275 OA
BRANCH  13  16
ATOM     16  C   UNL     1      -2.884  -2.483   0.729  1.00  0.00     0.045 A 
ATOM     17  C   UNL     1      -3.449  -4.990   0.492  1.00  0.00     0.048 C 
ATOM     18  C   UNL     1      -3.564  -3.647   1.176  1.00  0.00    -0.009 A 
ATOM     19  C   UNL     1      -4.431  -3.542   2.292  1.00  0.00     0.046 A 
ATOM     20  Cl  UNL     1      -5.375  -4.886   2.844  1.00  0.00    -0.084 Cl
ATOM     21  C   UNL     1      -4.596  -2.336   2.969  1.00  0.00     0.021 A 
ATOM     22  C   UNL     1      -2.990  -1.313   1.483  1.00  0.00     0.026 A 
ATOM     23  C   UNL     1      -3.855  -1.230   2.580  1.00  0.00     0.004 A 
ENDBRANCH  13  16
ENDBRANCH  11  12
ENDBRANCH   9  11
BRANCH   9  24
ATOM     24  C   UNL     1      -3.997   1.091  -2.925  1.00  0.00    -0.030 A 
ATOM     25  C   UNL     1      -3.579   2.437  -2.859  1.00  0.00     0.005 A 
ATOM     26  C   UNL     1      -4.830   0.743  -4.010  1.00  0.00     0.005 A 
ATOM     27  C   UNL     1      -4.026   3.386  -3.791  1.00  0.00     0.000 A 
ATOM     28  C   UNL     1      -5.271   1.689  -4.941  1.00  0.00     0.000 A 
ATOM     29  C   UNL     1      -4.881   3.014  -4.824  1.00  0.00     0.000 A 
ENDBRANCH   9  24
ENDBRANCH   7   9
ENDBRANCH   6   7
ENDBRANCH   5   6
ENDBRANCH   4   5
ENDBRANCH   3   4
ENDBRANCH   2   3
ENDBRANCH   1   2
BRANCH   1  30
ATOM     30  O   UNL     1      -7.180  -0.599   0.470  1.00  0.00    -0.377 OA
BRANCH  30  31
ATOM     31  C   UNL     1      -8.181  -1.418   1.067  1.00  0.00     0.188 C 
BRANCH  31  32
ATOM     32  C   UNL     1      -9.644  -1.423   0.568  1.00  0.00     0.188 C 
BRANCH  32  33
ATOM     33  O   UNL     1     -10.042  -0.288  -0.181  1.00  0.00    -0.376 OA
BRANCH  33  34
ATOM     34  C   UNL     1     -10.742   0.753   0.480  1.00  0.00     0.202 C 
BRANCH  34  35
ATOM     35  C   UNL     1     -10.025   1.483   1.628  1.00  0.00     0.261 C 
BRANCH  35  36
ATOM     36  O   UNL     1      -9.591   0.662   2.723  1.00  0.00    -0.460 OA
BRANCH  36  37
ATOM     37  C   UNL     1     -10.544  -0.017   3.386  1.00  0.00     0.338 C 
ATOM     38  O   UNL     1     -11.753   0.012   3.187  1.00  0.00    -0.246 OA
BRANCH  37  39
ATOM     39  C   UNL     1      -9.892  -0.952   4.315  1.00  0.00     0.060 A 
ATOM     40  C   UNL     1     -10.102  -2.326   4.149  1.00  0.00     0.016 A 
ATOM     41  C   UNL     1      -9.128  -0.470   5.380  1.00  0.00     0.016 A 
ATOM     42  C   UNL     1      -9.611  -3.221   5.093  1.00  0.00     0.010 A 
ATOM     43  C   UNL     1      -8.653  -1.367   6.339  1.00  0.00     0.010 A 
ATOM     44  C   UNL     1      -8.944  -2.739   6.226  1.00  0.00    -0.014 A 
BRANCH  44  45
ATOM     45  C   UNL     1      -8.775  -3.640   7.390  1.00  0.00     0.031 A 
ATOM     46  C   UNL     1      -9.781  -3.560   8.506  1.00  0.00     0.074 A 
ATOM     47  C   UNL     1      -7.796  -4.559   7.426  1.00  0.00     0.049 A 
ATOM     48  N   UNL     1      -9.856  -4.260   9.608  1.00  0.00    -0.248 NA
ATOM     49  C   UNL     1     -10.848  -2.556   8.356  1.00  0.00     0.031 C 
ATOM     50  C   UNL     1      -6.801  -4.772   6.380  1.00  0.00     0.029 A 
ATOM     51  N   UNL     1      -7.489  -5.494   8.382  1.00  0.00    -0.354 N 
ATOM     52  C   UNL     1     -10.970  -3.778  10.283  1.00  0.00     0.074 A 
ATOM     53  C   UNL     1     -11.518  -2.702   9.488  1.00  0.00     0.031 C 
ATOM     54  C   UNL     1      -5.996  -5.785   6.744  1.00  0.00     0.029 A 
ATOM     55  C   UNL     1      -6.398  -6.264   8.065  1.00  0.00     0.049 A 
ATOM     56  H   UNL     1      -8.002  -5.602   9.215  1.00  0.00     0.167 HD
ATOM     57  C   UNL     1     -11.497  -4.198  11.457  1.00  0.00     0.031 A 
ATOM     58  C   UNL     1      -5.788  -7.237   8.770  1.00  0.00     0.031 A 
ATOM     59  C   UNL     1     -10.941  -5.257  12.256  1.00  0.00     0.049 A 
ATOM     60  C   UNL     1      -6.340  -7.625  10.117  1.00  0.00     0.074 A 
ATOM     61  C   UNL     1     -11.399  -5.759  13.461  1.00  0.00     0.029 A 
ATOM     62  N   UNL     1      -9.797  -5.970  11.932  1.00  0.00    -0.354 N 
ATOM     63  N   UNL     1      -7.402  -7.172  10.740  1.00  0.00    -0.248 NA
ATOM     64  C   UNL     1      -5.611  -8.668  10.853  1.00  0.00     0.031 C 
ATOM     65  C   UNL     1     -10.495  -6.732  13.898  1.00  0.00     0.029 A 
ATOM     66  C   UNL     1      -9.517  -6.890  12.928  1.00  0.00     0.049 A 
ATOM     67  H   UNL     1      -9.264  -5.842  11.114  1.00  0.00     0.167 HD
ATOM     68  C   UNL     1      -7.489  -7.900  11.921  1.00  0.00     0.074 A 
ATOM     69  C   UNL     1      -6.380  -8.831  11.920  1.00  0.00     0.031 C 
ATOM     70  C   UNL     1      -8.410  -7.811  12.913  1.00  0.00     0.031 A 
BRANCH  57  71
ATOM     71  C   UNL     1     -12.715  -3.475  11.964  1.00  0.00    -0.014 A 
ATOM     72  C   UNL     1     -13.959  -3.592  11.322  1.00  0.00     0.009 A 
ATOM     73  C   UNL     1     -12.618  -2.674  13.112  1.00  0.00     0.009 A 
ATOM     74  C   UNL     1     -15.069  -2.889  11.797  1.00  0.00     0.001 A 
ATOM     75  C   UNL     1     -13.736  -2.000  13.604  1.00  0.00     0.001 A 
ATOM     76  C   UNL     1     -14.958  -2.099  12.941  1.00  0.00     0.000 A 
ENDBRANCH  57  71
BRANCH  58  77
ATOM     77  C   UNL     1      -4.579  -7.909   8.223  1.00  0.00    -0.014 A 
ATOM     78  C   UNL     1      -4.612  -9.263   7.859  1.00  0.00     0.009 A 
ATOM     79  C   UNL     1      -3.374  -7.200   8.085  1.00  0.00     0.009 A 
ATOM     80  C   UNL     1      -3.459  -9.900   7.394  1.00  0.00     0.001 A 
ATOM     81  C   UNL     1      -2.232  -7.831   7.590  1.00  0.00     0.001 A 
ATOM     82  C   UNL     1      -2.272  -9.183   7.255  1.00  0.00     0.000 A 
ENDBRANCH  58  77
BRANCH  70  83
ATOM     83  C   UNL     1      -8.289  -8.781  14.058  1.00  0.00    -0.014 A 
ATOM     84  C   UNL     1      -7.250  -8.688  14.997  1.00  0.00     0.009 A 
ATOM     85  C   UNL     1      -9.262  -9.781  14.219  1.00  0.00     0.009 A 
ATOM     86  C   UNL     1      -7.167  -9.602  16.050  1.00  0.00     0.001 A 
ATOM     87  C   UNL     1      -9.196 -10.671  15.292  1.00  0.00     0.001 A 
ATOM     88  C   UNL     1      -8.142 -10.588  16.199  1.00  0.00     0.000 A 
ENDBRANCH  70  83
ENDBRANCH  44  45
ENDBRANCH  37  39
ENDBRANCH  36  37
ENDBRANCH  35  36
ENDBRANCH  34  35
ENDBRANCH  33  34
ENDBRANCH  32  33
ENDBRANCH  31  32
ENDBRANCH  30  31
ENDBRANCH   1  30
TORSDOF 24
