REMARK SMILES [NH3+][C@H](CC[S@@](=O)[O-])C(=O)OCCOCCOCCOCCOC(=O)c1ccc(-c2c3nc(c(-c4ccccc4)c4ccc([nH]4)c(-c4ccccc4)c4nc(c(-c5ccccc5)c5ccc2[nH]5)C=C4)C=C3)cc1
REMARK SMILES IDX 15 1 14 2 13 3 12 4 11 5 10 6 8 7 9 8 2 9 1 10 3 14 4 15
REMARK SMILES IDX 5 16 6 17 7 18 16 19 17 20 18 21 19 22 20 23 21 24 22 25
REMARK SMILES IDX 23 26 24 27 25 28 26 29 72 30 27 31 71 32 28 33 29 34 30 35
REMARK SMILES IDX 65 36 31 37 70 38 64 39 66 40 32 41 69 42 63 43 62 44 33 46
REMARK SMILES IDX 55 47 40 48 54 49 41 50 44 51 53 52 67 53 42 54 43 55 52 57
REMARK SMILES IDX 68 58 45 59 34 60 35 61 39 62 36 63 38 64 37 65 56 66 57 67
REMARK SMILES IDX 61 68 58 69 60 70 59 71 46 72 47 73 51 74 48 75 50 76 49 77
REMARK H PARENT 1 11 1 12 1 13 66 45 44 56
REMARK Flexibility Score: inf
ROOT
ATOM      1  C   UNL     1      -1.334  -2.008   0.295  1.00  0.00     0.188 C 
ENDROOT
BRANCH   1   2
ATOM      2  C   UNL     1      -2.266  -1.847   1.507  1.00  0.00     0.188 C 
BRANCH   2   3
ATOM      3  O   UNL     1      -3.531  -1.340   1.146  1.00  0.00    -0.376 OA
BRANCH   3   4
ATOM      4  C   UNL     1      -3.920  -0.055   1.592  1.00  0.00     0.202 C 
BRANCH   4   5
ATOM      5  C   UNL     1      -2.944   1.135   1.643  1.00  0.00     0.261 C 
BRANCH   5   6
ATOM      6  O   UNL     1      -1.593   0.884   1.236  1.00  0.00    -0.459 OA
BRANCH   6   7
ATOM      7  C   UNL     1      -0.638   1.039   2.189  1.00  0.00     0.364 C 
ATOM      8  O   UNL     1      -0.900   1.249   3.371  1.00  0.00    -0.245 OA
BRANCH   7   9
ATOM      9  C   UNL     1       0.813   0.851   1.663  1.00  0.00     0.292 C 
BRANCH   9  10
ATOM     10  N   UNL     1       1.692   1.842   2.325  1.00  0.00    -0.346 N 
ATOM     11  H   UNL     1       1.478   1.876   3.321  1.00  0.00     0.345 HD
ATOM     12  H   UNL     1       1.538   2.763   1.912  1.00  0.00     0.345 HD
ATOM     13  H   UNL     1       2.667   1.571   2.196  1.00  0.00     0.345 HD
ENDBRANCH   9  10
BRANCH   9  14
ATOM     14  C   UNL     1       1.120   0.782   0.151  1.00  0.00     0.090 C 
BRANCH  14  15
ATOM     15  C   UNL     1       0.332   1.612  -0.855  1.00  0.00     0.096 C 
BRANCH  15  16
ATOM     16  S   UNL     1       0.640   3.399  -0.780  1.00  0.00    -0.055 S 
ATOM     17  O   UNL     1      -0.313   4.055  -1.732  1.00  0.00    -0.275 OA
ATOM     18  O   UNL     1      -0.047   3.585   0.655  1.00  0.00    -0.772 OA
ENDBRANCH  15  16
ENDBRANCH  14  15
ENDBRANCH   9  14
ENDBRANCH   7   9
ENDBRANCH   6   7
ENDBRANCH   5   6
ENDBRANCH   4   5
ENDBRANCH   3   4
ENDBRANCH   2   3
ENDBRANCH   1   2
BRANCH   1  19
ATOM     19  O   UNL     1      -1.457  -1.094  -0.789  1.00  0.00    -0.377 OA
BRANCH  19  20
ATOM     20  C   UNL     1      -2.704  -0.975  -1.481  1.00  0.00     0.188 C 
BRANCH  20  21
ATOM     21  C   UNL     1      -3.665  -2.179  -1.579  1.00  0.00     0.188 C 
BRANCH  21  22
ATOM     22  O   UNL     1      -3.041  -3.442  -1.423  1.00  0.00    -0.376 OA
BRANCH  22  23
ATOM     23  C   UNL     1      -2.716  -4.147  -2.613  1.00  0.00     0.202 C 
BRANCH  23  24
ATOM     24  C   UNL     1      -1.704  -3.450  -3.530  1.00  0.00     0.261 C 
BRANCH  24  25
ATOM     25  O   UNL     1      -2.193  -2.273  -4.202  1.00  0.00    -0.460 OA
BRANCH  25  26
ATOM     26  C   UNL     1      -3.304  -2.385  -4.961  1.00  0.00     0.338 C 
ATOM     27  O   UNL     1      -3.944  -3.389  -5.213  1.00  0.00    -0.246 OA
BRANCH  26  28
ATOM     28  C   UNL     1      -3.714  -1.021  -5.331  1.00  0.00     0.060 A 
ATOM     29  C   UNL     1      -4.890  -0.483  -4.794  1.00  0.00     0.016 A 
ATOM     30  C   UNL     1      -2.925  -0.280  -6.211  1.00  0.00     0.016 A 
ATOM     31  C   UNL     1      -5.284   0.809  -5.145  1.00  0.00     0.010 A 
ATOM     32  C   UNL     1      -3.331   1.003  -6.574  1.00  0.00     0.010 A 
ATOM     33  C   UNL     1      -4.518   1.549  -6.055  1.00  0.00    -0.014 A 
BRANCH  33  34
ATOM     34  C   UNL     1      -4.997   2.853  -6.566  1.00  0.00     0.031 A 
ATOM     35  C   UNL     1      -5.677   2.901  -7.905  1.00  0.00     0.074 A 
ATOM     36  C   UNL     1      -4.782   3.983  -5.869  1.00  0.00     0.049 A 
ATOM     37  N   UNL     1      -6.051   3.940  -8.606  1.00  0.00    -0.248 NA
ATOM     38  C   UNL     1      -5.968   1.605  -8.541  1.00  0.00     0.031 C 
ATOM     39  C   UNL     1      -4.161   4.059  -4.548  1.00  0.00     0.029 A 
ATOM     40  N   UNL     1      -5.042   5.291  -6.197  1.00  0.00    -0.354 N 
ATOM     41  C   UNL     1      -6.603   3.426  -9.772  1.00  0.00     0.074 A 
ATOM     42  C   UNL     1      -6.508   1.985  -9.691  1.00  0.00     0.031 C 
ATOM     43  C   UNL     1      -4.062   5.351  -4.188  1.00  0.00     0.029 A 
ATOM     44  C   UNL     1      -4.572   6.190  -5.270  1.00  0.00     0.049 A 
ATOM     45  H   UNL     1      -5.518   5.559  -7.016  1.00  0.00     0.167 HD
ATOM     46  C   UNL     1      -7.135   4.099 -10.819  1.00  0.00     0.031 A 
ATOM     47  C   UNL     1      -4.519   7.536  -5.313  1.00  0.00     0.031 A 
ATOM     48  C   UNL     1      -7.219   5.532 -10.901  1.00  0.00     0.049 A 
ATOM     49  C   UNL     1      -5.042   8.255  -6.530  1.00  0.00     0.074 A 
ATOM     50  C   UNL     1      -7.778   6.304 -11.904  1.00  0.00     0.029 A 
ATOM     51  N   UNL     1      -6.717   6.406  -9.951  1.00  0.00    -0.354 N 
ATOM     52  N   UNL     1      -5.610   7.762  -7.605  1.00  0.00    -0.248 NA
ATOM     53  C   UNL     1      -4.910   9.720  -6.543  1.00  0.00     0.031 C 
ATOM     54  C   UNL     1      -7.555   7.648 -11.593  1.00  0.00     0.029 A 
ATOM     55  C   UNL     1      -6.913   7.712 -10.367  1.00  0.00     0.049 A 
ATOM     56  H   UNL     1      -6.286   6.139  -9.108  1.00  0.00     0.167 HD
ATOM     57  C   UNL     1      -5.918   8.854  -8.408  1.00  0.00     0.074 A 
ATOM     58  C   UNL     1      -5.499  10.037  -7.687  1.00  0.00     0.031 C 
ATOM     59  C   UNL     1      -6.491   8.877  -9.636  1.00  0.00     0.031 A 
BRANCH  46  60
ATOM     60  C   UNL     1      -7.636   3.298 -11.986  1.00  0.00    -0.014 A 
ATOM     61  C   UNL     1      -8.834   2.572 -11.913  1.00  0.00     0.009 A 
ATOM     62  C   UNL     1      -6.933   3.334 -13.201  1.00  0.00     0.009 A 
ATOM     63  C   UNL     1      -9.311   1.885 -13.032  1.00  0.00     0.001 A 
ATOM     64  C   UNL     1      -7.424   2.666 -14.323  1.00  0.00     0.001 A 
ATOM     65  C   UNL     1      -8.610   1.939 -14.237  1.00  0.00     0.000 A 
ENDBRANCH  46  60
BRANCH  47  66
ATOM     66  C   UNL     1      -3.892   8.304  -4.203  1.00  0.00    -0.014 A 
ATOM     67  C   UNL     1      -4.657   9.171  -3.407  1.00  0.00     0.009 A 
ATOM     68  C   UNL     1      -2.510   8.216  -3.971  1.00  0.00     0.009 A 
ATOM     69  C   UNL     1      -4.045   9.961  -2.430  1.00  0.00     0.001 A 
ATOM     70  C   UNL     1      -1.906   8.982  -2.972  1.00  0.00     0.001 A 
ATOM     71  C   UNL     1      -2.671   9.864  -2.212  1.00  0.00     0.000 A 
ENDBRANCH  47  66
BRANCH  59  72
ATOM     72  C   UNL     1      -6.720  10.221 -10.268  1.00  0.00    -0.014 A 
ATOM     73  C   UNL     1      -5.651  10.976 -10.775  1.00  0.00     0.009 A 
ATOM     74  C   UNL     1      -8.027  10.714 -10.406  1.00  0.00     0.009 A 
ATOM     75  C   UNL     1      -5.886  12.211 -11.383  1.00  0.00     0.001 A 
ATOM     76  C   UNL     1      -8.261  11.934 -11.041  1.00  0.00     0.001 A 
ATOM     77  C   UNL     1      -7.190  12.685 -11.521  1.00  0.00     0.000 A 
ENDBRANCH  59  72
ENDBRANCH  33  34
ENDBRANCH  26  28
ENDBRANCH  25  26
ENDBRANCH  24  25
ENDBRANCH  23  24
ENDBRANCH  22  23
ENDBRANCH  21  22
ENDBRANCH  20  21
ENDBRANCH  19  20
ENDBRANCH   1  19
TORSDOF 24
