REMARK SMILES Cc1c(Br)c(C)c2c(c1Br)O[C@H](C(F)(F)F)C(C(=O)OCCOCCOCCOCCOC(=O)c1ccc(-c3c4nc(c(-c5ccccc5)c5ccc([nH]5)c(-c5ccccc5)c5nc(c(-c6ccccc6)c6ccc3[nH]6)C=C5)C=C4)cc1)=C2
REMARK SMILES IDX 27 1 26 2 25 3 24 4 23 5 22 6 21 7 20 8 18 9 19 10 17 11
REMARK SMILES IDX 1 12 2 13 3 14 9 15 4 16 5 17 8 18 10 19 6 20 7 21 11 22
REMARK SMILES IDX 83 23 12 24 13 25 14 26 15 27 16 28 28 29 29 30 30 31 31 32
REMARK SMILES IDX 32 33 33 34 34 35 35 36 36 37 82 38 37 39 81 40 38 41 39 42
REMARK SMILES IDX 40 43 75 44 41 45 80 46 74 47 76 48 42 49 79 50 73 51 72 52
REMARK SMILES IDX 43 54 65 55 50 56 64 57 51 58 54 59 63 60 77 61 52 62 53 63
REMARK SMILES IDX 62 65 78 66 55 67 44 68 45 69 49 70 46 71 48 72 47 73 66 74
REMARK SMILES IDX 67 75 71 76 68 77 70 78 69 79 56 80 57 81 61 82 58 83 60 84
REMARK SMILES IDX 59 85
REMARK H PARENT 76 53 54 64
REMARK Flexibility Score: inf
ROOT
ATOM      1  C   UNL     1       2.395  -7.508   7.076  1.00  0.00     0.188 C 
ENDROOT
BRANCH   1   2
ATOM      2  O   UNL     1       1.683  -6.845   6.030  1.00  0.00    -0.377 OA
BRANCH   2   3
ATOM      3  C   UNL     1       1.438  -5.455   6.178  1.00  0.00     0.188 C 
BRANCH   3   4
ATOM      4  C   UNL     1       0.191  -5.147   7.030  1.00  0.00     0.188 C 
BRANCH   4   5
ATOM      5  O   UNL     1      -0.226  -6.220   7.853  1.00  0.00    -0.376 OA
BRANCH   5   6
ATOM      6  C   UNL     1      -1.094  -7.239   7.388  1.00  0.00     0.202 C 
BRANCH   6   7
ATOM      7  C   UNL     1      -1.221  -7.719   5.929  1.00  0.00     0.261 C 
BRANCH   7   8
ATOM      8  O   UNL     1      -0.794  -6.833   4.896  1.00  0.00    -0.460 OA
BRANCH   8   9
ATOM      9  C   UNL     1      -1.652  -5.874   4.509  1.00  0.00     0.338 C 
ATOM     10  O   UNL     1      -2.781  -5.689   4.926  1.00  0.00    -0.246 OA
BRANCH   9  11
ATOM     11  C   UNL     1      -0.917  -4.957   3.610  1.00  0.00     0.087 C 
ATOM     12  C   UNL     1       1.159  -0.035  -0.099  1.00  0.00     0.047 C 
ATOM     13  C   UNL     1       0.692  -0.926   1.029  1.00  0.00    -0.019 A 
ATOM     14  C   UNL     1       0.055  -0.422   2.188  1.00  0.00     0.025 A 
ATOM     15  C   UNL     1       0.900  -2.318   0.938  1.00  0.00     0.064 A 
ATOM     16  Br  UNL     1      -0.136   1.476   2.405  1.00  0.00    -0.050 Br
ATOM     17  C   UNL     1      -0.454  -1.293   3.186  1.00  0.00    -0.026 A 
ATOM     18  C   UNL     1       0.378  -3.197   1.902  1.00  0.00     0.142 A 
ATOM     19  Br  UNL     1       1.885  -3.064  -0.531  1.00  0.00    -0.046 Br
ATOM     20  C   UNL     1      -1.087  -0.784   4.465  1.00  0.00     0.046 C 
ATOM     21  C   UNL     1      -0.349  -2.693   2.987  1.00  0.00     0.022 A 
ATOM     22  O   UNL     1       0.618  -4.532   1.716  1.00  0.00    -0.474 OA
ATOM     23  C   UNL     1      -1.037  -3.648   3.855  1.00  0.00     0.027 C 
ATOM     24  C   UNL     1      -0.026  -5.525   2.546  1.00  0.00     0.316 C 
BRANCH  24  25
ATOM     25  C   UNL     1      -0.763  -6.513   1.633  1.00  0.00     0.430 C 
ATOM     26  F   UNL     1       0.038  -6.955   0.634  1.00  0.00    -0.167 F 
ATOM     27  F   UNL     1      -1.184  -7.609   2.305  1.00  0.00    -0.167 F 
ATOM     28  F   UNL     1      -1.852  -5.948   1.062  1.00  0.00    -0.167 F 
ENDBRANCH  24  25
ENDBRANCH   9  11
ENDBRANCH   8   9
ENDBRANCH   7   8
ENDBRANCH   6   7
ENDBRANCH   5   6
ENDBRANCH   4   5
ENDBRANCH   3   4
ENDBRANCH   2   3
ENDBRANCH   1   2
BRANCH   1  29
ATOM     29  C   UNL     1       2.414  -6.957   8.524  1.00  0.00     0.188 C 
BRANCH  29  30
ATOM     30  O   UNL     1       2.533  -5.544   8.608  1.00  0.00    -0.376 OA
BRANCH  30  31
ATOM     31  C   UNL     1       3.771  -4.985   9.011  1.00  0.00     0.202 C 
BRANCH  31  32
ATOM     32  C   UNL     1       4.940  -5.141   8.030  1.00  0.00     0.261 C 
BRANCH  32  33
ATOM     33  O   UNL     1       5.247  -6.484   7.634  1.00  0.00    -0.460 OA
BRANCH  33  34
ATOM     34  C   UNL     1       5.666  -7.333   8.595  1.00  0.00     0.338 C 
ATOM     35  O   UNL     1       5.840  -7.085   9.777  1.00  0.00    -0.246 OA
BRANCH  34  36
ATOM     36  C   UNL     1       5.703  -8.685   8.006  1.00  0.00     0.060 A 
ATOM     37  C   UNL     1       4.897  -9.692   8.553  1.00  0.00     0.016 A 
ATOM     38  C   UNL     1       6.524  -8.950   6.908  1.00  0.00     0.016 A 
ATOM     39  C   UNL     1       4.938 -10.981   8.022  1.00  0.00     0.010 A 
ATOM     40  C   UNL     1       6.582 -10.245   6.392  1.00  0.00     0.010 A 
ATOM     41  C   UNL     1       5.815 -11.272   6.969  1.00  0.00    -0.014 A 
BRANCH  41  42
ATOM     42  C   UNL     1       6.086 -12.681   6.602  1.00  0.00     0.031 A 
ATOM     43  C   UNL     1       7.294 -13.349   7.198  1.00  0.00     0.074 A 
ATOM     44  C   UNL     1       5.274 -13.359   5.774  1.00  0.00     0.049 A 
ATOM     45  N   UNL     1       7.768 -14.549   6.985  1.00  0.00    -0.248 NA
ATOM     46  C   UNL     1       8.071 -12.557   8.167  1.00  0.00     0.031 C 
ATOM     47  C   UNL     1       4.040 -12.843   5.186  1.00  0.00     0.029 A 
ATOM     48  N   UNL     1       5.373 -14.639   5.287  1.00  0.00    -0.354 N 
ATOM     49  C   UNL     1       8.895 -14.654   7.790  1.00  0.00     0.074 A 
ATOM     50  C   UNL     1       9.056 -13.389   8.470  1.00  0.00     0.031 C 
ATOM     51  C   UNL     1       3.496 -13.799   4.412  1.00  0.00     0.029 A 
ATOM     52  C   UNL     1       4.363 -14.977   4.420  1.00  0.00     0.049 A 
ATOM     53  H   UNL     1       6.100 -15.255   5.534  1.00  0.00     0.167 HD
ATOM     54  C   UNL     1       9.719 -15.715   7.954  1.00  0.00     0.031 A 
ATOM     55  C   UNL     1       4.173 -16.101   3.703  1.00  0.00     0.031 A 
ATOM     56  C   UNL     1       9.571 -16.965   7.260  1.00  0.00     0.049 A 
ATOM     57  C   UNL     1       5.165 -17.230   3.820  1.00  0.00     0.074 A 
ATOM     58  C   UNL     1      10.362 -18.097   7.350  1.00  0.00     0.029 A 
ATOM     59  N   UNL     1       8.569 -17.245   6.345  1.00  0.00    -0.354 N 
ATOM     60  N   UNL     1       6.229 -17.320   4.582  1.00  0.00    -0.248 NA
ATOM     61  C   UNL     1       4.925 -18.415   2.983  1.00  0.00     0.031 C 
ATOM     62  C   UNL     1       9.874 -19.041   6.443  1.00  0.00     0.029 A 
ATOM     63  C   UNL     1       8.735 -18.525   5.844  1.00  0.00     0.049 A 
ATOM     64  H   UNL     1       7.847 -16.627   6.089  1.00  0.00     0.167 HD
ATOM     65  C   UNL     1       6.764 -18.580   4.343  1.00  0.00     0.074 A 
ATOM     66  C   UNL     1       5.902 -19.223   3.373  1.00  0.00     0.031 C 
ATOM     67  C   UNL     1       7.867 -19.155   4.882  1.00  0.00     0.031 A 
BRANCH  54  68
ATOM     68  C   UNL     1      10.874 -15.560   8.904  1.00  0.00    -0.014 A 
ATOM     69  C   UNL     1      10.671 -15.499  10.291  1.00  0.00     0.009 A 
ATOM     70  C   UNL     1      12.186 -15.534   8.407  1.00  0.00     0.009 A 
ATOM     71  C   UNL     1      11.759 -15.395  11.161  1.00  0.00     0.001 A 
ATOM     72  C   UNL     1      13.273 -15.461   9.280  1.00  0.00     0.001 A 
ATOM     73  C   UNL     1      13.058 -15.386  10.655  1.00  0.00     0.000 A 
ENDBRANCH  54  68
BRANCH  55  74
ATOM     74  C   UNL     1       2.992 -16.218   2.806  1.00  0.00    -0.014 A 
ATOM     75  C   UNL     1       1.958 -17.119   3.102  1.00  0.00     0.009 A 
ATOM     76  C   UNL     1       2.888 -15.425   1.652  1.00  0.00     0.009 A 
ATOM     77  C   UNL     1       0.853 -17.234   2.254  1.00  0.00     0.001 A 
ATOM     78  C   UNL     1       1.768 -15.520   0.823  1.00  0.00     0.001 A 
ATOM     79  C   UNL     1       0.755 -16.428   1.121  1.00  0.00     0.000 A 
ENDBRANCH  55  74
BRANCH  67  80
ATOM     80  C   UNL     1       8.193 -20.567   4.477  1.00  0.00    -0.014 A 
ATOM     81  C   UNL     1       8.679 -20.869   3.196  1.00  0.00     0.009 A 
ATOM     82  C   UNL     1       8.085 -21.600   5.424  1.00  0.00     0.009 A 
ATOM     83  C   UNL     1       9.025 -22.181   2.864  1.00  0.00     0.001 A 
ATOM     84  C   UNL     1       8.464 -22.903   5.100  1.00  0.00     0.001 A 
ATOM     85  C   UNL     1       8.925 -23.194   3.817  1.00  0.00     0.000 A 
ENDBRANCH  67  80
ENDBRANCH  41  42
ENDBRANCH  34  36
ENDBRANCH  33  34
ENDBRANCH  32  33
ENDBRANCH  31  32
ENDBRANCH  30  31
ENDBRANCH  29  30
ENDBRANCH   1  29
TORSDOF 21
