REMARK SMILES O=C(OCCOCCOCCOCCOC(=O)c1ccc(C[NH2+][C@@H]2CCCC[C@H]2O)nc1)c1ccc(-c2c3nc(c(-c4ccccc4)c4ccc([nH]4)c(-c4ccccc4)c4nc(c(-c5ccccc5)c5ccc2[nH]5)C=C4)C=C3)cc1
REMARK SMILES IDX 10 1 9 2 8 3 7 4 6 5 5 6 4 7 3 8 2 9 1 10 33 11 34 12 80 13
REMARK SMILES IDX 35 14 79 15 36 16 37 17 38 18 73 19 39 20 78 21 72 22 74 23
REMARK SMILES IDX 40 24 77 25 71 26 70 27 41 29 63 30 48 31 62 32 49 33 52 34
REMARK SMILES IDX 61 35 75 36 50 37 51 38 60 40 76 41 53 42 42 43 43 44 47 45
REMARK SMILES IDX 44 46 46 47 45 48 64 49 65 50 69 51 66 52 68 53 67 54 54 55
REMARK SMILES IDX 55 56 59 57 56 58 58 59 57 60 11 61 12 62 13 63 14 64 15 65
REMARK SMILES IDX 16 66 17 67 18 68 19 69 32 70 20 71 31 72 21 73 22 74 23 75
REMARK SMILES IDX 24 78 25 79 29 80 26 81 28 82 27 83 30 84
REMARK H PARENT 74 28 52 39 23 76 23 77 30 85
REMARK Flexibility Score: inf
ROOT
ATOM      1  C   UNL     1      15.566   8.735  -9.116  1.00  0.00     0.188 C 
ENDROOT
BRANCH   1   2
ATOM      2  O   UNL     1      16.004   8.797 -10.469  1.00  0.00    -0.377 OA
BRANCH   2   3
ATOM      3  C   UNL     1      17.003   9.768 -10.780  1.00  0.00     0.188 C 
BRANCH   3   4
ATOM      4  C   UNL     1      16.679  11.195 -10.338  1.00  0.00     0.188 C 
BRANCH   4   5
ATOM      5  O   UNL     1      16.687  11.293  -8.909  1.00  0.00    -0.376 OA
BRANCH   5   6
ATOM      6  C   UNL     1      15.696  12.164  -8.364  1.00  0.00     0.202 C 
BRANCH   6   7
ATOM      7  C   UNL     1      16.148  13.622  -8.254  1.00  0.00     0.261 C 
BRANCH   7   8
ATOM      8  O   UNL     1      16.946  14.022  -9.378  1.00  0.00    -0.460 OA
BRANCH   8   9
ATOM      9  C   UNL     1      18.296  13.975  -9.502  1.00  0.00     0.338 C 
ATOM     10  O   UNL     1      18.794  14.380 -10.552  1.00  0.00    -0.246 OA
BRANCH   9  11
ATOM     11  C   UNL     1      19.231  13.495  -8.432  1.00  0.00     0.060 A 
ATOM     12  C   UNL     1      18.909  12.619  -7.393  1.00  0.00     0.016 A 
ATOM     13  C   UNL     1      20.564  13.939  -8.518  1.00  0.00     0.016 A 
ATOM     14  C   UNL     1      19.835  12.271  -6.418  1.00  0.00     0.010 A 
ATOM     15  C   UNL     1      21.515  13.569  -7.561  1.00  0.00     0.010 A 
ATOM     16  C   UNL     1      21.133  12.766  -6.482  1.00  0.00    -0.014 A 
BRANCH  16  17
ATOM     17  C   UNL     1      21.999  12.582  -5.304  1.00  0.00     0.031 A 
ATOM     18  C   UNL     1      22.140  13.736  -4.356  1.00  0.00     0.074 A 
ATOM     19  C   UNL     1      22.504  11.370  -5.017  1.00  0.00     0.049 A 
ATOM     20  N   UNL     1      22.844  13.828  -3.260  1.00  0.00    -0.248 NA
ATOM     21  C   UNL     1      21.362  14.946  -4.677  1.00  0.00     0.031 C 
ATOM     22  C   UNL     1      22.293  10.156  -5.809  1.00  0.00     0.029 A 
ATOM     23  N   UNL     1      23.267  10.952  -3.960  1.00  0.00    -0.354 N 
ATOM     24  C   UNL     1      22.607  15.108  -2.774  1.00  0.00     0.074 A 
ATOM     25  C   UNL     1      21.707  15.762  -3.695  1.00  0.00     0.031 C 
ATOM     26  C   UNL     1      22.898   9.124  -5.196  1.00  0.00     0.029 A 
ATOM     27  C   UNL     1      23.585   9.617  -4.007  1.00  0.00     0.049 A 
ATOM     28  H   UNL     1      23.559  11.552  -3.236  1.00  0.00     0.167 HD
ATOM     29  C   UNL     1      23.104  15.685  -1.657  1.00  0.00     0.031 A 
ATOM     30  C   UNL     1      24.371   8.892  -3.190  1.00  0.00     0.031 A 
ATOM     31  C   UNL     1      24.017  15.023  -0.770  1.00  0.00     0.049 A 
ATOM     32  C   UNL     1      25.015   9.594  -2.023  1.00  0.00     0.074 A 
ATOM     33  C   UNL     1      24.674  15.526   0.337  1.00  0.00     0.029 A 
ATOM     34  N   UNL     1      24.399  13.695  -0.901  1.00  0.00    -0.354 N 
ATOM     35  N   UNL     1      24.858  10.832  -1.616  1.00  0.00    -0.248 NA
ATOM     36  C   UNL     1      25.951   8.806  -1.213  1.00  0.00     0.031 C 
ATOM     37  C   UNL     1      25.485  14.509   0.853  1.00  0.00     0.029 A 
ATOM     38  C   UNL     1      25.292  13.361   0.099  1.00  0.00     0.049 A 
ATOM     39  H   UNL     1      24.080  13.082  -1.602  1.00  0.00     0.167 HD
ATOM     40  C   UNL     1      25.665  10.969  -0.495  1.00  0.00     0.074 A 
ATOM     41  C   UNL     1      26.288   9.678  -0.273  1.00  0.00     0.031 C 
ATOM     42  C   UNL     1      25.883  12.059   0.281  1.00  0.00     0.031 A 
BRANCH  29  43
ATOM     43  C   UNL     1      22.718  17.114  -1.405  1.00  0.00    -0.014 A 
ATOM     44  C   UNL     1      21.424  17.460  -0.983  1.00  0.00     0.009 A 
ATOM     45  C   UNL     1      23.649  18.136  -1.647  1.00  0.00     0.009 A 
ATOM     46  C   UNL     1      21.060  18.803  -0.849  1.00  0.00     0.001 A 
ATOM     47  C   UNL     1      23.290  19.475  -1.488  1.00  0.00     0.001 A 
ATOM     48  C   UNL     1      21.992  19.808  -1.101  1.00  0.00     0.000 A 
ENDBRANCH  29  43
BRANCH  30  49
ATOM     49  C   UNL     1      24.648   7.458  -3.477  1.00  0.00    -0.014 A 
ATOM     50  C   UNL     1      24.237   6.447  -2.596  1.00  0.00     0.009 A 
ATOM     51  C   UNL     1      25.361   7.093  -4.633  1.00  0.00     0.009 A 
ATOM     52  C   UNL     1      24.556   5.109  -2.851  1.00  0.00     0.001 A 
ATOM     53  C   UNL     1      25.650   5.754  -4.902  1.00  0.00     0.001 A 
ATOM     54  C   UNL     1      25.258   4.763  -4.005  1.00  0.00     0.000 A 
ENDBRANCH  30  49
BRANCH  42  55
ATOM     55  C   UNL     1      26.805  11.882   1.450  1.00  0.00    -0.014 A 
ATOM     56  C   UNL     1      28.193  11.781   1.271  1.00  0.00     0.009 A 
ATOM     57  C   UNL     1      26.277  11.864   2.750  1.00  0.00     0.009 A 
ATOM     58  C   UNL     1      29.033  11.634   2.375  1.00  0.00     0.001 A 
ATOM     59  C   UNL     1      27.122  11.745   3.852  1.00  0.00     0.001 A 
ATOM     60  C   UNL     1      28.498  11.621   3.663  1.00  0.00     0.000 A 
ENDBRANCH  42  55
ENDBRANCH  16  17
ENDBRANCH   9  11
ENDBRANCH   8   9
ENDBRANCH   7   8
ENDBRANCH   6   7
ENDBRANCH   5   6
ENDBRANCH   4   5
ENDBRANCH   3   4
ENDBRANCH   2   3
ENDBRANCH   1   2
BRANCH   1  61
ATOM     61  C   UNL     1      16.604   8.444  -8.011  1.00  0.00     0.188 C 
BRANCH  61  62
ATOM     62  O   UNL     1      17.937   8.243  -8.463  1.00  0.00    -0.376 OA
BRANCH  62  63
ATOM     63  C   UNL     1      18.395   6.893  -8.446  1.00  0.00     0.202 C 
BRANCH  63  64
ATOM     64  C   UNL     1      17.856   6.033  -9.595  1.00  0.00     0.261 C 
BRANCH  64  65
ATOM     65  O   UNL     1      16.435   5.813  -9.557  1.00  0.00    -0.460 OA
BRANCH  65  66
ATOM     66  C   UNL     1      15.922   5.140  -8.502  1.00  0.00     0.339 C 
ATOM     67  O   UNL     1      16.539   4.598  -7.602  1.00  0.00    -0.246 OA
BRANCH  66  68
ATOM     68  C   UNL     1      14.473   5.404  -8.494  1.00  0.00     0.078 A 
ATOM     69  C   UNL     1      13.710   5.406  -9.661  1.00  0.00     0.019 A 
ATOM     70  C   UNL     1      13.894   5.872  -7.325  1.00  0.00     0.127 A 
ATOM     71  C   UNL     1      12.414   5.917  -9.620  1.00  0.00     0.031 A 
ATOM     72  N   UNL     1      12.642   6.388  -7.264  1.00  0.00    -0.254 NA
ATOM     73  C   UNL     1      11.918   6.421  -8.415  1.00  0.00     0.094 A 
BRANCH  73  74
ATOM     74  C   UNL     1      10.538   7.071  -8.381  1.00  0.00     0.318 C 
BRANCH  74  75
ATOM     75  N   UNL     1       9.686   6.525  -7.337  1.00  0.00    -0.337 N 
ATOM     76  H   UNL     1       9.916   7.022  -6.476  1.00  0.00     0.346 HD
ATOM     77  H   UNL     1       9.888   5.525  -7.363  1.00  0.00     0.346 HD
BRANCH  75  78
ATOM     78  C   UNL     1       8.227   6.584  -7.485  1.00  0.00     0.211 C 
ATOM     79  C   UNL     1       7.671   5.397  -8.296  1.00  0.00     0.068 C 
ATOM     80  C   UNL     1       7.589   7.915  -7.967  1.00  0.00     0.172 C 
ATOM     81  C   UNL     1       7.759   5.580  -9.807  1.00  0.00     0.006 C 
ATOM     82  C   UNL     1       7.623   8.118  -9.487  1.00  0.00     0.038 C 
ATOM     83  C   UNL     1       7.137   6.896 -10.268  1.00  0.00     0.003 C 
BRANCH  80  84
ATOM     84  O   UNL     1       6.226   7.940  -7.509  1.00  0.00    -0.387 OA
ATOM     85  H   UNL     1       5.738   7.201  -7.904  1.00  0.00     0.211 HD
ENDBRANCH  80  84
ENDBRANCH  75  78
ENDBRANCH  74  75
ENDBRANCH  73  74
ENDBRANCH  66  68
ENDBRANCH  65  66
ENDBRANCH  64  65
ENDBRANCH  63  64
ENDBRANCH  62  63
ENDBRANCH  61  62
ENDBRANCH   1  61
TORSDOF 24
