REMARK SMILES Cc1cnccc1N[C@@H]1C=C[C@@H](C(=O)OCCOCCOCCOCCOC(=O)c2ccc(-c3c4nc(c(-c5ccccc5)c5ccc([nH]5)c(-c5ccccc5)c5nc(c(-c6ccccc6)c6ccc3[nH]6)C=C5)C=C4)cc2)C1
REMARK SMILES IDX 21 1 20 2 19 3 18 4 17 5 16 6 15 7 13 8 14 9 12 10 9 11
REMARK SMILES IDX 10 12 78 13 11 14 8 15 7 17 1 18 2 19 3 20 4 21 6 22 5 23
REMARK SMILES IDX 22 24 23 25 24 26 25 27 26 28 27 29 28 30 29 31 30 32 31 33
REMARK SMILES IDX 77 34 32 35 76 36 33 37 34 38 35 39 70 40 36 41 75 42 69 43
REMARK SMILES IDX 71 44 37 45 74 46 68 47 67 48 38 50 60 51 45 52 59 53 46 54
REMARK SMILES IDX 49 55 58 56 72 57 47 58 48 59 57 61 73 62 50 63 39 64 40 65
REMARK SMILES IDX 44 66 41 67 43 68 42 69 61 70 62 71 66 72 63 73 65 74 64 75
REMARK SMILES IDX 51 76 52 77 56 78 53 79 55 80 54 81
REMARK H PARENT 8 16 71 49 49 60
REMARK Flexibility Score: inf
ROOT
ATOM      1  O   UNL     1      -3.097   4.032   2.748  1.00  0.00    -0.377 OA
ENDROOT
BRANCH   1   2
ATOM      2  C   UNL     1      -2.720   5.393   2.724  1.00  0.00     0.188 C 
BRANCH   2   3
ATOM      3  C   UNL     1      -3.729   6.357   2.087  1.00  0.00     0.188 C 
BRANCH   3   4
ATOM      4  O   UNL     1      -5.117   6.096   2.180  1.00  0.00    -0.376 OA
BRANCH   4   5
ATOM      5  C   UNL     1      -5.697   4.949   1.570  1.00  0.00     0.202 C 
BRANCH   5   6
ATOM      6  C   UNL     1      -5.135   4.276   0.305  1.00  0.00     0.261 C 
BRANCH   6   7
ATOM      7  O   UNL     1      -3.707   4.150   0.259  1.00  0.00    -0.463 OA
BRANCH   7   8
ATOM      8  C   UNL     1      -3.106   4.626  -0.856  1.00  0.00     0.312 C 
ATOM      9  O   UNL     1      -3.720   5.027  -1.842  1.00  0.00    -0.252 OA
BRANCH   8  10
ATOM     10  C   UNL     1      -1.603   4.838  -0.690  1.00  0.00     0.124 C 
ATOM     11  C   UNL     1       0.596   3.751  -0.511  1.00  0.00     0.103 C 
ATOM     12  C   UNL     1       0.272   4.088  -1.920  1.00  0.00    -0.006 C 
ATOM     13  C   UNL     1      -0.741   3.944   0.218  1.00  0.00     0.048 C 
ATOM     14  C   UNL     1      -0.931   4.662  -2.028  1.00  0.00    -0.014 C 
BRANCH  11  15
ATOM     15  N   UNL     1       1.733   4.526  -0.007  1.00  0.00    -0.379 N 
ATOM     16  H   UNL     1       2.527   3.974   0.180  1.00  0.00     0.161 HD
BRANCH  15  17
ATOM     17  C   UNL     1       1.925   5.870   0.260  1.00  0.00     0.040 A 
ATOM     18  C   UNL     1       4.159   5.448   1.488  1.00  0.00     0.048 C 
ATOM     19  C   UNL     1       3.014   6.313   1.042  1.00  0.00    -0.010 A 
ATOM     20  C   UNL     1       3.103   7.676   1.367  1.00  0.00     0.116 A 
ATOM     21  N   UNL     1       2.216   8.619   1.000  1.00  0.00    -0.264 NA
ATOM     22  C   UNL     1       1.054   6.868  -0.174  1.00  0.00     0.046 A 
ATOM     23  C   UNL     1       1.215   8.191   0.220  1.00  0.00     0.113 A 
ENDBRANCH  15  17
ENDBRANCH  11  15
ENDBRANCH   8  10
ENDBRANCH   7   8
ENDBRANCH   6   7
ENDBRANCH   5   6
ENDBRANCH   4   5
ENDBRANCH   3   4
ENDBRANCH   2   3
ENDBRANCH   1   2
BRANCH   1  24
ATOM     24  C   UNL     1      -3.822   3.539   3.868  1.00  0.00     0.188 C 
BRANCH  24  25
ATOM     25  C   UNL     1      -4.498   4.511   4.860  1.00  0.00     0.188 C 
BRANCH  25  26
ATOM     26  O   UNL     1      -3.731   5.654   5.193  1.00  0.00    -0.376 OA
BRANCH  26  27
ATOM     27  C   UNL     1      -2.930   5.627   6.365  1.00  0.00     0.202 C 
BRANCH  27  28
ATOM     28  C   UNL     1      -1.804   4.584   6.450  1.00  0.00     0.261 C 
BRANCH  28  29
ATOM     29  O   UNL     1      -2.196   3.204   6.360  1.00  0.00    -0.460 OA
BRANCH  29  30
ATOM     30  C   UNL     1      -3.086   2.731   7.253  1.00  0.00     0.338 C 
ATOM     31  O   UNL     1      -3.569   3.328   8.202  1.00  0.00    -0.246 OA
BRANCH  30  32
ATOM     32  C   UNL     1      -3.546   1.409   6.777  1.00  0.00     0.060 A 
ATOM     33  C   UNL     1      -4.904   1.227   6.485  1.00  0.00     0.016 A 
ATOM     34  C   UNL     1      -2.643   0.356   6.618  1.00  0.00     0.016 A 
ATOM     35  C   UNL     1      -5.370  -0.021   6.071  1.00  0.00     0.010 A 
ATOM     36  C   UNL     1      -3.115  -0.901   6.225  1.00  0.00     0.010 A 
ATOM     37  C   UNL     1      -4.486  -1.103   5.985  1.00  0.00    -0.014 A 
BRANCH  37  38
ATOM     38  C   UNL     1      -5.021  -2.480   5.849  1.00  0.00     0.031 A 
ATOM     39  C   UNL     1      -5.164  -3.317   7.092  1.00  0.00     0.074 A 
ATOM     40  C   UNL     1      -5.398  -2.977   4.657  1.00  0.00     0.049 A 
ATOM     41  N   UNL     1      -5.566  -4.555   7.220  1.00  0.00    -0.248 NA
ATOM     42  C   UNL     1      -4.803  -2.665   8.361  1.00  0.00     0.031 C 
ATOM     43  C   UNL     1      -5.365  -2.255   3.388  1.00  0.00     0.029 A 
ATOM     44  N   UNL     1      -5.882  -4.220   4.328  1.00  0.00    -0.354 N 
ATOM     45  C   UNL     1      -5.494  -4.834   8.580  1.00  0.00     0.074 A 
ATOM     46  C   UNL     1      -4.981  -3.648   9.230  1.00  0.00     0.031 C 
ATOM     47  C   UNL     1      -5.804  -3.071   2.413  1.00  0.00     0.029 A 
ATOM     48  C   UNL     1      -6.111  -4.382   2.984  1.00  0.00     0.049 A 
ATOM     49  H   UNL     1      -6.048  -4.926   4.993  1.00  0.00     0.167 HD
ATOM     50  C   UNL     1      -5.827  -5.973   9.232  1.00  0.00     0.031 A 
ATOM     51  C   UNL     1      -6.500  -5.471   2.292  1.00  0.00     0.031 A 
ATOM     52  C   UNL     1      -6.318  -7.160   8.585  1.00  0.00     0.049 A 
ATOM     53  C   UNL     1      -6.772  -6.759   3.028  1.00  0.00     0.074 A 
ATOM     54  C   UNL     1      -6.695  -8.361   9.159  1.00  0.00     0.029 A 
ATOM     55  N   UNL     1      -6.486  -7.300   7.216  1.00  0.00    -0.354 N 
ATOM     56  N   UNL     1      -6.725  -7.004   4.316  1.00  0.00    -0.248 NA
ATOM     57  C   UNL     1      -7.157  -7.920   2.211  1.00  0.00     0.031 C 
ATOM     58  C   UNL     1      -7.024  -9.251   8.132  1.00  0.00     0.029 A 
ATOM     59  C   UNL     1      -6.926  -8.580   6.924  1.00  0.00     0.049 A 
ATOM     60  H   UNL     1      -6.317  -6.594   6.551  1.00  0.00     0.167 HD
ATOM     61  C   UNL     1      -7.104  -8.334   4.465  1.00  0.00     0.074 A 
ATOM     62  C   UNL     1      -7.393  -8.837   3.138  1.00  0.00     0.031 C 
ATOM     63  C   UNL     1      -7.207  -9.071   5.598  1.00  0.00     0.031 A 
BRANCH  50  64
ATOM     64  C   UNL     1      -5.623  -6.000  10.722  1.00  0.00    -0.014 A 
ATOM     65  C   UNL     1      -6.418  -5.231  11.588  1.00  0.00     0.009 A 
ATOM     66  C   UNL     1      -4.628  -6.825  11.270  1.00  0.00     0.009 A 
ATOM     67  C   UNL     1      -6.193  -5.258  12.966  1.00  0.00     0.001 A 
ATOM     68  C   UNL     1      -4.428  -6.877  12.650  1.00  0.00     0.001 A 
ATOM     69  C   UNL     1      -5.203  -6.085  13.496  1.00  0.00     0.000 A 
ENDBRANCH  50  64
BRANCH  51  70
ATOM     70  C   UNL     1      -6.633  -5.408   0.812  1.00  0.00    -0.014 A 
ATOM     71  C   UNL     1      -7.890  -5.528   0.198  1.00  0.00     0.009 A 
ATOM     72  C   UNL     1      -5.497  -5.255   0.001  1.00  0.00     0.009 A 
ATOM     73  C   UNL     1      -8.002  -5.521  -1.195  1.00  0.00     0.001 A 
ATOM     74  C   UNL     1      -5.616  -5.215  -1.390  1.00  0.00     0.001 A 
ATOM     75  C   UNL     1      -6.866  -5.359  -1.987  1.00  0.00     0.000 A 
ENDBRANCH  51  70
BRANCH  63  76
ATOM     76  C   UNL     1      -7.688 -10.491   5.463  1.00  0.00    -0.014 A 
ATOM     77  C   UNL     1      -6.891 -11.485   4.873  1.00  0.00     0.009 A 
ATOM     78  C   UNL     1      -8.945 -10.849   5.978  1.00  0.00     0.009 A 
ATOM     79  C   UNL     1      -7.359 -12.797   4.769  1.00  0.00     0.001 A 
ATOM     80  C   UNL     1      -9.395 -12.168   5.904  1.00  0.00     0.001 A 
ATOM     81  C   UNL     1      -8.606 -13.138   5.289  1.00  0.00     0.000 A 
ENDBRANCH  63  76
ENDBRANCH  37  38
ENDBRANCH  30  32
ENDBRANCH  29  30
ENDBRANCH  28  29
ENDBRANCH  27  28
ENDBRANCH  26  27
ENDBRANCH  25  26
ENDBRANCH  24  25
ENDBRANCH   1  24
TORSDOF 22
