REMARK SMILES O=C(CCC[NH2+][C@H]1CCOC2(CCOCC2)C1)OCCOCCOCCOCCOC(=O)c1ccc(-c2c3nc(c(-c4ccccc4)c4ccc([nH]4)c(-c4ccccc4)c4nc(c(-c5ccccc5)c5ccc2[nH]5)C=C4)C=C3)cc1
REMARK SMILES IDX 23 1 22 2 21 3 20 4 19 5 18 6 2 7 1 8 3 9 4 10 5 11 6 12
REMARK SMILES IDX 7 15 8 16 17 17 9 18 11 19 10 20 12 21 16 22 13 23 15 24
REMARK SMILES IDX 14 25 24 26 25 27 26 28 27 29 28 30 29 31 30 32 31 33 32 34
REMARK SMILES IDX 33 35 34 36 80 37 35 38 79 39 36 40 37 41 38 42 73 43 39 44
REMARK SMILES IDX 78 45 72 46 74 47 40 48 77 49 71 50 70 51 41 53 63 54 48 55
REMARK SMILES IDX 62 56 49 57 52 58 61 59 75 60 50 61 51 62 60 64 76 65 53 66
REMARK SMILES IDX 42 67 43 68 47 69 44 70 46 71 45 72 64 73 65 74 69 75 66 76
REMARK SMILES IDX 68 77 67 78 54 79 55 80 59 81 56 82 58 83 57 84
REMARK H PARENT 6 13 6 14 74 52 52 63
REMARK Flexibility Score: inf
ROOT
ATOM      1  C   UNL     1       8.531   1.956  -5.611  1.00  0.00     0.188 C 
ENDROOT
BRANCH   1   2
ATOM      2  C   UNL     1       7.513   0.821  -5.617  1.00  0.00     0.188 C 
BRANCH   2   3
ATOM      3  O   UNL     1       7.298   0.201  -4.359  1.00  0.00    -0.376 OA
BRANCH   3   4
ATOM      4  C   UNL     1       8.429  -0.176  -3.598  1.00  0.00     0.202 C 
BRANCH   4   5
ATOM      5  C   UNL     1       8.829  -1.624  -3.744  1.00  0.00     0.261 C 
BRANCH   5   6
ATOM      6  O   UNL     1       8.381  -2.258  -4.943  1.00  0.00    -0.463 OA
BRANCH   6   7
ATOM      7  C   UNL     1       7.153  -2.753  -5.192  1.00  0.00     0.306 C 
ATOM      8  O   UNL     1       7.038  -3.537  -6.138  1.00  0.00    -0.252 OA
BRANCH   7   9
ATOM      9  C   UNL     1       5.904  -2.299  -4.452  1.00  0.00     0.128 C 
BRANCH   9  10
ATOM     10  C   UNL     1       5.476  -2.959  -3.146  1.00  0.00     0.073 C 
BRANCH  10  11
ATOM     11  C   UNL     1       6.034  -2.454  -1.805  1.00  0.00     0.261 C 
BRANCH  11  12
ATOM     12  N   UNL     1       5.982  -1.009  -1.565  1.00  0.00    -0.344 N 
ATOM     13  H   UNL     1       5.012  -0.708  -1.659  1.00  0.00     0.346 HD
ATOM     14  H   UNL     1       6.607  -0.584  -2.250  1.00  0.00     0.346 HD
BRANCH  12  15
ATOM     15  C   UNL     1       6.473  -0.574  -0.228  1.00  0.00     0.187 C 
ATOM     16  C   UNL     1       7.783  -1.268   0.173  1.00  0.00     0.093 C 
ATOM     17  C   UNL     1       6.663   0.965  -0.199  1.00  0.00     0.100 C 
ATOM     18  C   UNL     1       8.389  -0.678   1.427  1.00  0.00     0.167 C 
ATOM     19  C   UNL     1       7.405   1.490   1.057  1.00  0.00     0.078 C 
ATOM     20  O   UNL     1       8.595   0.716   1.273  1.00  0.00    -0.374 OA
ATOM     21  C   UNL     1       6.506   1.505   2.309  1.00  0.00     0.064 C 
ATOM     22  C   UNL     1       7.909   2.933   0.827  1.00  0.00     0.064 C 
ATOM     23  C   UNL     1       7.252   2.112   3.494  1.00  0.00     0.163 C 
ATOM     24  C   UNL     1       8.561   3.489   2.095  1.00  0.00     0.163 C 
ATOM     25  O   UNL     1       7.647   3.447   3.189  1.00  0.00    -0.381 OA
ENDBRANCH  12  15
ENDBRANCH  11  12
ENDBRANCH  10  11
ENDBRANCH   9  10
ENDBRANCH   7   9
ENDBRANCH   6   7
ENDBRANCH   5   6
ENDBRANCH   4   5
ENDBRANCH   3   4
ENDBRANCH   2   3
ENDBRANCH   1   2
BRANCH   1  26
ATOM     26  O   UNL     1       8.312   3.072  -4.760  1.00  0.00    -0.377 OA
BRANCH  26  27
ATOM     27  C   UNL     1       7.612   2.961  -3.535  1.00  0.00     0.188 C 
BRANCH  27  28
ATOM     28  C   UNL     1       6.332   3.797  -3.479  1.00  0.00     0.188 C 
BRANCH  28  29
ATOM     29  O   UNL     1       5.480   3.716  -4.600  1.00  0.00    -0.376 OA
BRANCH  29  30
ATOM     30  C   UNL     1       5.878   4.307  -5.831  1.00  0.00     0.202 C 
BRANCH  30  31
ATOM     31  C   UNL     1       6.904   5.462  -6.006  1.00  0.00     0.261 C 
BRANCH  31  32
ATOM     32  O   UNL     1       8.055   5.518  -5.149  1.00  0.00    -0.460 OA
BRANCH  32  33
ATOM     33  C   UNL     1       8.051   6.448  -4.166  1.00  0.00     0.338 C 
ATOM     34  O   UNL     1       7.194   7.283  -3.953  1.00  0.00    -0.246 OA
BRANCH  33  35
ATOM     35  C   UNL     1       9.163   6.174  -3.222  1.00  0.00     0.060 A 
ATOM     36  C   UNL     1       8.843   5.856  -1.895  1.00  0.00     0.016 A 
ATOM     37  C   UNL     1      10.499   6.299  -3.605  1.00  0.00     0.016 A 
ATOM     38  C   UNL     1       9.854   5.674  -0.950  1.00  0.00     0.010 A 
ATOM     39  C   UNL     1      11.512   6.149  -2.644  1.00  0.00     0.010 A 
ATOM     40  C   UNL     1      11.194   5.857  -1.304  1.00  0.00    -0.014 A 
BRANCH  40  41
ATOM     41  C   UNL     1      12.217   5.984  -0.233  1.00  0.00     0.031 A 
ATOM     42  C   UNL     1      12.522   7.362   0.292  1.00  0.00     0.074 A 
ATOM     43  C   UNL     1      12.838   4.921   0.310  1.00  0.00     0.049 A 
ATOM     44  N   UNL     1      13.430   7.746   1.153  1.00  0.00    -0.248 NA
ATOM     45  C   UNL     1      11.678   8.452  -0.224  1.00  0.00     0.031 C 
ATOM     46  C   UNL     1      12.570   3.522  -0.011  1.00  0.00     0.029 A 
ATOM     47  N   UNL     1      13.838   4.865   1.254  1.00  0.00    -0.354 N 
ATOM     48  C   UNL     1      13.278   9.122   1.268  1.00  0.00     0.074 A 
ATOM     49  C   UNL     1      12.200   9.506   0.382  1.00  0.00     0.031 C 
ATOM     50  C   UNL     1      13.406   2.745   0.703  1.00  0.00     0.029 A 
ATOM     51  C   UNL     1      14.298   3.592   1.496  1.00  0.00     0.049 A 
ATOM     52  H   UNL     1      14.192   5.661   1.712  1.00  0.00     0.167 HD
ATOM     53  C   UNL     1      13.977   9.995   2.032  1.00  0.00     0.031 A 
ATOM     54  C   UNL     1      15.342   3.165   2.236  1.00  0.00     0.031 A 
ATOM     55  C   UNL     1      15.066   9.627   2.894  1.00  0.00     0.049 A 
ATOM     56  C   UNL     1      16.194   4.167   2.980  1.00  0.00     0.074 A 
ATOM     57  C   UNL     1      15.844  10.444   3.695  1.00  0.00     0.029 A 
ATOM     58  N   UNL     1      15.542   8.336   3.056  1.00  0.00    -0.354 N 
ATOM     59  N   UNL     1      16.053   5.467   3.073  1.00  0.00    -0.248 NA
ATOM     60  C   UNL     1      17.352   3.639   3.720  1.00  0.00     0.031 C 
ATOM     61  C   UNL     1      16.838   9.658   4.286  1.00  0.00     0.029 A 
ATOM     62  C   UNL     1      16.629   8.339   3.914  1.00  0.00     0.049 A 
ATOM     63  H   UNL     1      15.164   7.535   2.626  1.00  0.00     0.167 HD
ATOM     64  C   UNL     1      17.080   5.906   3.903  1.00  0.00     0.074 A 
ATOM     65  C   UNL     1      17.831   4.733   4.296  1.00  0.00     0.031 C 
ATOM     66  C   UNL     1      17.371   7.168   4.306  1.00  0.00     0.031 A 
BRANCH  53  67
ATOM     67  C   UNL     1      13.627  11.451   1.900  1.00  0.00    -0.014 A 
ATOM     68  C   UNL     1      12.418  11.969   2.391  1.00  0.00     0.009 A 
ATOM     69  C   UNL     1      14.532  12.320   1.270  1.00  0.00     0.009 A 
ATOM     70  C   UNL     1      12.104  13.318   2.212  1.00  0.00     0.001 A 
ATOM     71  C   UNL     1      14.231  13.674   1.123  1.00  0.00     0.001 A 
ATOM     72  C   UNL     1      13.012  14.169   1.582  1.00  0.00     0.000 A 
ENDBRANCH  53  67
BRANCH  54  73
ATOM     73  C   UNL     1      15.698   1.718   2.265  1.00  0.00    -0.014 A 
ATOM     74  C   UNL     1      15.597   0.969   3.447  1.00  0.00     0.009 A 
ATOM     75  C   UNL     1      16.187   1.089   1.108  1.00  0.00     0.009 A 
ATOM     76  C   UNL     1      16.002  -0.369   3.476  1.00  0.00     0.001 A 
ATOM     77  C   UNL     1      16.559  -0.257   1.131  1.00  0.00     0.001 A 
ATOM     78  C   UNL     1      16.477  -0.983   2.318  1.00  0.00     0.000 A 
ENDBRANCH  54  73
BRANCH  66  79
ATOM     79  C   UNL     1      18.522   7.357   5.258  1.00  0.00    -0.014 A 
ATOM     80  C   UNL     1      19.854   7.205   4.843  1.00  0.00     0.009 A 
ATOM     81  C   UNL     1      18.267   7.770   6.577  1.00  0.00     0.009 A 
ATOM     82  C   UNL     1      20.903   7.436   5.737  1.00  0.00     0.001 A 
ATOM     83  C   UNL     1      19.317   8.032   7.457  1.00  0.00     0.001 A 
ATOM     84  C   UNL     1      20.635   7.857   7.039  1.00  0.00     0.000 A 
ENDBRANCH  66  79
ENDBRANCH  40  41
ENDBRANCH  33  35
ENDBRANCH  32  33
ENDBRANCH  31  32
ENDBRANCH  30  31
ENDBRANCH  29  30
ENDBRANCH  28  29
ENDBRANCH  27  28
ENDBRANCH  26  27
ENDBRANCH   1  26
TORSDOF 24
