REMARK SMILES CCn1c(N2CCC(C(=O)OCCOCCOCCOCCOC(=O)c3ccc(-c4c5nc(c(-c6ccccc6)c6ccc([nH]6)c(-c6ccccc6)c6nc(c(-c7ccccc7)c7ccc4[nH]7)C=C6)C=C5)cc3)CC2)nc2cc(C)ccc21
REMARK SMILES IDX 17 1 16 2 15 3 14 4 13 5 12 6 11 7 9 8 10 9 8 10 5 11 6 12
REMARK SMILES IDX 75 13 7 14 74 15 4 16 3 17 83 18 76 19 77 20 82 21 78 22
REMARK SMILES IDX 81 23 79 24 80 25 2 26 1 27 18 28 19 29 20 30 21 31 22 32
REMARK SMILES IDX 23 33 24 34 25 35 26 36 27 37 73 38 28 39 72 40 29 41 30 42
REMARK SMILES IDX 31 43 66 44 32 45 71 46 65 47 67 48 33 49 70 50 64 51 63 52
REMARK SMILES IDX 34 54 56 55 41 56 55 57 42 58 45 59 54 60 68 61 43 62 44 63
REMARK SMILES IDX 53 65 69 66 46 67 35 68 36 69 40 70 37 71 39 72 38 73 57 74
REMARK SMILES IDX 58 75 62 76 59 77 61 78 60 79 47 80 48 81 52 82 49 83 51 84
REMARK SMILES IDX 50 85
REMARK H PARENT 67 53 45 64
REMARK Flexibility Score: inf
ROOT
ATOM      1  O   UNL     1      -1.817   7.283  -0.895  1.00  0.00    -0.377 OA
ENDROOT
BRANCH   1   2
ATOM      2  C   UNL     1      -1.921   6.838  -2.225  1.00  0.00     0.188 C 
BRANCH   2   3
ATOM      3  C   UNL     1      -3.366   6.636  -2.683  1.00  0.00     0.188 C 
BRANCH   3   4
ATOM      4  O   UNL     1      -4.428   7.449  -2.208  1.00  0.00    -0.376 OA
BRANCH   4   5
ATOM      5  C   UNL     1      -4.655   7.720  -0.831  1.00  0.00     0.202 C 
BRANCH   5   6
ATOM      6  C   UNL     1      -4.697   6.660   0.278  1.00  0.00     0.261 C 
BRANCH   6   7
ATOM      7  O   UNL     1      -3.542   5.826   0.376  1.00  0.00    -0.463 OA
BRANCH   7   8
ATOM      8  C   UNL     1      -3.671   4.623  -0.213  1.00  0.00     0.309 C 
ATOM      9  O   UNL     1      -4.694   4.216  -0.757  1.00  0.00    -0.252 OA
BRANCH   8  10
ATOM     10  C   UNL     1      -2.435   3.767  -0.147  1.00  0.00     0.103 C 
ATOM     11  N   UNL     1      -0.326   2.177   0.893  1.00  0.00    -0.342 N 
ATOM     12  C   UNL     1      -0.004   3.352   0.095  1.00  0.00     0.120 C 
ATOM     13  C   UNL     1      -1.645   1.575   0.741  1.00  0.00     0.120 C 
ATOM     14  C   UNL     1      -1.098   4.401   0.241  1.00  0.00     0.037 C 
ATOM     15  C   UNL     1      -2.734   2.630   0.825  1.00  0.00     0.037 C 
BRANCH  11  16
ATOM     16  C   UNL     1       0.418   1.947   1.995  1.00  0.00     0.206 A 
ATOM     17  N   UNL     1       0.894   0.690   2.305  1.00  0.00    -0.310 N 
ATOM     18  C   UNL     1       1.639   0.798   3.459  1.00  0.00     0.070 A 
ATOM     19  N   UNL     1       0.892   2.851   2.820  1.00  0.00    -0.213 NA
ATOM     20  C   UNL     1       1.616   2.159   3.750  1.00  0.00     0.091 A 
ATOM     21  C   UNL     1       2.325  -0.125   4.254  1.00  0.00     0.029 A 
ATOM     22  C   UNL     1       2.295   2.641   4.879  1.00  0.00     0.034 A 
ATOM     23  C   UNL     1       2.991   0.372   5.382  1.00  0.00     0.006 A 
ATOM     24  C   UNL     1       2.982   1.735   5.703  1.00  0.00    -0.049 A 
ATOM     25  C   UNL     1       3.696   2.244   6.921  1.00  0.00     0.044 C 
BRANCH  17  26
ATOM     26  C   UNL     1       0.703  -0.518   1.524  1.00  0.00     0.122 C 
ATOM     27  C   UNL     1       1.273  -0.451   0.113  1.00  0.00     0.028 C 
ENDBRANCH  17  26
ENDBRANCH  11  16
ENDBRANCH   8  10
ENDBRANCH   7   8
ENDBRANCH   6   7
ENDBRANCH   5   6
ENDBRANCH   4   5
ENDBRANCH   3   4
ENDBRANCH   2   3
ENDBRANCH   1   2
BRANCH   1  28
ATOM     28  C   UNL     1      -1.500   8.642  -0.651  1.00  0.00     0.188 C 
BRANCH  28  29
ATOM     29  C   UNL     1      -1.831   9.680  -1.736  1.00  0.00     0.188 C 
BRANCH  29  30
ATOM     30  O   UNL     1      -1.087   9.484  -2.931  1.00  0.00    -0.376 OA
BRANCH  30  31
ATOM     31  C   UNL     1       0.128  10.207  -3.088  1.00  0.00     0.202 C 
BRANCH  31  32
ATOM     32  C   UNL     1       1.240   9.966  -2.054  1.00  0.00     0.261 C 
BRANCH  32  33
ATOM     33  O   UNL     1       0.889  10.361  -0.716  1.00  0.00    -0.460 OA
BRANCH  33  34
ATOM     34  C   UNL     1       0.768  11.683  -0.436  1.00  0.00     0.338 C 
ATOM     35  O   UNL     1       1.187  12.605  -1.087  1.00  0.00    -0.246 OA
BRANCH  34  36
ATOM     36  C   UNL     1      -0.317  11.759   0.586  1.00  0.00     0.060 A 
ATOM     37  C   UNL     1      -0.419  10.831   1.629  1.00  0.00     0.016 A 
ATOM     38  C   UNL     1      -1.402  12.588   0.267  1.00  0.00     0.016 A 
ATOM     39  C   UNL     1      -1.646  10.663   2.273  1.00  0.00     0.010 A 
ATOM     40  C   UNL     1      -2.635  12.389   0.885  1.00  0.00     0.010 A 
ATOM     41  C   UNL     1      -2.771  11.401   1.863  1.00  0.00    -0.014 A 
BRANCH  41  42
ATOM     42  C   UNL     1      -4.014  11.255   2.634  1.00  0.00     0.031 A 
ATOM     43  C   UNL     1      -3.912  11.789   4.023  1.00  0.00     0.074 A 
ATOM     44  C   UNL     1      -5.225  10.888   2.162  1.00  0.00     0.049 A 
ATOM     45  N   UNL     1      -4.172  11.203   5.145  1.00  0.00    -0.248 NA
ATOM     46  C   UNL     1      -3.370  13.152   4.161  1.00  0.00     0.031 C 
ATOM     47  C   UNL     1      -5.628  10.703   0.769  1.00  0.00     0.029 A 
ATOM     48  N   UNL     1      -6.400  10.714   2.848  1.00  0.00    -0.354 N 
ATOM     49  C   UNL     1      -3.944  12.159   6.134  1.00  0.00     0.074 A 
ATOM     50  C   UNL     1      -3.345  13.294   5.483  1.00  0.00     0.031 C 
ATOM     51  C   UNL     1      -6.978  10.642   0.697  1.00  0.00     0.029 A 
ATOM     52  C   UNL     1      -7.532  10.697   2.040  1.00  0.00     0.049 A 
ATOM     53  H   UNL     1      -6.439  10.610   3.826  1.00  0.00     0.167 HD
ATOM     54  C   UNL     1      -4.406  12.034   7.407  1.00  0.00     0.031 A 
ATOM     55  C   UNL     1      -8.826  10.827   2.432  1.00  0.00     0.031 A 
ATOM     56  C   UNL     1      -4.740  10.678   7.737  1.00  0.00     0.049 A 
ATOM     57  C   UNL     1      -8.902  10.563   3.887  1.00  0.00     0.074 A 
ATOM     58  C   UNL     1      -4.028   9.497   7.803  1.00  0.00     0.029 A 
ATOM     59  N   UNL     1      -6.064  10.318   7.753  1.00  0.00    -0.354 N 
ATOM     60  N   UNL     1      -8.724   9.397   4.435  1.00  0.00    -0.248 NA
ATOM     61  C   UNL     1      -8.799  11.702   4.784  1.00  0.00     0.031 C 
ATOM     62  C   UNL     1      -4.936   8.495   7.360  1.00  0.00     0.029 A 
ATOM     63  C   UNL     1      -6.156   9.120   7.093  1.00  0.00     0.049 A 
ATOM     64  H   UNL     1      -6.805  10.822   8.159  1.00  0.00     0.167 HD
ATOM     65  C   UNL     1      -8.080   9.665   5.633  1.00  0.00     0.074 A 
ATOM     66  C   UNL     1      -8.234  11.104   5.834  1.00  0.00     0.031 C 
ATOM     67  C   UNL     1      -7.246   8.754   6.215  1.00  0.00     0.031 A 
BRANCH  54  68
ATOM     68  C   UNL     1      -4.831  13.207   8.253  1.00  0.00    -0.014 A 
ATOM     69  C   UNL     1      -5.080  14.490   7.727  1.00  0.00     0.009 A 
ATOM     70  C   UNL     1      -5.241  12.981   9.579  1.00  0.00     0.009 A 
ATOM     71  C   UNL     1      -5.700  15.494   8.474  1.00  0.00     0.001 A 
ATOM     72  C   UNL     1      -5.906  13.969  10.315  1.00  0.00     0.001 A 
ATOM     73  C   UNL     1      -6.136  15.225   9.762  1.00  0.00     0.000 A 
ENDBRANCH  54  68
BRANCH  55  74
ATOM     74  C   UNL     1      -9.932  11.512   1.716  1.00  0.00    -0.014 A 
ATOM     75  C   UNL     1      -9.650  12.535   0.791  1.00  0.00     0.009 A 
ATOM     76  C   UNL     1     -11.267  11.369   2.132  1.00  0.00     0.009 A 
ATOM     77  C   UNL     1     -10.647  13.398   0.324  1.00  0.00     0.001 A 
ATOM     78  C   UNL     1     -12.267  12.240   1.670  1.00  0.00     0.001 A 
ATOM     79  C   UNL     1     -11.953  13.262   0.777  1.00  0.00     0.000 A 
ENDBRANCH  55  74
BRANCH  67  80
ATOM     80  C   UNL     1      -7.226   7.336   5.694  1.00  0.00    -0.014 A 
ATOM     81  C   UNL     1      -7.289   6.289   6.629  1.00  0.00     0.009 A 
ATOM     82  C   UNL     1      -6.939   7.014   4.356  1.00  0.00     0.009 A 
ATOM     83  C   UNL     1      -7.046   4.968   6.248  1.00  0.00     0.001 A 
ATOM     84  C   UNL     1      -6.724   5.686   3.969  1.00  0.00     0.001 A 
ATOM     85  C   UNL     1      -6.763   4.667   4.918  1.00  0.00     0.000 A 
ENDBRANCH  67  80
ENDBRANCH  41  42
ENDBRANCH  34  36
ENDBRANCH  33  34
ENDBRANCH  32  33
ENDBRANCH  31  32
ENDBRANCH  30  31
ENDBRANCH  29  30
ENDBRANCH  28  29
ENDBRANCH   1  28
TORSDOF 22
