REMARK SMILES O=C(OCCOCCOCCOCCOC(=O)c1ccc(-c2c3nc(c(-c4ccccc4)c4ccc([nH]4)c(-c4ccccc4)c4nc(c(-c5ccccc5)c5ccc2[nH]5)C=C4)C=C3)cc1)C1=Cc2cc(Cl)cc(-c3ccc(O)cc3)c2O[C@@H]1C(F)(F)F
REMARK SMILES IDX 9 1 8 2 7 3 6 4 5 5 4 6 3 7 2 8 1 9 66 10 67 11 83 12 68 13
REMARK SMILES IDX 82 14 69 15 81 16 70 17 73 18 71 19 72 20 84 21 85 22 86 23
REMARK SMILES IDX 87 24 74 25 75 26 80 27 76 28 79 29 77 30 78 31 10 33 11 34
REMARK SMILES IDX 12 35 13 36 14 37 15 38 16 39 17 40 18 41 19 42 65 43 20 44
REMARK SMILES IDX 64 45 21 46 22 47 23 48 58 49 24 50 63 51 57 52 59 53 25 54
REMARK SMILES IDX 62 55 56 56 55 57 26 59 48 60 33 61 47 62 34 63 37 64 46 65
REMARK SMILES IDX 60 66 35 67 36 68 45 70 61 71 38 72 27 73 28 74 32 75 29 76
REMARK SMILES IDX 31 77 30 78 49 79 50 80 54 81 51 82 53 83 52 84 39 85 40 86
REMARK SMILES IDX 44 87 41 88 43 89 42 90
REMARK H PARENT 78 32 59 58 37 69
REMARK Flexibility Score: inf
ROOT
ATOM      1  O   UNL     1       1.433   1.762  -4.016  1.00  0.00    -0.377 OA
ENDROOT
BRANCH   1   2
ATOM      2  C   UNL     1       0.550   1.175  -3.059  1.00  0.00     0.188 C 
BRANCH   2   3
ATOM      3  C   UNL     1       0.977   1.464  -1.625  1.00  0.00     0.188 C 
BRANCH   3   4
ATOM      4  O   UNL     1       2.237   0.912  -1.310  1.00  0.00    -0.376 OA
BRANCH   4   5
ATOM      5  C   UNL     1       2.362  -0.497  -1.291  1.00  0.00     0.202 C 
BRANCH   5   6
ATOM      6  C   UNL     1       2.012  -1.214   0.020  1.00  0.00     0.261 C 
BRANCH   6   7
ATOM      7  O   UNL     1       1.781  -0.317   1.122  1.00  0.00    -0.460 OA
BRANCH   7   8
ATOM      8  C   UNL     1       2.547  -0.519   2.230  1.00  0.00     0.338 C 
ATOM      9  O   UNL     1       2.192  -1.227   3.160  1.00  0.00    -0.246 OA
BRANCH   8  10
ATOM     10  C   UNL     1       3.806   0.294   2.238  1.00  0.00     0.087 C 
ATOM     11  C   UNL     1       4.889  -0.310   2.762  1.00  0.00     0.027 C 
ATOM     12  C   UNL     1       4.011   1.158   1.033  1.00  0.00     0.316 C 
ATOM     13  C   UNL     1       5.928  -0.698   1.792  1.00  0.00     0.019 A 
ATOM     14  O   UNL     1       4.819   0.492   0.019  1.00  0.00    -0.475 OA
ATOM     15  C   UNL     1       7.048  -1.432   2.183  1.00  0.00     0.032 A 
ATOM     16  C   UNL     1       5.655  -0.526   0.430  1.00  0.00     0.135 A 
ATOM     17  C   UNL     1       7.827  -2.060   1.212  1.00  0.00     0.042 A 
ATOM     18  C   UNL     1       6.246  -1.409  -0.506  1.00  0.00     0.026 A 
ATOM     19  Cl  UNL     1       9.255  -2.902   1.666  1.00  0.00    -0.084 Cl
ATOM     20  C   UNL     1       7.395  -2.108  -0.111  1.00  0.00     0.033 A 
BRANCH  12  21
ATOM     21  C   UNL     1       4.353   2.601   1.427  1.00  0.00     0.430 C 
ATOM     22  F   UNL     1       4.182   3.460   0.396  1.00  0.00    -0.167 F 
ATOM     23  F   UNL     1       3.503   3.022   2.409  1.00  0.00    -0.167 F 
ATOM     24  F   UNL     1       5.605   2.751   1.901  1.00  0.00    -0.167 F 
ENDBRANCH  12  21
BRANCH  18  25
ATOM     25  C   UNL     1       5.534  -1.902  -1.707  1.00  0.00    -0.014 A 
ATOM     26  C   UNL     1       4.747  -3.079  -1.609  1.00  0.00     0.012 A 
ATOM     27  C   UNL     1       5.559  -1.249  -2.936  1.00  0.00     0.012 A 
ATOM     28  C   UNL     1       3.949  -3.533  -2.667  1.00  0.00     0.047 A 
ATOM     29  C   UNL     1       4.744  -1.697  -3.989  1.00  0.00     0.047 A 
ATOM     30  C   UNL     1       3.938  -2.820  -3.849  1.00  0.00     0.115 A 
BRANCH  30  31
ATOM     31  O   UNL     1       3.162  -3.269  -4.873  1.00  0.00    -0.508 OA
ATOM     32  H   UNL     1       2.626  -4.029  -4.757  1.00  0.00     0.293 HD
ENDBRANCH  30  31
ENDBRANCH  18  25
ENDBRANCH   8  10
ENDBRANCH   7   8
ENDBRANCH   6   7
ENDBRANCH   5   6
ENDBRANCH   4   5
ENDBRANCH   3   4
ENDBRANCH   2   3
ENDBRANCH   1   2
BRANCH   1  33
ATOM     33  C   UNL     1       2.603   1.004  -4.310  1.00  0.00     0.188 C 
BRANCH  33  34
ATOM     34  C   UNL     1       3.927   1.594  -3.772  1.00  0.00     0.188 C 
BRANCH  34  35
ATOM     35  O   UNL     1       4.331   2.934  -4.014  1.00  0.00    -0.376 OA
BRANCH  35  36
ATOM     36  C   UNL     1       3.406   3.812  -4.615  1.00  0.00     0.202 C 
BRANCH  36  37
ATOM     37  C   UNL     1       3.228   3.613  -6.131  1.00  0.00     0.261 C 
BRANCH  37  38
ATOM     38  O   UNL     1       3.761   2.381  -6.667  1.00  0.00    -0.460 OA
BRANCH  38  39
ATOM     39  C   UNL     1       5.113   2.278  -6.791  1.00  0.00     0.338 C 
ATOM     40  O   UNL     1       5.920   3.164  -6.657  1.00  0.00    -0.246 OA
BRANCH  39  41
ATOM     41  C   UNL     1       5.474   0.832  -7.001  1.00  0.00     0.060 A 
ATOM     42  C   UNL     1       6.670   0.340  -6.453  1.00  0.00     0.016 A 
ATOM     43  C   UNL     1       4.646  -0.054  -7.699  1.00  0.00     0.016 A 
ATOM     44  C   UNL     1       7.041  -1.016  -6.602  1.00  0.00     0.010 A 
ATOM     45  C   UNL     1       5.017  -1.405  -7.848  1.00  0.00     0.010 A 
ATOM     46  C   UNL     1       6.224  -1.908  -7.311  1.00  0.00    -0.014 A 
BRANCH  46  47
ATOM     47  C   UNL     1       6.652  -3.302  -7.671  1.00  0.00     0.031 A 
ATOM     48  C   UNL     1       7.124  -3.553  -9.077  1.00  0.00     0.074 A 
ATOM     49  C   UNL     1       6.586  -4.368  -6.843  1.00  0.00     0.049 A 
ATOM     50  N   UNL     1       7.424  -4.687  -9.657  1.00  0.00    -0.248 NA
ATOM     51  C   UNL     1       7.314  -2.367  -9.925  1.00  0.00     0.031 C 
ATOM     52  C   UNL     1       6.324  -4.330  -5.416  1.00  0.00     0.029 A 
ATOM     53  N   UNL     1       6.685  -5.721  -7.107  1.00  0.00    -0.354 N 
ATOM     54  C   UNL     1       7.884  -4.349 -10.919  1.00  0.00     0.074 A 
ATOM     55  C   UNL     1       7.742  -2.914 -11.052  1.00  0.00     0.031 C 
ATOM     56  C   UNL     1       6.109  -5.577  -4.957  1.00  0.00     0.029 A 
ATOM     57  C   UNL     1       6.289  -6.520  -6.053  1.00  0.00     0.049 A 
ATOM     58  H   UNL     1       7.007  -6.080  -7.965  1.00  0.00     0.167 HD
ATOM     59  C   UNL     1       8.423  -5.148 -11.868  1.00  0.00     0.031 A 
ATOM     60  C   UNL     1       6.093  -7.853  -5.969  1.00  0.00     0.031 A 
ATOM     61  C   UNL     1       8.558  -6.574 -11.769  1.00  0.00     0.049 A 
ATOM     62  C   UNL     1       6.481  -8.734  -7.127  1.00  0.00     0.074 A 
ATOM     63  C   UNL     1       9.139  -7.445 -12.676  1.00  0.00     0.029 A 
ATOM     64  N   UNL     1       8.086  -7.345 -10.722  1.00  0.00    -0.354 N 
ATOM     65  N   UNL     1       7.013  -8.395  -8.274  1.00  0.00    -0.248 NA
ATOM     66  C   UNL     1       6.306 -10.187  -6.956  1.00  0.00     0.031 C 
ATOM     67  C   UNL     1       8.948  -8.750 -12.213  1.00  0.00     0.029 A 
ATOM     68  C   UNL     1       8.307  -8.687 -10.988  1.00  0.00     0.049 A 
ATOM     69  H   UNL     1       7.657  -6.993  -9.908  1.00  0.00     0.167 HD
ATOM     70  C   UNL     1       7.308  -9.588  -8.923  1.00  0.00     0.074 A 
ATOM     71  C   UNL     1       6.884 -10.661  -8.051  1.00  0.00     0.031 C 
ATOM     72  C   UNL     1       7.902  -9.767 -10.127  1.00  0.00     0.031 A 
BRANCH  59  73
ATOM     73  C   UNL     1       8.912  -4.477 -13.116  1.00  0.00    -0.014 A 
ATOM     74  C   UNL     1      10.077  -3.692 -13.101  1.00  0.00     0.009 A 
ATOM     75  C   UNL     1       8.221  -4.658 -14.322  1.00  0.00     0.009 A 
ATOM     76  C   UNL     1      10.521  -3.074 -14.269  1.00  0.00     0.001 A 
ATOM     77  C   UNL     1       8.684  -4.060 -15.493  1.00  0.00     0.001 A 
ATOM     78  C   UNL     1       9.828  -3.262 -15.464  1.00  0.00     0.000 A 
ENDBRANCH  59  73
BRANCH  60  79
ATOM     79  C   UNL     1       5.498  -8.476  -4.750  1.00  0.00    -0.014 A 
ATOM     80  C   UNL     1       6.259  -9.312  -3.918  1.00  0.00     0.009 A 
ATOM     81  C   UNL     1       4.125  -8.336  -4.490  1.00  0.00     0.009 A 
ATOM     82  C   UNL     1       5.648 -10.039  -2.891  1.00  0.00     0.001 A 
ATOM     83  C   UNL     1       3.522  -9.045  -3.446  1.00  0.00     0.001 A 
ATOM     84  C   UNL     1       4.280  -9.909  -2.658  1.00  0.00     0.000 A 
ENDBRANCH  60  79
BRANCH  72  85
ATOM     85  C   UNL     1       8.186 -11.175 -10.570  1.00  0.00    -0.014 A 
ATOM     86  C   UNL     1       7.155 -12.050 -10.944  1.00  0.00     0.009 A 
ATOM     87  C   UNL     1       9.517 -11.614 -10.670  1.00  0.00     0.009 A 
ATOM     88  C   UNL     1       7.449 -13.342 -11.385  1.00  0.00     0.001 A 
ATOM     89  C   UNL     1       9.810 -12.894 -11.144  1.00  0.00     0.001 A 
ATOM     90  C   UNL     1       8.776 -13.760 -11.493  1.00  0.00     0.000 A 
ENDBRANCH  72  85
ENDBRANCH  46  47
ENDBRANCH  39  41
ENDBRANCH  38  39
ENDBRANCH  37  38
ENDBRANCH  36  37
ENDBRANCH  35  36
ENDBRANCH  34  35
ENDBRANCH  33  34
ENDBRANCH   1  33
TORSDOF 23
