REMARK SMILES CCCCCCNC(=O)Oc1cccc(-c2ccc([C@@H](C)C(=O)OCCOCCOCCOCCOC(=O)c3ccc(-c4c5nc(c(-c6ccccc6)c6ccc([nH]6)c(-c6ccccc6)c6nc(c(-c7ccccc7)c7ccc4[nH]7)C=C6)C=C5)cc3)cc2)c1
REMARK SMILES IDX 26 1 25 2 24 3 22 4 23 5 20 6 21 7 19 8 16 9 17 10 88 11
REMARK SMILES IDX 18 12 87 13 15 14 11 15 12 16 89 17 13 18 14 19 10 20 8 21
REMARK SMILES IDX 7 22 9 24 6 25 5 26 4 27 3 28 2 29 1 30 27 31 28 32 29 33
REMARK SMILES IDX 30 34 31 35 32 36 33 37 34 38 35 39 36 40 37 41 38 42 39 43
REMARK SMILES IDX 40 44 86 45 41 46 85 47 42 48 43 49 44 50 79 51 45 52 84 53
REMARK SMILES IDX 78 54 80 55 46 56 83 57 77 58 76 59 47 61 69 62 54 63 68 64
REMARK SMILES IDX 55 65 58 66 67 67 81 68 56 69 57 70 66 72 82 73 59 74 48 75
REMARK SMILES IDX 49 76 53 77 50 78 52 79 51 80 70 81 71 82 75 83 72 84 74 85
REMARK SMILES IDX 73 86 60 87 61 88 65 89 62 90 64 91 63 92
REMARK H PARENT 7 23 80 60 58 71
REMARK Flexibility Score: inf
ROOT
ATOM      1  C   UNL     1      -0.612  14.442  -4.668  1.00  0.00     0.202 C 
ENDROOT
BRANCH   1   2
ATOM      2  C   UNL     1      -2.038  15.023  -4.733  1.00  0.00     0.261 C 
BRANCH   2   3
ATOM      3  O   UNL     1      -3.135  14.101  -4.553  1.00  0.00    -0.463 OA
BRANCH   3   4
ATOM      4  C   UNL     1      -3.818  13.761  -5.670  1.00  0.00     0.313 C 
ATOM      5  O   UNL     1      -3.558  14.217  -6.784  1.00  0.00    -0.252 OA
BRANCH   4   6
ATOM      6  C   UNL     1      -4.982  12.788  -5.483  1.00  0.00     0.126 C 
ATOM      7  C   UNL     1      -6.286  13.556  -5.668  1.00  0.00     0.025 C 
BRANCH   6   8
ATOM      8  C   UNL     1      -5.056  11.844  -4.280  1.00  0.00    -0.034 A 
ATOM      9  C   UNL     1      -5.131   9.957  -2.116  1.00  0.00    -0.018 A 
ATOM     10  C   UNL     1      -5.118  11.344  -1.887  1.00  0.00     0.009 A 
ATOM     11  C   UNL     1      -5.122   9.531  -3.450  1.00  0.00     0.009 A 
ATOM     12  C   UNL     1      -5.084  12.274  -2.948  1.00  0.00     0.005 A 
ATOM     13  C   UNL     1      -5.096  10.453  -4.509  1.00  0.00     0.005 A 
BRANCH   9  14
ATOM     14  C   UNL     1      -5.195   8.977  -1.009  1.00  0.00    -0.015 A 
ATOM     15  C   UNL     1      -4.336   7.030   0.184  1.00  0.00     0.133 A 
ATOM     16  C   UNL     1      -5.421   7.048   1.056  1.00  0.00     0.047 A 
ATOM     17  C   UNL     1      -4.221   7.971  -0.848  1.00  0.00     0.056 A 
ATOM     18  C   UNL     1      -6.391   8.037   0.911  1.00  0.00     0.004 A 
ATOM     19  C   UNL     1      -6.277   8.990  -0.109  1.00  0.00     0.009 A 
BRANCH  15  20
ATOM     20  O   UNL     1      -3.442   5.949   0.303  1.00  0.00    -0.410 OA
BRANCH  20  21
ATOM     21  C   UNL     1      -2.117   6.250   0.583  1.00  0.00     0.412 C 
ATOM     22  N   UNL     1      -1.309   5.149   0.686  1.00  0.00    -0.321 N 
ATOM     23  H   UNL     1      -0.344   5.322   0.776  1.00  0.00     0.167 HD
ATOM     24  O   UNL     1      -1.657   7.375   0.740  1.00  0.00    -0.224 OA
BRANCH  22  25
ATOM     25  C   UNL     1      -1.715   3.756   0.678  1.00  0.00     0.119 C 
BRANCH  25  26
ATOM     26  C   UNL     1      -1.076   2.961  -0.461  1.00  0.00     0.021 C 
BRANCH  26  27
ATOM     27  C   UNL     1       0.453   2.853  -0.408  1.00  0.00     0.002 C 
BRANCH  27  28
ATOM     28  C   UNL     1       1.033   2.173   0.839  1.00  0.00    -0.000 C 
BRANCH  28  29
ATOM     29  C   UNL     1       0.574   0.734   1.084  1.00  0.00    -0.003 C 
ATOM     30  C   UNL     1       0.985  -0.231  -0.018  1.00  0.00     0.004 C 
ENDBRANCH  28  29
ENDBRANCH  27  28
ENDBRANCH  26  27
ENDBRANCH  25  26
ENDBRANCH  22  25
ENDBRANCH  20  21
ENDBRANCH  15  20
ENDBRANCH   9  14
ENDBRANCH   6   8
ENDBRANCH   4   6
ENDBRANCH   3   4
ENDBRANCH   2   3
ENDBRANCH   1   2
BRANCH   1  31
ATOM     31  O   UNL     1      -0.258  13.296  -5.428  1.00  0.00    -0.376 OA
BRANCH  31  32
ATOM     32  C   UNL     1      -1.023  12.101  -5.336  1.00  0.00     0.188 C 
BRANCH  32  33
ATOM     33  C   UNL     1      -1.669  11.671  -4.010  1.00  0.00     0.188 C 
BRANCH  33  34
ATOM     34  O   UNL     1      -1.565  12.608  -2.958  1.00  0.00    -0.377 OA
BRANCH  34  35
ATOM     35  C   UNL     1      -0.603  12.324  -1.957  1.00  0.00     0.188 C 
BRANCH  35  36
ATOM     36  C   UNL     1       0.764  11.796  -2.434  1.00  0.00     0.188 C 
BRANCH  36  37
ATOM     37  O   UNL     1       0.686  10.662  -3.290  1.00  0.00    -0.376 OA
BRANCH  37  38
ATOM     38  C   UNL     1       0.835   9.369  -2.719  1.00  0.00     0.202 C 
BRANCH  38  39
ATOM     39  C   UNL     1      -0.251   8.882  -1.747  1.00  0.00     0.261 C 
BRANCH  39  40
ATOM     40  O   UNL     1      -0.489   9.709  -0.603  1.00  0.00    -0.460 OA
BRANCH  40  41
ATOM     41  C   UNL     1       0.526   9.892   0.267  1.00  0.00     0.338 C 
ATOM     42  O   UNL     1       1.640   9.417   0.208  1.00  0.00    -0.246 OA
BRANCH  41  43
ATOM     43  C   UNL     1       0.126  10.974   1.198  1.00  0.00     0.060 A 
ATOM     44  C   UNL     1       0.910  12.134   1.248  1.00  0.00     0.016 A 
ATOM     45  C   UNL     1      -0.993  10.842   2.024  1.00  0.00     0.016 A 
ATOM     46  C   UNL     1       0.615  13.139   2.169  1.00  0.00     0.010 A 
ATOM     47  C   UNL     1      -1.275  11.842   2.963  1.00  0.00     0.010 A 
ATOM     48  C   UNL     1      -0.442  12.971   3.072  1.00  0.00    -0.014 A 
BRANCH  48  49
ATOM     49  C   UNL     1      -0.516  13.854   4.264  1.00  0.00     0.031 A 
ATOM     50  C   UNL     1       0.077  13.356   5.556  1.00  0.00     0.074 A 
ATOM     51  C   UNL     1      -1.030  15.094   4.198  1.00  0.00     0.049 A 
ATOM     52  N   UNL     1       0.164  13.950   6.719  1.00  0.00    -0.248 NA
ATOM     53  C   UNL     1       0.658  12.003   5.526  1.00  0.00     0.031 C 
ATOM     54  C   UNL     1      -1.572  15.725   2.997  1.00  0.00     0.029 A 
ATOM     55  N   UNL     1      -1.164  16.051   5.174  1.00  0.00    -0.354 N 
ATOM     56  C   UNL     1       0.803  13.043   7.557  1.00  0.00     0.074 A 
ATOM     57  C   UNL     1       1.042  11.846   6.782  1.00  0.00     0.031 C 
ATOM     58  C   UNL     1      -1.970  16.972   3.305  1.00  0.00     0.029 A 
ATOM     59  C   UNL     1      -1.744  17.213   4.729  1.00  0.00     0.049 A 
ATOM     60  H   UNL     1      -0.871  15.916   6.104  1.00  0.00     0.167 HD
ATOM     61  C   UNL     1       1.170  13.193   8.852  1.00  0.00     0.031 A 
ATOM     62  C   UNL     1      -2.062  18.339   5.399  1.00  0.00     0.031 A 
ATOM     63  C   UNL     1       0.905  14.370   9.636  1.00  0.00     0.049 A 
ATOM     64  C   UNL     1      -1.755  18.438   6.871  1.00  0.00     0.074 A 
ATOM     65  C   UNL     1       1.230  14.619  10.957  1.00  0.00     0.029 A 
ATOM     66  N   UNL     1       0.237  15.492   9.169  1.00  0.00    -0.354 N 
ATOM     67  N   UNL     1      -1.137  17.582   7.649  1.00  0.00    -0.248 NA
ATOM     68  C   UNL     1      -2.187  19.667   7.554  1.00  0.00     0.031 C 
ATOM     69  C   UNL     1       0.698  15.864  11.309  1.00  0.00     0.029 A 
ATOM     70  C   UNL     1       0.108  16.423  10.186  1.00  0.00     0.049 A 
ATOM     71  H   UNL     1      -0.097  15.609   8.250  1.00  0.00     0.167 HD
ATOM     72  C   UNL     1      -1.072  18.184   8.902  1.00  0.00     0.074 A 
ATOM     73  C   UNL     1      -1.706  19.480   8.775  1.00  0.00     0.031 C 
ATOM     74  C   UNL     1      -0.529  17.709  10.050  1.00  0.00     0.031 A 
BRANCH  61  75
ATOM     75  C   UNL     1       1.854  12.022   9.507  1.00  0.00    -0.014 A 
ATOM     76  C   UNL     1       3.142  11.614   9.122  1.00  0.00     0.009 A 
ATOM     77  C   UNL     1       1.192  11.307  10.518  1.00  0.00     0.009 A 
ATOM     78  C   UNL     1       3.728  10.483   9.695  1.00  0.00     0.001 A 
ATOM     79  C   UNL     1       1.796  10.199  11.115  1.00  0.00     0.001 A 
ATOM     80  C   UNL     1       3.056   9.778  10.693  1.00  0.00     0.000 A 
ENDBRANCH  61  75
BRANCH  62  81
ATOM     81  C   UNL     1      -2.707  19.474   4.686  1.00  0.00    -0.014 A 
ATOM     82  C   UNL     1      -2.017  20.680   4.494  1.00  0.00     0.009 A 
ATOM     83  C   UNL     1      -4.022  19.363   4.206  1.00  0.00     0.009 A 
ATOM     84  C   UNL     1      -2.635  21.757   3.854  1.00  0.00     0.001 A 
ATOM     85  C   UNL     1      -4.627  20.431   3.541  1.00  0.00     0.001 A 
ATOM     86  C   UNL     1      -3.937  21.630   3.372  1.00  0.00     0.000 A 
ENDBRANCH  62  81
BRANCH  74  87
ATOM     87  C   UNL     1      -0.554  18.611  11.255  1.00  0.00    -0.014 A 
ATOM     88  C   UNL     1      -1.748  18.906  11.930  1.00  0.00     0.009 A 
ATOM     89  C   UNL     1       0.650  19.140  11.748  1.00  0.00     0.009 A 
ATOM     90  C   UNL     1      -1.740  19.741  13.050  1.00  0.00     0.001 A 
ATOM     91  C   UNL     1       0.660  19.946  12.887  1.00  0.00     0.001 A 
ATOM     92  C   UNL     1      -0.536  20.255  13.531  1.00  0.00     0.000 A 
ENDBRANCH  74  87
ENDBRANCH  48  49
ENDBRANCH  41  43
ENDBRANCH  40  41
ENDBRANCH  39  40
ENDBRANCH  38  39
ENDBRANCH  37  38
ENDBRANCH  36  37
ENDBRANCH  35  36
ENDBRANCH  34  35
ENDBRANCH  33  34
ENDBRANCH  32  33
ENDBRANCH  31  32
ENDBRANCH   1  31
TORSDOF 29
