REMARK SMILES O=C(OCCOCCOCCOCCOC(=O)c1cc(NC(=O)c2cc([N+](=O)[O-])ccc2N2CCCC2)ccc1Cl)c1ccc(-c2c3nc(c(-c4ccccc4)c4ccc([nH]4)c(-c4ccccc4)c4nc(c(-c5ccccc5)c5ccc2[nH]5)C=C4)C=C3)cc1
REMARK SMILES IDX 10 1 9 2 8 3 7 4 6 5 5 6 4 7 3 8 2 9 1 10 42 11 43 12 89 13
REMARK SMILES IDX 44 14 88 15 45 16 46 17 47 18 82 19 48 20 87 21 81 22 83 23
REMARK SMILES IDX 49 24 86 25 80 26 79 27 50 29 72 30 57 31 71 32 58 33 61 34
REMARK SMILES IDX 70 35 84 36 59 37 60 38 69 40 85 41 62 42 51 43 52 44 56 45
REMARK SMILES IDX 53 46 55 47 54 48 73 49 74 50 78 51 75 52 77 53 76 54 63 55
REMARK SMILES IDX 64 56 68 57 65 58 67 59 66 60 11 61 12 62 13 63 14 64 15 65
REMARK SMILES IDX 16 66 17 67 18 68 19 69 40 70 20 71 39 72 41 73 38 74 21 75
REMARK SMILES IDX 22 76 23 78 24 79 25 80 32 81 26 82 31 83 30 84 33 85 34 86
REMARK SMILES IDX 37 87 35 88 36 89 27 90 28 91 29 92
REMARK H PARENT 83 28 61 39 21 77
REMARK Flexibility Score: inf
ROOT
ATOM      1  C   UNL     1       3.896   0.446   3.115  1.00  0.00     0.188 C 
ENDROOT
BRANCH   1   2
ATOM      2  O   UNL     1       2.760   1.226   3.452  1.00  0.00    -0.377 OA
BRANCH   2   3
ATOM      3  C   UNL     1       1.674   1.211   2.523  1.00  0.00     0.188 C 
BRANCH   3   4
ATOM      4  C   UNL     1       1.917   1.032   1.006  1.00  0.00     0.188 C 
BRANCH   4   5
ATOM      5  O   UNL     1       3.247   1.312   0.580  1.00  0.00    -0.376 OA
BRANCH   5   6
ATOM      6  C   UNL     1       3.408   1.934  -0.697  1.00  0.00     0.202 C 
BRANCH   6   7
ATOM      7  C   UNL     1       3.436   0.970  -1.882  1.00  0.00     0.261 C 
BRANCH   7   8
ATOM      8  O   UNL     1       2.154   0.346  -2.024  1.00  0.00    -0.460 OA
BRANCH   8   9
ATOM      9  C   UNL     1       1.757  -0.857  -1.562  1.00  0.00     0.338 C 
ATOM     10  O   UNL     1       0.556  -1.121  -1.566  1.00  0.00    -0.246 OA
BRANCH   9  11
ATOM     11  C   UNL     1       2.694  -1.912  -1.077  1.00  0.00     0.060 A 
ATOM     12  C   UNL     1       3.844  -1.705  -0.304  1.00  0.00     0.016 A 
ATOM     13  C   UNL     1       2.292  -3.232  -1.333  1.00  0.00     0.016 A 
ATOM     14  C   UNL     1       4.613  -2.779   0.146  1.00  0.00     0.010 A 
ATOM     15  C   UNL     1       3.034  -4.309  -0.855  1.00  0.00     0.010 A 
ATOM     16  C   UNL     1       4.215  -4.085  -0.137  1.00  0.00    -0.014 A 
BRANCH  16  17
ATOM     17  C   UNL     1       5.098  -5.223   0.182  1.00  0.00     0.031 A 
ATOM     18  C   UNL     1       5.836  -5.872  -0.951  1.00  0.00     0.074 A 
ATOM     19  C   UNL     1       5.239  -5.652   1.448  1.00  0.00     0.049 A 
ATOM     20  N   UNL     1       6.546  -6.967  -0.964  1.00  0.00    -0.248 NA
ATOM     21  C   UNL     1       5.751  -5.190  -2.255  1.00  0.00     0.031 C 
ATOM     22  C   UNL     1       4.638  -5.031   2.628  1.00  0.00     0.029 A 
ATOM     23  N   UNL     1       5.938  -6.719   1.949  1.00  0.00    -0.354 N 
ATOM     24  C   UNL     1       6.965  -7.122  -2.279  1.00  0.00     0.074 A 
ATOM     25  C   UNL     1       6.415  -6.023  -3.039  1.00  0.00     0.031 C 
ATOM     26  C   UNL     1       4.999  -5.727   3.720  1.00  0.00     0.029 A 
ATOM     27  C   UNL     1       5.800  -6.875   3.307  1.00  0.00     0.049 A 
ATOM     28  H   UNL     1       6.485  -7.317   1.390  1.00  0.00     0.167 HD
ATOM     29  C   UNL     1       7.737  -8.101  -2.803  1.00  0.00     0.031 A 
ATOM     30  C   UNL     1       6.245  -7.860   4.111  1.00  0.00     0.031 A 
ATOM     31  C   UNL     1       8.258  -9.192  -2.027  1.00  0.00     0.049 A 
ATOM     32  C   UNL     1       7.023  -8.991   3.487  1.00  0.00     0.074 A 
ATOM     33  C   UNL     1       9.022 -10.265  -2.444  1.00  0.00     0.029 A 
ATOM     34  N   UNL     1       8.061  -9.341  -0.661  1.00  0.00    -0.354 N 
ATOM     35  N   UNL     1       7.385  -9.156   2.236  1.00  0.00    -0.248 NA
ATOM     36  C   UNL     1       7.448 -10.074   4.384  1.00  0.00     0.031 C 
ATOM     37  C   UNL     1       9.239 -11.095  -1.339  1.00  0.00     0.029 A 
ATOM     38  C   UNL     1       8.669 -10.502  -0.221  1.00  0.00     0.049 A 
ATOM     39  H   UNL     1       7.563  -8.713  -0.090  1.00  0.00     0.167 HD
ATOM     40  C   UNL     1       8.104 -10.344   2.200  1.00  0.00     0.074 A 
ATOM     41  C   UNL     1       8.139 -10.848   3.559  1.00  0.00     0.031 C 
ATOM     42  C   UNL     1       8.683 -10.967   1.143  1.00  0.00     0.031 A 
BRANCH  29  43
ATOM     43  C   UNL     1       7.988  -8.056  -4.284  1.00  0.00    -0.014 A 
ATOM     44  C   UNL     1       8.793  -7.063  -4.867  1.00  0.00     0.009 A 
ATOM     45  C   UNL     1       7.378  -9.007  -5.117  1.00  0.00     0.009 A 
ATOM     46  C   UNL     1       8.942  -6.997  -6.255  1.00  0.00     0.001 A 
ATOM     47  C   UNL     1       7.554  -8.958  -6.501  1.00  0.00     0.001 A 
ATOM     48  C   UNL     1       8.324  -7.945  -7.070  1.00  0.00     0.000 A 
ENDBRANCH  29  43
BRANCH  30  49
ATOM     49  C   UNL     1       5.934  -7.851   5.567  1.00  0.00    -0.014 A 
ATOM     50  C   UNL     1       6.954  -7.719   6.521  1.00  0.00     0.009 A 
ATOM     51  C   UNL     1       4.610  -7.997   6.015  1.00  0.00     0.009 A 
ATOM     52  C   UNL     1       6.660  -7.762   7.888  1.00  0.00     0.001 A 
ATOM     53  C   UNL     1       4.315  -8.005   7.381  1.00  0.00     0.001 A 
ATOM     54  C   UNL     1       5.341  -7.900   8.316  1.00  0.00     0.000 A 
ENDBRANCH  30  49
BRANCH  42  55
ATOM     55  C   UNL     1       9.438 -12.234   1.429  1.00  0.00    -0.014 A 
ATOM     56  C   UNL     1       8.772 -13.426   1.751  1.00  0.00     0.009 A 
ATOM     57  C   UNL     1      10.837 -12.242   1.315  1.00  0.00     0.009 A 
ATOM     58  C   UNL     1       9.497 -14.595   1.986  1.00  0.00     0.001 A 
ATOM     59  C   UNL     1      11.556 -13.419   1.516  1.00  0.00     0.001 A 
ATOM     60  C   UNL     1      10.887 -14.592   1.862  1.00  0.00     0.000 A 
ENDBRANCH  42  55
ENDBRANCH  16  17
ENDBRANCH   9  11
ENDBRANCH   8   9
ENDBRANCH   7   8
ENDBRANCH   6   7
ENDBRANCH   5   6
ENDBRANCH   4   5
ENDBRANCH   3   4
ENDBRANCH   2   3
ENDBRANCH   1   2
BRANCH   1  61
ATOM     61  C   UNL     1       4.760  -0.056   4.274  1.00  0.00     0.188 C 
BRANCH  61  62
ATOM     62  O   UNL     1       4.129  -0.949   5.179  1.00  0.00    -0.376 OA
BRANCH  62  63
ATOM     63  C   UNL     1       2.913  -0.484   5.756  1.00  0.00     0.202 C 
BRANCH  63  64
ATOM     64  C   UNL     1       2.996   0.760   6.661  1.00  0.00     0.261 C 
BRANCH  64  65
ATOM     65  O   UNL     1       3.519   1.962   6.050  1.00  0.00    -0.460 OA
BRANCH  65  66
ATOM     66  C   UNL     1       4.717   2.411   6.496  1.00  0.00     0.339 C 
ATOM     67  O   UNL     1       5.481   1.835   7.269  1.00  0.00    -0.246 OA
BRANCH  66  68
ATOM     68  C   UNL     1       5.055   3.719   5.903  1.00  0.00     0.080 A 
ATOM     69  C   UNL     1       6.189   3.849   5.056  1.00  0.00     0.043 A 
ATOM     70  C   UNL     1       4.315   4.848   6.272  1.00  0.00     0.055 A 
ATOM     71  C   UNL     1       6.564   5.113   4.579  1.00  0.00     0.042 A 
ATOM     72  C   UNL     1       4.717   6.105   5.828  1.00  0.00     0.023 A 
ATOM     73  Cl  UNL     1       2.929   4.778   7.300  1.00  0.00    -0.083 Cl
ATOM     74  C   UNL     1       5.841   6.234   5.011  1.00  0.00     0.028 A 
BRANCH  71  75
ATOM     75  N   UNL     1       7.620   5.410   3.696  1.00  0.00    -0.322 N 
ATOM     76  C   UNL     1       8.316   4.717   2.738  1.00  0.00     0.258 C 
ATOM     77  H   UNL     1       7.935   6.338   3.789  1.00  0.00     0.170 HD
ATOM     78  O   UNL     1       9.277   5.261   2.189  1.00  0.00    -0.269 OA
BRANCH  76  79
ATOM     79  C   UNL     1       7.941   3.378   2.267  1.00  0.00     0.070 A 
ATOM     80  C   UNL     1       8.977   2.419   2.270  1.00  0.00     0.101 A 
ATOM     81  C   UNL     1       6.665   3.096   1.745  1.00  0.00     0.050 A 
ATOM     82  C   UNL     1       8.708   1.113   1.865  1.00  0.00     0.270 A 
ATOM     83  C   UNL     1       6.461   1.772   1.339  1.00  0.00     0.034 A 
ATOM     84  C   UNL     1       7.433   0.771   1.435  1.00  0.00     0.088 A 
BRANCH  81  85
ATOM     85  N   UNL     1       5.688   4.045   1.576  1.00  0.00    -0.371 N 
ATOM     86  C   UNL     1       5.800   5.109   0.591  1.00  0.00     0.116 C 
ATOM     87  C   UNL     1       4.343   4.019   2.138  1.00  0.00     0.116 C 
ATOM     88  C   UNL     1       4.912   6.194   1.184  1.00  0.00     0.023 C 
ATOM     89  C   UNL     1       3.804   5.436   1.911  1.00  0.00     0.023 C 
ENDBRANCH  81  85
BRANCH  82  90
ATOM     90  N   UNL     1       9.767   0.101   1.853  1.00  0.00     0.062 N 
ATOM     91  O   UNL     1      10.936   0.491   1.969  1.00  0.00    -0.258 OA
ATOM     92  O   UNL     1       9.424  -1.081   1.713  1.00  0.00    -0.258 OA
ENDBRANCH  82  90
ENDBRANCH  76  79
ENDBRANCH  71  75
ENDBRANCH  66  68
ENDBRANCH  65  66
ENDBRANCH  64  65
ENDBRANCH  63  64
ENDBRANCH  62  63
ENDBRANCH  61  62
ENDBRANCH   1  61
TORSDOF 24
