REMARK SMILES CC[C@H](C)CN(CC)c1nc(C(=O)OCCOCCOCCOCCOC(=O)c2ccc(-c3c4nc(c(-c5ccccc5)c5ccc([nH]5)c(-c5ccccc5)c5nc(c(-c6ccccc6)c6ccc3[nH]6)C=C5)C=C4)cc2)cc2ccccc12
REMARK SMILES IDX 19 1 18 2 17 3 16 4 15 5 14 6 12 7 13 8 11 9 9 10 10 11
REMARK SMILES IDX 83 12 78 13 82 14 77 15 79 16 81 17 80 18 6 19 5 20 3 21
REMARK SMILES IDX 4 22 2 23 1 24 7 25 8 26 20 27 21 28 22 29 23 30 24 31 25 32
REMARK SMILES IDX 26 33 27 34 28 35 29 36 30 37 76 38 31 39 75 40 32 41 33 42
REMARK SMILES IDX 34 43 69 44 35 45 74 46 68 47 70 48 36 49 73 50 67 51 66 52
REMARK SMILES IDX 37 54 59 55 44 56 58 57 45 58 48 59 57 60 71 61 46 62 47 63
REMARK SMILES IDX 56 65 72 66 49 67 38 68 39 69 43 70 40 71 42 72 41 73 60 74
REMARK SMILES IDX 61 75 65 76 62 77 64 78 63 79 50 80 51 81 55 82 52 83 54 84
REMARK SMILES IDX 53 85
REMARK H PARENT 70 53 48 64
REMARK Flexibility Score: inf
ROOT
ATOM      1  C   UNL     1      -2.680  -0.389  -6.162  1.00  0.00     0.188 C 
ENDROOT
BRANCH   1   2
ATOM      2  C   UNL     1      -2.521   0.819  -7.123  1.00  0.00     0.188 C 
BRANCH   2   3
ATOM      3  O   UNL     1      -2.605   0.499  -8.503  1.00  0.00    -0.376 OA
BRANCH   3   4
ATOM      4  C   UNL     1      -1.441   0.484  -9.305  1.00  0.00     0.202 C 
BRANCH   4   5
ATOM      5  C   UNL     1      -0.406  -0.612  -9.012  1.00  0.00     0.261 C 
BRANCH   5   6
ATOM      6  O   UNL     1      -0.016  -0.738  -7.640  1.00  0.00    -0.459 OA
BRANCH   6   7
ATOM      7  C   UNL     1       0.689   0.298  -7.132  1.00  0.00     0.357 C 
ATOM      8  O   UNL     1       1.046   1.291  -7.749  1.00  0.00    -0.244 OA
BRANCH   7   9
ATOM      9  C   UNL     1       0.786   0.173  -5.652  1.00  0.00     0.151 A 
ATOM     10  C   UNL     1       1.321  -1.108  -3.782  1.00  0.00     0.137 A 
ATOM     11  N   UNL     1       1.086  -1.035  -5.113  1.00  0.00    -0.223 NA
ATOM     12  C   UNL     1       1.392   0.093  -3.020  1.00  0.00     0.024 A 
ATOM     13  C   UNL     1       0.821   1.265  -3.554  1.00  0.00    -0.012 A 
ATOM     14  C   UNL     1       2.050   0.243  -1.781  1.00  0.00     0.012 A 
ATOM     15  C   UNL     1       0.531   1.307  -4.906  1.00  0.00     0.045 A 
ATOM     16  C   UNL     1       0.611   2.393  -2.743  1.00  0.00     0.009 A 
ATOM     17  C   UNL     1       1.881   1.376  -0.983  1.00  0.00     0.001 A 
ATOM     18  C   UNL     1       1.100   2.426  -1.441  1.00  0.00     0.001 A 
BRANCH  10  19
ATOM     19  N   UNL     1       1.479  -2.382  -3.201  1.00  0.00    -0.356 N 
BRANCH  19  20
ATOM     20  C   UNL     1       0.453  -2.913  -2.239  1.00  0.00     0.121 C 
BRANCH  20  21
ATOM     21  C   UNL     1       0.460  -2.263  -0.835  1.00  0.00     0.005 C 
ATOM     22  C   UNL     1      -0.705  -1.272  -0.692  1.00  0.00     0.009 C 
BRANCH  21  23
ATOM     23  C   UNL     1       0.450  -3.235   0.368  1.00  0.00     0.002 C 
ATOM     24  C   UNL     1       1.206  -2.622   1.556  1.00  0.00     0.004 C 
ENDBRANCH  21  23
ENDBRANCH  20  21
ENDBRANCH  19  20
BRANCH  19  25
ATOM     25  C   UNL     1       2.083  -3.401  -4.087  1.00  0.00     0.114 C 
ATOM     26  C   UNL     1       1.143  -3.977  -5.147  1.00  0.00     0.027 C 
ENDBRANCH  19  25
ENDBRANCH  10  19
ENDBRANCH   7   9
ENDBRANCH   6   7
ENDBRANCH   5   6
ENDBRANCH   4   5
ENDBRANCH   3   4
ENDBRANCH   2   3
ENDBRANCH   1   2
BRANCH   1  27
ATOM     27  O   UNL     1      -3.554  -1.481  -6.447  1.00  0.00    -0.377 OA
BRANCH  27  28
ATOM     28  C   UNL     1      -3.912  -1.713  -7.802  1.00  0.00     0.188 C 
BRANCH  28  29
ATOM     29  C   UNL     1      -5.032  -0.774  -8.291  1.00  0.00     0.188 C 
BRANCH  29  30
ATOM     30  O   UNL     1      -5.289   0.293  -7.393  1.00  0.00    -0.376 OA
BRANCH  30  31
ATOM     31  C   UNL     1      -6.243   0.124  -6.358  1.00  0.00     0.202 C 
BRANCH  31  32
ATOM     32  C   UNL     1      -6.441  -1.193  -5.579  1.00  0.00     0.261 C 
BRANCH  32  33
ATOM     33  O   UNL     1      -6.303  -2.433  -6.282  1.00  0.00    -0.460 OA
BRANCH  33  34
ATOM     34  C   UNL     1      -7.262  -2.790  -7.156  1.00  0.00     0.338 C 
ATOM     35  O   UNL     1      -8.276  -2.171  -7.440  1.00  0.00    -0.246 OA
BRANCH  34  36
ATOM     36  C   UNL     1      -6.769  -3.990  -7.866  1.00  0.00     0.060 A 
ATOM     37  C   UNL     1      -6.513  -3.919  -9.243  1.00  0.00     0.016 A 
ATOM     38  C   UNL     1      -6.518  -5.169  -7.160  1.00  0.00     0.016 A 
ATOM     39  C   UNL     1      -6.023  -5.035  -9.922  1.00  0.00     0.010 A 
ATOM     40  C   UNL     1      -6.057  -6.295  -7.847  1.00  0.00     0.010 A 
ATOM     41  C   UNL     1      -5.833  -6.240  -9.234  1.00  0.00    -0.014 A 
BRANCH  41  42
ATOM     42  C   UNL     1      -5.583  -7.492  -9.985  1.00  0.00     0.031 A 
ATOM     43  C   UNL     1      -6.751  -8.395 -10.270  1.00  0.00     0.074 A 
ATOM     44  C   UNL     1      -4.350  -7.827 -10.403  1.00  0.00     0.049 A 
ATOM     45  N   UNL     1      -6.770  -9.580 -10.822  1.00  0.00    -0.248 NA
ATOM     46  C   UNL     1      -8.076  -7.891  -9.872  1.00  0.00     0.031 C 
ATOM     47  C   UNL     1      -3.148  -7.012 -10.242  1.00  0.00     0.029 A 
ATOM     48  N   UNL     1      -3.909  -8.959 -11.043  1.00  0.00    -0.354 N 
ATOM     49  C   UNL     1      -8.104  -9.969 -10.825  1.00  0.00     0.074 A 
ATOM     50  C   UNL     1      -8.859  -8.907 -10.198  1.00  0.00     0.031 C 
ATOM     51  C   UNL     1      -2.100  -7.678 -10.757  1.00  0.00     0.029 A 
ATOM     52  C   UNL     1      -2.550  -8.982 -11.241  1.00  0.00     0.049 A 
ATOM     53  H   UNL     1      -4.509  -9.684 -11.332  1.00  0.00     0.167 HD
ATOM     54  C   UNL     1      -8.650 -11.110 -11.307  1.00  0.00     0.031 A 
ATOM     55  C   UNL     1      -1.760  -9.960 -11.726  1.00  0.00     0.031 A 
ATOM     56  C   UNL     1      -7.894 -12.174 -11.910  1.00  0.00     0.049 A 
ATOM     57  C   UNL     1      -2.379 -11.264 -12.158  1.00  0.00     0.074 A 
ATOM     58  C   UNL     1      -8.356 -13.365 -12.441  1.00  0.00     0.029 A 
ATOM     59  N   UNL     1      -6.515 -12.181 -12.048  1.00  0.00    -0.354 N 
ATOM     60  N   UNL     1      -3.643 -11.615 -12.181  1.00  0.00    -0.248 NA
ATOM     61  C   UNL     1      -1.459 -12.310 -12.631  1.00  0.00     0.031 C 
ATOM     62  C   UNL     1      -7.249 -14.123 -12.836  1.00  0.00     0.029 A 
ATOM     63  C   UNL     1      -6.104 -13.373 -12.618  1.00  0.00     0.049 A 
ATOM     64  H   UNL     1      -5.916 -11.446 -11.780  1.00  0.00     0.167 HD
ATOM     65  C   UNL     1      -3.671 -12.907 -12.693  1.00  0.00     0.074 A 
ATOM     66  C   UNL     1      -2.300 -13.270 -12.987  1.00  0.00     0.031 C 
ATOM     67  C   UNL     1      -4.735 -13.723 -12.899  1.00  0.00     0.031 A 
BRANCH  54  68
ATOM     68  C   UNL     1     -10.136 -11.283 -11.154  1.00  0.00    -0.014 A 
ATOM     69  C   UNL     1     -11.046 -10.508 -11.892  1.00  0.00     0.009 A 
ATOM     70  C   UNL     1     -10.633 -12.259 -10.275  1.00  0.00     0.009 A 
ATOM     71  C   UNL     1     -12.421 -10.684 -11.725  1.00  0.00     0.001 A 
ATOM     72  C   UNL     1     -12.007 -12.455 -10.135  1.00  0.00     0.001 A 
ATOM     73  C   UNL     1     -12.900 -11.661 -10.853  1.00  0.00     0.000 A 
ENDBRANCH  54  68
BRANCH  55  74
ATOM     74  C   UNL     1      -0.286  -9.767 -11.793  1.00  0.00    -0.014 A 
ATOM     75  C   UNL     1       0.374  -9.706 -13.030  1.00  0.00     0.009 A 
ATOM     76  C   UNL     1       0.475  -9.676 -10.616  1.00  0.00     0.009 A 
ATOM     77  C   UNL     1       1.765  -9.584 -13.086  1.00  0.00     0.001 A 
ATOM     78  C   UNL     1       1.862  -9.521 -10.676  1.00  0.00     0.001 A 
ATOM     79  C   UNL     1       2.507  -9.486 -11.910  1.00  0.00     0.000 A 
ENDBRANCH  55  74
BRANCH  67  80
ATOM     80  C   UNL     1      -4.465 -15.077 -13.496  1.00  0.00    -0.014 A 
ATOM     81  C   UNL     1      -3.823 -16.085 -12.759  1.00  0.00     0.009 A 
ATOM     82  C   UNL     1      -4.903 -15.364 -14.799  1.00  0.00     0.009 A 
ATOM     83  C   UNL     1      -3.596 -17.340 -13.329  1.00  0.00     0.001 A 
ATOM     84  C   UNL     1      -4.705 -16.630 -15.352  1.00  0.00     0.001 A 
ATOM     85  C   UNL     1      -4.043 -17.613 -14.621  1.00  0.00     0.000 A 
ENDBRANCH  67  80
ENDBRANCH  41  42
ENDBRANCH  34  36
ENDBRANCH  33  34
ENDBRANCH  32  33
ENDBRANCH  31  32
ENDBRANCH  30  31
ENDBRANCH  29  30
ENDBRANCH  28  29
ENDBRANCH  27  28
ENDBRANCH   1  27
TORSDOF 25
