REMARK SMILES C[C@@H]1[C@@H](C(=O)OCCOCCOCCOCCOC(=O)c2ccc(-c3c4nc(c(-c5ccccc5)c5ccc([nH]5)c(-c5ccccc5)c5nc(c(-c6ccccc6)c6ccc3[nH]6)C=C5)C=C4)cc2)CCN1c1nc2sccn2c1[N+](=O)[O-]
REMARK SMILES IDX 12 1 11 2 10 3 9 4 8 5 7 6 6 7 4 8 5 9 3 10 1 11 2 12 71 13
REMARK SMILES IDX 69 14 70 15 72 16 73 17 79 18 74 19 78 20 75 21 77 22 76 23
REMARK SMILES IDX 80 24 81 25 82 26 13 27 14 28 15 29 16 30 17 31 18 32 19 33
REMARK SMILES IDX 20 34 21 35 22 36 68 37 23 38 67 39 24 40 25 41 26 42 61 43
REMARK SMILES IDX 27 44 66 45 60 46 62 47 28 48 65 49 59 50 58 51 29 53 51 54
REMARK SMILES IDX 36 55 50 56 37 57 40 58 49 59 63 60 38 61 39 62 48 64 64 65
REMARK SMILES IDX 41 66 30 67 31 68 35 69 32 70 34 71 33 72 52 73 53 74 57 75
REMARK SMILES IDX 54 76 56 77 55 78 42 79 43 80 47 81 44 82 46 83 45 84
REMARK H PARENT 62 52 40 63
REMARK Flexibility Score: inf
ROOT
ATOM      1  O   UNL     1      -1.026   3.861  -2.458  1.00  0.00    -0.377 OA
ENDROOT
BRANCH   1   2
ATOM      2  C   UNL     1       0.298   3.400  -2.274  1.00  0.00     0.188 C 
BRANCH   2   3
ATOM      3  C   UNL     1       0.662   2.229  -3.201  1.00  0.00     0.188 C 
BRANCH   3   4
ATOM      4  O   UNL     1      -0.045   2.139  -4.423  1.00  0.00    -0.376 OA
BRANCH   4   5
ATOM      5  C   UNL     1      -1.389   1.696  -4.544  1.00  0.00     0.202 C 
BRANCH   5   6
ATOM      6  C   UNL     1      -2.389   1.370  -3.416  1.00  0.00     0.261 C 
BRANCH   6   7
ATOM      7  O   UNL     1      -1.917   1.411  -2.076  1.00  0.00    -0.463 OA
BRANCH   7   8
ATOM      8  C   UNL     1      -1.271   0.297  -1.665  1.00  0.00     0.311 C 
ATOM      9  O   UNL     1      -1.186  -0.728  -2.325  1.00  0.00    -0.252 OA
BRANCH   8  10
ATOM     10  C   UNL     1      -0.613   0.568  -0.318  1.00  0.00     0.123 C 
ATOM     11  C   UNL     1       1.606   0.080   0.835  1.00  0.00     0.032 C 
ATOM     12  C   UNL     1       0.534  -0.419  -0.131  1.00  0.00     0.095 C 
ATOM     13  N   UNL     1      -0.159  -1.609   0.405  1.00  0.00    -0.346 N 
ATOM     14  C   UNL     1      -1.541   0.268   0.837  1.00  0.00     0.039 C 
ATOM     15  C   UNL     1      -1.506  -1.255   0.858  1.00  0.00     0.119 C 
BRANCH  13  16
ATOM     16  C   UNL     1       0.233  -2.824  -0.052  1.00  0.00     0.229 A 
ATOM     17  N   UNL     1       1.538  -2.909  -0.513  1.00  0.00    -0.173 NA
ATOM     18  C   UNL     1      -0.406  -4.048  -0.180  1.00  0.00     0.373 A 
ATOM     19  C   UNL     1       1.647  -4.134  -0.926  1.00  0.00     0.286 A 
ATOM     20  N   UNL     1       0.520  -4.878  -0.753  1.00  0.00    -0.166 N 
ATOM     21  S   UNL     1       2.928  -5.051  -1.651  1.00  0.00    -0.078 S 
ATOM     22  C   UNL     1       0.631  -6.186  -1.188  1.00  0.00     0.220 A 
ATOM     23  C   UNL     1       1.851  -6.450  -1.687  1.00  0.00     0.114 A 
BRANCH  18  24
ATOM     24  N   UNL     1      -1.704  -4.526   0.112  1.00  0.00    -0.023 N 
ATOM     25  O   UNL     1      -2.653  -3.744   0.048  1.00  0.00    -0.358 OA
ATOM     26  O   UNL     1      -1.807  -5.727   0.392  1.00  0.00    -0.358 OA
ENDBRANCH  18  24
ENDBRANCH  13  16
ENDBRANCH   8  10
ENDBRANCH   7   8
ENDBRANCH   6   7
ENDBRANCH   5   6
ENDBRANCH   4   5
ENDBRANCH   3   4
ENDBRANCH   2   3
ENDBRANCH   1   2
BRANCH   1  27
ATOM     27  C   UNL     1      -1.222   4.902  -3.409  1.00  0.00     0.188 C 
BRANCH  27  28
ATOM     28  C   UNL     1      -0.267   5.070  -4.616  1.00  0.00     0.188 C 
BRANCH  28  29
ATOM     29  O   UNL     1       1.109   4.861  -4.333  1.00  0.00    -0.376 OA
BRANCH  29  30
ATOM     30  C   UNL     1       1.963   5.982  -4.177  1.00  0.00     0.202 C 
BRANCH  30  31
ATOM     31  C   UNL     1       1.730   6.875  -2.948  1.00  0.00     0.261 C 
BRANCH  31  32
ATOM     32  O   UNL     1       0.404   7.402  -2.801  1.00  0.00    -0.460 OA
BRANCH  32  33
ATOM     33  C   UNL     1      -0.038   8.230  -3.769  1.00  0.00     0.338 C 
ATOM     34  O   UNL     1       0.582   8.623  -4.744  1.00  0.00    -0.246 OA
BRANCH  33  35
ATOM     35  C   UNL     1      -1.486   8.433  -3.565  1.00  0.00     0.060 A 
ATOM     36  C   UNL     1      -2.371   8.064  -4.587  1.00  0.00     0.016 A 
ATOM     37  C   UNL     1      -1.969   8.970  -2.369  1.00  0.00     0.016 A 
ATOM     38  C   UNL     1      -3.741   8.271  -4.433  1.00  0.00     0.010 A 
ATOM     39  C   UNL     1      -3.340   9.201  -2.226  1.00  0.00     0.010 A 
ATOM     40  C   UNL     1      -4.225   8.888  -3.273  1.00  0.00    -0.014 A 
BRANCH  40  41
ATOM     41  C   UNL     1      -5.613   9.405  -3.248  1.00  0.00     0.031 A 
ATOM     42  C   UNL     1      -5.832  10.860  -3.566  1.00  0.00     0.074 A 
ATOM     43  C   UNL     1      -6.660   8.606  -2.979  1.00  0.00     0.049 A 
ATOM     44  N   UNL     1      -6.942  11.553  -3.569  1.00  0.00    -0.248 NA
ATOM     45  C   UNL     1      -4.635  11.637  -3.929  1.00  0.00     0.031 C 
ATOM     46  C   UNL     1      -6.587   7.172  -2.711  1.00  0.00     0.029 A 
ATOM     47  N   UNL     1      -7.997   8.901  -2.884  1.00  0.00    -0.354 N 
ATOM     48  C   UNL     1      -6.574  12.846  -3.922  1.00  0.00     0.074 A 
ATOM     49  C   UNL     1      -5.138  12.849  -4.095  1.00  0.00     0.031 C 
ATOM     50  C   UNL     1      -7.828   6.711  -2.474  1.00  0.00     0.029 A 
ATOM     51  C   UNL     1      -8.774   7.824  -2.535  1.00  0.00     0.049 A 
ATOM     52  H   UNL     1      -8.364   9.800  -3.050  1.00  0.00     0.167 HD
ATOM     53  C   UNL     1      -7.361  13.933  -4.093  1.00  0.00     0.031 A 
ATOM     54  C   UNL     1     -10.094   7.754  -2.272  1.00  0.00     0.031 A 
ATOM     55  C   UNL     1      -8.786  13.935  -3.902  1.00  0.00     0.049 A 
ATOM     56  C   UNL     1     -10.936   9.001  -2.375  1.00  0.00     0.074 A 
ATOM     57  C   UNL     1      -9.675  14.983  -4.057  1.00  0.00     0.029 A 
ATOM     58  N   UNL     1      -9.529  12.835  -3.502  1.00  0.00    -0.354 N 
ATOM     59  N   UNL     1     -10.583  10.213  -2.732  1.00  0.00    -0.248 NA
ATOM     60  C   UNL     1     -12.362   8.865  -2.045  1.00  0.00     0.031 C 
ATOM     61  C   UNL     1     -10.946  14.535  -3.686  1.00  0.00     0.029 A 
ATOM     62  C   UNL     1     -10.861  13.188  -3.373  1.00  0.00     0.049 A 
ATOM     63  H   UNL     1      -9.163  11.936  -3.334  1.00  0.00     0.167 HD
ATOM     64  C   UNL     1     -11.747  10.972  -2.703  1.00  0.00     0.074 A 
ATOM     65  C   UNL     1     -12.818  10.081  -2.308  1.00  0.00     0.031 C 
ATOM     66  C   UNL     1     -11.916  12.289  -2.981  1.00  0.00     0.031 A 
BRANCH  53  67
ATOM     67  C   UNL     1      -6.686  15.225  -4.463  1.00  0.00    -0.014 A 
ATOM     68  C   UNL     1      -6.107  15.414  -5.729  1.00  0.00     0.009 A 
ATOM     69  C   UNL     1      -6.651  16.279  -3.537  1.00  0.00     0.009 A 
ATOM     70  C   UNL     1      -5.478  16.620  -6.045  1.00  0.00     0.001 A 
ATOM     71  C   UNL     1      -6.050  17.494  -3.867  1.00  0.00     0.001 A 
ATOM     72  C   UNL     1      -5.455  17.660  -5.117  1.00  0.00     0.000 A 
ENDBRANCH  53  67
BRANCH  54  73
ATOM     73  C   UNL     1     -10.708   6.463  -1.859  1.00  0.00    -0.014 A 
ATOM     74  C   UNL     1     -11.637   5.812  -2.685  1.00  0.00     0.009 A 
ATOM     75  C   UNL     1     -10.393   5.892  -0.616  1.00  0.00     0.009 A 
ATOM     76  C   UNL     1     -12.259   4.634  -2.262  1.00  0.00     0.001 A 
ATOM     77  C   UNL     1     -10.991   4.697  -0.209  1.00  0.00     0.001 A 
ATOM     78  C   UNL     1     -11.932   4.076  -1.028  1.00  0.00     0.000 A 
ENDBRANCH  54  73
BRANCH  66  79
ATOM     79  C   UNL     1     -13.316  12.838  -2.917  1.00  0.00    -0.014 A 
ATOM     80  C   UNL     1     -13.989  13.000  -1.696  1.00  0.00     0.009 A 
ATOM     81  C   UNL     1     -13.954  13.244  -4.101  1.00  0.00     0.009 A 
ATOM     82  C   UNL     1     -15.285  13.520  -1.667  1.00  0.00     0.001 A 
ATOM     83  C   UNL     1     -15.235  13.796  -4.065  1.00  0.00     0.001 A 
ATOM     84  C   UNL     1     -15.904  13.924  -2.849  1.00  0.00     0.000 A 
ENDBRANCH  66  79
ENDBRANCH  40  41
ENDBRANCH  33  35
ENDBRANCH  32  33
ENDBRANCH  31  32
ENDBRANCH  30  31
ENDBRANCH  29  30
ENDBRANCH  28  29
ENDBRANCH  27  28
ENDBRANCH   1  27
TORSDOF 22
