REMARK SMILES O=C(OCCOCCOCCOCCOC(=O)c1ccc(-c2c3nc(c(-c4ccccc4)c4ccc([nH]4)c(-c4ccccc4)c4nc(c(-c5ccccc5)c5ccc2[nH]5)C=C4)C=C3)cc1)C1=Cc2c(ccc(Cl)c2-c2ccccc2)O[C@H]1C(F)(F)F
REMARK SMILES IDX 10 1 9 2 8 3 7 4 6 5 5 6 4 7 3 8 2 9 1 10 66 11 67 12 82 13
REMARK SMILES IDX 68 14 81 15 69 16 74 17 70 18 72 19 71 20 73 21 83 22 84 23
REMARK SMILES IDX 85 24 86 25 75 26 76 27 80 28 77 29 79 30 78 31 11 32 12 33
REMARK SMILES IDX 13 34 14 35 15 36 16 37 17 38 18 39 19 40 65 41 20 42 64 43
REMARK SMILES IDX 21 44 22 45 23 46 58 47 24 48 63 49 57 50 59 51 25 52 62 53
REMARK SMILES IDX 56 54 55 55 26 57 48 58 33 59 47 60 34 61 37 62 46 63 60 64
REMARK SMILES IDX 35 65 36 66 45 68 61 69 38 70 27 71 28 72 32 73 29 74 31 75
REMARK SMILES IDX 30 76 49 77 50 78 54 79 51 80 53 81 52 82 39 83 40 84 44 85
REMARK SMILES IDX 41 86 43 87 42 88
REMARK H PARENT 59 56 37 67
REMARK Flexibility Score: inf
ROOT
ATOM      1  C   UNL     1       3.995  -3.956   1.533  1.00  0.00     0.188 C 
ENDROOT
BRANCH   1   2
ATOM      2  O   UNL     1       2.965  -2.887   1.665  1.00  0.00    -0.377 OA
BRANCH   2   3
ATOM      3  C   UNL     1       1.509  -1.691   1.082  1.00  0.00     0.188 C 
BRANCH   3   4
ATOM      4  C   UNL     1       0.379  -1.722  -0.135  1.00  0.00     0.188 C 
BRANCH   4   5
ATOM      5  O   UNL     1       0.584  -1.117  -1.405  1.00  0.00    -0.376 OA
BRANCH   5   6
ATOM      6  C   UNL     1       1.456  -0.016  -1.508  1.00  0.00     0.202 C 
BRANCH   6   7
ATOM      7  C   UNL     1       1.385   1.119  -0.469  1.00  0.00     0.261 C 
BRANCH   7   8
ATOM      8  O   UNL     1       1.645   2.401  -1.084  1.00  0.00    -0.460 OA
BRANCH   8   9
ATOM      9  C   UNL     1       2.796   2.740  -1.713  1.00  0.00     0.338 C 
ATOM     10  O   UNL     1       2.828   3.705  -2.470  1.00  0.00    -0.246 OA
BRANCH   9  11
ATOM     11  C   UNL     1       4.050   2.013  -1.432  1.00  0.00     0.087 C 
ATOM     12  C   UNL     1       4.121   0.744  -1.016  1.00  0.00     0.028 C 
ATOM     13  C   UNL     1       5.272   2.461  -2.184  1.00  0.00     0.316 C 
ATOM     14  C   UNL     1       5.197   0.527  -0.070  1.00  0.00     0.027 A 
ATOM     15  O   UNL     1       6.497   2.098  -1.446  1.00  0.00    -0.475 OA
ATOM     16  C   UNL     1       6.362   1.284  -0.334  1.00  0.00     0.128 A 
ATOM     17  C   UNL     1       5.018  -0.338   1.042  1.00  0.00     0.011 A 
ATOM     18  C   UNL     1       7.410   1.223   0.560  1.00  0.00     0.049 A 
ATOM     19  C   UNL     1       6.111  -0.351   1.933  1.00  0.00     0.049 A 
ATOM     20  C   UNL     1       7.273   0.424   1.698  1.00  0.00     0.025 A 
ATOM     21  Cl  UNL     1       6.167  -1.338   3.354  1.00  0.00    -0.084 Cl
BRANCH  13  22
ATOM     22  C   UNL     1       5.223   1.873  -3.626  1.00  0.00     0.430 C 
ATOM     23  F   UNL     1       4.005   1.338  -3.920  1.00  0.00    -0.167 F 
ATOM     24  F   UNL     1       5.476   2.804  -4.570  1.00  0.00    -0.167 F 
ATOM     25  F   UNL     1       6.113   0.865  -3.790  1.00  0.00    -0.167 F 
ENDBRANCH  13  22
BRANCH  17  26
ATOM     26  C   UNL     1       3.775  -1.197   1.213  1.00  0.00    -0.016 A 
ATOM     27  C   UNL     1       2.997  -1.392   2.847  1.00  0.00     0.009 A 
ATOM     28  C   UNL     1       3.197  -2.276  -0.144  1.00  0.00     0.009 A 
ATOM     29  C   UNL     1       1.779  -2.695   3.162  1.00  0.00     0.001 A 
ATOM     30  C   UNL     1       1.967  -3.595   0.170  1.00  0.00     0.001 A 
ATOM     31  C   UNL     1       1.252  -3.785   1.822  1.00  0.00     0.000 A 
ENDBRANCH  17  26
ENDBRANCH   9  11
ENDBRANCH   8   9
ENDBRANCH   7   8
ENDBRANCH   6   7
ENDBRANCH   5   6
ENDBRANCH   4   5
ENDBRANCH   3   4
ENDBRANCH   2   3
ENDBRANCH   1   2
BRANCH   1  32
ATOM     32  C   UNL     1       5.118  -4.104   0.455  1.00  0.00     0.188 C 
BRANCH  32  33
ATOM     33  O   UNL     1       4.905  -4.518  -0.883  1.00  0.00    -0.376 OA
BRANCH  33  34
ATOM     34  C   UNL     1       4.040  -5.545  -1.319  1.00  0.00     0.202 C 
BRANCH  34  35
ATOM     35  C   UNL     1       3.630  -6.805  -0.533  1.00  0.00     0.261 C 
BRANCH  35  36
ATOM     36  O   UNL     1       3.833  -6.792   0.874  1.00  0.00    -0.460 OA
BRANCH  36  37
ATOM     37  C   UNL     1       5.011  -7.281   1.310  1.00  0.00     0.338 C 
ATOM     38  O   UNL     1       5.860  -7.857   0.643  1.00  0.00    -0.246 OA
BRANCH  37  39
ATOM     39  C   UNL     1       5.235  -6.788   2.687  1.00  0.00     0.060 A 
ATOM     40  C   UNL     1       6.455  -6.146   2.943  1.00  0.00     0.016 A 
ATOM     41  C   UNL     1       4.255  -6.865   3.684  1.00  0.00     0.016 A 
ATOM     42  C   UNL     1       6.714  -5.604   4.197  1.00  0.00     0.010 A 
ATOM     43  C   UNL     1       4.534  -6.364   4.960  1.00  0.00     0.010 A 
ATOM     44  C   UNL     1       5.784  -5.777   5.229  1.00  0.00    -0.014 A 
BRANCH  44  45
ATOM     45  C   UNL     1       6.285  -5.699   6.621  1.00  0.00     0.031 A 
ATOM     46  C   UNL     1       6.854  -6.969   7.199  1.00  0.00     0.074 A 
ATOM     47  C   UNL     1       6.315  -4.557   7.327  1.00  0.00     0.049 A 
ATOM     48  N   UNL     1       7.369  -7.193   8.380  1.00  0.00    -0.248 NA
ATOM     49  C   UNL     1       6.843  -8.149   6.315  1.00  0.00     0.031 C 
ATOM     50  C   UNL     1       5.865  -3.250   6.856  1.00  0.00     0.029 A 
ATOM     51  N   UNL     1       6.761  -4.322   8.604  1.00  0.00    -0.354 N 
ATOM     52  C   UNL     1       7.734  -8.534   8.376  1.00  0.00     0.074 A 
ATOM     53  C   UNL     1       7.356  -9.083   7.096  1.00  0.00     0.031 C 
ATOM     54  C   UNL     1       6.056  -2.346   7.835  1.00  0.00     0.029 A 
ATOM     55  C   UNL     1       6.608  -3.019   9.011  1.00  0.00     0.049 A 
ATOM     56  H   UNL     1       7.153  -5.022   9.175  1.00  0.00     0.167 HD
ATOM     57  C   UNL     1       8.336  -9.251   9.351  1.00  0.00     0.031 A 
ATOM     58  C   UNL     1       6.867  -2.450  10.206  1.00  0.00     0.031 A 
ATOM     59  C   UNL     1       8.683  -8.718  10.637  1.00  0.00     0.049 A 
ATOM     60  C   UNL     1       7.436  -3.298  11.319  1.00  0.00     0.074 A 
ATOM     61  C   UNL     1       9.280  -9.363  11.703  1.00  0.00     0.029 A 
ATOM     62  N   UNL     1       8.448  -7.411  11.032  1.00  0.00    -0.354 N 
ATOM     63  N   UNL     1       7.789  -4.562  11.304  1.00  0.00    -0.248 NA
ATOM     64  C   UNL     1       7.647  -2.635  12.615  1.00  0.00     0.031 C 
ATOM     65  C   UNL     1       9.346  -8.462  12.770  1.00  0.00     0.029 A 
ATOM     66  C   UNL     1       8.862  -7.236  12.340  1.00  0.00     0.049 A 
ATOM     67  H   UNL     1       8.048  -6.711  10.467  1.00  0.00     0.167 HD
ATOM     68  C   UNL     1       8.293  -4.834  12.572  1.00  0.00     0.074 A 
ATOM     69  C   UNL     1       8.214  -3.600  13.325  1.00  0.00     0.031 C 
ATOM     70  C   UNL     1       8.778  -5.998  13.071  1.00  0.00     0.031 A 
BRANCH  57  71
ATOM     71  C   UNL     1       8.596 -10.704   9.070  1.00  0.00    -0.014 A 
ATOM     72  C   UNL     1       9.558 -11.110   8.131  1.00  0.00     0.009 A 
ATOM     73  C   UNL     1       7.858 -11.683   9.753  1.00  0.00     0.009 A 
ATOM     74  C   UNL     1       9.750 -12.466   7.857  1.00  0.00     0.001 A 
ATOM     75  C   UNL     1       8.075 -13.037   9.502  1.00  0.00     0.001 A 
ATOM     76  C   UNL     1       9.013 -13.428   8.546  1.00  0.00     0.000 A 
ENDBRANCH  57  71
BRANCH  58  77
ATOM     77  C   UNL     1       6.563  -1.011  10.440  1.00  0.00    -0.014 A 
ATOM     78  C   UNL     1       7.590  -0.088  10.695  1.00  0.00     0.009 A 
ATOM     79  C   UNL     1       5.233  -0.561  10.460  1.00  0.00     0.009 A 
ATOM     80  C   UNL     1       7.289   1.244  10.996  1.00  0.00     0.001 A 
ATOM     81  C   UNL     1       4.937   0.778  10.729  1.00  0.00     0.001 A 
ATOM     82  C   UNL     1       5.964   1.677  11.009  1.00  0.00     0.000 A 
ENDBRANCH  58  77
BRANCH  70  83
ATOM     83  C   UNL     1       9.309  -5.986  14.479  1.00  0.00    -0.014 A 
ATOM     84  C   UNL     1       8.456  -5.861  15.586  1.00  0.00     0.009 A 
ATOM     85  C   UNL     1      10.685  -6.161  14.698  1.00  0.00     0.009 A 
ATOM     86  C   UNL     1       8.977  -5.874  16.882  1.00  0.00     0.001 A 
ATOM     87  C   UNL     1      11.198  -6.210  15.995  1.00  0.00     0.001 A 
ATOM     88  C   UNL     1      10.345  -6.054  17.085  1.00  0.00     0.000 A 
ENDBRANCH  70  83
ENDBRANCH  44  45
ENDBRANCH  37  39
ENDBRANCH  36  37
ENDBRANCH  35  36
ENDBRANCH  34  35
ENDBRANCH  33  34
ENDBRANCH  32  33
ENDBRANCH   1  32
TORSDOF 22
