REMARK SMILES CCCCCCCCNC(=O)Oc1cccc(-c2ccc([C@@H](C)C(=O)OCCOCCOCCOCCOC(=O)c3ccc(-c4c5nc(c(-c6ccccc6)c6ccc([nH]6)c(-c6ccccc6)c6nc(c(-c7ccccc7)c7ccc4[nH]7)C=C6)C=C5)cc3)cc2F)c1
REMARK SMILES IDX 27 1 26 2 24 3 25 4 22 5 23 6 21 7 18 8 19 9 90 10 20 11
REMARK SMILES IDX 89 12 91 13 17 14 13 15 14 16 92 17 15 18 16 19 12 20 10 21
REMARK SMILES IDX 9 22 11 24 8 25 7 26 6 27 5 28 4 29 3 30 2 31 1 32 28 33
REMARK SMILES IDX 29 34 30 35 31 36 32 37 33 38 34 39 35 40 36 41 37 42 38 43
REMARK SMILES IDX 39 44 40 45 41 46 42 47 88 48 43 49 87 50 44 51 45 52 46 53
REMARK SMILES IDX 81 54 47 55 86 56 80 57 82 58 48 59 85 60 79 61 78 62 49 64
REMARK SMILES IDX 71 65 56 66 70 67 57 68 60 69 69 70 83 71 58 72 59 73 68 75
REMARK SMILES IDX 84 76 61 77 50 78 51 79 55 80 52 81 54 82 53 83 72 84 73 85
REMARK SMILES IDX 77 86 74 87 76 88 75 89 62 90 63 91 67 92 64 93 66 94 65 95
REMARK H PARENT 9 23 82 63 60 74
REMARK Flexibility Score: inf
ROOT
ATOM      1  C   UNL     1     -12.745  -5.778  -8.884  1.00  0.00     0.261 C 
ENDROOT
BRANCH   1   2
ATOM      2  O   UNL     1     -11.526  -6.440  -9.287  1.00  0.00    -0.463 OA
BRANCH   2   3
ATOM      3  C   UNL     1     -11.183  -6.319 -10.590  1.00  0.00     0.313 C 
ATOM      4  O   UNL     1     -11.864  -5.710 -11.414  1.00  0.00    -0.252 OA
BRANCH   3   5
ATOM      5  C   UNL     1      -9.892  -7.021 -11.014  1.00  0.00     0.126 C 
ATOM      6  C   UNL     1     -10.259  -8.215 -11.888  1.00  0.00     0.025 C 
BRANCH   5   7
ATOM      7  C   UNL     1      -8.815  -7.396  -9.996  1.00  0.00    -0.031 A 
ATOM      8  C   UNL     1      -6.711  -7.993  -8.129  1.00  0.00     0.018 A 
ATOM      9  C   UNL     1      -8.002  -8.536  -7.989  1.00  0.00     0.012 A 
ATOM     10  C   UNL     1      -6.500  -7.148  -9.223  1.00  0.00     0.131 A 
ATOM     11  C   UNL     1      -9.036  -8.247  -8.905  1.00  0.00     0.005 A 
ATOM     12  C   UNL     1      -7.517  -6.865 -10.145  1.00  0.00     0.044 A 
ATOM     13  F   UNL     1      -5.297  -6.587  -9.423  1.00  0.00    -0.206 F 
BRANCH   8  14
ATOM     14  C   UNL     1      -5.625  -8.330  -7.185  1.00  0.00    -0.012 A 
ATOM     15  C   UNL     1      -3.896  -7.698  -5.590  1.00  0.00     0.133 A 
ATOM     16  C   UNL     1      -3.514  -9.026  -5.427  1.00  0.00     0.047 A 
ATOM     17  C   UNL     1      -4.927  -7.341  -6.468  1.00  0.00     0.056 A 
ATOM     18  C   UNL     1      -4.190 -10.016  -6.133  1.00  0.00     0.004 A 
ATOM     19  C   UNL     1      -5.235  -9.670  -7.000  1.00  0.00     0.009 A 
BRANCH  15  20
ATOM     20  O   UNL     1      -3.126  -6.724  -4.934  1.00  0.00    -0.410 OA
BRANCH  20  21
ATOM     21  C   UNL     1      -3.783  -5.955  -3.988  1.00  0.00     0.412 C 
ATOM     22  N   UNL     1      -2.980  -5.032  -3.377  1.00  0.00    -0.321 N 
ATOM     23  H   UNL     1      -3.421  -4.416  -2.748  1.00  0.00     0.167 HD
ATOM     24  O   UNL     1      -4.965  -6.051  -3.677  1.00  0.00    -0.224 OA
BRANCH  22  25
ATOM     25  C   UNL     1      -1.552  -4.861  -3.553  1.00  0.00     0.119 C 
BRANCH  25  26
ATOM     26  C   UNL     1      -1.196  -3.467  -4.072  1.00  0.00     0.021 C 
BRANCH  26  27
ATOM     27  C   UNL     1      -1.597  -2.310  -3.148  1.00  0.00     0.002 C 
BRANCH  27  28
ATOM     28  C   UNL     1      -1.007  -2.362  -1.734  1.00  0.00     0.000 C 
BRANCH  28  29
ATOM     29  C   UNL     1       0.523  -2.310  -1.669  1.00  0.00    -0.000 C 
BRANCH  29  30
ATOM     30  C   UNL     1       1.153  -1.015  -2.194  1.00  0.00    -0.000 C 
BRANCH  30  31
ATOM     31  C   UNL     1       0.714   0.264  -1.475  1.00  0.00    -0.003 C 
ATOM     32  C   UNL     1       1.068   0.277   0.004  1.00  0.00     0.004 C 
ENDBRANCH  30  31
ENDBRANCH  29  30
ENDBRANCH  28  29
ENDBRANCH  27  28
ENDBRANCH  26  27
ENDBRANCH  25  26
ENDBRANCH  22  25
ENDBRANCH  20  21
ENDBRANCH  15  20
ENDBRANCH   8  14
ENDBRANCH   5   7
ENDBRANCH   3   5
ENDBRANCH   2   3
ENDBRANCH   1   2
BRANCH   1  33
ATOM     33  C   UNL     1     -12.601  -4.479  -8.068  1.00  0.00     0.202 C 
BRANCH  33  34
ATOM     34  O   UNL     1     -11.740  -3.439  -8.503  1.00  0.00    -0.376 OA
BRANCH  34  35
ATOM     35  C   UNL     1     -10.374  -3.702  -8.798  1.00  0.00     0.188 C 
BRANCH  35  36
ATOM     36  C   UNL     1      -9.575  -4.744  -8.001  1.00  0.00     0.188 C 
BRANCH  36  37
ATOM     37  O   UNL     1     -10.322  -5.496  -7.069  1.00  0.00    -0.377 OA
BRANCH  37  38
ATOM     38  C   UNL     1     -10.191  -5.122  -5.707  1.00  0.00     0.188 C 
BRANCH  38  39
ATOM     39  C   UNL     1     -10.148  -3.614  -5.395  1.00  0.00     0.188 C 
BRANCH  39  40
ATOM     40  O   UNL     1      -9.178  -2.887  -6.143  1.00  0.00    -0.376 OA
BRANCH  40  41
ATOM     41  C   UNL     1      -7.910  -2.636  -5.551  1.00  0.00     0.202 C 
BRANCH  41  42
ATOM     42  C   UNL     1      -6.988  -3.840  -5.289  1.00  0.00     0.261 C 
BRANCH  42  43
ATOM     43  O   UNL     1      -7.534  -4.874  -4.462  1.00  0.00    -0.460 OA
BRANCH  43  44
ATOM     44  C   UNL     1      -7.855  -4.550  -3.192  1.00  0.00     0.338 C 
ATOM     45  O   UNL     1      -7.710  -3.475  -2.650  1.00  0.00    -0.246 OA
BRANCH  44  46
ATOM     46  C   UNL     1      -8.643  -5.667  -2.620  1.00  0.00     0.060 A 
ATOM     47  C   UNL     1      -9.938  -5.396  -2.163  1.00  0.00     0.016 A 
ATOM     48  C   UNL     1      -8.104  -6.950  -2.493  1.00  0.00     0.016 A 
ATOM     49  C   UNL     1     -10.664  -6.380  -1.497  1.00  0.00     0.010 A 
ATOM     50  C   UNL     1      -8.824  -7.933  -1.805  1.00  0.00     0.010 A 
ATOM     51  C   UNL     1     -10.079  -7.628  -1.249  1.00  0.00    -0.014 A 
BRANCH  51  52
ATOM     52  C   UNL     1     -10.667  -8.479  -0.184  1.00  0.00     0.031 A 
ATOM     53  C   UNL     1     -10.072  -8.393   1.198  1.00  0.00     0.074 A 
ATOM     54  C   UNL     1     -11.755  -9.236  -0.403  1.00  0.00     0.049 A 
ATOM     55  N   UNL     1     -10.450  -8.978   2.307  1.00  0.00    -0.248 NA
ATOM     56  C   UNL     1      -8.893  -7.524   1.350  1.00  0.00     0.031 C 
ATOM     57  C   UNL     1     -12.457  -9.366  -1.677  1.00  0.00     0.029 A 
ATOM     58  N   UNL     1     -12.467 -10.033   0.460  1.00  0.00    -0.354 N 
ATOM     59  C   UNL     1      -9.552  -8.555   3.280  1.00  0.00     0.074 A 
ATOM     60  C   UNL     1      -8.590  -7.696   2.627  1.00  0.00     0.031 C 
ATOM     61  C   UNL     1     -13.505 -10.193  -1.513  1.00  0.00     0.029 A 
ATOM     62  C   UNL     1     -13.531 -10.668  -0.131  1.00  0.00     0.049 A 
ATOM     63  H   UNL     1     -12.237 -10.137   1.411  1.00  0.00     0.167 HD
ATOM     64  C   UNL     1      -9.532  -8.844   4.603  1.00  0.00     0.031 A 
ATOM     65  C   UNL     1     -14.418 -11.541   0.386  1.00  0.00     0.031 A 
ATOM     66  C   UNL     1     -10.477  -9.711   5.253  1.00  0.00     0.049 A 
ATOM     67  C   UNL     1     -14.335 -11.904   1.846  1.00  0.00     0.074 A 
ATOM     68  C   UNL     1     -10.549 -10.060   6.589  1.00  0.00     0.029 A 
ATOM     69  N   UNL     1     -11.508 -10.375   4.608  1.00  0.00    -0.354 N 
ATOM     70  N   UNL     1     -13.499 -11.476   2.762  1.00  0.00    -0.248 NA
ATOM     71  C   UNL     1     -15.336 -12.857   2.346  1.00  0.00     0.031 C 
ATOM     72  C   UNL     1     -11.584 -10.990   6.741  1.00  0.00     0.029 A 
ATOM     73  C   UNL     1     -12.206 -11.156   5.514  1.00  0.00     0.049 A 
ATOM     74  H   UNL     1     -11.715 -10.303   3.648  1.00  0.00     0.167 HD
ATOM     75  C   UNL     1     -13.896 -12.077   3.951  1.00  0.00     0.074 A 
ATOM     76  C   UNL     1     -15.057 -12.887   3.641  1.00  0.00     0.031 C 
ATOM     77  C   UNL     1     -13.355 -11.964   5.191  1.00  0.00     0.031 A 
BRANCH  64  78
ATOM     78  C   UNL     1      -8.414  -8.251   5.418  1.00  0.00    -0.014 A 
ATOM     79  C   UNL     1      -8.336  -6.872   5.672  1.00  0.00     0.009 A 
ATOM     80  C   UNL     1      -7.421  -9.092   5.944  1.00  0.00     0.009 A 
ATOM     81  C   UNL     1      -7.264  -6.344   6.396  1.00  0.00     0.001 A 
ATOM     82  C   UNL     1      -6.369  -8.567   6.696  1.00  0.00     0.001 A 
ATOM     83  C   UNL     1      -6.284  -7.192   6.911  1.00  0.00     0.000 A 
ENDBRANCH  64  78
BRANCH  65  84
ATOM     84  C   UNL     1     -15.462 -12.142  -0.486  1.00  0.00    -0.014 A 
ATOM     85  C   UNL     1     -16.819 -11.829  -0.310  1.00  0.00     0.009 A 
ATOM     86  C   UNL     1     -15.104 -13.054  -1.492  1.00  0.00     0.009 A 
ATOM     87  C   UNL     1     -17.795 -12.435  -1.106  1.00  0.00     0.001 A 
ATOM     88  C   UNL     1     -16.078 -13.634  -2.307  1.00  0.00     0.001 A 
ATOM     89  C   UNL     1     -17.424 -13.332  -2.106  1.00  0.00     0.000 A 
ENDBRANCH  65  84
BRANCH  77  90
ATOM     90  C   UNL     1     -14.046 -12.692   6.314  1.00  0.00    -0.014 A 
ATOM     91  C   UNL     1     -14.048 -14.093   6.398  1.00  0.00     0.009 A 
ATOM     92  C   UNL     1     -14.691 -11.954   7.320  1.00  0.00     0.009 A 
ATOM     93  C   UNL     1     -14.727 -14.739   7.434  1.00  0.00     0.001 A 
ATOM     94  C   UNL     1     -15.336 -12.600   8.375  1.00  0.00     0.001 A 
ATOM     95  C   UNL     1     -15.367 -13.992   8.423  1.00  0.00     0.000 A 
ENDBRANCH  77  90
ENDBRANCH  51  52
ENDBRANCH  44  46
ENDBRANCH  43  44
ENDBRANCH  42  43
ENDBRANCH  41  42
ENDBRANCH  40  41
ENDBRANCH  39  40
ENDBRANCH  38  39
ENDBRANCH  37  38
ENDBRANCH  36  37
ENDBRANCH  35  36
ENDBRANCH  34  35
ENDBRANCH  33  34
ENDBRANCH   1  33
TORSDOF 31
