REMARK SMILES C[C@@]1(CN2C(=O)c3ccc(C(=O)OCCOCCOCCOCCOC(=O)c4ccc(-c5c6nc(c(-c7ccccc7)c7ccc([nH]7)c(-c7ccccc7)c7nc(c(-c8ccccc8)c8ccc5[nH]8)C=C7)C=C6)cc4)cc3C2=O)CCCO1
REMARK SMILES IDX 19 1 18 2 17 3 16 4 15 5 14 6 13 7 11 8 12 9 10 10 4 11 5 12
REMARK SMILES IDX 78 13 6 14 7 15 77 16 79 17 8 18 76 19 9 20 3 21 2 22 1 23
REMARK SMILES IDX 80 24 83 25 81 26 82 27 20 28 21 29 22 30 23 31 24 32 25 33
REMARK SMILES IDX 26 34 27 35 28 36 29 37 75 38 30 39 74 40 31 41 32 42 33 43
REMARK SMILES IDX 68 44 34 45 73 46 67 47 69 48 35 49 72 50 66 51 65 52 36 54
REMARK SMILES IDX 58 55 43 56 57 57 44 58 47 59 56 60 70 61 45 62 46 63 55 65
REMARK SMILES IDX 71 66 48 67 37 68 38 69 42 70 39 71 41 72 40 73 59 74 60 75
REMARK SMILES IDX 64 76 61 77 63 78 62 79 49 80 50 81 54 82 51 83 53 84 52 85
REMARK H PARENT 69 53 47 64
REMARK Flexibility Score: inf
ROOT
ATOM      1  O   UNL     1       8.011  -2.546  -5.808  1.00  0.00    -0.377 OA
ENDROOT
BRANCH   1   2
ATOM      2  C   UNL     1       6.992  -1.605  -6.114  1.00  0.00     0.188 C 
BRANCH   2   3
ATOM      3  C   UNL     1       7.445  -0.210  -6.590  1.00  0.00     0.188 C 
BRANCH   3   4
ATOM      4  O   UNL     1       8.808  -0.170  -6.975  1.00  0.00    -0.376 OA
BRANCH   4   5
ATOM      5  C   UNL     1       9.754   0.450  -6.126  1.00  0.00     0.202 C 
BRANCH   5   6
ATOM      6  C   UNL     1       9.900  -0.010  -4.666  1.00  0.00     0.261 C 
BRANCH   6   7
ATOM      7  O   UNL     1       8.688  -0.293  -3.960  1.00  0.00    -0.460 OA
BRANCH   7   8
ATOM      8  C   UNL     1       7.952   0.759  -3.544  1.00  0.00     0.338 C 
ATOM      9  O   UNL     1       8.219   1.938  -3.684  1.00  0.00    -0.246 OA
BRANCH   8  10
ATOM     10  C   UNL     1       6.642   0.240  -3.071  1.00  0.00     0.060 A 
ATOM     11  N   UNL     1       2.098   0.106  -2.475  1.00  0.00    -0.271 N 
ATOM     12  C   UNL     1       2.778  -0.979  -1.986  1.00  0.00     0.261 C 
ATOM     13  C   UNL     1       2.917   0.942  -3.181  1.00  0.00     0.261 C 
ATOM     14  O   UNL     1       2.359  -1.950  -1.402  1.00  0.00    -0.269 OA
ATOM     15  C   UNL     1       4.190  -0.750  -2.296  1.00  0.00     0.053 A 
ATOM     16  C   UNL     1       4.276   0.430  -3.014  1.00  0.00     0.054 A 
ATOM     17  O   UNL     1       2.638   1.908  -3.870  1.00  0.00    -0.269 OA
ATOM     18  C   UNL     1       5.309  -1.482  -1.950  1.00  0.00     0.015 A 
ATOM     19  C   UNL     1       5.487   0.954  -3.422  1.00  0.00     0.030 A 
ATOM     20  C   UNL     1       6.552  -0.976  -2.348  1.00  0.00     0.016 A 
BRANCH  11  21
ATOM     21  C   UNL     1       0.684   0.357  -2.243  1.00  0.00     0.164 C 
BRANCH  21  22
ATOM     22  C   UNL     1       0.403   1.040  -0.871  1.00  0.00     0.084 C 
ATOM     23  C   UNL     1       0.831   0.172   0.314  1.00  0.00     0.044 C 
ATOM     24  C   UNL     1      -1.073   1.431  -0.744  1.00  0.00     0.039 C 
ATOM     25  O   UNL     1       1.142   2.280  -0.800  1.00  0.00    -0.373 OA
ATOM     26  C   UNL     1      -1.107   2.824  -1.321  1.00  0.00     0.031 C 
ATOM     27  C   UNL     1       0.231   3.383  -0.896  1.00  0.00     0.161 C 
ENDBRANCH  21  22
ENDBRANCH  11  21
ENDBRANCH   8  10
ENDBRANCH   7   8
ENDBRANCH   6   7
ENDBRANCH   5   6
ENDBRANCH   4   5
ENDBRANCH   3   4
ENDBRANCH   2   3
ENDBRANCH   1   2
BRANCH   1  28
ATOM     28  C   UNL     1       8.945  -2.930  -6.818  1.00  0.00     0.188 C 
BRANCH  28  29
ATOM     29  C   UNL     1       8.773  -2.559  -8.313  1.00  0.00     0.188 C 
BRANCH  29  30
ATOM     30  O   UNL     1       7.466  -2.152  -8.682  1.00  0.00    -0.376 OA
BRANCH  30  31
ATOM     31  C   UNL     1       6.692  -3.041  -9.467  1.00  0.00     0.202 C 
BRANCH  31  32
ATOM     32  C   UNL     1       6.287  -4.359  -8.795  1.00  0.00     0.261 C 
BRANCH  32  33
ATOM     33  O   UNL     1       7.365  -5.150  -8.270  1.00  0.00    -0.460 OA
BRANCH  33  34
ATOM     34  C   UNL     1       8.238  -5.668  -9.163  1.00  0.00     0.338 C 
ATOM     35  O   UNL     1       8.211  -5.553 -10.374  1.00  0.00    -0.246 OA
BRANCH  34  36
ATOM     36  C   UNL     1       9.360  -6.258  -8.402  1.00  0.00     0.060 A 
ATOM     37  C   UNL     1      10.651  -5.747  -8.588  1.00  0.00     0.016 A 
ATOM     38  C   UNL     1       9.134  -7.304  -7.505  1.00  0.00     0.016 A 
ATOM     39  C   UNL     1      11.727  -6.305  -7.898  1.00  0.00     0.010 A 
ATOM     40  C   UNL     1      10.217  -7.875  -6.830  1.00  0.00     0.010 A 
ATOM     41  C   UNL     1      11.522  -7.400  -7.047  1.00  0.00    -0.014 A 
BRANCH  41  42
ATOM     42  C   UNL     1      12.688  -8.153  -6.522  1.00  0.00     0.031 A 
ATOM     43  C   UNL     1      13.099  -9.421  -7.225  1.00  0.00     0.074 A 
ATOM     44  C   UNL     1      13.386  -7.713  -5.460  1.00  0.00     0.049 A 
ATOM     45  N   UNL     1      14.065 -10.254  -6.935  1.00  0.00    -0.248 NA
ATOM     46  C   UNL     1      12.315  -9.798  -8.413  1.00  0.00     0.031 C 
ATOM     47  C   UNL     1      13.121  -6.480  -4.720  1.00  0.00     0.029 A 
ATOM     48  N   UNL     1      14.467  -8.265  -4.817  1.00  0.00    -0.354 N 
ATOM     49  C   UNL     1      13.995 -11.258  -7.893  1.00  0.00     0.074 A 
ATOM     50  C   UNL     1      12.881 -10.944  -8.760  1.00  0.00     0.031 C 
ATOM     51  C   UNL     1      14.015  -6.370  -3.722  1.00  0.00     0.029 A 
ATOM     52  C   UNL     1      14.890  -7.542  -3.728  1.00  0.00     0.049 A 
ATOM     53  H   UNL     1      14.898  -9.101  -5.109  1.00  0.00     0.167 HD
ATOM     54  C   UNL     1      14.788 -12.345  -8.039  1.00  0.00     0.031 A 
ATOM     55  C   UNL     1      15.857  -7.809  -2.828  1.00  0.00     0.031 A 
ATOM     56  C   UNL     1      15.895 -12.661  -7.176  1.00  0.00     0.049 A 
ATOM     57  C   UNL     1      16.670  -9.072  -2.970  1.00  0.00     0.074 A 
ATOM     58  C   UNL     1      16.779 -13.723  -7.266  1.00  0.00     0.029 A 
ATOM     59  N   UNL     1      16.262 -11.927  -6.061  1.00  0.00    -0.354 N 
ATOM     60  N   UNL     1      16.627  -9.986  -3.909  1.00  0.00    -0.248 NA
ATOM     61  C   UNL     1      17.673  -9.333  -1.927  1.00  0.00     0.031 C 
ATOM     62  C   UNL     1      17.635 -13.672  -6.163  1.00  0.00     0.029 A 
ATOM     63  C   UNL     1      17.334 -12.536  -5.430  1.00  0.00     0.049 A 
ATOM     64  H   UNL     1      15.826 -11.097  -5.761  1.00  0.00     0.167 HD
ATOM     65  C   UNL     1      17.619 -10.907  -3.589  1.00  0.00     0.074 A 
ATOM     66  C   UNL     1      18.261 -10.429  -2.383  1.00  0.00     0.031 C 
ATOM     67  C   UNL     1      17.968 -12.046  -4.235  1.00  0.00     0.031 A 
BRANCH  54  68
ATOM     68  C   UNL     1      14.468 -13.306  -9.150  1.00  0.00    -0.014 A 
ATOM     69  C   UNL     1      14.708 -12.982 -10.494  1.00  0.00     0.009 A 
ATOM     70  C   UNL     1      13.984 -14.586  -8.835  1.00  0.00     0.009 A 
ATOM     71  C   UNL     1      14.452 -13.915 -11.501  1.00  0.00     0.001 A 
ATOM     72  C   UNL     1      13.757 -15.526  -9.841  1.00  0.00     0.001 A 
ATOM     73  C   UNL     1      13.986 -15.188 -11.173  1.00  0.00     0.000 A 
ENDBRANCH  54  68
BRANCH  55  74
ATOM     74  C   UNL     1      16.105  -6.891  -1.681  1.00  0.00    -0.014 A 
ATOM     75  C   UNL     1      17.330  -6.215  -1.553  1.00  0.00     0.009 A 
ATOM     76  C   UNL     1      15.146  -6.745  -0.667  1.00  0.00     0.009 A 
ATOM     77  C   UNL     1      17.605  -5.453  -0.415  1.00  0.00     0.001 A 
ATOM     78  C   UNL     1      15.409  -5.952   0.452  1.00  0.00     0.001 A 
ATOM     79  C   UNL     1      16.644  -5.321   0.586  1.00  0.00     0.000 A 
ENDBRANCH  55  74
BRANCH  67  80
ATOM     80  C   UNL     1      19.128 -12.829  -3.680  1.00  0.00    -0.014 A 
ATOM     81  C   UNL     1      19.035 -13.519  -2.461  1.00  0.00     0.009 A 
ATOM     82  C   UNL     1      20.325 -12.905  -4.412  1.00  0.00     0.009 A 
ATOM     83  C   UNL     1      20.131 -14.229  -1.966  1.00  0.00     0.001 A 
ATOM     84  C   UNL     1      21.405 -13.646  -3.933  1.00  0.00     0.001 A 
ATOM     85  C   UNL     1      21.312 -14.297  -2.704  1.00  0.00     0.000 A 
ENDBRANCH  67  80
ENDBRANCH  41  42
ENDBRANCH  34  36
ENDBRANCH  33  34
ENDBRANCH  32  33
ENDBRANCH  31  32
ENDBRANCH  30  31
ENDBRANCH  29  30
ENDBRANCH  28  29
ENDBRANCH   1  28
TORSDOF 22
