REMARK SMILES Cc1ccc(NC(=O)C[C@@H](C(=O)OCCOCCOCCOCCOC(=O)c2ccc(-c3c4nc(c(-c5ccccc5)c5ccc([nH]5)c(-c5ccccc5)c5nc(c(-c6ccccc6)c6ccc3[nH]6)C=C5)C=C4)cc2)[NH+]2CCOCC2)cc1
REMARK SMILES IDX 18 1 17 2 16 3 15 4 14 5 13 6 11 7 12 8 10 9 9 10 7 11 6 12
REMARK SMILES IDX 8 14 5 15 1 16 2 17 3 18 83 19 4 20 82 21 76 22 77 23 81 24
REMARK SMILES IDX 78 26 80 27 79 28 19 29 20 30 21 31 22 32 23 33 24 34 25 35
REMARK SMILES IDX 26 36 27 37 28 38 29 39 75 40 30 41 74 42 31 43 32 44 33 45
REMARK SMILES IDX 68 46 34 47 73 48 67 49 69 50 35 51 72 52 66 53 65 54 36 56
REMARK SMILES IDX 58 57 43 58 57 59 44 60 47 61 56 62 70 63 45 64 46 65 55 67
REMARK SMILES IDX 71 68 48 69 37 70 38 71 42 72 39 73 41 74 40 75 59 76 60 77
REMARK SMILES IDX 64 78 61 79 63 80 62 81 49 82 50 83 54 84 51 85 53 86 52 87
REMARK H PARENT 6 13 76 25 69 55 47 66
REMARK Flexibility Score: inf
ROOT
ATOM      1  C   UNL     1      -1.178  -2.726   2.579  1.00  0.00     0.188 C 
ENDROOT
BRANCH   1   2
ATOM      2  C   UNL     1       0.227  -2.044   2.085  1.00  0.00     0.188 C 
BRANCH   2   3
ATOM      3  O   UNL     1       0.345  -0.841   0.649  1.00  0.00    -0.376 OA
BRANCH   3   4
ATOM      4  C   UNL     1       0.423  -1.302  -1.332  1.00  0.00     0.202 C 
BRANCH   4   5
ATOM      5  C   UNL     1      -0.075  -1.526  -2.809  1.00  0.00     0.261 C 
BRANCH   5   6
ATOM      6  O   UNL     1      -1.169  -2.329  -3.103  1.00  0.00    -0.459 OA
BRANCH   6   7
ATOM      7  C   UNL     1      -1.189  -3.277  -2.184  1.00  0.00     0.365 C 
ATOM      8  O   UNL     1      -0.170  -3.842  -1.805  1.00  0.00    -0.245 OA
BRANCH   7   9
ATOM      9  C   UNL     1      -2.628  -3.654  -1.955  1.00  0.00     0.304 C 
BRANCH   9  10
ATOM     10  C   UNL     1      -3.229  -3.359  -0.537  1.00  0.00     0.177 C 
BRANCH  10  11
ATOM     11  C   UNL     1      -3.631  -1.967   0.099  1.00  0.00     0.231 C 
ATOM     12  N   UNL     1      -2.851  -0.917   0.517  1.00  0.00    -0.326 N 
ATOM     13  H   UNL     1      -3.381  -0.187   0.912  1.00  0.00     0.169 HD
ATOM     14  O   UNL     1      -4.845  -1.791   0.328  1.00  0.00    -0.274 OA
BRANCH  12  15
ATOM     15  C   UNL     1      -1.440  -0.634   0.513  1.00  0.00     0.041 A 
ATOM     16  C   UNL     1       3.632   0.077   0.132  1.00  0.00     0.044 C 
ATOM     17  C   UNL     1       2.084   0.061   0.075  1.00  0.00    -0.051 A 
ATOM     18  C   UNL     1       1.583  -1.842   0.075  1.00  0.00     0.005 A 
ATOM     19  C   UNL     1       1.073   1.771   0.284  1.00  0.00     0.005 A 
ATOM     20  C   UNL     1      -0.373  -2.240   0.141  1.00  0.00     0.026 A 
ATOM     21  C   UNL     1      -0.856   1.244   0.746  1.00  0.00     0.026 A 
ENDBRANCH  12  15
ENDBRANCH  10  11
ENDBRANCH   9  10
BRANCH   9  22
ATOM     22  N   UNL     1      -2.630  -5.056  -2.473  1.00  0.00    -0.319 N 
ATOM     23  C   UNL     1      -1.801  -5.140  -3.748  1.00  0.00     0.291 C 
ATOM     24  C   UNL     1      -1.992  -6.028  -1.554  1.00  0.00     0.291 C 
ATOM     25  H   UNL     1      -3.615  -5.285  -2.603  1.00  0.00     0.348 HD
ATOM     26  C   UNL     1      -2.014  -6.482  -4.392  1.00  0.00     0.221 C 
ATOM     27  C   UNL     1      -2.142  -7.410  -2.197  1.00  0.00     0.221 C 
ATOM     28  O   UNL     1      -1.551  -7.511  -3.506  1.00  0.00    -0.370 OA
ENDBRANCH   9  22
ENDBRANCH   7   9
ENDBRANCH   6   7
ENDBRANCH   5   6
ENDBRANCH   4   5
ENDBRANCH   3   4
ENDBRANCH   2   3
ENDBRANCH   1   2
BRANCH   1  29
ATOM     29  O   UNL     1      -2.136  -2.148   3.470  1.00  0.00    -0.377 OA
BRANCH  29  30
ATOM     30  C   UNL     1      -2.327  -0.758   3.356  1.00  0.00     0.188 C 
BRANCH  30  31
ATOM     31  C   UNL     1      -1.610  -0.048   4.440  1.00  0.00     0.188 C 
BRANCH  31  32
ATOM     32  O   UNL     1      -0.310  -0.595   4.407  1.00  0.00    -0.376 OA
BRANCH  32  33
ATOM     33  C   UNL     1       0.063  -1.586   5.341  1.00  0.00     0.202 C 
BRANCH  33  34
ATOM     34  C   UNL     1       0.136  -0.893   6.674  1.00  0.00     0.261 C 
BRANCH  34  35
ATOM     35  O   UNL     1       1.171   0.135   6.556  1.00  0.00    -0.460 OA
BRANCH  35  36
ATOM     36  C   UNL     1       0.797   1.317   5.978  1.00  0.00     0.338 C 
ATOM     37  O   UNL     1      -0.046   2.067   6.458  1.00  0.00    -0.246 OA
BRANCH  36  38
ATOM     38  C   UNL     1       1.317   1.493   4.564  1.00  0.00     0.060 A 
ATOM     39  C   UNL     1       0.667   2.424   3.804  1.00  0.00     0.016 A 
ATOM     40  C   UNL     1       2.028   0.511   3.864  1.00  0.00     0.016 A 
ATOM     41  C   UNL     1       0.377   2.055   2.479  1.00  0.00     0.010 A 
ATOM     42  C   UNL     1       1.747   0.164   2.471  1.00  0.00     0.010 A 
ATOM     43  C   UNL     1       0.671   0.674   1.574  1.00  0.00    -0.014 A 
BRANCH  43  44
ATOM     44  C   UNL     1       0.125   0.615  -0.593  1.00  0.00     0.031 A 
ATOM     45  C   UNL     1       1.267   1.206  -1.984  1.00  0.00     0.074 A 
ATOM     46  C   UNL     1      -1.261   1.018  -1.412  1.00  0.00     0.049 A 
ATOM     47  N   UNL     1       1.126   0.826  -3.231  1.00  0.00    -0.248 NA
ATOM     48  C   UNL     1       2.689   1.706  -1.933  1.00  0.00     0.031 C 
ATOM     49  C   UNL     1      -2.297  -0.010  -2.076  1.00  0.00     0.029 A 
ATOM     50  N   UNL     1      -2.378   1.838  -0.978  1.00  0.00    -0.354 N 
ATOM     51  C   UNL     1       2.373   0.357  -3.735  1.00  0.00     0.074 A 
ATOM     52  C   UNL     1       3.327   1.012  -2.898  1.00  0.00     0.031 C 
ATOM     53  C   UNL     1      -3.600   0.283  -2.086  1.00  0.00     0.029 A 
ATOM     54  C   UNL     1      -3.662   1.511  -1.431  1.00  0.00     0.049 A 
ATOM     55  H   UNL     1      -2.236   2.607  -0.379  1.00  0.00     0.167 HD
ATOM     56  C   UNL     1       2.395  -0.636  -4.705  1.00  0.00     0.031 A 
ATOM     57  C   UNL     1      -4.572   2.453  -1.670  1.00  0.00     0.031 A 
ATOM     58  C   UNL     1       1.047  -0.720  -5.365  1.00  0.00     0.049 A 
ATOM     59  C   UNL     1      -3.881   2.744  -3.128  1.00  0.00     0.074 A 
ATOM     60  C   UNL     1       0.141  -1.704  -5.743  1.00  0.00     0.029 A 
ATOM     61  N   UNL     1       0.305   0.466  -5.444  1.00  0.00    -0.354 N 
ATOM     62  N   UNL     1      -2.769   2.180  -3.640  1.00  0.00    -0.248 NA
ATOM     63  C   UNL     1      -4.680   3.288  -4.219  1.00  0.00     0.031 C 
ATOM     64  C   UNL     1      -1.168  -1.084  -5.854  1.00  0.00     0.029 A 
ATOM     65  C   UNL     1      -1.060   0.286  -5.599  1.00  0.00     0.049 A 
ATOM     66  H   UNL     1       0.721   1.357  -5.392  1.00  0.00     0.167 HD
ATOM     67  C   UNL     1      -2.767   2.134  -5.018  1.00  0.00     0.074 A 
ATOM     68  C   UNL     1      -4.000   2.873  -5.308  1.00  0.00     0.031 C 
ATOM     69  C   UNL     1      -1.886   1.488  -5.890  1.00  0.00     0.031 A 
BRANCH  56  70
ATOM     70  C   UNL     1       3.542  -1.684  -5.003  1.00  0.00    -0.014 A 
ATOM     71  C   UNL     1       3.287  -2.778  -5.874  1.00  0.00     0.009 A 
ATOM     72  C   UNL     1       4.845  -1.717  -4.452  1.00  0.00     0.009 A 
ATOM     73  C   UNL     1       4.231  -3.776  -6.219  1.00  0.00     0.001 A 
ATOM     74  C   UNL     1       5.815  -2.706  -4.813  1.00  0.00     0.001 A 
ATOM     75  C   UNL     1       5.514  -3.726  -5.709  1.00  0.00     0.000 A 
ENDBRANCH  56  70
BRANCH  57  76
ATOM     76  C   UNL     1      -4.776   2.843  -0.147  1.00  0.00    -0.014 A 
ATOM     77  C   UNL     1      -5.472   1.849   0.661  1.00  0.00     0.009 A 
ATOM     78  C   UNL     1      -3.952   3.695   0.619  1.00  0.00     0.009 A 
ATOM     79  C   UNL     1      -5.214   1.617   2.042  1.00  0.00     0.001 A 
ATOM     80  C   UNL     1      -3.692   3.451   2.008  1.00  0.00     0.001 A 
ATOM     81  C   UNL     1      -4.285   2.397   2.707  1.00  0.00     0.000 A 
ENDBRANCH  57  76
BRANCH  69  82
ATOM     82  C   UNL     1      -1.502   2.125  -7.240  1.00  0.00    -0.014 A 
ATOM     83  C   UNL     1      -2.086   3.278  -7.748  1.00  0.00     0.009 A 
ATOM     84  C   UNL     1      -0.361   1.659  -7.960  1.00  0.00     0.009 A 
ATOM     85  C   UNL     1      -1.585   3.917  -8.884  1.00  0.00     0.001 A 
ATOM     86  C   UNL     1       0.205   2.345  -9.030  1.00  0.00     0.001 A 
ATOM     87  C   UNL     1      -0.426   3.473  -9.505  1.00  0.00     0.000 A 
ENDBRANCH  69  82
ENDBRANCH  43  44
ENDBRANCH  36  38
ENDBRANCH  35  36
ENDBRANCH  34  35
ENDBRANCH  33  34
ENDBRANCH  32  33
ENDBRANCH  31  32
ENDBRANCH  30  31
ENDBRANCH  29  30
ENDBRANCH   1  29
TORSDOF 24
