REMARK SMILES CC(C)(C)[C@H](CCC(=O)OCCOCCOCCOCCOC(=O)c1ccc(-c2c3nc(c(-c4ccccc4)c4ccc([nH]4)c(-c4ccccc4)c4nc(c(-c5ccccc5)c5ccc2[nH]5)C=C4)C=C3)cc1)CC[NH+]1CCOCC1
REMARK SMILES IDX 14 1 13 2 12 3 11 4 10 5 8 6 9 7 7 8 6 9 5 10 2 11 1 12 3 13
REMARK SMILES IDX 4 14 73 15 74 16 75 17 76 18 80 19 77 21 79 22 78 23 15 24
REMARK SMILES IDX 16 25 17 26 18 27 19 28 20 29 21 30 22 31 23 32 24 33 25 34
REMARK SMILES IDX 26 35 72 36 27 37 71 38 28 39 29 40 30 41 65 42 31 43 70 44
REMARK SMILES IDX 64 45 66 46 32 47 69 48 63 49 62 50 33 52 55 53 40 54 54 55
REMARK SMILES IDX 41 56 44 57 53 58 67 59 42 60 43 61 52 63 68 64 45 65 34 66
REMARK SMILES IDX 35 67 39 68 36 69 38 70 37 71 56 72 57 73 61 74 58 75 60 76
REMARK SMILES IDX 59 77 46 78 47 79 51 80 48 81 50 82 49 83
REMARK H PARENT 75 20 66 51 44 62
REMARK Flexibility Score: inf
ROOT
ATOM      1  C   UNL     1      -1.295   2.162  -4.803  1.00  0.00     0.188 C 
ENDROOT
BRANCH   1   2
ATOM      2  O   UNL     1      -1.464   3.539  -5.167  1.00  0.00    -0.376 OA
BRANCH   2   3
ATOM      3  C   UNL     1      -0.940   4.528  -4.277  1.00  0.00     0.202 C 
BRANCH   3   4
ATOM      4  C   UNL     1      -1.590   4.542  -2.893  1.00  0.00     0.261 C 
BRANCH   4   5
ATOM      5  O   UNL     1      -1.161   3.383  -2.155  1.00  0.00    -0.463 OA
BRANCH   5   6
ATOM      6  C   UNL     1      -2.039   2.860  -1.272  1.00  0.00     0.305 C 
ATOM      7  O   UNL     1      -3.137   3.338  -1.017  1.00  0.00    -0.252 OA
BRANCH   6   8
ATOM      8  C   UNL     1      -1.570   1.531  -0.714  1.00  0.00     0.123 C 
BRANCH   8   9
ATOM      9  C   UNL     1      -0.072   1.286  -0.461  1.00  0.00     0.016 C 
BRANCH   9  10
ATOM     10  C   UNL     1       0.856   2.446  -0.006  1.00  0.00     0.000 C 
BRANCH  10  11
ATOM     11  C   UNL     1       0.626   3.004   1.467  1.00  0.00    -0.035 C 
ATOM     12  C   UNL     1       1.496   2.292   2.526  1.00  0.00     0.011 C 
ATOM     13  C   UNL     1      -0.827   2.907   1.957  1.00  0.00     0.011 C 
ATOM     14  C   UNL     1       0.996   4.507   1.479  1.00  0.00     0.011 C 
ENDBRANCH  10  11
BRANCH  10  15
ATOM     15  C   UNL     1       2.353   2.039  -0.222  1.00  0.00     0.065 C 
BRANCH  15  16
ATOM     16  C   UNL     1       2.860   1.688  -1.636  1.00  0.00     0.262 C 
BRANCH  16  17
ATOM     17  N   UNL     1       3.146   2.701  -2.652  1.00  0.00    -0.331 N 
ATOM     18  C   UNL     1       4.580   2.812  -2.962  1.00  0.00     0.291 C 
ATOM     19  C   UNL     1       2.593   4.050  -2.530  1.00  0.00     0.291 C 
ATOM     20  H   UNL     1       2.606   2.292  -3.415  1.00  0.00     0.348 HD
ATOM     21  C   UNL     1       5.322   3.682  -1.942  1.00  0.00     0.221 C 
ATOM     22  C   UNL     1       3.380   4.993  -1.611  1.00  0.00     0.221 C 
ATOM     23  O   UNL     1       4.776   5.007  -1.915  1.00  0.00    -0.370 OA
ENDBRANCH  16  17
ENDBRANCH  15  16
ENDBRANCH  10  15
ENDBRANCH   9  10
ENDBRANCH   8   9
ENDBRANCH   6   8
ENDBRANCH   5   6
ENDBRANCH   4   5
ENDBRANCH   3   4
ENDBRANCH   2   3
ENDBRANCH   1   2
BRANCH   1  24
ATOM     24  C   UNL     1       0.090   1.750  -4.278  1.00  0.00     0.188 C 
BRANCH  24  25
ATOM     25  O   UNL     1       1.154   1.574  -5.202  1.00  0.00    -0.377 OA
BRANCH  25  26
ATOM     26  C   UNL     1       1.187   2.382  -6.356  1.00  0.00     0.188 C 
BRANCH  26  27
ATOM     27  C   UNL     1       1.124   1.553  -7.647  1.00  0.00     0.188 C 
BRANCH  27  28
ATOM     28  O   UNL     1       0.467   0.290  -7.600  1.00  0.00    -0.376 OA
BRANCH  28  29
ATOM     29  C   UNL     1       0.981  -0.712  -6.719  1.00  0.00     0.202 C 
BRANCH  29  30
ATOM     30  C   UNL     1       2.482  -1.044  -6.757  1.00  0.00     0.261 C 
BRANCH  30  31
ATOM     31  O   UNL     1       3.354   0.024  -6.332  1.00  0.00    -0.460 OA
BRANCH  31  32
ATOM     32  C   UNL     1       4.271   0.429  -7.243  1.00  0.00     0.338 C 
ATOM     33  O   UNL     1       4.412   0.024  -8.385  1.00  0.00    -0.246 OA
BRANCH  32  34
ATOM     34  C   UNL     1       5.104   1.519  -6.704  1.00  0.00     0.060 A 
ATOM     35  C   UNL     1       4.984   2.808  -7.241  1.00  0.00     0.016 A 
ATOM     36  C   UNL     1       6.127   1.223  -5.803  1.00  0.00     0.016 A 
ATOM     37  C   UNL     1       5.900   3.807  -6.887  1.00  0.00     0.010 A 
ATOM     38  C   UNL     1       7.046   2.220  -5.458  1.00  0.00     0.010 A 
ATOM     39  C   UNL     1       6.956   3.511  -6.016  1.00  0.00    -0.014 A 
BRANCH  39  40
ATOM     40  C   UNL     1       8.065   4.471  -5.773  1.00  0.00     0.031 A 
ATOM     41  C   UNL     1       9.375   4.259  -6.476  1.00  0.00     0.074 A 
ATOM     42  C   UNL     1       7.958   5.467  -4.875  1.00  0.00     0.049 A 
ATOM     43  N   UNL     1      10.523   4.855  -6.278  1.00  0.00    -0.248 NA
ATOM     44  C   UNL     1       9.389   3.256  -7.552  1.00  0.00     0.031 C 
ATOM     45  C   UNL     1       6.741   5.848  -4.174  1.00  0.00     0.029 A 
ATOM     46  N   UNL     1       8.924   6.289  -4.339  1.00  0.00    -0.354 N 
ATOM     47  C   UNL     1      11.386   4.324  -7.224  1.00  0.00     0.074 A 
ATOM     48  C   UNL     1      10.649   3.316  -7.957  1.00  0.00     0.031 C 
ATOM     49  C   UNL     1       7.051   6.730  -3.207  1.00  0.00     0.029 A 
ATOM     50  C   UNL     1       8.487   6.974  -3.229  1.00  0.00     0.049 A 
ATOM     51  H   UNL     1       9.831   6.378  -4.712  1.00  0.00     0.167 HD
ATOM     52  C   UNL     1      12.669   4.669  -7.482  1.00  0.00     0.031 A 
ATOM     53  C   UNL     1       9.172   7.667  -2.299  1.00  0.00     0.031 A 
ATOM     54  C   UNL     1      13.411   5.656  -6.747  1.00  0.00     0.049 A 
ATOM     55  C   UNL     1      10.651   7.874  -2.468  1.00  0.00     0.074 A 
ATOM     56  C   UNL     1      14.687   6.135  -6.991  1.00  0.00     0.029 A 
ATOM     57  N   UNL     1      12.954   6.293  -5.606  1.00  0.00    -0.354 N 
ATOM     58  N   UNL     1      11.436   7.447  -3.425  1.00  0.00    -0.248 NA
ATOM     59  C   UNL     1      11.332   8.687  -1.448  1.00  0.00     0.031 C 
ATOM     60  C   UNL     1      15.026   7.017  -5.959  1.00  0.00     0.029 A 
ATOM     61  C   UNL     1      13.943   7.120  -5.101  1.00  0.00     0.049 A 
ATOM     62  H   UNL     1      12.060   6.176  -5.213  1.00  0.00     0.167 HD
ATOM     63  C   UNL     1      12.685   7.994  -3.162  1.00  0.00     0.074 A 
ATOM     64  C   UNL     1      12.562   8.760  -1.940  1.00  0.00     0.031 C 
ATOM     65  C   UNL     1      13.821   7.890  -3.892  1.00  0.00     0.031 A 
BRANCH  52  66
ATOM     66  C   UNL     1      13.352   3.968  -8.616  1.00  0.00    -0.014 A 
ATOM     67  C   UNL     1      13.039   4.283  -9.948  1.00  0.00     0.009 A 
ATOM     68  C   UNL     1      14.347   3.015  -8.353  1.00  0.00     0.009 A 
ATOM     69  C   UNL     1      13.694   3.637 -10.997  1.00  0.00     0.001 A 
ATOM     70  C   UNL     1      15.013   2.385  -9.404  1.00  0.00     0.001 A 
ATOM     71  C   UNL     1      14.683   2.692 -10.724  1.00  0.00     0.000 A 
ENDBRANCH  52  66
BRANCH  53  72
ATOM     72  C   UNL     1       8.483   8.176  -1.084  1.00  0.00    -0.014 A 
ATOM     73  C   UNL     1       8.235   9.544  -0.912  1.00  0.00     0.009 A 
ATOM     74  C   UNL     1       8.119   7.285  -0.061  1.00  0.00     0.009 A 
ATOM     75  C   UNL     1       7.668  10.015   0.276  1.00  0.00     0.001 A 
ATOM     76  C   UNL     1       7.535   7.756   1.117  1.00  0.00     0.001 A 
ATOM     77  C   UNL     1       7.320   9.121   1.289  1.00  0.00     0.000 A 
ENDBRANCH  53  72
BRANCH  65  78
ATOM     78  C   UNL     1      15.013   8.677  -3.432  1.00  0.00    -0.014 A 
ATOM     79  C   UNL     1      15.779   8.270  -2.331  1.00  0.00     0.009 A 
ATOM     80  C   UNL     1      15.402   9.820  -4.149  1.00  0.00     0.009 A 
ATOM     81  C   UNL     1      16.901   9.005  -1.944  1.00  0.00     0.001 A 
ATOM     82  C   UNL     1      16.537  10.539  -3.775  1.00  0.00     0.001 A 
ATOM     83  C   UNL     1      17.283  10.134  -2.669  1.00  0.00     0.000 A 
ENDBRANCH  65  78
ENDBRANCH  39  40
ENDBRANCH  32  34
ENDBRANCH  31  32
ENDBRANCH  30  31
ENDBRANCH  29  30
ENDBRANCH  28  29
ENDBRANCH  27  28
ENDBRANCH  26  27
ENDBRANCH  25  26
ENDBRANCH  24  25
ENDBRANCH   1  24
TORSDOF 26
