REMARK SMILES CC1(C)[C@@H](CBr)CC[C@]1(C)C(=O)OCCOCCOCCOCCOC(=O)c1ccc(-c2c3nc(c(-c4ccccc4)c4ccc([nH]4)c(-c4ccccc4)c4nc(c(-c5ccccc5)c5ccc2[nH]5)C=C4)C=C3)cc1
REMARK SMILES IDX 20 1 19 2 18 3 17 4 16 5 15 6 14 7 13 8 11 9 12 10 9 11 1 12
REMARK SMILES IDX 2 13 3 14 4 15 7 16 8 17 10 18 5 19 6 20 21 21 22 22 23 23
REMARK SMILES IDX 24 24 25 25 26 26 27 27 28 28 29 29 75 30 30 31 74 32 31 33
REMARK SMILES IDX 32 34 33 35 68 36 34 37 73 38 67 39 69 40 35 41 72 42 66 43
REMARK SMILES IDX 65 44 36 46 58 47 43 48 57 49 44 50 47 51 56 52 70 53 45 54
REMARK SMILES IDX 46 55 55 57 71 58 48 59 37 60 38 61 42 62 39 63 41 64 40 65
REMARK SMILES IDX 59 66 60 67 64 68 61 69 63 70 62 71 49 72 50 73 54 74 51 75
REMARK SMILES IDX 53 76 52 77
REMARK H PARENT 69 45 47 56
REMARK Flexibility Score: inf
ROOT
ATOM      1  C   UNL     1      -3.788   0.767   0.634  1.00  0.00     0.188 C 
ENDROOT
BRANCH   1   2
ATOM      2  O   UNL     1      -2.725   1.677   0.395  1.00  0.00    -0.377 OA
BRANCH   2   3
ATOM      3  C   UNL     1      -2.838   3.050   0.711  1.00  0.00     0.188 C 
BRANCH   3   4
ATOM      4  C   UNL     1      -3.204   3.939  -0.472  1.00  0.00     0.188 C 
BRANCH   4   5
ATOM      5  O   UNL     1      -4.156   3.420  -1.376  1.00  0.00    -0.376 OA
BRANCH   5   6
ATOM      6  C   UNL     1      -3.796   2.362  -2.259  1.00  0.00     0.202 C 
BRANCH   6   7
ATOM      7  C   UNL     1      -2.355   2.063  -2.743  1.00  0.00     0.261 C 
BRANCH   7   8
ATOM      8  O   UNL     1      -1.343   1.659  -1.775  1.00  0.00    -0.463 OA
BRANCH   8   9
ATOM      9  C   UNL     1      -0.382   2.585  -1.554  1.00  0.00     0.312 C 
ATOM     10  O   UNL     1      -0.427   3.700  -2.083  1.00  0.00    -0.252 OA
BRANCH   9  11
ATOM     11  C   UNL     1       0.894   2.183  -0.763  1.00  0.00     0.071 C 
ATOM     12  C   UNL     1       1.717  -0.278  -0.265  1.00  0.00     0.012 C 
ATOM     13  C   UNL     1       1.069   1.002   0.298  1.00  0.00    -0.016 C 
ATOM     14  C   UNL     1      -0.238   0.511   0.947  1.00  0.00     0.012 C 
ATOM     15  C   UNL     1       1.898   1.625   1.492  1.00  0.00     0.006 C 
ATOM     16  C   UNL     1       1.494   3.092   1.503  1.00  0.00     0.006 C 
ATOM     17  C   UNL     1       1.252   3.471   0.055  1.00  0.00     0.019 C 
ATOM     18  C   UNL     1       1.883   2.020  -1.949  1.00  0.00     0.024 C 
BRANCH  15  19
ATOM     19  C   UNL     1       3.399   1.374   1.654  1.00  0.00     0.084 C 
ATOM     20  Br  UNL     1       4.595   2.319   0.468  1.00  0.00    -0.092 Br
ENDBRANCH  15  19
ENDBRANCH   9  11
ENDBRANCH   8   9
ENDBRANCH   7   8
ENDBRANCH   6   7
ENDBRANCH   5   6
ENDBRANCH   4   5
ENDBRANCH   3   4
ENDBRANCH   2   3
ENDBRANCH   1   2
BRANCH   1  21
ATOM     21  C   UNL     1      -5.003   1.282   1.394  1.00  0.00     0.188 C 
BRANCH  21  22
ATOM     22  O   UNL     1      -4.791   1.728   2.736  1.00  0.00    -0.376 OA
BRANCH  22  23
ATOM     23  C   UNL     1      -3.690   1.203   3.475  1.00  0.00     0.202 C 
BRANCH  23  24
ATOM     24  C   UNL     1      -3.988  -0.103   4.205  1.00  0.00     0.261 C 
BRANCH  24  25
ATOM     25  O   UNL     1      -4.056  -1.211   3.295  1.00  0.00    -0.460 OA
BRANCH  25  26
ATOM     26  C   UNL     1      -5.298  -1.571   2.910  1.00  0.00     0.338 C 
ATOM     27  O   UNL     1      -6.364  -1.088   3.262  1.00  0.00    -0.246 OA
BRANCH  26  28
ATOM     28  C   UNL     1      -5.191  -2.603   1.869  1.00  0.00     0.060 A 
ATOM     29  C   UNL     1      -5.939  -2.463   0.693  1.00  0.00     0.016 A 
ATOM     30  C   UNL     1      -4.420  -3.744   2.098  1.00  0.00     0.016 A 
ATOM     31  C   UNL     1      -5.966  -3.498  -0.238  1.00  0.00     0.010 A 
ATOM     32  C   UNL     1      -4.452  -4.780   1.171  1.00  0.00     0.010 A 
ATOM     33  C   UNL     1      -5.260  -4.678   0.025  1.00  0.00    -0.014 A 
BRANCH  33  34
ATOM     34  C   UNL     1      -5.497  -5.896  -0.776  1.00  0.00     0.031 A 
ATOM     35  C   UNL     1      -6.388  -6.960  -0.202  1.00  0.00     0.074 A 
ATOM     36  C   UNL     1      -4.878  -6.076  -1.954  1.00  0.00     0.049 A 
ATOM     37  N   UNL     1      -6.602  -8.179  -0.620  1.00  0.00    -0.248 NA
ATOM     38  C   UNL     1      -7.122  -6.602   1.024  1.00  0.00     0.031 C 
ATOM     39  C   UNL     1      -4.029  -5.092  -2.623  1.00  0.00     0.029 A 
ATOM     40  N   UNL     1      -4.849  -7.170  -2.777  1.00  0.00    -0.354 N 
ATOM     41  C   UNL     1      -7.471  -8.743   0.306  1.00  0.00     0.074 A 
ATOM     42  C   UNL     1      -7.726  -7.743   1.319  1.00  0.00     0.031 C 
ATOM     43  C   UNL     1      -3.538  -5.640  -3.748  1.00  0.00     0.029 A 
ATOM     44  C   UNL     1      -4.001  -7.023  -3.846  1.00  0.00     0.049 A 
ATOM     45  H   UNL     1      -5.383  -7.982  -2.618  1.00  0.00     0.167 HD
ATOM     46  C   UNL     1      -8.004  -9.988   0.311  1.00  0.00     0.031 A 
ATOM     47  C   UNL     1      -3.612  -7.920  -4.771  1.00  0.00     0.031 A 
ATOM     48  C   UNL     1      -7.724 -10.978  -0.694  1.00  0.00     0.049 A 
ATOM     49  C   UNL     1      -4.158  -9.322  -4.706  1.00  0.00     0.074 A 
ATOM     50  C   UNL     1      -8.223 -12.263  -0.801  1.00  0.00     0.029 A 
ATOM     51  N   UNL     1      -6.856 -10.793  -1.760  1.00  0.00    -0.354 N 
ATOM     52  N   UNL     1      -4.994  -9.845  -3.842  1.00  0.00    -0.248 NA
ATOM     53  C   UNL     1      -3.710 -10.254  -5.750  1.00  0.00     0.031 C 
ATOM     54  C   UNL     1      -7.606 -12.878  -1.895  1.00  0.00     0.029 A 
ATOM     55  C   UNL     1      -6.783 -11.950  -2.515  1.00  0.00     0.049 A 
ATOM     56  H   UNL     1      -6.365  -9.961  -1.951  1.00  0.00     0.167 HD
ATOM     57  C   UNL     1      -5.204 -11.155  -4.258  1.00  0.00     0.074 A 
ATOM     58  C   UNL     1      -4.409 -11.342  -5.456  1.00  0.00     0.031 C 
ATOM     59  C   UNL     1      -5.989 -12.113  -3.707  1.00  0.00     0.031 A 
BRANCH  46  60
ATOM     60  C   UNL     1      -8.895 -10.356   1.465  1.00  0.00    -0.014 A 
ATOM     61  C   UNL     1     -10.156  -9.762   1.641  1.00  0.00     0.009 A 
ATOM     62  C   UNL     1      -8.470 -11.326   2.387  1.00  0.00     0.009 A 
ATOM     63  C   UNL     1     -10.951 -10.101   2.739  1.00  0.00     0.001 A 
ATOM     64  C   UNL     1      -9.281 -11.688   3.464  1.00  0.00     0.001 A 
ATOM     65  C   UNL     1     -10.515 -11.066   3.646  1.00  0.00     0.000 A 
ENDBRANCH  46  60
BRANCH  47  66
ATOM     66  C   UNL     1      -2.643  -7.522  -5.825  1.00  0.00    -0.014 A 
ATOM     67  C   UNL     1      -3.050  -7.412  -7.163  1.00  0.00     0.009 A 
ATOM     68  C   UNL     1      -1.306  -7.243  -5.498  1.00  0.00     0.009 A 
ATOM     69  C   UNL     1      -2.135  -7.051  -8.154  1.00  0.00     0.001 A 
ATOM     70  C   UNL     1      -0.401  -6.852  -6.487  1.00  0.00     0.001 A 
ATOM     71  C   UNL     1      -0.813  -6.765  -7.815  1.00  0.00     0.000 A 
ENDBRANCH  47  66
BRANCH  59  72
ATOM     72  C   UNL     1      -6.078 -13.433  -4.423  1.00  0.00    -0.014 A 
ATOM     73  C   UNL     1      -5.007 -14.338  -4.438  1.00  0.00     0.009 A 
ATOM     74  C   UNL     1      -7.286 -13.797  -5.041  1.00  0.00     0.009 A 
ATOM     75  C   UNL     1      -5.135 -15.569  -5.087  1.00  0.00     0.001 A 
ATOM     76  C   UNL     1      -7.422 -15.040  -5.658  1.00  0.00     0.001 A 
ATOM     77  C   UNL     1      -6.343 -15.922  -5.688  1.00  0.00     0.000 A 
ENDBRANCH  59  72
ENDBRANCH  33  34
ENDBRANCH  26  28
ENDBRANCH  25  26
ENDBRANCH  24  25
ENDBRANCH  23  24
ENDBRANCH  22  23
ENDBRANCH  21  22
ENDBRANCH   1  21
TORSDOF 21
