REMARK SMILES Cc1ccccc1-c1c(Cl)ccc2c1C=C(C(=O)OCCOCCOCCOCCOC(=O)c1ccc(-c3c4nc(c(-c5ccccc5)c5ccc([nH]5)c(-c5ccccc5)c5nc(c(-c6ccccc6)c6ccc3[nH]6)C=C5)C=C4)cc1)[C@@H](C(F)(F)F)O2
REMARK SMILES IDX 26 1 25 2 24 3 23 4 22 5 21 6 20 7 19 8 17 9 18 10 16 11
REMARK SMILES IDX 8 12 9 13 14 14 10 15 11 16 13 17 15 18 12 19 87 20 82 21
REMARK SMILES IDX 7 22 1 23 2 24 3 25 4 26 6 27 5 28 83 29 84 30 85 31 86 32
REMARK SMILES IDX 27 33 28 34 29 35 30 36 31 37 32 38 33 39 34 40 35 41 81 42
REMARK SMILES IDX 36 43 80 44 37 45 38 46 39 47 74 48 40 49 79 50 73 51 75 52
REMARK SMILES IDX 41 53 78 54 72 55 71 56 42 58 64 59 49 60 63 61 50 62 53 63
REMARK SMILES IDX 62 64 76 65 51 66 52 67 61 69 77 70 54 71 43 72 44 73 48 74
REMARK SMILES IDX 45 75 47 76 46 77 65 78 66 79 70 80 67 81 69 82 68 83 55 84
REMARK SMILES IDX 56 85 60 86 57 87 59 88 58 89
REMARK H PARENT 75 57 53 68
REMARK Flexibility Score: inf
ROOT
ATOM      1  C   UNL     1       6.762   0.273  -4.913  1.00  0.00     0.188 C 
ENDROOT
BRANCH   1   2
ATOM      2  O   UNL     1       5.850   1.197  -4.309  1.00  0.00    -0.377 OA
BRANCH   2   3
ATOM      3  C   UNL     1       5.470   2.229  -5.208  1.00  0.00     0.188 C 
BRANCH   3   4
ATOM      4  C   UNL     1       5.510   3.653  -4.648  1.00  0.00     0.188 C 
BRANCH   4   5
ATOM      5  O   UNL     1       6.700   4.128  -4.033  1.00  0.00    -0.376 OA
BRANCH   5   6
ATOM      6  C   UNL     1       6.970   3.650  -2.714  1.00  0.00     0.202 C 
BRANCH   6   7
ATOM      7  C   UNL     1       5.965   4.072  -1.651  1.00  0.00     0.261 C 
BRANCH   7   8
ATOM      8  O   UNL     1       4.762   3.305  -1.790  1.00  0.00    -0.460 OA
BRANCH   8   9
ATOM      9  C   UNL     1       3.659   4.070  -1.806  1.00  0.00     0.338 C 
ATOM     10  O   UNL     1       3.610   5.254  -1.506  1.00  0.00    -0.246 OA
BRANCH   9  11
ATOM     11  C   UNL     1       2.589   3.346  -2.587  1.00  0.00     0.087 C 
ATOM     12  C   UNL     1       0.457   2.706   0.210  1.00  0.00     0.012 A 
ATOM     13  C   UNL     1       0.271   3.606   1.277  1.00  0.00     0.049 A 
ATOM     14  C   UNL     1       0.923   3.267  -0.990  1.00  0.00     0.027 A 
ATOM     15  Cl  UNL     1      -0.163   3.053   2.857  1.00  0.00    -0.084 Cl
ATOM     16  C   UNL     1       0.434   4.991   1.099  1.00  0.00     0.025 A 
ATOM     17  C   UNL     1       0.801   4.651  -1.240  1.00  0.00     0.128 A 
ATOM     18  C   UNL     1       1.757   2.498  -1.944  1.00  0.00     0.028 C 
ATOM     19  C   UNL     1       0.615   5.519  -0.179  1.00  0.00     0.049 A 
ATOM     20  O   UNL     1       0.985   5.189  -2.504  1.00  0.00    -0.475 OA
ATOM     21  C   UNL     1       1.873   4.426  -3.381  1.00  0.00     0.316 C 
BRANCH  12  22
ATOM     22  C   UNL     1      -0.107   1.332   0.220  1.00  0.00    -0.013 A 
ATOM     23  C   UNL     1       2.100   0.075   0.528  1.00  0.00     0.045 C 
ATOM     24  C   UNL     1       0.613   0.130   0.366  1.00  0.00    -0.043 A 
ATOM     25  C   UNL     1      -0.066  -1.104   0.287  1.00  0.00     0.004 A 
ATOM     26  C   UNL     1      -1.441  -1.164   0.080  1.00  0.00     0.000 A 
ATOM     27  C   UNL     1      -1.503   1.237   0.006  1.00  0.00     0.009 A 
ATOM     28  C   UNL     1      -2.163   0.011  -0.061  1.00  0.00     0.001 A 
ENDBRANCH  12  22
BRANCH  21  29
ATOM     29  C   UNL     1       1.193   3.881  -4.639  1.00  0.00     0.430 C 
ATOM     30  F   UNL     1       0.876   4.875  -5.501  1.00  0.00    -0.167 F 
ATOM     31  F   UNL     1       2.029   3.045  -5.312  1.00  0.00    -0.167 F 
ATOM     32  F   UNL     1       0.065   3.188  -4.376  1.00  0.00    -0.167 F 
ENDBRANCH  21  29
ENDBRANCH   9  11
ENDBRANCH   8   9
ENDBRANCH   7   8
ENDBRANCH   6   7
ENDBRANCH   5   6
ENDBRANCH   4   5
ENDBRANCH   3   4
ENDBRANCH   2   3
ENDBRANCH   1   2
BRANCH   1  33
ATOM     33  C   UNL     1       8.201   0.730  -4.727  1.00  0.00     0.188 C 
BRANCH  33  34
ATOM     34  O   UNL     1       8.524   2.011  -5.255  1.00  0.00    -0.376 OA
BRANCH  34  35
ATOM     35  C   UNL     1       8.840   2.121  -6.637  1.00  0.00     0.202 C 
BRANCH  35  36
ATOM     36  C   UNL     1      10.013   1.251  -7.111  1.00  0.00     0.261 C 
BRANCH  36  37
ATOM     37  O   UNL     1      11.161   1.489  -6.274  1.00  0.00    -0.460 OA
BRANCH  37  38
ATOM     38  C   UNL     1      11.580   0.421  -5.545  1.00  0.00     0.338 C 
ATOM     39  O   UNL     1      11.697  -0.722  -5.964  1.00  0.00    -0.246 OA
BRANCH  38  40
ATOM     40  C   UNL     1      11.534   0.767  -4.093  1.00  0.00     0.060 A 
ATOM     41  C   UNL     1      11.454  -0.274  -3.150  1.00  0.00     0.016 A 
ATOM     42  C   UNL     1      11.178   2.060  -3.723  1.00  0.00     0.016 A 
ATOM     43  C   UNL     1      10.825  -0.059  -1.915  1.00  0.00     0.010 A 
ATOM     44  C   UNL     1      10.474   2.239  -2.545  1.00  0.00     0.010 A 
ATOM     45  C   UNL     1      10.223   1.175  -1.658  1.00  0.00    -0.014 A 
BRANCH  45  46
ATOM     46  C   UNL     1       9.103   1.381  -0.705  1.00  0.00     0.031 A 
ATOM     47  C   UNL     1       9.027   2.636   0.124  1.00  0.00     0.074 A 
ATOM     48  C   UNL     1       7.985   0.626  -0.884  1.00  0.00     0.049 A 
ATOM     49  N   UNL     1       8.069   2.943   0.938  1.00  0.00    -0.248 NA
ATOM     50  C   UNL     1      10.065   3.672   0.113  1.00  0.00     0.031 C 
ATOM     51  C   UNL     1       6.607   1.046  -0.624  1.00  0.00     0.029 A 
ATOM     52  N   UNL     1       7.784  -0.626  -1.445  1.00  0.00    -0.354 N 
ATOM     53  C   UNL     1       8.179   4.286   1.260  1.00  0.00     0.074 A 
ATOM     54  C   UNL     1       9.492   4.661   0.807  1.00  0.00     0.031 C 
ATOM     55  C   UNL     1       5.743   0.094  -1.001  1.00  0.00     0.029 A 
ATOM     56  C   UNL     1       6.510  -1.111  -1.125  1.00  0.00     0.049 A 
ATOM     57  H   UNL     1       8.445  -1.108  -1.992  1.00  0.00     0.167 HD
ATOM     58  C   UNL     1       7.095   4.968   1.740  1.00  0.00     0.031 A 
ATOM     59  C   UNL     1       6.326  -2.141  -0.239  1.00  0.00     0.031 A 
ATOM     60  C   UNL     1       5.963   4.078   2.039  1.00  0.00     0.049 A 
ATOM     61  C   UNL     1       5.772  -1.702   1.123  1.00  0.00     0.074 A 
ATOM     62  C   UNL     1       4.623   4.085   1.701  1.00  0.00     0.029 A 
ATOM     63  N   UNL     1       6.186   2.869   2.702  1.00  0.00    -0.354 N 
ATOM     64  N   UNL     1       5.728  -0.451   1.522  1.00  0.00    -0.248 NA
ATOM     65  C   UNL     1       5.185  -2.593   2.122  1.00  0.00     0.031 C 
ATOM     66  C   UNL     1       4.064   2.853   2.119  1.00  0.00     0.029 A 
ATOM     67  C   UNL     1       5.059   2.077   2.692  1.00  0.00     0.049 A 
ATOM     68  H   UNL     1       7.039   2.615   3.122  1.00  0.00     0.167 HD
ATOM     69  C   UNL     1       5.170  -0.354   2.765  1.00  0.00     0.074 A 
ATOM     70  C   UNL     1       4.837  -1.728   3.096  1.00  0.00     0.031 C 
ATOM     71  C   UNL     1       5.027   0.827   3.442  1.00  0.00     0.031 A 
BRANCH  58  72
ATOM     72  C   UNL     1       6.937   6.495   1.754  1.00  0.00    -0.014 A 
ATOM     73  C   UNL     1       5.750   7.073   2.258  1.00  0.00     0.009 A 
ATOM     74  C   UNL     1       7.845   7.412   1.193  1.00  0.00     0.009 A 
ATOM     75  C   UNL     1       5.465   8.447   2.156  1.00  0.00     0.001 A 
ATOM     76  C   UNL     1       7.589   8.795   1.128  1.00  0.00     0.001 A 
ATOM     77  C   UNL     1       6.388   9.311   1.591  1.00  0.00     0.000 A 
ENDBRANCH  58  72
BRANCH  59  78
ATOM     78  C   UNL     1       7.141  -3.332  -0.633  1.00  0.00    -0.014 A 
ATOM     79  C   UNL     1       6.712  -3.924  -1.844  1.00  0.00     0.009 A 
ATOM     80  C   UNL     1       8.516  -3.341  -0.344  1.00  0.00     0.009 A 
ATOM     81  C   UNL     1       7.632  -4.194  -2.862  1.00  0.00     0.001 A 
ATOM     82  C   UNL     1       9.435  -3.645  -1.363  1.00  0.00     0.001 A 
ATOM     83  C   UNL     1       8.990  -3.996  -2.639  1.00  0.00     0.000 A 
ENDBRANCH  59  78
BRANCH  71  84
ATOM     84  C   UNL     1       4.815   0.944   4.934  1.00  0.00    -0.014 A 
ATOM     85  C   UNL     1       5.193  -0.050   5.845  1.00  0.00     0.009 A 
ATOM     86  C   UNL     1       4.419   2.188   5.481  1.00  0.00     0.009 A 
ATOM     87  C   UNL     1       5.142   0.174   7.227  1.00  0.00     0.001 A 
ATOM     88  C   UNL     1       4.409   2.430   6.855  1.00  0.00     0.001 A 
ATOM     89  C   UNL     1       4.762   1.415   7.731  1.00  0.00     0.000 A 
ENDBRANCH  71  84
ENDBRANCH  45  46
ENDBRANCH  38  40
ENDBRANCH  37  38
ENDBRANCH  36  37
ENDBRANCH  35  36
ENDBRANCH  34  35
ENDBRANCH  33  34
ENDBRANCH   1  33
TORSDOF 22
