REMARK SMILES Cc1n[nH]c(C)c1CC(=O)N1CC[C@H](C(=O)OCCOCCOCCOCCOC(=O)c2ccc(-c3c4nc(c(-c5ccccc5)c5ccc([nH]5)c(-c5ccccc5)c5nc(c(-c6ccccc6)c6ccc3[nH]6)C=C5)C=C4)cc2)[C@H]1C
REMARK SMILES IDX 22 1 21 2 20 3 19 4 18 5 17 6 15 7 16 8 14 9 11 10 12 11
REMARK SMILES IDX 80 12 13 13 81 14 9 15 10 16 8 17 7 18 1 19 2 20 3 21 4 22
REMARK SMILES IDX 5 23 6 25 23 26 24 27 25 28 26 29 27 30 28 31 29 32 30 33
REMARK SMILES IDX 31 34 32 35 33 36 79 37 34 38 78 39 35 40 36 41 37 42 72 43
REMARK SMILES IDX 38 44 77 45 71 46 73 47 39 48 76 49 70 50 69 51 40 53 62 54
REMARK SMILES IDX 47 55 61 56 48 57 51 58 60 59 74 60 49 61 50 62 59 64 75 65
REMARK SMILES IDX 52 66 41 67 42 68 46 69 43 70 45 71 44 72 63 73 64 74 68 75
REMARK SMILES IDX 65 76 67 77 66 78 53 79 54 80 58 81 55 82 57 83 56 84
REMARK H PARENT 4 24 73 52 51 63
REMARK Flexibility Score: inf
ROOT
ATOM      1  C   UNL     1      -2.654  -2.258   3.837  1.00  0.00     0.188 C 
ENDROOT
BRANCH   1   2
ATOM      2  C   UNL     1      -2.642  -2.850   5.265  1.00  0.00     0.188 C 
BRANCH   2   3
ATOM      3  O   UNL     1      -3.284  -2.186   6.347  1.00  0.00    -0.376 OA
BRANCH   3   4
ATOM      4  C   UNL     1      -3.509  -0.790   6.286  1.00  0.00     0.202 C 
BRANCH   4   5
ATOM      5  C   UNL     1      -2.310   0.163   6.098  1.00  0.00     0.261 C 
BRANCH   5   6
ATOM      6  O   UNL     1      -1.252  -0.259   5.206  1.00  0.00    -0.463 OA
BRANCH   6   7
ATOM      7  C   UNL     1      -0.198  -0.869   5.793  1.00  0.00     0.311 C 
ATOM      8  O   UNL     1      -0.089  -1.015   7.008  1.00  0.00    -0.252 OA
BRANCH   7   9
ATOM      9  C   UNL     1       0.892  -1.379   4.854  1.00  0.00     0.123 C 
ATOM     10  N   UNL     1       0.560  -2.596   2.785  1.00  0.00    -0.339 N 
ATOM     11  C   UNL     1       0.607  -3.582   3.848  1.00  0.00     0.121 C 
ATOM     12  C   UNL     1       0.854  -1.242   3.308  1.00  0.00     0.096 C 
ATOM     13  C   UNL     1       1.149  -2.876   5.077  1.00  0.00     0.039 C 
ATOM     14  C   UNL     1       2.245  -0.792   2.863  1.00  0.00     0.032 C 
BRANCH  10  15
ATOM     15  C   UNL     1       0.047  -2.996   1.559  1.00  0.00     0.227 C 
ATOM     16  O   UNL     1      -0.591  -4.060   1.495  1.00  0.00    -0.275 OA
BRANCH  15  17
ATOM     17  C   UNL     1       0.415  -2.332   0.236  1.00  0.00     0.139 C 
BRANCH  17  18
ATOM     18  C   UNL     1       0.271  -0.863   0.061  1.00  0.00     0.005 A 
ATOM     19  C   UNL     1      -2.328  -0.568   0.060  1.00  0.00     0.069 C 
ATOM     20  C   UNL     1      -0.924  -0.091   0.018  1.00  0.00     0.063 A 
ATOM     21  N   UNL     1      -0.670   1.208  -0.172  1.00  0.00    -0.181 NA
ATOM     22  N   UNL     1       0.654   1.261  -0.349  1.00  0.00    -0.282 N 
ATOM     23  C   UNL     1       1.256   0.036  -0.322  1.00  0.00     0.036 A 
ATOM     24  H   UNL     1       1.148   2.102  -0.485  1.00  0.00     0.190 HD
ATOM     25  C   UNL     1       2.682  -0.141  -0.702  1.00  0.00     0.066 C 
ENDBRANCH  17  18
ENDBRANCH  15  17
ENDBRANCH  10  15
ENDBRANCH   7   9
ENDBRANCH   6   7
ENDBRANCH   5   6
ENDBRANCH   4   5
ENDBRANCH   3   4
ENDBRANCH   2   3
ENDBRANCH   1   2
BRANCH   1  26
ATOM     26  O   UNL     1      -3.574  -1.201   3.642  1.00  0.00    -0.377 OA
BRANCH  26  27
ATOM     27  C   UNL     1      -4.776  -1.551   2.982  1.00  0.00     0.188 C 
BRANCH  27  28
ATOM     28  C   UNL     1      -5.515  -2.792   3.510  1.00  0.00     0.188 C 
BRANCH  28  29
ATOM     29  O   UNL     1      -4.681  -3.929   3.615  1.00  0.00    -0.376 OA
BRANCH  29  30
ATOM     30  C   UNL     1      -4.601  -4.923   2.615  1.00  0.00     0.202 C 
BRANCH  30  31
ATOM     31  C   UNL     1      -4.382  -4.614   1.123  1.00  0.00     0.261 C 
BRANCH  31  32
ATOM     32  O   UNL     1      -4.840  -3.357   0.621  1.00  0.00    -0.460 OA
BRANCH  32  33
ATOM     33  C   UNL     1      -6.153  -3.243   0.342  1.00  0.00     0.338 C 
ATOM     34  O   UNL     1      -7.014  -4.097   0.484  1.00  0.00    -0.246 OA
BRANCH  33  35
ATOM     35  C   UNL     1      -6.423  -1.827   0.019  1.00  0.00     0.060 A 
ATOM     36  C   UNL     1      -7.292  -1.108   0.850  1.00  0.00     0.016 A 
ATOM     37  C   UNL     1      -5.809  -1.203  -1.071  1.00  0.00     0.016 A 
ATOM     38  C   UNL     1      -7.574   0.229   0.579  1.00  0.00     0.010 A 
ATOM     39  C   UNL     1      -6.117   0.130  -1.361  1.00  0.00     0.010 A 
ATOM     40  C   UNL     1      -7.029   0.838  -0.558  1.00  0.00    -0.014 A 
BRANCH  40  41
ATOM     41  C   UNL     1      -7.601   2.122  -1.027  1.00  0.00     0.031 A 
ATOM     42  C   UNL     1      -8.666   2.070  -2.089  1.00  0.00     0.074 A 
ATOM     43  C   UNL     1      -7.234   3.298  -0.490  1.00  0.00     0.049 A 
ATOM     44  N   UNL     1      -9.296   3.050  -2.684  1.00  0.00    -0.248 NA
ATOM     45  C   UNL     1      -9.079   0.728  -2.536  1.00  0.00     0.031 C 
ATOM     46  C   UNL     1      -6.260   3.474   0.585  1.00  0.00     0.029 A 
ATOM     47  N   UNL     1      -7.644   4.574  -0.788  1.00  0.00    -0.354 N 
ATOM     48  C   UNL     1     -10.174   2.443  -3.574  1.00  0.00     0.074 A 
ATOM     49  C   UNL     1      -9.971   1.016  -3.470  1.00  0.00     0.031 C 
ATOM     50  C   UNL     1      -6.134   4.787   0.846  1.00  0.00     0.029 A 
ATOM     51  C   UNL     1      -6.991   5.543  -0.067  1.00  0.00     0.049 A 
ATOM     52  H   UNL     1      -8.341   4.775  -1.454  1.00  0.00     0.167 HD
ATOM     53  C   UNL     1     -11.078   3.021  -4.398  1.00  0.00     0.031 A 
ATOM     54  C   UNL     1      -7.056   6.886  -0.160  1.00  0.00     0.031 A 
ATOM     55  C   UNL     1     -11.261   4.442  -4.521  1.00  0.00     0.049 A 
ATOM     56  C   UNL     1      -7.994   7.509  -1.163  1.00  0.00     0.074 A 
ATOM     57  C   UNL     1     -12.137   5.130  -5.340  1.00  0.00     0.029 A 
ATOM     58  N   UNL     1     -10.548   5.391  -3.805  1.00  0.00    -0.354 N 
ATOM     59  N   UNL     1      -8.827   6.928  -1.994  1.00  0.00    -0.248 NA
ATOM     60  C   UNL     1      -8.008   8.978  -1.233  1.00  0.00     0.031 C 
ATOM     61  C   UNL     1     -11.913   6.499  -5.162  1.00  0.00     0.029 A 
ATOM     62  C   UNL     1     -10.949   6.661  -4.180  1.00  0.00     0.049 A 
ATOM     63  H   UNL     1      -9.859   5.191  -3.131  1.00  0.00     0.167 HD
ATOM     64  C   UNL     1      -9.483   7.958  -2.659  1.00  0.00     0.074 A 
ATOM     65  C   UNL     1      -8.967   9.199  -2.121  1.00  0.00     0.031 C 
ATOM     66  C   UNL     1     -10.428   7.885  -3.628  1.00  0.00     0.031 A 
BRANCH  53  67
ATOM     67  C   UNL     1     -11.913   2.112  -5.255  1.00  0.00    -0.014 A 
ATOM     68  C   UNL     1     -12.911   1.297  -4.695  1.00  0.00     0.009 A 
ATOM     69  C   UNL     1     -11.720   2.090  -6.645  1.00  0.00     0.009 A 
ATOM     70  C   UNL     1     -13.676   0.457  -5.507  1.00  0.00     0.001 A 
ATOM     71  C   UNL     1     -12.507   1.273  -7.457  1.00  0.00     0.001 A 
ATOM     72  C   UNL     1     -13.478   0.451  -6.887  1.00  0.00     0.000 A 
ENDBRANCH  53  67
BRANCH  54  73
ATOM     73  C   UNL     1      -6.175   7.742   0.682  1.00  0.00    -0.014 A 
ATOM     74  C   UNL     1      -6.713   8.601   1.653  1.00  0.00     0.009 A 
ATOM     75  C   UNL     1      -4.785   7.737   0.481  1.00  0.00     0.009 A 
ATOM     76  C   UNL     1      -5.882   9.463   2.375  1.00  0.00     0.001 A 
ATOM     77  C   UNL     1      -3.954   8.572   1.228  1.00  0.00     0.001 A 
ATOM     78  C   UNL     1      -4.504   9.445   2.165  1.00  0.00     0.000 A 
ENDBRANCH  54  73
BRANCH  66  79
ATOM     79  C   UNL     1     -11.004   9.180  -4.135  1.00  0.00    -0.014 A 
ATOM     80  C   UNL     1     -10.249  10.061  -4.925  1.00  0.00     0.009 A 
ATOM     81  C   UNL     1     -12.342   9.498  -3.853  1.00  0.00     0.009 A 
ATOM     82  C   UNL     1     -10.813  11.251  -5.390  1.00  0.00     0.001 A 
ATOM     83  C   UNL     1     -12.914  10.671  -4.348  1.00  0.00     0.001 A 
ATOM     84  C   UNL     1     -12.145  11.552  -5.107  1.00  0.00     0.000 A 
ENDBRANCH  66  79
ENDBRANCH  40  41
ENDBRANCH  33  35
ENDBRANCH  32  33
ENDBRANCH  31  32
ENDBRANCH  30  31
ENDBRANCH  29  30
ENDBRANCH  28  29
ENDBRANCH  27  28
ENDBRANCH  26  27
ENDBRANCH   1  26
TORSDOF 23
