REMARK SMILES Cc1noc(-c2cc(=O)n(CC(=O)OCCOCCOCCOCCOC(=O)c3ccc(-c4c5nc(c(-c6ccccc6)c6ccc([nH]6)c(-c6ccccc6)c6nc(c(-c7ccccc7)c7ccc4[nH]7)C=C6)C=C5)cc3)c3ccccc23)n1
REMARK SMILES IDX 20 1 19 2 18 3 17 4 16 5 15 6 14 7 12 8 13 9 11 10 10 11
REMARK SMILES IDX 6 12 7 13 82 14 8 15 77 16 81 17 9 18 78 19 80 20 79 21 5 22
REMARK SMILES IDX 1 23 2 24 3 25 83 26 4 27 21 28 22 29 23 30 24 31 25 32
REMARK SMILES IDX 26 33 27 34 28 35 29 36 30 37 76 38 31 39 75 40 32 41 33 42
REMARK SMILES IDX 34 43 69 44 35 45 74 46 68 47 70 48 36 49 73 50 67 51 66 52
REMARK SMILES IDX 37 54 59 55 44 56 58 57 45 58 48 59 57 60 71 61 46 62 47 63
REMARK SMILES IDX 56 65 72 66 49 67 38 68 39 69 43 70 40 71 42 72 41 73 60 74
REMARK SMILES IDX 61 75 65 76 62 77 64 78 63 79 50 80 51 81 55 82 52 83 54 84
REMARK SMILES IDX 53 85
REMARK H PARENT 70 53 48 64
REMARK Flexibility Score: inf
ROOT
ATOM      1  O   UNL     1       2.937   6.370  -0.447  1.00  0.00    -0.377 OA
ENDROOT
BRANCH   1   2
ATOM      2  C   UNL     1       3.869   6.322   0.611  1.00  0.00     0.188 C 
BRANCH   2   3
ATOM      3  C   UNL     1       4.935   7.416   0.680  1.00  0.00     0.188 C 
BRANCH   3   4
ATOM      4  O   UNL     1       4.888   8.492  -0.236  1.00  0.00    -0.376 OA
BRANCH   4   5
ATOM      5  C   UNL     1       4.619   8.212  -1.605  1.00  0.00     0.202 C 
BRANCH   5   6
ATOM      6  C   UNL     1       5.415   7.098  -2.318  1.00  0.00     0.261 C 
BRANCH   6   7
ATOM      7  O   UNL     1       5.257   5.757  -1.779  1.00  0.00    -0.462 OA
BRANCH   7   8
ATOM      8  C   UNL     1       6.397   5.081  -1.480  1.00  0.00     0.326 C 
ATOM      9  O   UNL     1       7.523   5.545  -1.659  1.00  0.00    -0.250 OA
BRANCH   8  10
ATOM     10  C   UNL     1       6.228   3.701  -0.800  1.00  0.00     0.248 C 
BRANCH  10  11
ATOM     11  N   UNL     1       4.939   3.026  -0.574  1.00  0.00    -0.297 N 
ATOM     12  C   UNL     1       2.520   1.518  -0.323  1.00  0.00     0.055 A 
ATOM     13  C   UNL     1       3.165   1.598  -1.495  1.00  0.00     0.086 A 
ATOM     14  C   UNL     1       3.090   2.228   0.839  1.00  0.00     0.011 A 
ATOM     15  C   UNL     1       4.390   2.403  -1.686  1.00  0.00     0.252 A 
ATOM     16  C   UNL     1       4.327   2.898   0.724  1.00  0.00     0.053 A 
ATOM     17  C   UNL     1       2.415   2.200   2.078  1.00  0.00     0.011 A 
ATOM     18  O   UNL     1       4.885   2.451  -2.810  1.00  0.00    -0.269 OA
ATOM     19  C   UNL     1       4.886   3.447   1.894  1.00  0.00     0.027 A 
ATOM     20  C   UNL     1       2.962   2.800   3.207  1.00  0.00     0.001 A 
ATOM     21  C   UNL     1       4.203   3.412   3.117  1.00  0.00     0.002 A 
BRANCH  12  22
ATOM     22  C   UNL     1       1.340   0.708  -0.293  1.00  0.00     0.258 A 
ATOM     23  C   UNL     1      -2.114  -0.015  -0.035  1.00  0.00     0.093 C 
ATOM     24  C   UNL     1      -0.643  -0.019  -0.147  1.00  0.00     0.169 A 
ATOM     25  N   UNL     1       0.069  -1.138  -0.294  1.00  0.00    -0.062 NA
ATOM     26  N   UNL     1       0.097   1.132  -0.124  1.00  0.00    -0.192 NA
ATOM     27  O   UNL     1       1.377  -0.671  -0.399  1.00  0.00    -0.334 OA
ENDBRANCH  12  22
ENDBRANCH  10  11
ENDBRANCH   8  10
ENDBRANCH   7   8
ENDBRANCH   6   7
ENDBRANCH   5   6
ENDBRANCH   4   5
ENDBRANCH   3   4
ENDBRANCH   2   3
ENDBRANCH   1   2
BRANCH   1  28
ATOM     28  C   UNL     1       1.616   6.816  -0.201  1.00  0.00     0.188 C 
BRANCH  28  29
ATOM     29  C   UNL     1       1.408   7.793   0.957  1.00  0.00     0.188 C 
BRANCH  29  30
ATOM     30  O   UNL     1       1.588   7.300   2.287  1.00  0.00    -0.376 OA
BRANCH  30  31
ATOM     31  C   UNL     1       1.243   5.947   2.591  1.00  0.00     0.202 C 
BRANCH  31  32
ATOM     32  C   UNL     1      -0.215   5.708   2.950  1.00  0.00     0.261 C 
BRANCH  32  33
ATOM     33  O   UNL     1      -0.971   5.563   1.742  1.00  0.00    -0.460 OA
BRANCH  33  34
ATOM     34  C   UNL     1      -1.670   6.651   1.358  1.00  0.00     0.338 C 
ATOM     35  O   UNL     1      -1.883   7.662   2.006  1.00  0.00    -0.246 OA
BRANCH  34  36
ATOM     36  C   UNL     1      -1.962   6.522  -0.083  1.00  0.00     0.060 A 
ATOM     37  C   UNL     1      -2.242   5.282  -0.668  1.00  0.00     0.016 A 
ATOM     38  C   UNL     1      -1.922   7.685  -0.861  1.00  0.00     0.016 A 
ATOM     39  C   UNL     1      -2.538   5.219  -2.028  1.00  0.00     0.010 A 
ATOM     40  C   UNL     1      -2.216   7.622  -2.219  1.00  0.00     0.010 A 
ATOM     41  C   UNL     1      -2.566   6.395  -2.796  1.00  0.00    -0.014 A 
BRANCH  41  42
ATOM     42  C   UNL     1      -3.198   6.386  -4.131  1.00  0.00     0.031 A 
ATOM     43  C   UNL     1      -2.396   6.440  -5.388  1.00  0.00     0.074 A 
ATOM     44  C   UNL     1      -4.544   6.377  -4.162  1.00  0.00     0.049 A 
ATOM     45  N   UNL     1      -2.821   6.400  -6.624  1.00  0.00    -0.248 NA
ATOM     46  C   UNL     1      -0.937   6.559  -5.251  1.00  0.00     0.031 C 
ATOM     47  C   UNL     1      -5.404   6.360  -2.975  1.00  0.00     0.029 A 
ATOM     48  N   UNL     1      -5.423   6.379  -5.211  1.00  0.00    -0.354 N 
ATOM     49  C   UNL     1      -1.685   6.471  -7.416  1.00  0.00     0.074 A 
ATOM     50  C   UNL     1      -0.553   6.601  -6.522  1.00  0.00     0.031 C 
ATOM     51  C   UNL     1      -6.685   6.321  -3.362  1.00  0.00     0.029 A 
ATOM     52  C   UNL     1      -6.739   6.351  -4.819  1.00  0.00     0.049 A 
ATOM     53  H   UNL     1      -5.140   6.399  -6.154  1.00  0.00     0.167 HD
ATOM     54  C   UNL     1      -1.609   6.417  -8.767  1.00  0.00     0.031 A 
ATOM     55  C   UNL     1      -7.869   6.349  -5.551  1.00  0.00     0.031 A 
ATOM     56  C   UNL     1      -2.760   6.318  -9.631  1.00  0.00     0.049 A 
ATOM     57  C   UNL     1      -7.753   6.333  -7.046  1.00  0.00     0.074 A 
ATOM     58  C   UNL     1      -2.787   6.218 -11.011  1.00  0.00     0.029 A 
ATOM     59  N   UNL     1      -4.080   6.322  -9.204  1.00  0.00    -0.354 N 
ATOM     60  N   UNL     1      -6.670   6.313  -7.784  1.00  0.00    -0.248 NA
ATOM     61  C   UNL     1      -9.006   6.320  -7.811  1.00  0.00     0.031 C 
ATOM     62  C   UNL     1      -4.121   6.243 -11.423  1.00  0.00     0.029 A 
ATOM     63  C   UNL     1      -4.930   6.266 -10.297  1.00  0.00     0.049 A 
ATOM     64  H   UNL     1      -4.370   6.359  -8.264  1.00  0.00     0.167 HD
ATOM     65  C   UNL     1      -7.107   6.264  -9.100  1.00  0.00     0.074 A 
ATOM     66  C   UNL     1      -8.555   6.236  -9.056  1.00  0.00     0.031 C 
ATOM     67  C   UNL     1      -6.372   6.245 -10.238  1.00  0.00     0.031 A 
BRANCH  54  68
ATOM     68  C   UNL     1      -0.249   6.456  -9.410  1.00  0.00    -0.014 A 
ATOM     69  C   UNL     1       0.102   7.529 -10.247  1.00  0.00     0.009 A 
ATOM     70  C   UNL     1       0.637   5.374  -9.293  1.00  0.00     0.009 A 
ATOM     71  C   UNL     1       1.296   7.507 -10.970  1.00  0.00     0.001 A 
ATOM     72  C   UNL     1       1.847   5.369  -9.993  1.00  0.00     0.001 A 
ATOM     73  C   UNL     1       2.169   6.428 -10.840  1.00  0.00     0.000 A 
ENDBRANCH  54  68
BRANCH  55  74
ATOM     74  C   UNL     1      -9.182   6.308  -4.855  1.00  0.00    -0.014 A 
ATOM     75  C   UNL     1      -9.607   7.388  -4.062  1.00  0.00     0.009 A 
ATOM     76  C   UNL     1      -9.976   5.153  -4.903  1.00  0.00     0.009 A 
ATOM     77  C   UNL     1     -10.778   7.300  -3.308  1.00  0.00     0.001 A 
ATOM     78  C   UNL     1     -11.167   5.082  -4.175  1.00  0.00     0.001 A 
ATOM     79  C   UNL     1     -11.560   6.149  -3.369  1.00  0.00     0.000 A 
ENDBRANCH  55  74
BRANCH  67  80
ATOM     80  C   UNL     1      -7.109   6.185 -11.549  1.00  0.00    -0.014 A 
ATOM     81  C   UNL     1      -6.983   5.050 -12.367  1.00  0.00     0.009 A 
ATOM     82  C   UNL     1      -7.827   7.291 -12.028  1.00  0.00     0.009 A 
ATOM     83  C   UNL     1      -7.536   5.034 -13.648  1.00  0.00     0.001 A 
ATOM     84  C   UNL     1      -8.410   7.258 -13.296  1.00  0.00     0.001 A 
ATOM     85  C   UNL     1      -8.252   6.137 -14.110  1.00  0.00     0.000 A 
ENDBRANCH  67  80
ENDBRANCH  41  42
ENDBRANCH  34  36
ENDBRANCH  33  34
ENDBRANCH  32  33
ENDBRANCH  31  32
ENDBRANCH  30  31
ENDBRANCH  29  30
ENDBRANCH  28  29
ENDBRANCH   1  28
TORSDOF 22
