REMARK SMILES CCn1cccc1C(=O)N(C)c1snc(C)c1C(=O)OCCOCCOCCOCCOC(=O)c1ccc(-c2c3nc(c(-c4ccccc4)c4ccc([nH]4)c(-c4ccccc4)c4nc(c(-c5ccccc5)c5ccc2[nH]5)C=C4)C=C3)cc1
REMARK SMILES IDX 25 1 24 2 23 3 22 4 21 5 20 6 18 7 19 8 17 9 12 10 13 11
REMARK SMILES IDX 14 12 15 13 16 14 10 15 11 16 8 17 9 18 7 19 3 20 4 21 5 22
REMARK SMILES IDX 6 23 2 24 1 25 26 26 27 27 28 28 29 29 30 30 31 31 32 32
REMARK SMILES IDX 33 33 34 34 35 35 36 36 82 37 37 38 81 39 38 40 39 41 40 42
REMARK SMILES IDX 75 43 41 44 80 45 74 46 76 47 42 48 79 49 73 50 72 51 43 53
REMARK SMILES IDX 65 54 50 55 64 56 51 57 54 58 63 59 77 60 52 61 53 62 62 64
REMARK SMILES IDX 78 65 55 66 44 67 45 68 49 69 46 70 48 71 47 72 66 73 67 74
REMARK SMILES IDX 71 75 68 76 70 77 69 78 56 79 57 80 61 81 58 82 60 83 59 84
REMARK H PARENT 76 52 54 63
REMARK Flexibility Score: inf
ROOT
ATOM      1  C   UNL     1       2.291  -1.248   6.386  1.00  0.00     0.188 C 
ENDROOT
BRANCH   1   2
ATOM      2  C   UNL     1       3.223  -0.532   7.399  1.00  0.00     0.188 C 
BRANCH   2   3
ATOM      3  O   UNL     1       2.742   0.710   7.868  1.00  0.00    -0.376 OA
BRANCH   3   4
ATOM      4  C   UNL     1       3.359   1.923   7.508  1.00  0.00     0.202 C 
BRANCH   4   5
ATOM      5  C   UNL     1       3.475   2.262   6.020  1.00  0.00     0.261 C 
BRANCH   5   6
ATOM      6  O   UNL     1       3.710   1.140   5.169  1.00  0.00    -0.460 OA
BRANCH   6   7
ATOM      7  C   UNL     1       5.009   0.733   5.026  1.00  0.00     0.343 C 
ATOM      8  O   UNL     1       5.946   1.240   5.598  1.00  0.00    -0.246 OA
BRANCH   7   9
ATOM      9  C   UNL     1       5.086  -0.533   4.292  1.00  0.00     0.117 A 
ATOM     10  C   UNL     1       4.289  -0.937   3.219  1.00  0.00     0.133 A 
ATOM     11  S   UNL     1       4.802  -2.514   2.760  1.00  0.00    -0.017 S 
ATOM     12  N   UNL     1       5.821  -2.769   4.014  1.00  0.00    -0.195 NA
ATOM     13  C   UNL     1       5.864  -1.671   4.767  1.00  0.00     0.068 A 
ATOM     14  C   UNL     1       6.597  -1.805   6.063  1.00  0.00     0.069 C 
BRANCH  10  15
ATOM     15  N   UNL     1       3.196  -0.362   2.505  1.00  0.00    -0.300 N 
ATOM     16  C   UNL     1       2.137  -1.220   2.019  1.00  0.00     0.154 C 
BRANCH  15  17
ATOM     17  C   UNL     1       3.201   1.045   2.339  1.00  0.00     0.275 C 
ATOM     18  O   UNL     1       4.297   1.613   2.467  1.00  0.00    -0.267 OA
BRANCH  17  19
ATOM     19  C   UNL     1       2.026   1.930   2.058  1.00  0.00     0.107 A 
ATOM     20  N   UNL     1       0.742   1.843   1.510  1.00  0.00    -0.344 N 
ATOM     21  C   UNL     1       0.181   3.109   1.403  1.00  0.00     0.086 A 
ATOM     22  C   UNL     1       1.035   4.029   1.933  1.00  0.00     0.020 A 
ATOM     23  C   UNL     1       2.161   3.304   2.348  1.00  0.00     0.033 A 
BRANCH  20  24
ATOM     24  C   UNL     1      -0.052   0.731   1.019  1.00  0.00     0.119 C 
ATOM     25  C   UNL     1       0.286   0.341  -0.413  1.00  0.00     0.027 C 
ENDBRANCH  20  24
ENDBRANCH  17  19
ENDBRANCH  15  17
ENDBRANCH  10  15
ENDBRANCH   7   9
ENDBRANCH   6   7
ENDBRANCH   5   6
ENDBRANCH   4   5
ENDBRANCH   3   4
ENDBRANCH   2   3
ENDBRANCH   1   2
BRANCH   1  26
ATOM     26  O   UNL     1       0.917  -0.919   6.181  1.00  0.00    -0.377 OA
BRANCH  26  27
ATOM     27  C   UNL     1       0.325   0.136   6.921  1.00  0.00     0.188 C 
BRANCH  27  28
ATOM     28  C   UNL     1       0.221  -0.066   8.446  1.00  0.00     0.188 C 
BRANCH  28  29
ATOM     29  O   UNL     1       1.085  -1.048   8.991  1.00  0.00    -0.376 OA
BRANCH  29  30
ATOM     30  C   UNL     1       0.751  -2.417   9.106  1.00  0.00     0.202 C 
BRANCH  30  31
ATOM     31  C   UNL     1      -0.127  -3.145   8.088  1.00  0.00     0.261 C 
BRANCH  31  32
ATOM     32  O   UNL     1      -1.241  -2.431   7.581  1.00  0.00    -0.460 OA
BRANCH  32  33
ATOM     33  C   UNL     1      -2.112  -2.076   8.538  1.00  0.00     0.338 C 
ATOM     34  O   UNL     1      -1.956  -2.054   9.745  1.00  0.00    -0.246 OA
BRANCH  33  35
ATOM     35  C   UNL     1      -3.410  -1.863   7.933  1.00  0.00     0.060 A 
ATOM     36  C   UNL     1      -4.237  -0.921   8.542  1.00  0.00     0.016 A 
ATOM     37  C   UNL     1      -3.881  -2.900   7.120  1.00  0.00     0.016 A 
ATOM     38  C   UNL     1      -5.593  -1.128   8.471  1.00  0.00     0.010 A 
ATOM     39  C   UNL     1      -5.233  -3.137   7.098  1.00  0.00     0.010 A 
ATOM     40  C   UNL     1      -6.072  -2.267   7.801  1.00  0.00    -0.014 A 
BRANCH  40  41
ATOM     41  C   UNL     1      -7.519  -2.360   7.611  1.00  0.00     0.031 A 
ATOM     42  C   UNL     1      -7.876  -1.504   6.376  1.00  0.00     0.074 A 
ATOM     43  C   UNL     1      -8.220  -3.050   8.572  1.00  0.00     0.049 A 
ATOM     44  N   UNL     1      -8.955  -0.840   6.144  1.00  0.00    -0.248 NA
ATOM     45  C   UNL     1      -6.874  -1.251   5.287  1.00  0.00     0.031 C 
ATOM     46  C   UNL     1      -7.615  -3.869   9.658  1.00  0.00     0.029 A 
ATOM     47  N   UNL     1      -9.563  -3.219   8.854  1.00  0.00    -0.354 N 
ATOM     48  C   UNL     1      -8.867  -0.297   4.846  1.00  0.00     0.074 A 
ATOM     49  C   UNL     1      -7.519  -0.471   4.417  1.00  0.00     0.031 C 
ATOM     50  C   UNL     1      -8.560  -4.345  10.507  1.00  0.00     0.029 A 
ATOM     51  C   UNL     1      -9.873  -3.905  10.072  1.00  0.00     0.049 A 
ATOM     52  H   UNL     1     -10.267  -2.886   8.252  1.00  0.00     0.167 HD
ATOM     53  C   UNL     1      -9.981   0.089   4.162  1.00  0.00     0.031 A 
ATOM     54  C   UNL     1     -11.094  -4.054  10.693  1.00  0.00     0.031 A 
ATOM     55  C   UNL     1     -11.110  -0.012   5.023  1.00  0.00     0.049 A 
ATOM     56  C   UNL     1     -12.054  -3.523   9.722  1.00  0.00     0.074 A 
ATOM     57  C   UNL     1     -11.439   0.677   6.163  1.00  0.00     0.029 A 
ATOM     58  N   UNL     1     -11.746  -1.232   5.013  1.00  0.00    -0.354 N 
ATOM     59  N   UNL     1     -12.442  -4.139   8.648  1.00  0.00    -0.248 NA
ATOM     60  C   UNL     1     -12.568  -2.161   9.920  1.00  0.00     0.031 C 
ATOM     61  C   UNL     1     -11.802  -0.364   7.038  1.00  0.00     0.029 A 
ATOM     62  C   UNL     1     -12.037  -1.538   6.313  1.00  0.00     0.049 A 
ATOM     63  H   UNL     1     -11.952  -1.779   4.221  1.00  0.00     0.167 HD
ATOM     64  C   UNL     1     -12.877  -3.092   7.880  1.00  0.00     0.074 A 
ATOM     65  C   UNL     1     -13.269  -2.038   8.796  1.00  0.00     0.031 C 
ATOM     66  C   UNL     1     -12.324  -2.904   6.653  1.00  0.00     0.031 A 
BRANCH  53  67
ATOM     67  C   UNL     1     -10.249   0.235   2.695  1.00  0.00    -0.014 A 
ATOM     68  C   UNL     1     -11.542   0.694   2.338  1.00  0.00     0.009 A 
ATOM     69  C   UNL     1      -9.489  -0.384   1.700  1.00  0.00     0.009 A 
ATOM     70  C   UNL     1     -12.113   0.397   1.103  1.00  0.00     0.001 A 
ATOM     71  C   UNL     1     -10.046  -0.637   0.438  1.00  0.00     0.001 A 
ATOM     72  C   UNL     1     -11.368  -0.290   0.158  1.00  0.00     0.000 A 
ENDBRANCH  53  67
BRANCH  54  73
ATOM     73  C   UNL     1     -11.748  -4.511  11.991  1.00  0.00    -0.014 A 
ATOM     74  C   UNL     1     -11.197  -5.310  12.993  1.00  0.00     0.009 A 
ATOM     75  C   UNL     1     -13.087  -4.076  12.256  1.00  0.00     0.009 A 
ATOM     76  C   UNL     1     -11.910  -5.570  14.197  1.00  0.00     0.001 A 
ATOM     77  C   UNL     1     -13.777  -4.285  13.454  1.00  0.00     0.001 A 
ATOM     78  C   UNL     1     -13.176  -5.029  14.442  1.00  0.00     0.000 A 
ENDBRANCH  54  73
BRANCH  66  79
ATOM     79  C   UNL     1     -11.758  -4.144   5.979  1.00  0.00    -0.014 A 
ATOM     80  C   UNL     1     -12.608  -5.241   5.760  1.00  0.00     0.009 A 
ATOM     81  C   UNL     1     -10.400  -4.313   5.648  1.00  0.00     0.009 A 
ATOM     82  C   UNL     1     -12.133  -6.455   5.249  1.00  0.00     0.001 A 
ATOM     83  C   UNL     1      -9.917  -5.535   5.140  1.00  0.00     0.001 A 
ATOM     84  C   UNL     1     -10.786  -6.605   4.940  1.00  0.00     0.000 A 
ENDBRANCH  66  79
ENDBRANCH  40  41
ENDBRANCH  33  35
ENDBRANCH  32  33
ENDBRANCH  31  32
ENDBRANCH  30  31
ENDBRANCH  29  30
ENDBRANCH  28  29
ENDBRANCH  27  28
ENDBRANCH  26  27
ENDBRANCH   1  26
TORSDOF 24
