REMARK SMILES COc1cc(OC)cc(-c2ccc([C@@H](C)C(=O)OCCOCCOCCOCCOC(=O)c3ccc(-c4c5nc(c(-c6ccccc6)c6ccc([nH]6)c(-c6ccccc6)c6nc(c(-c7ccccc7)c7ccc4[nH]7)C=C6)C=C5)cc3)cc2F)c1
REMARK SMILES IDX 23 1 22 2 21 3 20 4 19 5 18 6 16 7 17 8 14 9 15 10 13 11
REMARK SMILES IDX 10 12 11 13 82 14 12 15 81 16 83 17 9 18 3 19 4 20 84 21
REMARK SMILES IDX 5 22 8 23 2 24 1 25 6 26 7 27 24 28 25 29 26 30 27 31 28 32
REMARK SMILES IDX 29 33 30 34 31 35 32 36 33 37 34 38 80 39 35 40 79 41 36 42
REMARK SMILES IDX 37 43 38 44 73 45 39 46 78 47 72 48 74 49 40 50 77 51 71 52
REMARK SMILES IDX 70 53 41 55 63 56 48 57 62 58 49 59 52 60 61 61 75 62 50 63
REMARK SMILES IDX 51 64 60 66 76 67 53 68 42 69 43 70 47 71 44 72 46 73 45 74
REMARK SMILES IDX 64 75 65 76 69 77 66 78 68 79 67 80 54 81 55 82 59 83 56 84
REMARK SMILES IDX 58 85 57 86
REMARK H PARENT 74 54 52 65
REMARK Flexibility Score: inf
ROOT
ATOM      1  C   UNL     1       7.444   2.787   2.304  1.00  0.00     0.188 C 
ENDROOT
BRANCH   1   2
ATOM      2  C   UNL     1       8.955   2.536   2.398  1.00  0.00     0.188 C 
BRANCH   2   3
ATOM      3  O   UNL     1       9.636   2.646   3.640  1.00  0.00    -0.376 OA
BRANCH   3   4
ATOM      4  C   UNL     1       9.292   3.662   4.569  1.00  0.00     0.202 C 
BRANCH   4   5
ATOM      5  C   UNL     1       9.191   5.139   4.142  1.00  0.00     0.261 C 
BRANCH   5   6
ATOM      6  O   UNL     1       8.398   5.432   2.972  1.00  0.00    -0.463 OA
BRANCH   6   7
ATOM      7  C   UNL     1       9.082   5.774   1.855  1.00  0.00     0.313 C 
ATOM      8  O   UNL     1      10.308   5.864   1.814  1.00  0.00    -0.252 OA
BRANCH   7   9
ATOM      9  C   UNL     1       8.235   6.078   0.618  1.00  0.00     0.126 C 
ATOM     10  C   UNL     1       8.319   7.574   0.334  1.00  0.00     0.025 C 
BRANCH   9  11
ATOM     11  C   UNL     1       6.797   5.570   0.498  1.00  0.00    -0.031 A 
ATOM     12  C   UNL     1       4.140   4.519   0.184  1.00  0.00     0.018 A 
ATOM     13  C   UNL     1       4.481   5.364   1.257  1.00  0.00     0.012 A 
ATOM     14  C   UNL     1       5.162   4.204  -0.717  1.00  0.00     0.131 A 
ATOM     15  C   UNL     1       5.782   5.885   1.411  1.00  0.00     0.005 A 
ATOM     16  C   UNL     1       6.454   4.726  -0.580  1.00  0.00     0.044 A 
ATOM     17  F   UNL     1       4.915   3.402  -1.765  1.00  0.00    -0.206 F 
BRANCH  12  18
ATOM     18  C   UNL     1       2.742   4.095  -0.048  1.00  0.00    -0.008 A 
ATOM     19  C   UNL     1       1.021   2.408  -0.446  1.00  0.00     0.123 A 
ATOM     20  C   UNL     1       0.084   3.418  -0.666  1.00  0.00     0.092 A 
ATOM     21  C   UNL     1       2.349   2.744  -0.148  1.00  0.00     0.055 A 
ATOM     22  C   UNL     1       0.448   4.759  -0.580  1.00  0.00     0.123 A 
ATOM     23  C   UNL     1       1.764   5.087  -0.254  1.00  0.00     0.055 A 
BRANCH  19  24
ATOM     24  O   UNL     1       0.537   1.142  -0.635  1.00  0.00    -0.497 OA
ATOM     25  C   UNL     1       1.133   0.110   0.138  1.00  0.00     0.278 C 
ENDBRANCH  19  24
BRANCH  22  26
ATOM     26  O   UNL     1      -0.553   5.654  -0.840  1.00  0.00    -0.497 OA
ATOM     27  C   UNL     1      -0.149   6.997  -1.079  1.00  0.00     0.278 C 
ENDBRANCH  22  26
ENDBRANCH  12  18
ENDBRANCH   9  11
ENDBRANCH   7   9
ENDBRANCH   6   7
ENDBRANCH   5   6
ENDBRANCH   4   5
ENDBRANCH   3   4
ENDBRANCH   2   3
ENDBRANCH   1   2
BRANCH   1  28
ATOM     28  O   UNL     1       6.839   3.311   3.468  1.00  0.00    -0.377 OA
BRANCH  28  29
ATOM     29  C   UNL     1       6.130   2.395   4.287  1.00  0.00     0.188 C 
BRANCH  29  30
ATOM     30  C   UNL     1       6.720   0.982   4.442  1.00  0.00     0.188 C 
BRANCH  30  31
ATOM     31  O   UNL     1       6.998   0.333   3.208  1.00  0.00    -0.376 OA
BRANCH  31  32
ATOM     32  C   UNL     1       6.025  -0.544   2.659  1.00  0.00     0.202 C 
BRANCH  32  33
ATOM     33  C   UNL     1       4.687   0.056   2.189  1.00  0.00     0.261 C 
BRANCH  33  34
ATOM     34  O   UNL     1       3.897   0.739   3.177  1.00  0.00    -0.460 OA
BRANCH  34  35
ATOM     35  C   UNL     1       3.538   0.055   4.280  1.00  0.00     0.338 C 
ATOM     36  O   UNL     1       3.729  -1.131   4.502  1.00  0.00    -0.246 OA
BRANCH  35  37
ATOM     37  C   UNL     1       3.048   1.018   5.290  1.00  0.00     0.060 A 
ATOM     38  C   UNL     1       3.699   1.073   6.530  1.00  0.00     0.016 A 
ATOM     39  C   UNL     1       1.952   1.846   5.034  1.00  0.00     0.016 A 
ATOM     40  C   UNL     1       3.225   1.916   7.534  1.00  0.00     0.010 A 
ATOM     41  C   UNL     1       1.462   2.675   6.052  1.00  0.00     0.010 A 
ATOM     42  C   UNL     1       2.072   2.682   7.320  1.00  0.00    -0.014 A 
BRANCH  42  43
ATOM     43  C   UNL     1       1.408   3.318   8.485  1.00  0.00     0.031 A 
ATOM     44  C   UNL     1       0.251   2.603   9.132  1.00  0.00     0.074 A 
ATOM     45  C   UNL     1       1.864   4.469   9.011  1.00  0.00     0.049 A 
ATOM     46  N   UNL     1      -0.456   2.943  10.180  1.00  0.00    -0.248 NA
ATOM     47  C   UNL     1      -0.160   1.331   8.515  1.00  0.00     0.031 C 
ATOM     48  C   UNL     1       3.009   5.232   8.517  1.00  0.00     0.029 A 
ATOM     49  N   UNL     1       1.418   5.190  10.091  1.00  0.00    -0.354 N 
ATOM     50  C   UNL     1      -1.394   1.931  10.345  1.00  0.00     0.074 A 
ATOM     51  C   UNL     1      -1.190   0.984   9.271  1.00  0.00     0.031 C 
ATOM     52  C   UNL     1       3.177   6.315   9.296  1.00  0.00     0.029 A 
ATOM     53  C   UNL     1       2.135   6.338  10.321  1.00  0.00     0.049 A 
ATOM     54  H   UNL     1       0.655   4.910  10.647  1.00  0.00     0.167 HD
ATOM     55  C   UNL     1      -2.336   1.793  11.309  1.00  0.00     0.031 A 
ATOM     56  C   UNL     1       1.962   7.303  11.246  1.00  0.00     0.031 A 
ATOM     57  C   UNL     1      -2.557   2.743  12.367  1.00  0.00     0.049 A 
ATOM     58  C   UNL     1       0.848   7.173  12.252  1.00  0.00     0.074 A 
ATOM     59  C   UNL     1      -3.484   2.691  13.393  1.00  0.00     0.029 A 
ATOM     60  N   UNL     1      -1.850   3.925  12.526  1.00  0.00    -0.354 N 
ATOM     61  N   UNL     1      -0.016   6.199  12.413  1.00  0.00    -0.248 NA
ATOM     62  C   UNL     1       0.695   8.274  13.213  1.00  0.00     0.031 C 
ATOM     63  C   UNL     1      -3.383   3.873  14.134  1.00  0.00     0.029 A 
ATOM     64  C   UNL     1      -2.341   4.626  13.616  1.00  0.00     0.049 A 
ATOM     65  H   UNL     1      -1.109   4.222  11.951  1.00  0.00     0.167 HD
ATOM     66  C   UNL     1      -0.791   6.555  13.511  1.00  0.00     0.074 A 
ATOM     67  C   UNL     1      -0.280   7.823  13.989  1.00  0.00     0.031 C 
ATOM     68  C   UNL     1      -1.831   5.892  14.076  1.00  0.00     0.031 A 
BRANCH  55  69
ATOM     69  C   UNL     1      -3.230   0.585  11.234  1.00  0.00    -0.014 A 
ATOM     70  C   UNL     1      -2.741  -0.707  11.489  1.00  0.00     0.009 A 
ATOM     71  C   UNL     1      -4.590   0.746  10.928  1.00  0.00     0.009 A 
ATOM     72  C   UNL     1      -3.589  -1.815  11.402  1.00  0.00     0.001 A 
ATOM     73  C   UNL     1      -5.442  -0.359  10.874  1.00  0.00     0.001 A 
ATOM     74  C   UNL     1      -4.939  -1.639  11.101  1.00  0.00     0.000 A 
ENDBRANCH  55  69
BRANCH  56  75
ATOM     75  C   UNL     1       2.853   8.495  11.261  1.00  0.00    -0.014 A 
ATOM     76  C   UNL     1       3.733   8.724  12.330  1.00  0.00     0.009 A 
ATOM     77  C   UNL     1       2.800   9.432  10.217  1.00  0.00     0.009 A 
ATOM     78  C   UNL     1       4.516   9.880  12.368  1.00  0.00     0.001 A 
ATOM     79  C   UNL     1       3.609  10.570  10.241  1.00  0.00     0.001 A 
ATOM     80  C   UNL     1       4.458  10.799  11.322  1.00  0.00     0.000 A 
ENDBRANCH  56  75
BRANCH  68  81
ATOM     81  C   UNL     1      -2.457   6.507  15.300  1.00  0.00    -0.014 A 
ATOM     82  C   UNL     1      -3.198   7.698  15.228  1.00  0.00     0.009 A 
ATOM     83  C   UNL     1      -2.317   5.873  16.545  1.00  0.00     0.009 A 
ATOM     84  C   UNL     1      -3.739   8.265  16.385  1.00  0.00     0.001 A 
ATOM     85  C   UNL     1      -2.890   6.422  17.692  1.00  0.00     0.001 A 
ATOM     86  C   UNL     1      -3.588   7.625  17.614  1.00  0.00     0.000 A 
ENDBRANCH  68  81
ENDBRANCH  42  43
ENDBRANCH  35  37
ENDBRANCH  34  35
ENDBRANCH  33  34
ENDBRANCH  32  33
ENDBRANCH  31  32
ENDBRANCH  30  31
ENDBRANCH  29  30
ENDBRANCH  28  29
ENDBRANCH   1  28
TORSDOF 24
