REMARK SMILES CC(C)N(CC1CC[NH2+]CC1)S(=O)(=O)[C@H](C)C(=O)OCCOCCOCCOCCOC(=O)c1ccc(-c2c3nc(c(-c4ccccc4)c4ccc([nH]4)c(-c4ccccc4)c4nc(c(-c5ccccc5)c5ccc2[nH]5)C=C4)C=C3)cc1
REMARK SMILES IDX 24 1 23 2 22 3 21 4 20 5 19 6 17 7 18 8 15 9 16 10 12 11
REMARK SMILES IDX 13 12 14 13 4 14 2 15 1 16 3 17 5 18 6 19 7 20 11 21 8 22
REMARK SMILES IDX 10 23 9 24 25 27 26 28 27 29 28 30 29 31 30 32 31 33 32 34
REMARK SMILES IDX 33 35 34 36 35 37 81 38 36 39 80 40 37 41 38 42 39 43 74 44
REMARK SMILES IDX 40 45 79 46 73 47 75 48 41 49 78 50 72 51 71 52 42 54 64 55
REMARK SMILES IDX 49 56 63 57 50 58 53 59 62 60 76 61 51 62 52 63 61 65 77 66
REMARK SMILES IDX 54 67 43 68 44 69 48 70 45 71 47 72 46 73 65 74 66 75 70 76
REMARK SMILES IDX 67 77 69 78 68 79 55 80 56 81 60 82 57 83 59 84 58 85
REMARK H PARENT 9 25 9 26 75 53 53 64
REMARK Flexibility Score: inf
ROOT
ATOM      1  C   UNL     1      -2.087   3.468   2.420  1.00  0.00     0.188 C 
ENDROOT
BRANCH   1   2
ATOM      2  C   UNL     1      -3.330   4.336   2.671  1.00  0.00     0.188 C 
BRANCH   2   3
ATOM      3  O   UNL     1      -3.901   4.124   3.943  1.00  0.00    -0.376 OA
BRANCH   3   4
ATOM      4  C   UNL     1      -4.918   3.178   4.160  1.00  0.00     0.202 C 
BRANCH   4   5
ATOM      5  C   UNL     1      -4.943   1.799   3.500  1.00  0.00     0.261 C 
BRANCH   5   6
ATOM      6  O   UNL     1      -4.188   1.529   2.303  1.00  0.00    -0.462 OA
BRANCH   6   7
ATOM      7  C   UNL     1      -4.738   1.849   1.108  1.00  0.00     0.325 C 
ATOM      8  O   UNL     1      -5.811   2.433   1.022  1.00  0.00    -0.251 OA
BRANCH   7   9
ATOM      9  C   UNL     1      -3.886   1.471  -0.071  1.00  0.00     0.230 C 
ATOM     10  C   UNL     1      -2.395   1.143   0.034  1.00  0.00     0.039 C 
BRANCH   9  11
ATOM     11  S   UNL     1      -4.760   0.419  -1.218  1.00  0.00     0.227 S 
ATOM     12  O   UNL     1      -3.730  -0.095  -2.107  1.00  0.00    -0.211 OA
ATOM     13  O   UNL     1      -5.824   1.226  -1.785  1.00  0.00    -0.211 OA
BRANCH  11  14
ATOM     14  N   UNL     1      -5.516  -0.996  -0.572  1.00  0.00    -0.198 NA
BRANCH  14  15
ATOM     15  C   UNL     1      -6.436  -1.604  -1.729  1.00  0.00     0.066 C 
ATOM     16  C   UNL     1      -5.803  -1.608  -3.131  1.00  0.00     0.025 C 
ATOM     17  C   UNL     1      -6.855  -3.045  -1.465  1.00  0.00     0.025 C 
ENDBRANCH  14  15
BRANCH  14  18
ATOM     18  C   UNL     1      -6.335  -0.894   0.706  1.00  0.00     0.106 C 
BRANCH  18  19
ATOM     19  C   UNL     1      -6.015  -1.890   1.879  1.00  0.00     0.015 C 
ATOM     20  C   UNL     1      -4.884  -1.530   2.849  1.00  0.00     0.066 C 
ATOM     21  C   UNL     1      -5.748  -3.351   1.531  1.00  0.00     0.066 C 
ATOM     22  C   UNL     1      -3.503  -1.722   2.250  1.00  0.00     0.260 C 
ATOM     23  C   UNL     1      -4.364  -3.543   0.910  1.00  0.00     0.260 C 
ATOM     24  N   UNL     1      -3.299  -3.098   1.811  1.00  0.00    -0.346 N 
ATOM     25  H   UNL     1      -3.283  -3.707   2.630  1.00  0.00     0.346 HD
ATOM     26  H   UNL     1      -2.415  -3.142   1.305  1.00  0.00     0.346 HD
ENDBRANCH  18  19
ENDBRANCH  14  18
ENDBRANCH  11  14
ENDBRANCH   9  11
ENDBRANCH   7   9
ENDBRANCH   6   7
ENDBRANCH   5   6
ENDBRANCH   4   5
ENDBRANCH   3   4
ENDBRANCH   2   3
ENDBRANCH   1   2
BRANCH   1  27
ATOM     27  O   UNL     1      -1.036   3.444   3.363  1.00  0.00    -0.377 OA
BRANCH  27  28
ATOM     28  C   UNL     1      -1.426   3.165   4.696  1.00  0.00     0.188 C 
BRANCH  28  29
ATOM     29  C   UNL     1      -1.571   4.451   5.514  1.00  0.00     0.188 C 
BRANCH  29  30
ATOM     30  O   UNL     1      -1.505   5.691   4.837  1.00  0.00    -0.376 OA
BRANCH  30  31
ATOM     31  C   UNL     1      -0.441   6.058   3.971  1.00  0.00     0.202 C 
BRANCH  31  32
ATOM     32  C   UNL     1       0.920   5.344   3.791  1.00  0.00     0.261 C 
BRANCH  32  33
ATOM     33  O   UNL     1       1.255   4.244   4.633  1.00  0.00    -0.460 OA
BRANCH  33  34
ATOM     34  C   UNL     1       1.604   4.537   5.896  1.00  0.00     0.338 C 
ATOM     35  O   UNL     1       1.676   5.642   6.409  1.00  0.00    -0.246 OA
BRANCH  34  36
ATOM     36  C   UNL     1       1.706   3.260   6.628  1.00  0.00     0.060 A 
ATOM     37  C   UNL     1       0.903   3.085   7.760  1.00  0.00     0.016 A 
ATOM     38  C   UNL     1       2.576   2.248   6.209  1.00  0.00     0.016 A 
ATOM     39  C   UNL     1       1.001   1.919   8.507  1.00  0.00     0.010 A 
ATOM     40  C   UNL     1       2.702   1.089   6.981  1.00  0.00     0.010 A 
ATOM     41  C   UNL     1       1.946   0.947   8.157  1.00  0.00    -0.014 A 
BRANCH  41  42
ATOM     42  C   UNL     1       2.281  -0.075   9.172  1.00  0.00     0.031 A 
ATOM     43  C   UNL     1       3.444   0.190  10.088  1.00  0.00     0.074 A 
ATOM     44  C   UNL     1       1.497  -1.149   9.356  1.00  0.00     0.049 A 
ATOM     45  N   UNL     1       3.853  -0.489  11.128  1.00  0.00    -0.248 NA
ATOM     46  C   UNL     1       4.248   1.390   9.797  1.00  0.00     0.031 C 
ATOM     47  C   UNL     1       0.313  -1.480   8.564  1.00  0.00     0.029 A 
ATOM     48  N   UNL     1       1.571  -2.149  10.291  1.00  0.00    -0.354 N 
ATOM     49  C   UNL     1       4.957   0.201  11.615  1.00  0.00     0.074 A 
ATOM     50  C   UNL     1       5.177   1.328  10.738  1.00  0.00     0.031 C 
ATOM     51  C   UNL     1      -0.235  -2.606   9.055  1.00  0.00     0.029 A 
ATOM     52  C   UNL     1       0.571  -3.082  10.177  1.00  0.00     0.049 A 
ATOM     53  H   UNL     1       2.275  -2.194  10.978  1.00  0.00     0.167 HD
ATOM     54  C   UNL     1       5.715  -0.075  12.702  1.00  0.00     0.031 A 
ATOM     55  C   UNL     1       0.339  -4.195  10.898  1.00  0.00     0.031 A 
ATOM     56  C   UNL     1       5.507  -1.210  13.559  1.00  0.00     0.049 A 
ATOM     57  C   UNL     1       1.241  -4.519  12.059  1.00  0.00     0.074 A 
ATOM     58  C   UNL     1       6.216  -1.579  14.689  1.00  0.00     0.029 A 
ATOM     59  N   UNL     1       4.522  -2.169  13.373  1.00  0.00    -0.354 N 
ATOM     60  N   UNL     1       2.264  -3.844  12.530  1.00  0.00    -0.248 NA
ATOM     61  C   UNL     1       0.941  -5.751  12.801  1.00  0.00     0.031 C 
ATOM     62  C   UNL     1       5.702  -2.796  15.148  1.00  0.00     0.029 A 
ATOM     63  C   UNL     1       4.623  -3.145  14.350  1.00  0.00     0.049 A 
ATOM     64  H   UNL     1       3.851  -2.156  12.653  1.00  0.00     0.167 HD
ATOM     65  C   UNL     1       2.708  -4.553  13.640  1.00  0.00     0.074 A 
ATOM     66  C   UNL     1       1.828  -5.695  13.784  1.00  0.00     0.031 C 
ATOM     67  C   UNL     1       3.747  -4.283  14.470  1.00  0.00     0.031 A 
BRANCH  54  68
ATOM     68  C   UNL     1       6.869   0.846  12.989  1.00  0.00    -0.014 A 
ATOM     69  C   UNL     1       6.668   2.164  13.431  1.00  0.00     0.009 A 
ATOM     70  C   UNL     1       8.183   0.378  12.829  1.00  0.00     0.009 A 
ATOM     71  C   UNL     1       7.759   3.003  13.672  1.00  0.00     0.001 A 
ATOM     72  C   UNL     1       9.271   1.208  13.102  1.00  0.00     0.001 A 
ATOM     73  C   UNL     1       9.058   2.522  13.514  1.00  0.00     0.000 A 
ENDBRANCH  54  68
BRANCH  55  74
ATOM     74  C   UNL     1      -0.791  -5.092  10.540  1.00  0.00    -0.014 A 
ATOM     75  C   UNL     1      -1.893  -5.246  11.394  1.00  0.00     0.009 A 
ATOM     76  C   UNL     1      -0.758  -5.822   9.340  1.00  0.00     0.009 A 
ATOM     77  C   UNL     1      -2.923  -6.133  11.069  1.00  0.00     0.001 A 
ATOM     78  C   UNL     1      -1.803  -6.683   9.002  1.00  0.00     0.001 A 
ATOM     79  C   UNL     1      -2.879  -6.847   9.872  1.00  0.00     0.000 A 
ENDBRANCH  55  74
BRANCH  67  80
ATOM     80  C   UNL     1       3.957  -5.219  15.630  1.00  0.00    -0.014 A 
ATOM     81  C   UNL     1       4.383  -6.544  15.441  1.00  0.00     0.009 A 
ATOM     82  C   UNL     1       3.729  -4.762  16.938  1.00  0.00     0.009 A 
ATOM     83  C   UNL     1       4.519  -7.405  16.532  1.00  0.00     0.001 A 
ATOM     84  C   UNL     1       3.904  -5.613  18.030  1.00  0.00     0.001 A 
ATOM     85  C   UNL     1       4.282  -6.939  17.825  1.00  0.00     0.000 A 
ENDBRANCH  67  80
ENDBRANCH  41  42
ENDBRANCH  34  36
ENDBRANCH  33  34
ENDBRANCH  32  33
ENDBRANCH  31  32
ENDBRANCH  30  31
ENDBRANCH  29  30
ENDBRANCH  28  29
ENDBRANCH  27  28
ENDBRANCH   1  27
TORSDOF 25
