REMARK SMILES NS(=O)(=O)c1ccc(-c2coc(=O)n2-c2ccc(C(=O)OCCOCCOCCOCCOC(=O)c3ccc(-c4c5nc(c(-c6ccccc6)c6ccc([nH]6)c(-c6ccccc6)c6nc(c(-c7ccccc7)c7ccc4[nH]7)C=C6)C=C5)cc3)cc2)cc1
REMARK SMILES IDX 26 1 25 2 24 3 23 4 22 5 21 6 19 7 20 8 18 9 15 10 16 11
REMARK SMILES IDX 85 12 17 13 84 14 14 15 9 16 10 17 11 18 12 19 13 20 8 21
REMARK SMILES IDX 5 22 6 23 87 24 7 25 86 26 2 27 3 28 4 29 1 30 27 33 28 34
REMARK SMILES IDX 29 35 30 36 31 37 32 38 33 39 34 40 35 41 36 42 37 43 83 44
REMARK SMILES IDX 38 45 82 46 39 47 40 48 41 49 76 50 42 51 81 52 75 53 77 54
REMARK SMILES IDX 43 55 80 56 74 57 73 58 44 60 66 61 51 62 65 63 52 64 55 65
REMARK SMILES IDX 64 66 78 67 53 68 54 69 63 71 79 72 56 73 45 74 46 75 50 76
REMARK SMILES IDX 47 77 49 78 48 79 67 80 68 81 72 82 69 83 71 84 70 85 57 86
REMARK SMILES IDX 58 87 62 88 59 89 61 90 60 91
REMARK H PARENT 1 31 1 32 77 59 55 70
REMARK Flexibility Score: inf
ROOT
ATOM      1  C   UNL     1       8.406   5.859  -4.493  1.00  0.00     0.188 C 
ENDROOT
BRANCH   1   2
ATOM      2  C   UNL     1       9.294   4.977  -3.587  1.00  0.00     0.188 C 
BRANCH   2   3
ATOM      3  O   UNL     1      10.006   3.973  -4.274  1.00  0.00    -0.376 OA
BRANCH   3   4
ATOM      4  C   UNL     1       9.632   2.619  -4.210  1.00  0.00     0.202 C 
BRANCH   4   5
ATOM      5  C   UNL     1       8.171   2.187  -4.393  1.00  0.00     0.261 C 
BRANCH   5   6
ATOM      6  O   UNL     1       7.173   3.099  -3.932  1.00  0.00    -0.460 OA
BRANCH   6   7
ATOM      7  C   UNL     1       6.931   3.104  -2.603  1.00  0.00     0.338 C 
ATOM      8  O   UNL     1       7.459   2.405  -1.757  1.00  0.00    -0.246 OA
BRANCH   7   9
ATOM      9  C   UNL     1       6.051   4.255  -2.303  1.00  0.00     0.060 A 
ATOM     10  C   UNL     1       4.348   6.337  -1.572  1.00  0.00     0.053 A 
ATOM     11  C   UNL     1       5.562   6.172  -0.899  1.00  0.00     0.028 A 
ATOM     12  C   UNL     1       4.057   5.540  -2.692  1.00  0.00     0.028 A 
ATOM     13  C   UNL     1       6.393   5.104  -1.241  1.00  0.00     0.018 A 
ATOM     14  C   UNL     1       4.915   4.510  -3.072  1.00  0.00     0.018 A 
BRANCH  10  15
ATOM     15  N   UNL     1       3.334   7.129  -0.994  1.00  0.00    -0.242 N 
ATOM     16  C   UNL     1       2.066   6.723  -0.673  1.00  0.00     0.095 A 
ATOM     17  C   UNL     1       1.481   7.767  -0.100  1.00  0.00     0.228 A 
ATOM     18  O   UNL     1       2.296   8.894   0.005  1.00  0.00    -0.415 OA
ATOM     19  C   UNL     1       3.497   8.434  -0.541  1.00  0.00     0.424 A 
ATOM     20  O   UNL     1       4.503   9.128  -0.601  1.00  0.00    -0.223 OA
BRANCH  16  21
ATOM     21  C   UNL     1       1.574   5.348  -0.771  1.00  0.00     0.002 A 
ATOM     22  C   UNL     1       0.843   2.673  -1.153  1.00  0.00     0.082 A 
ATOM     23  C   UNL     1       1.946   2.973  -0.357  1.00  0.00     0.022 A 
ATOM     24  C   UNL     1       0.070   3.696  -1.715  1.00  0.00     0.022 A 
ATOM     25  C   UNL     1       2.298   4.308  -0.158  1.00  0.00     0.012 A 
ATOM     26  C   UNL     1       0.440   5.033  -1.526  1.00  0.00     0.012 A 
BRANCH  22  27
ATOM     27  S   UNL     1       0.415   0.992  -1.493  1.00  0.00     0.238 S 
ATOM     28  O   UNL     1       1.166   0.560  -2.641  1.00  0.00    -0.207 OA
ATOM     29  O   UNL     1      -1.025   0.859  -1.397  1.00  0.00    -0.207 OA
BRANCH  27  30
ATOM     30  N   UNL     1       1.023   0.133  -0.182  1.00  0.00    -0.225 NA
ATOM     31  H   UNL     1       0.817  -0.859  -0.300  1.00  0.00     0.137 HD
ATOM     32  H   UNL     1       0.589   0.471   0.677  1.00  0.00     0.137 HD
ENDBRANCH  27  30
ENDBRANCH  22  27
ENDBRANCH  16  21
ENDBRANCH  10  15
ENDBRANCH   7   9
ENDBRANCH   6   7
ENDBRANCH   5   6
ENDBRANCH   4   5
ENDBRANCH   3   4
ENDBRANCH   2   3
ENDBRANCH   1   2
BRANCH   1  33
ATOM     33  O   UNL     1       8.187   5.533  -5.856  1.00  0.00    -0.377 OA
BRANCH  33  34
ATOM     34  C   UNL     1       9.236   5.022  -6.667  1.00  0.00     0.188 C 
BRANCH  34  35
ATOM     35  C   UNL     1      10.731   5.395  -6.473  1.00  0.00     0.188 C 
BRANCH  35  36
ATOM     36  O   UNL     1      11.089   6.092  -5.298  1.00  0.00    -0.376 OA
BRANCH  36  37
ATOM     37  C   UNL     1      11.252   7.487  -5.168  1.00  0.00     0.202 C 
BRANCH  37  38
ATOM     38  C   UNL     1      10.410   8.504  -5.923  1.00  0.00     0.261 C 
BRANCH  38  39
ATOM     39  O   UNL     1       9.732   7.982  -7.037  1.00  0.00    -0.460 OA
BRANCH  39  40
ATOM     40  C   UNL     1      10.513   7.847  -8.123  1.00  0.00     0.338 C 
ATOM     41  O   UNL     1      11.724   7.962  -8.187  1.00  0.00    -0.246 OA
BRANCH  40  42
ATOM     42  C   UNL     1       9.633   7.659  -9.278  1.00  0.00     0.060 A 
ATOM     43  C   UNL     1      10.291   7.444 -10.485  1.00  0.00     0.016 A 
ATOM     44  C   UNL     1       8.350   8.219  -9.194  1.00  0.00     0.016 A 
ATOM     45  C   UNL     1       9.827   8.139 -11.569  1.00  0.00     0.010 A 
ATOM     46  C   UNL     1       7.902   8.931 -10.269  1.00  0.00     0.010 A 
ATOM     47  C   UNL     1       8.720   8.978 -11.391  1.00  0.00    -0.014 A 
BRANCH  47  48
ATOM     48  C   UNL     1       8.364   9.857 -12.470  1.00  0.00     0.031 A 
ATOM     49  C   UNL     1       7.642   9.127 -13.520  1.00  0.00     0.074 A 
ATOM     50  C   UNL     1       8.611  11.178 -12.464  1.00  0.00     0.049 A 
ATOM     51  N   UNL     1       8.146   8.655 -14.608  1.00  0.00    -0.248 NA
ATOM     52  C   UNL     1       6.294   8.632 -13.200  1.00  0.00     0.031 C 
ATOM     53  C   UNL     1       9.055  12.041 -11.368  1.00  0.00     0.029 A 
ATOM     54  N   UNL     1       8.418  12.054 -13.479  1.00  0.00    -0.354 N 
ATOM     55  C   UNL     1       7.096   7.999 -15.228  1.00  0.00     0.074 A 
ATOM     56  C   UNL     1       6.094   7.792 -14.214  1.00  0.00     0.031 C 
ATOM     57  C   UNL     1       8.857  13.337 -11.719  1.00  0.00     0.029 A 
ATOM     58  C   UNL     1       8.418  13.388 -13.105  1.00  0.00     0.049 A 
ATOM     59  H   UNL     1       8.288  11.765 -14.411  1.00  0.00     0.167 HD
ATOM     60  C   UNL     1       6.989   7.997 -16.582  1.00  0.00     0.031 A 
ATOM     61  C   UNL     1       8.011  14.423 -13.884  1.00  0.00     0.031 A 
ATOM     62  C   UNL     1       8.229   8.388 -17.211  1.00  0.00     0.049 A 
ATOM     63  C   UNL     1       8.031  13.949 -15.292  1.00  0.00     0.074 A 
ATOM     64  C   UNL     1       9.519   7.896 -17.209  1.00  0.00     0.029 A 
ATOM     65  N   UNL     1       8.321   9.695 -17.633  1.00  0.00    -0.354 N 
ATOM     66  N   UNL     1       9.127  13.651 -15.929  1.00  0.00    -0.248 NA
ATOM     67  C   UNL     1       6.819  13.339 -15.821  1.00  0.00     0.031 C 
ATOM     68  C   UNL     1      10.357   9.051 -17.187  1.00  0.00     0.029 A 
ATOM     69  C   UNL     1       9.544  10.184 -17.251  1.00  0.00     0.049 A 
ATOM     70  H   UNL     1       7.629  10.193 -18.124  1.00  0.00     0.167 HD
ATOM     71  C   UNL     1       8.825  12.494 -16.635  1.00  0.00     0.074 A 
ATOM     72  C   UNL     1       7.366  12.399 -16.598  1.00  0.00     0.031 C 
ATOM     73  C   UNL     1       9.792  11.572 -16.922  1.00  0.00     0.031 A 
BRANCH  60  74
ATOM     74  C   UNL     1       5.658   8.128 -17.279  1.00  0.00    -0.014 A 
ATOM     75  C   UNL     1       5.639   8.111 -18.682  1.00  0.00     0.009 A 
ATOM     76  C   UNL     1       4.475   8.547 -16.636  1.00  0.00     0.009 A 
ATOM     77  C   UNL     1       4.525   8.565 -19.396  1.00  0.00     0.001 A 
ATOM     78  C   UNL     1       3.347   8.959 -17.344  1.00  0.00     0.001 A 
ATOM     79  C   UNL     1       3.384   8.996 -18.727  1.00  0.00     0.000 A 
ENDBRANCH  60  74
BRANCH  61  80
ATOM     80  C   UNL     1       7.261  15.636 -13.484  1.00  0.00    -0.014 A 
ATOM     81  C   UNL     1       7.146  16.731 -14.358  1.00  0.00     0.009 A 
ATOM     82  C   UNL     1       6.405  15.601 -12.367  1.00  0.00     0.009 A 
ATOM     83  C   UNL     1       6.186  17.731 -14.142  1.00  0.00     0.001 A 
ATOM     84  C   UNL     1       5.448  16.599 -12.152  1.00  0.00     0.001 A 
ATOM     85  C   UNL     1       5.328  17.656 -13.047  1.00  0.00     0.000 A 
ENDBRANCH  61  80
BRANCH  73  86
ATOM     86  C   UNL     1      11.231  11.955 -16.663  1.00  0.00    -0.014 A 
ATOM     87  C   UNL     1      11.738  12.262 -15.387  1.00  0.00     0.009 A 
ATOM     88  C   UNL     1      12.135  11.861 -17.731  1.00  0.00     0.009 A 
ATOM     89  C   UNL     1      13.106  12.494 -15.197  1.00  0.00     0.001 A 
ATOM     90  C   UNL     1      13.502  12.072 -17.537  1.00  0.00     0.001 A 
ATOM     91  C   UNL     1      13.987  12.394 -16.272  1.00  0.00     0.000 A 
ENDBRANCH  73  86
ENDBRANCH  47  48
ENDBRANCH  40  42
ENDBRANCH  39  40
ENDBRANCH  38  39
ENDBRANCH  37  38
ENDBRANCH  36  37
ENDBRANCH  35  36
ENDBRANCH  34  35
ENDBRANCH  33  34
ENDBRANCH   1  33
TORSDOF 24
