REMARK SMILES C[C@H]1CCc2sc3ncn4nc(/C=C\C(=O)OCCOCCOCCOCCOC(=O)c5ccc(-c6c7nc(c(-c8ccccc8)c8ccc([nH]8)c(-c8ccccc8)c8nc(c(-c9ccccc9)c9ccc6[nH]9)C=C8)C=C7)cc5)nc4c3c2C1
REMARK SMILES IDX 24 1 23 2 22 3 21 4 20 5 19 6 18 7 17 8 15 9 16 10 14 11
REMARK SMILES IDX 13 12 12 13 1 14 2 15 3 16 84 17 4 18 83 19 5 20 82 21 6 22
REMARK SMILES IDX 7 23 81 24 8 25 10 26 80 27 9 28 11 29 25 30 26 31 27 32
REMARK SMILES IDX 28 33 29 34 30 35 31 36 32 37 33 38 79 39 34 40 78 41 35 42
REMARK SMILES IDX 36 43 37 44 72 45 38 46 77 47 71 48 73 49 39 50 76 51 70 52
REMARK SMILES IDX 69 53 40 55 62 56 47 57 61 58 48 59 51 60 60 61 74 62 49 63
REMARK SMILES IDX 50 64 59 66 75 67 52 68 41 69 42 70 46 71 43 72 45 73 44 74
REMARK SMILES IDX 63 75 64 76 68 77 65 78 67 79 66 80 53 81 54 82 58 83 55 84
REMARK SMILES IDX 57 85 56 86
REMARK H PARENT 73 54 51 65
REMARK Flexibility Score: inf
ROOT
ATOM      1  C   UNL     1       3.484  -2.932   2.200  1.00  0.00     0.188 C 
ENDROOT
BRANCH   1   2
ATOM      2  O   UNL     1       3.663  -4.324   2.415  1.00  0.00    -0.377 OA
BRANCH   2   3
ATOM      3  C   UNL     1       2.552  -5.130   2.036  1.00  0.00     0.188 C 
BRANCH   3   4
ATOM      4  C   UNL     1       2.144  -5.110   0.547  1.00  0.00     0.188 C 
BRANCH   4   5
ATOM      5  O   UNL     1       2.080  -3.792   0.010  1.00  0.00    -0.376 OA
BRANCH   5   6
ATOM      6  C   UNL     1       0.847  -3.439  -0.601  1.00  0.00     0.202 C 
BRANCH   6   7
ATOM      7  C   UNL     1      -0.209  -3.049   0.422  1.00  0.00     0.261 C 
BRANCH   7   8
ATOM      8  O   UNL     1      -0.326  -3.959   1.516  1.00  0.00    -0.460 OA
BRANCH   8   9
ATOM      9  C   UNL     1      -1.094  -5.043   1.375  1.00  0.00     0.330 C 
ATOM     10  O   UNL     1      -1.667  -5.388   0.349  1.00  0.00    -0.247 OA
BRANCH   9  11
ATOM     11  C   UNL     1      -1.009  -5.911   2.568  1.00  0.00     0.097 C 
ATOM     12  C   UNL     1      -0.777  -5.628   3.862  1.00  0.00     0.058 C 
BRANCH  12  13
ATOM     13  C   UNL     1      -0.573  -4.396   4.563  1.00  0.00     0.175 A 
ATOM     14  C   UNL     1      -1.234   1.495   1.287  1.00  0.00     0.008 C 
ATOM     15  C   UNL     1       0.210   1.085   1.588  1.00  0.00    -0.009 C 
ATOM     16  C   UNL     1       1.028   2.224   2.229  1.00  0.00     0.009 C 
ATOM     17  C   UNL     1       0.244  -0.190   2.454  1.00  0.00     0.041 C 
ATOM     18  C   UNL     1       0.580   2.571   3.659  1.00  0.00     0.047 C 
ATOM     19  C   UNL     1       0.201   0.064   3.920  1.00  0.00    -0.020 A 
ATOM     20  C   UNL     1       0.374   1.322   4.460  1.00  0.00     0.011 A 
ATOM     21  C   UNL     1       0.004  -0.891   4.944  1.00  0.00     0.060 A 
ATOM     22  S   UNL     1       0.282   1.327   6.166  1.00  0.00    -0.120 S 
ATOM     23  C   UNL     1       0.016  -0.365   6.227  1.00  0.00     0.129 A 
ATOM     24  C   UNL     1      -0.227  -2.347   4.898  1.00  0.00     0.168 A 
ATOM     25  N   UNL     1      -0.162  -1.041   7.414  1.00  0.00    -0.225 NA
ATOM     26  N   UNL     1      -0.386  -2.988   6.086  1.00  0.00    -0.201 N 
ATOM     27  N   UNL     1      -0.345  -3.202   3.915  1.00  0.00    -0.207 NA
ATOM     28  C   UNL     1      -0.360  -2.333   7.316  1.00  0.00     0.227 A 
ATOM     29  N   UNL     1      -0.585  -4.307   5.908  1.00  0.00    -0.145 NA
ENDBRANCH  12  13
ENDBRANCH   9  11
ENDBRANCH   8   9
ENDBRANCH   7   8
ENDBRANCH   6   7
ENDBRANCH   5   6
ENDBRANCH   4   5
ENDBRANCH   3   4
ENDBRANCH   2   3
ENDBRANCH   1   2
BRANCH   1  30
ATOM     30  C   UNL     1       4.400  -2.322   1.118  1.00  0.00     0.188 C 
BRANCH  30  31
ATOM     31  O   UNL     1       5.103  -3.087   0.141  1.00  0.00    -0.376 OA
BRANCH  31  32
ATOM     32  C   UNL     1       5.512  -4.428   0.347  1.00  0.00     0.202 C 
BRANCH  32  33
ATOM     33  C   UNL     1       6.470  -4.822   1.464  1.00  0.00     0.261 C 
BRANCH  33  34
ATOM     34  O   UNL     1       6.330  -4.064   2.644  1.00  0.00    -0.460 OA
BRANCH  34  35
ATOM     35  C   UNL     1       6.988  -2.904   2.615  1.00  0.00     0.338 C 
ATOM     36  O   UNL     1       7.606  -2.406   1.665  1.00  0.00    -0.246 OA
BRANCH  35  37
ATOM     37  C   UNL     1       6.997  -2.345   3.958  1.00  0.00     0.060 A 
ATOM     38  C   UNL     1       7.548  -1.072   4.091  1.00  0.00     0.016 A 
ATOM     39  C   UNL     1       6.795  -3.202   5.054  1.00  0.00     0.016 A 
ATOM     40  C   UNL     1       8.150  -0.763   5.283  1.00  0.00     0.010 A 
ATOM     41  C   UNL     1       7.409  -2.897   6.240  1.00  0.00     0.010 A 
ATOM     42  C   UNL     1       8.163  -1.731   6.295  1.00  0.00    -0.014 A 
BRANCH  42  43
ATOM     43  C   UNL     1       8.989  -1.466   7.445  1.00  0.00     0.031 A 
ATOM     44  C   UNL     1       8.396  -0.473   8.348  1.00  0.00     0.074 A 
ATOM     45  C   UNL     1      10.154  -2.099   7.665  1.00  0.00     0.049 A 
ATOM     46  N   UNL     1       8.758   0.755   8.495  1.00  0.00    -0.248 NA
ATOM     47  C   UNL     1       7.146  -0.836   9.031  1.00  0.00     0.031 C 
ATOM     48  C   UNL     1      10.660  -3.299   6.990  1.00  0.00     0.029 A 
ATOM     49  N   UNL     1      11.086  -1.861   8.626  1.00  0.00    -0.354 N 
ATOM     50  C   UNL     1       7.916   1.258   9.473  1.00  0.00     0.074 A 
ATOM     51  C   UNL     1       6.827   0.324   9.605  1.00  0.00     0.031 C 
ATOM     52  C   UNL     1      11.677  -3.816   7.718  1.00  0.00     0.029 A 
ATOM     53  C   UNL     1      11.986  -2.900   8.803  1.00  0.00     0.049 A 
ATOM     54  H   UNL     1      11.119  -1.027   9.147  1.00  0.00     0.167 HD
ATOM     55  C   UNL     1       8.362   2.210  10.334  1.00  0.00     0.031 A 
ATOM     56  C   UNL     1      12.874  -3.014   9.818  1.00  0.00     0.031 A 
ATOM     57  C   UNL     1       9.588   2.811   9.879  1.00  0.00     0.049 A 
ATOM     58  C   UNL     1      13.119  -1.661  10.364  1.00  0.00     0.074 A 
ATOM     59  C   UNL     1       9.965   3.749   8.944  1.00  0.00     0.029 A 
ATOM     60  N   UNL     1      10.710   2.101  10.220  1.00  0.00    -0.354 N 
ATOM     61  N   UNL     1      13.714  -0.716   9.694  1.00  0.00    -0.248 NA
ATOM     62  C   UNL     1      12.416  -1.224  11.566  1.00  0.00     0.031 C 
ATOM     63  C   UNL     1      11.331   3.474   8.628  1.00  0.00     0.029 A 
ATOM     64  C   UNL     1      11.762   2.392   9.393  1.00  0.00     0.049 A 
ATOM     65  H   UNL     1      10.753   1.460  10.967  1.00  0.00     0.167 HD
ATOM     66  C   UNL     1      13.106   0.445  10.129  1.00  0.00     0.074 A 
ATOM     67  C   UNL     1      12.472   0.099  11.393  1.00  0.00     0.031 C 
ATOM     68  C   UNL     1      12.886   1.486   9.275  1.00  0.00     0.031 A 
BRANCH  55  69
ATOM     69  C   UNL     1       8.001   2.203  11.799  1.00  0.00    -0.014 A 
ATOM     70  C   UNL     1       8.433   3.271  12.600  1.00  0.00     0.009 A 
ATOM     71  C   UNL     1       7.513   1.063  12.470  1.00  0.00     0.009 A 
ATOM     72  C   UNL     1       8.406   3.187  13.998  1.00  0.00     0.001 A 
ATOM     73  C   UNL     1       7.449   0.990  13.863  1.00  0.00     0.001 A 
ATOM     74  C   UNL     1       7.915   2.047  14.628  1.00  0.00     0.000 A 
ENDBRANCH  55  69
BRANCH  56  75
ATOM     75  C   UNL     1      13.294  -4.233  10.538  1.00  0.00    -0.014 A 
ATOM     76  C   UNL     1      14.404  -4.194  11.398  1.00  0.00     0.009 A 
ATOM     77  C   UNL     1      12.431  -5.340  10.625  1.00  0.00     0.009 A 
ATOM     78  C   UNL     1      14.600  -5.191  12.360  1.00  0.00     0.001 A 
ATOM     79  C   UNL     1      12.633  -6.339  11.581  1.00  0.00     0.001 A 
ATOM     80  C   UNL     1      13.704  -6.252  12.465  1.00  0.00     0.000 A 
ENDBRANCH  56  75
BRANCH  68  81
ATOM     81  C   UNL     1      13.748   1.571   8.048  1.00  0.00    -0.014 A 
ATOM     82  C   UNL     1      13.739   0.613   7.022  1.00  0.00     0.009 A 
ATOM     83  C   UNL     1      14.565   2.702   7.901  1.00  0.00     0.009 A 
ATOM     84  C   UNL     1      14.549   0.773   5.892  1.00  0.00     0.001 A 
ATOM     85  C   UNL     1      15.356   2.872   6.764  1.00  0.00     0.001 A 
ATOM     86  C   UNL     1      15.354   1.904   5.763  1.00  0.00     0.000 A 
ENDBRANCH  68  81
ENDBRANCH  42  43
ENDBRANCH  35  37
ENDBRANCH  34  35
ENDBRANCH  33  34
ENDBRANCH  32  33
ENDBRANCH  31  32
ENDBRANCH  30  31
ENDBRANCH   1  30
TORSDOF 21
