REMARK SMILES CC(C)c1ccc(C(=O)NC[C@H]2CC[C@@H](C(=O)OCCOCCOCCOCCOC(=O)c3ccc(-c4c5nc(c(-c6ccccc6)c6ccc([nH]6)c(-c6ccccc6)c6nc(c(-c7ccccc7)c7ccc4[nH]7)C=C6)C=C5)cc3)O2)cc1
REMARK SMILES IDX 23 1 22 2 21 3 20 4 19 5 18 6 16 7 17 8 15 9 12 10 13 11
REMARK SMILES IDX 81 12 14 13 11 14 10 15 8 16 9 17 7 19 4 20 5 21 83 22 6 23
REMARK SMILES IDX 82 24 2 25 1 26 3 27 24 28 25 29 26 30 27 31 28 32 29 33
REMARK SMILES IDX 30 34 31 35 32 36 33 37 34 38 80 39 35 40 79 41 36 42 37 43
REMARK SMILES IDX 38 44 73 45 39 46 78 47 72 48 74 49 40 50 77 51 71 52 70 53
REMARK SMILES IDX 41 55 63 56 48 57 62 58 49 59 52 60 61 61 75 62 50 63 51 64
REMARK SMILES IDX 60 66 76 67 53 68 42 69 43 70 47 71 44 72 46 73 45 74 64 75
REMARK SMILES IDX 65 76 69 77 66 78 68 79 67 80 54 81 55 82 59 83 56 84 58 85
REMARK SMILES IDX 57 86
REMARK H PARENT 10 18 74 54 52 65
REMARK Flexibility Score: inf
ROOT
ATOM      1  C   UNL     1      -8.037  -8.796   2.627  1.00  0.00     0.188 C 
ENDROOT
BRANCH   1   2
ATOM      2  C   UNL     1      -7.930  -7.942   3.919  1.00  0.00     0.188 C 
BRANCH   2   3
ATOM      3  O   UNL     1      -9.148  -7.784   4.625  1.00  0.00    -0.376 OA
BRANCH   3   4
ATOM      4  C   UNL     1      -9.876  -6.582   4.454  1.00  0.00     0.202 C 
BRANCH   4   5
ATOM      5  C   UNL     1     -10.279  -6.171   3.034  1.00  0.00     0.261 C 
BRANCH   5   6
ATOM      6  O   UNL     1      -9.209  -6.223   2.073  1.00  0.00    -0.461 OA
BRANCH   6   7
ATOM      7  C   UNL     1      -8.391  -5.143   1.974  1.00  0.00     0.335 C 
ATOM      8  O   UNL     1      -8.551  -4.124   2.625  1.00  0.00    -0.249 OA
BRANCH   7   9
ATOM      9  C   UNL     1      -7.281  -5.385   0.928  1.00  0.00     0.228 C 
ATOM     10  C   UNL     1      -5.181  -4.366   0.590  1.00  0.00     0.138 C 
ATOM     11  C   UNL     1      -4.987  -5.868   0.541  1.00  0.00     0.037 C 
ATOM     12  O   UNL     1      -6.603  -4.156   0.616  1.00  0.00    -0.361 OA
ATOM     13  C   UNL     1      -6.176  -6.357   1.329  1.00  0.00     0.047 C 
BRANCH  10  14
ATOM     14  C   UNL     1      -4.502  -3.754   1.830  1.00  0.00     0.148 C 
BRANCH  14  15
ATOM     15  N   UNL     1      -4.713  -2.323   1.933  1.00  0.00    -0.349 N 
ATOM     16  C   UNL     1      -5.433  -1.475   2.730  1.00  0.00     0.251 C 
ATOM     17  O   UNL     1      -5.324  -0.280   2.432  1.00  0.00    -0.269 OA
ATOM     18  H   UNL     1      -4.205  -1.831   1.248  1.00  0.00     0.163 HD
BRANCH  16  19
ATOM     19  C   UNL     1      -6.304  -1.835   3.896  1.00  0.00     0.039 A 
ATOM     20  C   UNL     1      -8.151  -2.243   6.059  1.00  0.00    -0.045 A 
ATOM     21  C   UNL     1      -7.902  -0.966   5.553  1.00  0.00     0.005 A 
ATOM     22  C   UNL     1      -7.407  -3.297   5.510  1.00  0.00     0.005 A 
ATOM     23  C   UNL     1      -7.000  -0.770   4.495  1.00  0.00     0.014 A 
ATOM     24  C   UNL     1      -6.505  -3.098   4.447  1.00  0.00     0.014 A 
BRANCH  20  25
ATOM     25  C   UNL     1      -9.173  -2.523   7.156  1.00  0.00     0.013 C 
ATOM     26  C   UNL     1      -9.949  -1.299   7.658  1.00  0.00     0.012 C 
ATOM     27  C   UNL     1     -10.194  -3.585   6.722  1.00  0.00     0.012 C 
ENDBRANCH  20  25
ENDBRANCH  16  19
ENDBRANCH  14  15
ENDBRANCH  10  14
ENDBRANCH   7   9
ENDBRANCH   6   7
ENDBRANCH   5   6
ENDBRANCH   4   5
ENDBRANCH   3   4
ENDBRANCH   2   3
ENDBRANCH   1   2
BRANCH   1  28
ATOM     28  O   UNL     1      -8.972  -9.854   2.462  1.00  0.00    -0.377 OA
BRANCH  28  29
ATOM     29  C   UNL     1      -9.970 -10.030   3.449  1.00  0.00     0.188 C 
BRANCH  29  30
ATOM     30  C   UNL     1      -9.435 -10.605   4.773  1.00  0.00     0.188 C 
BRANCH  30  31
ATOM     31  O   UNL     1      -8.017 -10.555   4.859  1.00  0.00    -0.376 OA
BRANCH  31  32
ATOM     32  C   UNL     1      -7.280 -11.726   4.548  1.00  0.00     0.202 C 
BRANCH  32  33
ATOM     33  C   UNL     1      -7.451 -12.423   3.185  1.00  0.00     0.261 C 
BRANCH  33  34
ATOM     34  O   UNL     1      -8.787 -12.661   2.719  1.00  0.00    -0.460 OA
BRANCH  34  35
ATOM     35  C   UNL     1      -9.567 -13.517   3.406  1.00  0.00     0.338 C 
ATOM     36  O   UNL     1      -9.268 -14.155   4.401  1.00  0.00    -0.246 OA
BRANCH  35  37
ATOM     37  C   UNL     1     -10.933 -13.392   2.852  1.00  0.00     0.060 A 
ATOM     38  C   UNL     1     -11.973 -12.966   3.691  1.00  0.00     0.016 A 
ATOM     39  C   UNL     1     -11.174 -13.636   1.497  1.00  0.00     0.016 A 
ATOM     40  C   UNL     1     -13.260 -12.799   3.180  1.00  0.00     0.010 A 
ATOM     41  C   UNL     1     -12.470 -13.505   0.995  1.00  0.00     0.010 A 
ATOM     42  C   UNL     1     -13.523 -13.115   1.842  1.00  0.00    -0.014 A 
BRANCH  42  43
ATOM     43  C   UNL     1     -14.925 -13.266   1.389  1.00  0.00     0.031 A 
ATOM     44  C   UNL     1     -15.524 -14.645   1.421  1.00  0.00     0.074 A 
ATOM     45  C   UNL     1     -15.656 -12.217   0.976  1.00  0.00     0.049 A 
ATOM     46  N   UNL     1     -16.706 -15.048   1.034  1.00  0.00    -0.248 NA
ATOM     47  C   UNL     1     -14.669 -15.716   1.962  1.00  0.00     0.031 C 
ATOM     48  C   UNL     1     -15.207 -10.827   0.947  1.00  0.00     0.029 A 
ATOM     49  N   UNL     1     -16.939 -12.169   0.490  1.00  0.00    -0.354 N 
ATOM     50  C   UNL     1     -16.731 -16.416   1.273  1.00  0.00     0.074 A 
ATOM     51  C   UNL     1     -15.441 -16.780   1.813  1.00  0.00     0.031 C 
ATOM     52  C   UNL     1     -16.199 -10.061   0.456  1.00  0.00     0.029 A 
ATOM     53  C   UNL     1     -17.334 -10.912   0.103  1.00  0.00     0.049 A 
ATOM     54  H   UNL     1     -17.521 -12.961   0.426  1.00  0.00     0.167 HD
ATOM     55  C   UNL     1     -17.740 -17.293   1.064  1.00  0.00     0.031 A 
ATOM     56  C   UNL     1     -18.472 -10.505  -0.493  1.00  0.00     0.031 A 
ATOM     57  C   UNL     1     -19.015 -16.933   0.506  1.00  0.00     0.049 A 
ATOM     58  C   UNL     1     -19.549 -11.516  -0.798  1.00  0.00     0.074 A 
ATOM     59  C   UNL     1     -20.108 -17.745   0.266  1.00  0.00     0.029 A 
ATOM     60  N   UNL     1     -19.361 -15.658   0.090  1.00  0.00    -0.354 N 
ATOM     61  N   UNL     1     -19.575 -12.802  -0.541  1.00  0.00    -0.248 NA
ATOM     62  C   UNL     1     -20.758 -11.014  -1.469  1.00  0.00     0.031 C 
ATOM     63  C   UNL     1     -21.093 -16.974  -0.358  1.00  0.00     0.029 A 
ATOM     64  C   UNL     1     -20.640 -15.666  -0.437  1.00  0.00     0.049 A 
ATOM     65  H   UNL     1     -18.783 -14.864   0.159  1.00  0.00     0.167 HD
ATOM     66  C   UNL     1     -20.811 -13.255  -0.989  1.00  0.00     0.074 A 
ATOM     67  C   UNL     1     -21.511 -12.104  -1.520  1.00  0.00     0.031 C 
ATOM     68  C   UNL     1     -21.323 -14.511  -0.961  1.00  0.00     0.031 A 
BRANCH  55  69
ATOM     69  C   UNL     1     -17.481 -18.735   1.396  1.00  0.00    -0.014 A 
ATOM     70  C   UNL     1     -17.354 -19.171   2.725  1.00  0.00     0.009 A 
ATOM     71  C   UNL     1     -17.388 -19.678   0.361  1.00  0.00     0.009 A 
ATOM     72  C   UNL     1     -17.106 -20.516   3.006  1.00  0.00     0.001 A 
ATOM     73  C   UNL     1     -17.171 -21.026   0.646  1.00  0.00     0.001 A 
ATOM     74  C   UNL     1     -17.021 -21.443   1.968  1.00  0.00     0.000 A 
ENDBRANCH  55  69
BRANCH  56  75
ATOM     75  C   UNL     1     -18.650  -9.077  -0.871  1.00  0.00    -0.014 A 
ATOM     76  C   UNL     1     -19.612  -8.278  -0.236  1.00  0.00     0.009 A 
ATOM     77  C   UNL     1     -17.873  -8.512  -1.896  1.00  0.00     0.009 A 
ATOM     78  C   UNL     1     -19.811  -6.954  -0.636  1.00  0.00     0.001 A 
ATOM     79  C   UNL     1     -18.052  -7.179  -2.273  1.00  0.00     0.001 A 
ATOM     80  C   UNL     1     -19.028  -6.404  -1.650  1.00  0.00     0.000 A 
ENDBRANCH  56  75
BRANCH  68  81
ATOM     81  C   UNL     1     -22.723 -14.703  -1.476  1.00  0.00    -0.014 A 
ATOM     82  C   UNL     1     -23.021 -14.613  -2.845  1.00  0.00     0.009 A 
ATOM     83  C   UNL     1     -23.751 -15.033  -0.578  1.00  0.00     0.009 A 
ATOM     84  C   UNL     1     -24.327 -14.817  -3.297  1.00  0.00     0.001 A 
ATOM     85  C   UNL     1     -25.047 -15.270  -1.037  1.00  0.00     0.001 A 
ATOM     86  C   UNL     1     -25.337 -15.151  -2.395  1.00  0.00     0.000 A 
ENDBRANCH  68  81
ENDBRANCH  42  43
ENDBRANCH  35  37
ENDBRANCH  34  35
ENDBRANCH  33  34
ENDBRANCH  32  33
ENDBRANCH  31  32
ENDBRANCH  30  31
ENDBRANCH  29  30
ENDBRANCH  28  29
ENDBRANCH   1  28
TORSDOF 24
