REMARK SMILES CN1C(=O)C[C@H](C(=O)OCCOCCOCCOCCOC(=O)c2ccc(-c3c4nc(c(-c5ccccc5)c5ccc([nH]5)c(-c5ccccc5)c5nc(c(-c6ccccc6)c6ccc3[nH]6)C=C5)C=C4)cc2)C12CC[NH+](Cc1ccc(Cl)c(F)c1)CC2
REMARK SMILES IDX 15 1 14 2 13 3 12 4 11 5 10 6 9 7 7 8 8 9 6 10 1 11 2 12
REMARK SMILES IDX 3 13 72 14 4 15 5 16 73 17 86 18 74 19 85 20 75 21 76 23
REMARK SMILES IDX 77 24 78 25 84 26 79 27 82 28 80 29 83 30 81 31 16 32 17 33
REMARK SMILES IDX 18 34 19 35 20 36 21 37 22 38 23 39 24 40 25 41 71 42 26 43
REMARK SMILES IDX 70 44 27 45 28 46 29 47 64 48 30 49 69 50 63 51 65 52 31 53
REMARK SMILES IDX 68 54 62 55 61 56 32 58 54 59 39 60 53 61 40 62 43 63 52 64
REMARK SMILES IDX 66 65 41 66 42 67 51 69 67 70 44 71 33 72 34 73 38 74 35 75
REMARK SMILES IDX 37 76 36 77 55 78 56 79 60 80 57 81 59 82 58 83 45 84 46 85
REMARK SMILES IDX 50 86 47 87 49 88 48 89
REMARK H PARENT 75 22 65 57 43 68
REMARK Flexibility Score: inf
ROOT
ATOM      1  O   UNL     1      -1.984   4.911   1.542  1.00  0.00    -0.377 OA
ENDROOT
BRANCH   1   2
ATOM      2  C   UNL     1      -1.856   4.895   0.134  1.00  0.00     0.188 C 
BRANCH   2   3
ATOM      3  C   UNL     1      -2.749   5.751  -0.786  1.00  0.00     0.188 C 
BRANCH   3   4
ATOM      4  O   UNL     1      -4.124   5.798  -0.482  1.00  0.00    -0.376 OA
BRANCH   4   5
ATOM      5  C   UNL     1      -5.077   4.827  -0.859  1.00  0.00     0.202 C 
BRANCH   5   6
ATOM      6  C   UNL     1      -4.770   3.467  -1.492  1.00  0.00     0.261 C 
BRANCH   6   7
ATOM      7  O   UNL     1      -3.408   3.040  -1.470  1.00  0.00    -0.463 OA
BRANCH   7   8
ATOM      8  C   UNL     1      -2.839   2.763  -2.661  1.00  0.00     0.311 C 
ATOM      9  O   UNL     1      -3.351   3.027  -3.742  1.00  0.00    -0.252 OA
BRANCH   8  10
ATOM     10  C   UNL     1      -1.458   2.159  -2.562  1.00  0.00     0.134 C 
ATOM     11  C   UNL     1       1.344   0.435  -0.751  1.00  0.00     0.147 C 
ATOM     12  N   UNL     1       0.407   1.278  -1.477  1.00  0.00    -0.339 N 
ATOM     13  C   UNL     1       0.815   2.516  -1.950  1.00  0.00     0.223 C 
ATOM     14  C   UNL     1      -1.070   1.068  -1.516  1.00  0.00     0.067 C 
ATOM     15  O   UNL     1       1.939   2.987  -1.896  1.00  0.00    -0.275 OA
ATOM     16  C   UNL     1      -0.372   3.229  -2.516  1.00  0.00     0.118 C 
ATOM     17  C   UNL     1      -1.425  -0.322  -2.093  1.00  0.00     0.091 C 
ATOM     18  C   UNL     1      -1.604   1.134  -0.064  1.00  0.00     0.091 C 
ATOM     19  C   UNL     1      -2.892  -0.695  -1.875  1.00  0.00     0.265 C 
ATOM     20  C   UNL     1      -3.016   0.595   0.191  1.00  0.00     0.265 C 
ATOM     21  N   UNL     1      -3.327  -0.654  -0.486  1.00  0.00    -0.331 N 
ATOM     22  H   UNL     1      -4.343  -0.645  -0.569  1.00  0.00     0.348 HD
BRANCH  21  23
ATOM     23  C   UNL     1      -3.175  -1.881   0.305  1.00  0.00     0.299 C 
BRANCH  23  24
ATOM     24  C   UNL     1      -1.794  -2.152   0.861  1.00  0.00     0.009 A 
ATOM     25  C   UNL     1      -0.885  -2.959   0.162  1.00  0.00     0.011 A 
ATOM     26  C   UNL     1      -1.368  -1.530   2.047  1.00  0.00     0.050 A 
ATOM     27  C   UNL     1       0.448  -3.051   0.576  1.00  0.00     0.024 A 
ATOM     28  C   UNL     1      -0.034  -1.600   2.437  1.00  0.00     0.142 A 
ATOM     29  C   UNL     1       0.879  -2.341   1.696  1.00  0.00     0.076 A 
ATOM     30  F   UNL     1       0.360  -0.883   3.500  1.00  0.00    -0.205 F 
ATOM     31  Cl  UNL     1       2.549  -2.344   2.110  1.00  0.00    -0.081 Cl
ENDBRANCH  23  24
ENDBRANCH  21  23
ENDBRANCH   8  10
ENDBRANCH   7   8
ENDBRANCH   6   7
ENDBRANCH   5   6
ENDBRANCH   4   5
ENDBRANCH   3   4
ENDBRANCH   2   3
ENDBRANCH   1   2
BRANCH   1  32
ATOM     32  C   UNL     1      -3.296   4.828   2.048  1.00  0.00     0.188 C 
BRANCH  32  33
ATOM     33  C   UNL     1      -3.909   6.205   2.347  1.00  0.00     0.188 C 
BRANCH  33  34
ATOM     34  O   UNL     1      -3.220   7.406   2.035  1.00  0.00    -0.376 OA
BRANCH  34  35
ATOM     35  C   UNL     1      -1.816   7.536   2.189  1.00  0.00     0.202 C 
BRANCH  35  36
ATOM     36  C   UNL     1      -1.041   7.020   3.416  1.00  0.00     0.261 C 
BRANCH  36  37
ATOM     37  O   UNL     1      -1.625   5.962   4.176  1.00  0.00    -0.460 OA
BRANCH  37  38
ATOM     38  C   UNL     1      -2.420   6.354   5.196  1.00  0.00     0.338 C 
ATOM     39  O   UNL     1      -2.710   7.485   5.526  1.00  0.00    -0.246 OA
BRANCH  38  40
ATOM     40  C   UNL     1      -3.022   5.142   5.782  1.00  0.00     0.060 A 
ATOM     41  C   UNL     1      -4.412   4.987   5.720  1.00  0.00     0.016 A 
ATOM     42  C   UNL     1      -2.223   4.186   6.410  1.00  0.00     0.016 A 
ATOM     43  C   UNL     1      -5.015   3.878   6.301  1.00  0.00     0.010 A 
ATOM     44  C   UNL     1      -2.831   3.093   7.029  1.00  0.00     0.010 A 
ATOM     45  C   UNL     1      -4.230   2.955   7.000  1.00  0.00    -0.014 A 
BRANCH  45  46
ATOM     46  C   UNL     1      -4.895   1.967   7.874  1.00  0.00     0.031 A 
ATOM     47  C   UNL     1      -5.040   2.295   9.333  1.00  0.00     0.074 A 
ATOM     48  C   UNL     1      -5.390   0.824   7.374  1.00  0.00     0.049 A 
ATOM     49  N   UNL     1      -5.543   1.571  10.299  1.00  0.00    -0.248 NA
ATOM     50  C   UNL     1      -4.553   3.618   9.758  1.00  0.00     0.031 C 
ATOM     51  C   UNL     1      -5.369   0.435   5.965  1.00  0.00     0.029 A 
ATOM     52  N   UNL     1      -6.007  -0.224   8.007  1.00  0.00    -0.354 N 
ATOM     53  C   UNL     1      -5.422   2.345  11.446  1.00  0.00     0.074 A 
ATOM     54  C   UNL     1      -4.776   3.581  11.063  1.00  0.00     0.031 C 
ATOM     55  C   UNL     1      -5.939  -0.777   5.842  1.00  0.00     0.029 A 
ATOM     56  C   UNL     1      -6.325  -1.260   7.166  1.00  0.00     0.049 A 
ATOM     57  H   UNL     1      -6.203  -0.232   8.972  1.00  0.00     0.167 HD
ATOM     58  C   UNL     1      -5.817   2.052  12.706  1.00  0.00     0.031 A 
ATOM     59  C   UNL     1      -6.843  -2.471   7.444  1.00  0.00     0.031 A 
ATOM     60  C   UNL     1      -6.437   0.811  13.084  1.00  0.00     0.049 A 
ATOM     61  C   UNL     1      -7.176  -2.816   8.873  1.00  0.00     0.074 A 
ATOM     62  C   UNL     1      -6.878   0.412  14.333  1.00  0.00     0.029 A 
ATOM     63  N   UNL     1      -6.691  -0.239  12.214  1.00  0.00    -0.354 N 
ATOM     64  N   UNL     1      -7.075  -2.074   9.950  1.00  0.00    -0.248 NA
ATOM     65  C   UNL     1      -7.699  -4.167   9.122  1.00  0.00     0.031 C 
ATOM     66  C   UNL     1      -7.336  -0.905  14.232  1.00  0.00     0.029 A 
ATOM     67  C   UNL     1      -7.252  -1.299  12.905  1.00  0.00     0.049 A 
ATOM     68  H   UNL     1      -6.501  -0.231  11.248  1.00  0.00     0.167 HD
ATOM     69  C   UNL     1      -7.550  -2.855  10.997  1.00  0.00     0.074 A 
ATOM     70  C   UNL     1      -7.955  -4.121  10.422  1.00  0.00     0.031 C 
ATOM     71  C   UNL     1      -7.646  -2.552  12.315  1.00  0.00     0.031 A 
BRANCH  58  72
ATOM     72  C   UNL     1      -5.543   3.075  13.773  1.00  0.00    -0.014 A 
ATOM     73  C   UNL     1      -6.233   4.297  13.814  1.00  0.00     0.009 A 
ATOM     74  C   UNL     1      -4.592   2.799  14.768  1.00  0.00     0.009 A 
ATOM     75  C   UNL     1      -5.951   5.235  14.810  1.00  0.00     0.001 A 
ATOM     76  C   UNL     1      -4.336   3.725  15.781  1.00  0.00     0.001 A 
ATOM     77  C   UNL     1      -5.008   4.946  15.795  1.00  0.00     0.000 A 
ENDBRANCH  58  72
BRANCH  59  78
ATOM     78  C   UNL     1      -7.053  -3.462   6.356  1.00  0.00    -0.014 A 
ATOM     79  C   UNL     1      -8.347  -3.861   5.989  1.00  0.00     0.009 A 
ATOM     80  C   UNL     1      -5.955  -4.036   5.694  1.00  0.00     0.009 A 
ATOM     81  C   UNL     1      -8.536  -4.832   5.003  1.00  0.00     0.001 A 
ATOM     82  C   UNL     1      -6.147  -4.982   4.686  1.00  0.00     0.001 A 
ATOM     83  C   UNL     1      -7.437  -5.388   4.349  1.00  0.00     0.000 A 
ENDBRANCH  59  78
BRANCH  71  84
ATOM     84  C   UNL     1      -8.248  -3.592  13.221  1.00  0.00    -0.014 A 
ATOM     85  C   UNL     1      -7.565  -4.778  13.533  1.00  0.00     0.009 A 
ATOM     86  C   UNL     1      -9.501  -3.355  13.810  1.00  0.00     0.009 A 
ATOM     87  C   UNL     1      -8.141  -5.721  14.388  1.00  0.00     0.001 A 
ATOM     88  C   UNL     1     -10.058  -4.283  14.691  1.00  0.00     0.001 A 
ATOM     89  C   UNL     1      -9.383  -5.469  14.970  1.00  0.00     0.000 A 
ENDBRANCH  71  84
ENDBRANCH  45  46
ENDBRANCH  38  40
ENDBRANCH  37  38
ENDBRANCH  36  37
ENDBRANCH  35  36
ENDBRANCH  34  35
ENDBRANCH  33  34
ENDBRANCH  32  33
ENDBRANCH   1  32
TORSDOF 22
