REMARK SMILES C[NH+]1CCC([NH+]2CCC(Oc3ccc4ccccc4c3)(C(=O)OCCOCCOCCOCCOC(=O)c3ccc(-c4c5nc(c(-c6ccccc6)c6ccc([nH]6)c(-c6ccccc6)c6nc(c(-c7ccccc7)c7ccc4[nH]7)C=C6)C=C5)cc3)CC2)CC1
REMARK SMILES IDX 29 1 28 2 27 3 26 4 25 5 24 6 23 7 21 8 22 9 9 10 6 11 7 12
REMARK SMILES IDX 87 13 8 15 86 16 5 17 1 18 2 19 3 20 89 21 4 23 88 24 10 25
REMARK SMILES IDX 11 26 12 27 20 28 13 29 19 30 14 31 18 32 15 33 17 34 16 35
REMARK SMILES IDX 30 36 31 37 32 38 33 39 34 40 35 41 36 42 37 43 38 44 39 45
REMARK SMILES IDX 85 46 40 47 84 48 41 49 42 50 43 51 78 52 44 53 83 54 77 55
REMARK SMILES IDX 79 56 45 57 82 58 76 59 75 60 46 62 68 63 53 64 67 65 54 66
REMARK SMILES IDX 57 67 66 68 80 69 55 70 56 71 65 73 81 74 58 75 47 76 48 77
REMARK SMILES IDX 52 78 49 79 51 80 50 81 69 82 70 83 74 84 71 85 73 86 72 87
REMARK SMILES IDX 59 88 60 89 64 90 61 91 63 92 62 93
REMARK H PARENT 6 14 2 22 79 61 57 72
REMARK Flexibility Score: inf
ROOT
ATOM      1  O   UNL     1       2.905  -2.675   4.021  1.00  0.00    -0.377 OA
ENDROOT
BRANCH   1   2
ATOM      2  C   UNL     1       2.741  -2.614   2.621  1.00  0.00     0.188 C 
BRANCH   2   3
ATOM      3  C   UNL     1       3.004  -3.896   1.824  1.00  0.00     0.188 C 
BRANCH   3   4
ATOM      4  O   UNL     1       3.489  -5.052   2.485  1.00  0.00    -0.376 OA
BRANCH   4   5
ATOM      5  C   UNL     1       4.343  -4.909   3.610  1.00  0.00     0.202 C 
BRANCH   5   6
ATOM      6  C   UNL     1       5.628  -4.057   3.514  1.00  0.00     0.261 C 
BRANCH   6   7
ATOM      7  O   UNL     1       5.507  -2.670   3.110  1.00  0.00    -0.460 OA
BRANCH   7   8
ATOM      8  C   UNL     1       5.848  -2.377   1.821  1.00  0.00     0.351 C 
ATOM      9  O   UNL     1       6.184  -3.246   1.017  1.00  0.00    -0.247 OA
BRANCH   8  10
ATOM     10  C   UNL     1       5.862  -0.855   1.473  1.00  0.00     0.216 C 
ATOM     11  N   UNL     1       3.479   0.255  -0.048  1.00  0.00    -0.332 N 
ATOM     12  C   UNL     1       3.532   0.429   1.403  1.00  0.00     0.267 C 
ATOM     13  C   UNL     1       4.300  -0.854  -0.535  1.00  0.00     0.267 C 
ATOM     14  H   UNL     1       3.925   1.092  -0.423  1.00  0.00     0.348 HD
ATOM     15  C   UNL     1       4.847   0.097   2.140  1.00  0.00     0.122 C 
ATOM     16  C   UNL     1       5.757  -0.724  -0.062  1.00  0.00     0.122 C 
BRANCH  11  17
ATOM     17  C   UNL     1       2.092   0.297  -0.628  1.00  0.00     0.195 C 
ATOM     18  C   UNL     1      -2.263   0.173  -0.399  1.00  0.00     0.332 C 
ATOM     19  N   UNL     1      -0.817   0.167  -0.179  1.00  0.00    -0.337 N 
ATOM     20  C   UNL     1      -0.212   1.451  -0.551  1.00  0.00     0.268 C 
ATOM     21  C   UNL     1      -0.167  -0.907  -0.936  1.00  0.00     0.268 C 
ATOM     22  H   UNL     1      -0.673   0.007   0.818  1.00  0.00     0.347 HD
ATOM     23  C   UNL     1       1.248   1.482  -0.091  1.00  0.00     0.126 C 
ATOM     24  C   UNL     1       1.303  -1.026  -0.522  1.00  0.00     0.126 C 
ENDBRANCH  11  17
BRANCH  10  25
ATOM     25  O   UNL     1       7.189  -0.629   2.059  1.00  0.00    -0.475 OA
BRANCH  25  26
ATOM     26  C   UNL     1       7.917   0.417   1.588  1.00  0.00     0.121 A 
ATOM     27  C   UNL     1       7.729   1.704   2.079  1.00  0.00     0.047 A 
ATOM     28  C   UNL     1       8.964   0.144   0.715  1.00  0.00     0.055 A 
ATOM     29  C   UNL     1       8.488   2.758   1.582  1.00  0.00     0.012 A 
ATOM     30  C   UNL     1       9.783   1.184   0.256  1.00  0.00    -0.015 A 
ATOM     31  C   UNL     1       9.516   2.512   0.666  1.00  0.00    -0.018 A 
ATOM     32  C   UNL     1      10.873   0.934  -0.588  1.00  0.00     0.009 A 
ATOM     33  C   UNL     1      10.307   3.559   0.179  1.00  0.00     0.009 A 
ATOM     34  C   UNL     1      11.674   1.985  -1.038  1.00  0.00     0.001 A 
ATOM     35  C   UNL     1      11.382   3.295  -0.667  1.00  0.00     0.001 A 
ENDBRANCH  25  26
ENDBRANCH  10  25
ENDBRANCH   8  10
ENDBRANCH   7   8
ENDBRANCH   6   7
ENDBRANCH   5   6
ENDBRANCH   4   5
ENDBRANCH   3   4
ENDBRANCH   2   3
ENDBRANCH   1   2
BRANCH   1  36
ATOM     36  C   UNL     1       1.714  -2.821   4.776  1.00  0.00     0.188 C 
BRANCH  36  37
ATOM     37  C   UNL     1       0.657  -3.783   4.206  1.00  0.00     0.188 C 
BRANCH  37  38
ATOM     38  O   UNL     1       0.272  -3.513   2.861  1.00  0.00    -0.376 OA
BRANCH  38  39
ATOM     39  C   UNL     1      -0.883  -2.718   2.616  1.00  0.00     0.202 C 
BRANCH  39  40
ATOM     40  C   UNL     1      -0.792  -1.220   2.959  1.00  0.00     0.261 C 
BRANCH  40  41
ATOM     41  O   UNL     1      -0.628  -0.934   4.353  1.00  0.00    -0.460 OA
BRANCH  41  42
ATOM     42  C   UNL     1      -1.582  -1.391   5.185  1.00  0.00     0.338 C 
ATOM     43  O   UNL     1      -2.642  -1.922   4.892  1.00  0.00    -0.246 OA
BRANCH  42  44
ATOM     44  C   UNL     1      -1.012  -1.357   6.538  1.00  0.00     0.060 A 
ATOM     45  C   UNL     1      -0.858  -2.571   7.218  1.00  0.00     0.016 A 
ATOM     46  C   UNL     1      -0.601  -0.151   7.110  1.00  0.00     0.016 A 
ATOM     47  C   UNL     1      -0.307  -2.582   8.491  1.00  0.00     0.010 A 
ATOM     48  C   UNL     1      -0.087  -0.158   8.405  1.00  0.00     0.010 A 
ATOM     49  C   UNL     1       0.028  -1.370   9.106  1.00  0.00    -0.014 A 
BRANCH  49  50
ATOM     50  C   UNL     1       0.243  -1.370  10.566  1.00  0.00     0.031 A 
ATOM     51  C   UNL     1      -0.950  -1.115  11.441  1.00  0.00     0.074 A 
ATOM     52  C   UNL     1       1.443  -1.661  11.090  1.00  0.00     0.049 A 
ATOM     53  N   UNL     1      -1.031  -1.083  12.745  1.00  0.00    -0.248 NA
ATOM     54  C   UNL     1      -2.230  -0.872  10.750  1.00  0.00     0.031 C 
ATOM     55  C   UNL     1       2.646  -1.992  10.327  1.00  0.00     0.029 A 
ATOM     56  N   UNL     1       1.840  -1.732  12.399  1.00  0.00    -0.354 N 
ATOM     57  C   UNL     1      -2.364  -0.813  13.027  1.00  0.00     0.074 A 
ATOM     58  C   UNL     1      -3.051  -0.661  11.765  1.00  0.00     0.031 C 
ATOM     59  C   UNL     1       3.652  -2.228  11.187  1.00  0.00     0.029 A 
ATOM     60  C   UNL     1       3.171  -2.032  12.552  1.00  0.00     0.049 A 
ATOM     61  H   UNL     1       1.230  -1.583  13.157  1.00  0.00     0.167 HD
ATOM     62  C   UNL     1      -2.963  -0.705  14.235  1.00  0.00     0.031 A 
ATOM     63  C   UNL     1       3.911  -2.115  13.674  1.00  0.00     0.031 A 
ATOM     64  C   UNL     1      -2.263  -0.830  15.483  1.00  0.00     0.049 A 
ATOM     65  C   UNL     1       3.241  -1.890  15.004  1.00  0.00     0.074 A 
ATOM     66  C   UNL     1      -2.765  -0.731  16.767  1.00  0.00     0.029 A 
ATOM     67  N   UNL     1      -0.902  -1.070  15.598  1.00  0.00    -0.354 N 
ATOM     68  N   UNL     1       1.977  -1.649  15.265  1.00  0.00    -0.248 NA
ATOM     69  C   UNL     1       4.099  -1.956  16.195  1.00  0.00     0.031 C 
ATOM     70  C   UNL     1      -1.694  -0.846  17.659  1.00  0.00     0.029 A 
ATOM     71  C   UNL     1      -0.539  -1.091  16.932  1.00  0.00     0.049 A 
ATOM     72  H   UNL     1      -0.285  -1.206  14.842  1.00  0.00     0.167 HD
ATOM     73  C   UNL     1       1.883  -1.567  16.649  1.00  0.00     0.074 A 
ATOM     74  C   UNL     1       3.215  -1.800  17.171  1.00  0.00     0.031 C 
ATOM     75  C   UNL     1       0.796  -1.324  17.423  1.00  0.00     0.031 A 
BRANCH  62  76
ATOM     76  C   UNL     1      -4.431  -0.383  14.250  1.00  0.00    -0.014 A 
ATOM     77  C   UNL     1      -5.393  -1.316  13.829  1.00  0.00     0.009 A 
ATOM     78  C   UNL     1      -4.858   0.875  14.701  1.00  0.00     0.009 A 
ATOM     79  C   UNL     1      -6.749  -0.981  13.826  1.00  0.00     0.001 A 
ATOM     80  C   UNL     1      -6.216   1.196  14.728  1.00  0.00     0.001 A 
ATOM     81  C   UNL     1      -7.159   0.272  14.281  1.00  0.00     0.000 A 
ENDBRANCH  62  76
BRANCH  63  82
ATOM     82  C   UNL     1       5.369  -2.395  13.589  1.00  0.00    -0.014 A 
ATOM     83  C   UNL     1       5.904  -3.591  14.092  1.00  0.00     0.009 A 
ATOM     84  C   UNL     1       6.240  -1.451  13.022  1.00  0.00     0.009 A 
ATOM     85  C   UNL     1       7.282  -3.821  14.054  1.00  0.00     0.001 A 
ATOM     86  C   UNL     1       7.613  -1.698  12.955  1.00  0.00     0.001 A 
ATOM     87  C   UNL     1       8.134  -2.878  13.482  1.00  0.00     0.000 A 
ENDBRANCH  63  82
BRANCH  75  88
ATOM     88  C   UNL     1       0.994  -1.339  18.913  1.00  0.00    -0.014 A 
ATOM     89  C   UNL     1       1.699  -0.320  19.570  1.00  0.00     0.009 A 
ATOM     90  C   UNL     1       0.421  -2.371  19.675  1.00  0.00     0.009 A 
ATOM     91  C   UNL     1       1.858  -0.354  20.957  1.00  0.00     0.001 A 
ATOM     92  C   UNL     1       0.551  -2.383  21.064  1.00  0.00     0.001 A 
ATOM     93  C   UNL     1       1.279  -1.381  21.702  1.00  0.00     0.000 A 
ENDBRANCH  75  88
ENDBRANCH  49  50
ENDBRANCH  42  44
ENDBRANCH  41  42
ENDBRANCH  40  41
ENDBRANCH  39  40
ENDBRANCH  38  39
ENDBRANCH  37  38
ENDBRANCH  36  37
ENDBRANCH   1  36
TORSDOF 23
