REMARK SMILES CN(CCOCC1CC1)C(=O)N1CC[C@](C)(C(=O)OCCOCCOCCOCCOC(=O)c2ccc(-c3c4nc(c(-c5ccccc5)c5ccc([nH]5)c(-c5ccccc5)c5nc(c(-c6ccccc6)c6ccc3[nH]6)C=C5)C=C4)cc2)C1
REMARK SMILES IDX 23 1 22 2 21 3 20 4 19 5 17 6 18 7 15 8 12 9 13 10 82 11
REMARK SMILES IDX 14 12 16 13 10 14 11 15 2 16 1 17 3 18 4 19 5 20 6 21 7 22
REMARK SMILES IDX 8 23 9 24 24 25 25 26 26 27 27 28 28 29 29 30 30 31 31 32
REMARK SMILES IDX 32 33 33 34 34 35 35 36 81 37 36 38 80 39 37 40 38 41 39 42
REMARK SMILES IDX 74 43 40 44 79 45 73 46 75 47 41 48 78 49 72 50 71 51 42 53
REMARK SMILES IDX 64 54 49 55 63 56 50 57 53 58 62 59 76 60 51 61 52 62 61 64
REMARK SMILES IDX 77 65 54 66 43 67 44 68 48 69 45 70 47 71 46 72 65 73 66 74
REMARK SMILES IDX 70 75 67 76 69 77 68 78 55 79 56 80 60 81 57 82 59 83 58 84
REMARK H PARENT 75 52 53 63
REMARK Flexibility Score: inf
ROOT
ATOM      1  C   UNL     1      -2.575   0.800  -6.775  1.00  0.00     0.188 C 
ENDROOT
BRANCH   1   2
ATOM      2  O   UNL     1      -3.800   0.567  -7.452  1.00  0.00    -0.376 OA
BRANCH   2   3
ATOM      3  C   UNL     1      -4.766  -0.306  -6.891  1.00  0.00     0.202 C 
BRANCH   3   4
ATOM      4  C   UNL     1      -4.409  -1.771  -6.558  1.00  0.00     0.261 C 
BRANCH   4   5
ATOM      5  O   UNL     1      -3.224  -2.059  -5.769  1.00  0.00    -0.463 OA
BRANCH   5   6
ATOM      6  C   UNL     1      -2.191  -2.550  -6.492  1.00  0.00     0.313 C 
ATOM      7  O   UNL     1      -2.183  -2.551  -7.724  1.00  0.00    -0.252 OA
BRANCH   6   8
ATOM      8  C   UNL     1      -1.009  -3.158  -5.725  1.00  0.00     0.084 C 
ATOM      9  N   UNL     1       0.580  -2.571  -3.961  1.00  0.00    -0.323 N 
ATOM     10  C   UNL     1       1.287  -2.578  -5.228  1.00  0.00     0.122 C 
ATOM     11  C   UNL     1      -0.827  -3.023  -4.190  1.00  0.00     0.139 C 
ATOM     12  C   UNL     1       0.220  -2.418  -6.275  1.00  0.00     0.042 C 
ATOM     13  C   UNL     1      -1.002  -4.652  -6.091  1.00  0.00     0.026 C 
BRANCH   9  14
ATOM     14  C   UNL     1       1.313  -2.107  -2.886  1.00  0.00     0.319 C 
ATOM     15  O   UNL     1       2.428  -1.605  -3.090  1.00  0.00    -0.248 OA
BRANCH  14  16
ATOM     16  N   UNL     1       0.851  -2.134  -1.589  1.00  0.00    -0.325 N 
ATOM     17  C   UNL     1       1.638  -1.351  -0.630  1.00  0.00     0.148 C 
BRANCH  16  18
ATOM     18  C   UNL     1      -0.163  -3.014  -1.016  1.00  0.00     0.149 C 
BRANCH  18  19
ATOM     19  C   UNL     1      -1.354  -2.296  -0.361  1.00  0.00     0.181 C 
BRANCH  19  20
ATOM     20  O   UNL     1      -2.202  -1.560  -1.231  1.00  0.00    -0.379 OA
BRANCH  20  21
ATOM     21  C   UNL     1      -1.606  -0.514  -1.984  1.00  0.00     0.163 C 
BRANCH  21  22
ATOM     22  C   UNL     1      -0.970   0.570  -1.179  1.00  0.00     0.015 C 
ATOM     23  C   UNL     1      -0.155   1.620  -1.912  1.00  0.00     0.006 C 
ATOM     24  C   UNL     1      -1.482   1.954  -1.314  1.00  0.00     0.006 C 
ENDBRANCH  21  22
ENDBRANCH  20  21
ENDBRANCH  19  20
ENDBRANCH  18  19
ENDBRANCH  16  18
ENDBRANCH  14  16
ENDBRANCH   9  14
ENDBRANCH   6   8
ENDBRANCH   5   6
ENDBRANCH   4   5
ENDBRANCH   3   4
ENDBRANCH   2   3
ENDBRANCH   1   2
BRANCH   1  25
ATOM     25  C   UNL     1      -2.523   0.884  -5.241  1.00  0.00     0.188 C 
BRANCH  25  26
ATOM     26  O   UNL     1      -3.729   0.530  -4.602  1.00  0.00    -0.377 OA
BRANCH  26  27
ATOM     27  C   UNL     1      -4.380   1.462  -3.756  1.00  0.00     0.188 C 
BRANCH  27  28
ATOM     28  C   UNL     1      -4.646   2.885  -4.271  1.00  0.00     0.188 C 
BRANCH  28  29
ATOM     29  O   UNL     1      -3.570   3.743  -4.629  1.00  0.00    -0.376 OA
BRANCH  29  30
ATOM     30  C   UNL     1      -2.579   4.141  -3.686  1.00  0.00     0.202 C 
BRANCH  30  31
ATOM     31  C   UNL     1      -3.006   4.691  -2.320  1.00  0.00     0.261 C 
BRANCH  31  32
ATOM     32  O   UNL     1      -3.770   3.721  -1.587  1.00  0.00    -0.460 OA
BRANCH  32  33
ATOM     33  C   UNL     1      -4.858   4.191  -0.951  1.00  0.00     0.338 C 
ATOM     34  O   UNL     1      -5.215   5.347  -0.844  1.00  0.00    -0.246 OA
BRANCH  33  35
ATOM     35  C   UNL     1      -5.702   3.049  -0.566  1.00  0.00     0.060 A 
ATOM     36  C   UNL     1      -6.932   2.945  -1.219  1.00  0.00     0.016 A 
ATOM     37  C   UNL     1      -5.374   2.197   0.493  1.00  0.00     0.016 A 
ATOM     38  C   UNL     1      -7.894   2.069  -0.739  1.00  0.00     0.010 A 
ATOM     39  C   UNL     1      -6.348   1.316   0.979  1.00  0.00     0.010 A 
ATOM     40  C   UNL     1      -7.636   1.312   0.412  1.00  0.00    -0.014 A 
BRANCH  40  41
ATOM     41  C   UNL     1      -8.812   0.774   1.139  1.00  0.00     0.031 A 
ATOM     42  C   UNL     1      -9.360   1.567   2.299  1.00  0.00     0.074 A 
ATOM     43  C   UNL     1      -9.483  -0.295   0.678  1.00  0.00     0.049 A 
ATOM     44  N   UNL     1     -10.447   1.371   3.001  1.00  0.00    -0.248 NA
ATOM     45  C   UNL     1      -8.585   2.750   2.711  1.00  0.00     0.031 C 
ATOM     46  C   UNL     1      -9.099  -1.099  -0.480  1.00  0.00     0.029 A 
ATOM     47  N   UNL     1     -10.650  -0.866   1.118  1.00  0.00    -0.354 N 
ATOM     48  C   UNL     1     -10.486   2.406   3.930  1.00  0.00     0.074 A 
ATOM     49  C   UNL     1      -9.293   3.198   3.734  1.00  0.00     0.031 C 
ATOM     50  C   UNL     1     -10.021  -2.059  -0.665  1.00  0.00     0.029 A 
ATOM     51  C   UNL     1     -11.041  -1.953   0.378  1.00  0.00     0.049 A 
ATOM     52  H   UNL     1     -11.158  -0.529   1.891  1.00  0.00     0.167 HD
ATOM     53  C   UNL     1     -11.435   2.685   4.854  1.00  0.00     0.031 A 
ATOM     54  C   UNL     1     -12.096  -2.777   0.531  1.00  0.00     0.031 A 
ATOM     55  C   UNL     1     -12.613   1.888   5.065  1.00  0.00     0.049 A 
ATOM     56  C   UNL     1     -13.089  -2.509   1.631  1.00  0.00     0.074 A 
ATOM     57  C   UNL     1     -13.628   2.074   5.987  1.00  0.00     0.029 A 
ATOM     58  N   UNL     1     -12.928   0.745   4.346  1.00  0.00    -0.354 N 
ATOM     59  N   UNL     1     -13.116  -1.527   2.500  1.00  0.00    -0.248 NA
ATOM     60  C   UNL     1     -14.205  -3.456   1.760  1.00  0.00     0.031 C 
ATOM     61  C   UNL     1     -14.523   1.006   5.869  1.00  0.00     0.029 A 
ATOM     62  C   UNL     1     -14.106   0.196   4.825  1.00  0.00     0.049 A 
ATOM     63  H   UNL     1     -12.393   0.378   3.606  1.00  0.00     0.167 HD
ATOM     64  C   UNL     1     -14.261  -1.725   3.263  1.00  0.00     0.074 A 
ATOM     65  C   UNL     1     -14.910  -2.909   2.740  1.00  0.00     0.031 C 
ATOM     66  C   UNL     1     -14.734  -0.991   4.301  1.00  0.00     0.031 A 
BRANCH  53  67
ATOM     67  C   UNL     1     -11.201   3.881   5.738  1.00  0.00    -0.014 A 
ATOM     68  C   UNL     1     -11.252   5.191   5.232  1.00  0.00     0.009 A 
ATOM     69  C   UNL     1     -10.920   3.693   7.100  1.00  0.00     0.009 A 
ATOM     70  C   UNL     1     -10.981   6.282   6.061  1.00  0.00     0.001 A 
ATOM     71  C   UNL     1     -10.683   4.787   7.934  1.00  0.00     0.001 A 
ATOM     72  C   UNL     1     -10.700   6.079   7.412  1.00  0.00     0.000 A 
ENDBRANCH  53  67
BRANCH  54  73
ATOM     73  C   UNL     1     -12.242  -3.957  -0.361  1.00  0.00    -0.014 A 
ATOM     74  C   UNL     1     -13.288  -4.044  -1.292  1.00  0.00     0.009 A 
ATOM     75  C   UNL     1     -11.319  -5.014  -0.280  1.00  0.00     0.009 A 
ATOM     76  C   UNL     1     -13.416  -5.172  -2.107  1.00  0.00     0.001 A 
ATOM     77  C   UNL     1     -11.431  -6.124  -1.117  1.00  0.00     0.001 A 
ATOM     78  C   UNL     1     -12.485  -6.207  -2.024  1.00  0.00     0.000 A 
ENDBRANCH  54  73
BRANCH  66  79
ATOM     79  C   UNL     1     -16.032  -1.429   4.923  1.00  0.00    -0.014 A 
ATOM     80  C   UNL     1     -16.116  -2.597   5.697  1.00  0.00     0.009 A 
ATOM     81  C   UNL     1     -17.179  -0.634   4.768  1.00  0.00     0.009 A 
ATOM     82  C   UNL     1     -17.332  -2.979   6.270  1.00  0.00     0.001 A 
ATOM     83  C   UNL     1     -18.384  -1.000   5.369  1.00  0.00     0.001 A 
ATOM     84  C   UNL     1     -18.462  -2.178   6.110  1.00  0.00     0.000 A 
ENDBRANCH  66  79
ENDBRANCH  40  41
ENDBRANCH  33  35
ENDBRANCH  32  33
ENDBRANCH  31  32
ENDBRANCH  30  31
ENDBRANCH  29  30
ENDBRANCH  28  29
ENDBRANCH  27  28
ENDBRANCH  26  27
ENDBRANCH  25  26
ENDBRANCH   1  25
TORSDOF 27
