REMARK SMILES CC(C)(C)c1cc2c(cc1Cl)C=C(C(=O)OCCOCCOCCOCCOC(=O)c1ccc(-c3c4nc(c(-c5ccccc5)c5ccc([nH]5)c(-c5ccccc5)c5nc(c(-c6ccccc6)c6ccc3[nH]6)C=C5)C=C4)cc1)[C@@H](C(F)(F)F)O2
REMARK SMILES IDX 23 1 22 2 21 3 20 4 19 5 18 6 17 7 16 8 14 9 15 10 13 11
REMARK SMILES IDX 5 12 6 13 10 14 7 15 9 16 11 17 8 18 84 19 12 20 79 21 2 22
REMARK SMILES IDX 1 23 3 24 4 25 80 26 81 27 82 28 83 29 24 30 25 31 26 32
REMARK SMILES IDX 27 33 28 34 29 35 30 36 31 37 32 38 78 39 33 40 77 41 34 42
REMARK SMILES IDX 35 43 36 44 71 45 37 46 76 47 70 48 72 49 38 50 75 51 69 52
REMARK SMILES IDX 68 53 39 55 61 56 46 57 60 58 47 59 50 60 59 61 73 62 48 63
REMARK SMILES IDX 49 64 58 66 74 67 51 68 40 69 41 70 45 71 42 72 44 73 43 74
REMARK SMILES IDX 62 75 63 76 67 77 64 78 66 79 65 80 52 81 53 82 57 83 54 84
REMARK SMILES IDX 56 85 55 86
REMARK H PARENT 72 54 50 65
REMARK Flexibility Score: inf
ROOT
ATOM      1  C   UNL     1       2.065  10.741   1.356  1.00  0.00     0.188 C 
ENDROOT
BRANCH   1   2
ATOM      2  O   UNL     1       1.735   9.690   0.448  1.00  0.00    -0.377 OA
BRANCH   2   3
ATOM      3  C   UNL     1       2.693   8.661   0.257  1.00  0.00     0.188 C 
BRANCH   3   4
ATOM      4  C   UNL     1       3.803   9.051  -0.736  1.00  0.00     0.188 C 
BRANCH   4   5
ATOM      5  O   UNL     1       3.804  10.442  -1.054  1.00  0.00    -0.376 OA
BRANCH   5   6
ATOM      6  C   UNL     1       3.255  10.822  -2.311  1.00  0.00     0.202 C 
BRANCH   6   7
ATOM      7  C   UNL     1       1.741  10.637  -2.496  1.00  0.00     0.261 C 
BRANCH   7   8
ATOM      8  O   UNL     1       1.265   9.296  -2.304  1.00  0.00    -0.460 OA
BRANCH   8   9
ATOM      9  C   UNL     1       1.678   8.358  -3.179  1.00  0.00     0.338 C 
ATOM     10  O   UNL     1       2.364   8.534  -4.170  1.00  0.00    -0.246 OA
BRANCH   9  11
ATOM     11  C   UNL     1       1.297   7.036  -2.637  1.00  0.00     0.087 C 
ATOM     12  C   UNL     1       1.077   2.134  -1.422  1.00  0.00    -0.020 A 
ATOM     13  C   UNL     1       0.197   3.239  -1.345  1.00  0.00     0.053 A 
ATOM     14  C   UNL     1       2.425   2.442  -1.717  1.00  0.00     0.045 A 
ATOM     15  C   UNL     1       0.591   4.539  -1.683  1.00  0.00     0.128 A 
ATOM     16  C   UNL     1       2.815   3.746  -2.068  1.00  0.00     0.032 A 
ATOM     17  Cl  UNL     1       3.717   1.291  -1.685  1.00  0.00    -0.084 Cl
ATOM     18  C   UNL     1       1.887   4.783  -2.108  1.00  0.00     0.019 A 
ATOM     19  O   UNL     1      -0.378   5.496  -1.603  1.00  0.00    -0.475 OA
ATOM     20  C   UNL     1       2.241   6.086  -2.642  1.00  0.00     0.027 C 
ATOM     21  C   UNL     1      -0.075   6.851  -2.039  1.00  0.00     0.316 C 
BRANCH  12  22
ATOM     22  C   UNL     1       0.521   0.697  -1.256  1.00  0.00    -0.012 C 
ATOM     23  C   UNL     1       1.034   0.046   0.043  1.00  0.00     0.016 C 
ATOM     24  C   UNL     1       0.885  -0.179  -2.480  1.00  0.00     0.016 C 
ATOM     25  C   UNL     1      -1.032   0.644  -1.183  1.00  0.00     0.016 C 
ENDBRANCH  12  22
BRANCH  21  26
ATOM     26  C   UNL     1      -1.199   7.293  -2.989  1.00  0.00     0.430 C 
ATOM     27  F   UNL     1      -2.418   7.078  -2.437  1.00  0.00    -0.167 F 
ATOM     28  F   UNL     1      -1.136   8.612  -3.282  1.00  0.00    -0.167 F 
ATOM     29  F   UNL     1      -1.160   6.617  -4.160  1.00  0.00    -0.167 F 
ENDBRANCH  21  26
ENDBRANCH   9  11
ENDBRANCH   8   9
ENDBRANCH   7   8
ENDBRANCH   6   7
ENDBRANCH   5   6
ENDBRANCH   4   5
ENDBRANCH   3   4
ENDBRANCH   2   3
ENDBRANCH   1   2
BRANCH   1  30
ATOM     30  C   UNL     1       3.528  11.068   1.736  1.00  0.00     0.188 C 
BRANCH  30  31
ATOM     31  O   UNL     1       4.311   9.922   2.062  1.00  0.00    -0.376 OA
BRANCH  31  32
ATOM     32  C   UNL     1       4.671   9.759   3.426  1.00  0.00     0.202 C 
BRANCH  32  33
ATOM     33  C   UNL     1       3.543   9.196   4.298  1.00  0.00     0.261 C 
BRANCH  33  34
ATOM     34  O   UNL     1       2.376  10.028   4.393  1.00  0.00    -0.460 OA
BRANCH  34  35
ATOM     35  C   UNL     1       2.529  11.273   4.897  1.00  0.00     0.338 C 
ATOM     36  O   UNL     1       3.546  11.770   5.345  1.00  0.00    -0.246 OA
BRANCH  35  37
ATOM     37  C   UNL     1       1.278  12.011   4.625  1.00  0.00     0.060 A 
ATOM     38  C   UNL     1       0.043  11.455   4.970  1.00  0.00     0.016 A 
ATOM     39  C   UNL     1       1.342  13.253   3.980  1.00  0.00     0.016 A 
ATOM     40  C   UNL     1      -1.129  12.160   4.699  1.00  0.00     0.010 A 
ATOM     41  C   UNL     1       0.166  13.954   3.703  1.00  0.00     0.010 A 
ATOM     42  C   UNL     1      -1.075  13.423   4.084  1.00  0.00    -0.014 A 
BRANCH  42  43
ATOM     43  C   UNL     1      -2.297  14.260   4.038  1.00  0.00     0.031 A 
ATOM     44  C   UNL     1      -3.127  14.403   2.801  1.00  0.00     0.074 A 
ATOM     45  C   UNL     1      -2.654  14.895   5.171  1.00  0.00     0.049 A 
ATOM     46  N   UNL     1      -4.274  15.017   2.658  1.00  0.00    -0.248 NA
ATOM     47  C   UNL     1      -2.614  13.786   1.569  1.00  0.00     0.031 C 
ATOM     48  C   UNL     1      -1.907  14.840   6.430  1.00  0.00     0.029 A 
ATOM     49  N   UNL     1      -3.732  15.693   5.455  1.00  0.00    -0.354 N 
ATOM     50  C   UNL     1      -4.636  14.845   1.329  1.00  0.00     0.074 A 
ATOM     51  C   UNL     1      -3.564  14.104   0.696  1.00  0.00     0.031 C 
ATOM     52  C   UNL     1      -2.562  15.551   7.358  1.00  0.00     0.029 A 
ATOM     53  C   UNL     1      -3.758  16.132   6.756  1.00  0.00     0.049 A 
ATOM     54  H   UNL     1      -4.420  15.929   4.792  1.00  0.00     0.167 HD
ATOM     55  C   UNL     1      -5.767  15.256   0.709  1.00  0.00     0.031 A 
ATOM     56  C   UNL     1      -4.647  16.910   7.403  1.00  0.00     0.031 A 
ATOM     57  C   UNL     1      -6.817  16.014   1.345  1.00  0.00     0.049 A 
ATOM     58  C   UNL     1      -5.870  17.388   6.675  1.00  0.00     0.074 A 
ATOM     59  C   UNL     1      -8.019  16.434   0.800  1.00  0.00     0.029 A 
ATOM     60  N   UNL     1      -6.789  16.474   2.652  1.00  0.00    -0.354 N 
ATOM     61  N   UNL     1      -6.241  17.142   5.442  1.00  0.00    -0.248 NA
ATOM     62  C   UNL     1      -6.807  18.233   7.429  1.00  0.00     0.031 C 
ATOM     63  C   UNL     1      -8.685  17.208   1.752  1.00  0.00     0.029 A 
ATOM     64  C   UNL     1      -7.936  17.206   2.917  1.00  0.00     0.049 A 
ATOM     65  H   UNL     1      -6.064  16.307   3.296  1.00  0.00     0.167 HD
ATOM     66  C   UNL     1      -7.462  17.780   5.279  1.00  0.00     0.074 A 
ATOM     67  C   UNL     1      -7.780  18.410   6.544  1.00  0.00     0.031 C 
ATOM     68  C   UNL     1      -8.247  17.835   4.176  1.00  0.00     0.031 A 
BRANCH  55  69
ATOM     69  C   UNL     1      -5.964  14.895  -0.738  1.00  0.00    -0.014 A 
ATOM     70  C   UNL     1      -5.988  15.903  -1.716  1.00  0.00     0.009 A 
ATOM     71  C   UNL     1      -6.282  13.581  -1.112  1.00  0.00     0.009 A 
ATOM     72  C   UNL     1      -6.351  15.607  -3.032  1.00  0.00     0.001 A 
ATOM     73  C   UNL     1      -6.620  13.283  -2.435  1.00  0.00     0.001 A 
ATOM     74  C   UNL     1      -6.666  14.298  -3.390  1.00  0.00     0.000 A 
ENDBRANCH  55  69
BRANCH  56  75
ATOM     75  C   UNL     1      -4.416  17.243   8.832  1.00  0.00    -0.014 A 
ATOM     76  C   UNL     1      -3.344  18.071   9.206  1.00  0.00     0.009 A 
ATOM     77  C   UNL     1      -5.227  16.691   9.834  1.00  0.00     0.009 A 
ATOM     78  C   UNL     1      -3.077  18.322  10.553  1.00  0.00     0.001 A 
ATOM     79  C   UNL     1      -4.976  16.970  11.180  1.00  0.00     0.001 A 
ATOM     80  C   UNL     1      -3.896  17.776  11.538  1.00  0.00     0.000 A 
ENDBRANCH  56  75
BRANCH  68  81
ATOM     81  C   UNL     1      -9.542  18.595   4.269  1.00  0.00    -0.014 A 
ATOM     82  C   UNL     1     -10.763  17.905   4.188  1.00  0.00     0.009 A 
ATOM     83  C   UNL     1      -9.557  19.997   4.329  1.00  0.00     0.009 A 
ATOM     84  C   UNL     1     -11.971  18.603   4.144  1.00  0.00     0.001 A 
ATOM     85  C   UNL     1     -10.769  20.691   4.316  1.00  0.00     0.001 A 
ATOM     86  C   UNL     1     -11.973  19.995   4.212  1.00  0.00     0.000 A 
ENDBRANCH  68  81
ENDBRANCH  42  43
ENDBRANCH  35  37
ENDBRANCH  34  35
ENDBRANCH  33  34
ENDBRANCH  32  33
ENDBRANCH  31  32
ENDBRANCH  30  31
ENDBRANCH   1  30
TORSDOF 22
