REMARK SMILES O=C(NC[C@@H]1CC[C@H](C(=O)OCCOCCOCCOCCOC(=O)c2ccc(-c3c4nc(c(-c5ccccc5)c5ccc([nH]5)c(-c5ccccc5)c5nc(c(-c6ccccc6)c6ccc3[nH]6)C=C5)C=C4)cc2)O1)c1ccc(CO)cc1
REMARK SMILES IDX 15 1 14 2 13 3 12 4 11 5 9 6 10 7 8 8 5 9 6 10 74 11 7 12
REMARK SMILES IDX 4 13 3 14 1 15 2 16 75 18 76 19 82 20 77 21 81 22 78 23
REMARK SMILES IDX 79 24 80 25 16 27 17 28 18 29 19 30 20 31 21 32 22 33 23 34
REMARK SMILES IDX 24 35 25 36 26 37 27 38 73 39 28 40 72 41 29 42 30 43 31 44
REMARK SMILES IDX 66 45 32 46 71 47 65 48 67 49 33 50 70 51 64 52 63 53 34 55
REMARK SMILES IDX 56 56 41 57 55 58 42 59 45 60 54 61 68 62 43 63 44 64 53 66
REMARK SMILES IDX 69 67 46 68 35 69 36 70 40 71 37 72 39 73 38 74 57 75 58 76
REMARK SMILES IDX 62 77 59 78 61 79 60 80 47 81 48 82 52 83 49 84 51 85 50 86
REMARK H PARENT 3 17 80 26 67 54 45 65
REMARK Flexibility Score: inf
ROOT
ATOM      1  C   UNL     1       1.265  -0.010  -5.970  1.00  0.00     0.188 C 
ENDROOT
BRANCH   1   2
ATOM      2  O   UNL     1      -0.028  -0.252  -5.456  1.00  0.00    -0.376 OA
BRANCH   2   3
ATOM      3  C   UNL     1      -0.303  -0.113  -4.070  1.00  0.00     0.202 C 
BRANCH   3   4
ATOM      4  C   UNL     1       0.748  -0.265  -2.955  1.00  0.00     0.261 C 
BRANCH   4   5
ATOM      5  O   UNL     1       2.011   0.398  -3.147  1.00  0.00    -0.461 OA
BRANCH   5   6
ATOM      6  C   UNL     1       3.095  -0.411  -3.231  1.00  0.00     0.335 C 
ATOM      7  O   UNL     1       3.037  -1.638  -3.166  1.00  0.00    -0.249 OA
BRANCH   6   8
ATOM      8  C   UNL     1       4.434   0.317  -3.438  1.00  0.00     0.228 C 
ATOM      9  C   UNL     1       5.326   1.351  -1.547  1.00  0.00     0.138 C 
ATOM     10  C   UNL     1       4.687   2.443  -2.378  1.00  0.00     0.037 C 
ATOM     11  O   UNL     1       5.234   0.110  -2.265  1.00  0.00    -0.361 OA
ATOM     12  C   UNL     1       4.551   1.802  -3.727  1.00  0.00     0.047 C 
BRANCH   9  13
ATOM     13  C   UNL     1       4.723   1.214  -0.148  1.00  0.00     0.148 C 
BRANCH  13  14
ATOM     14  N   UNL     1       3.273   1.000  -0.118  1.00  0.00    -0.349 N 
ATOM     15  O   UNL     1       1.315  -0.078   0.184  1.00  0.00    -0.269 OA
ATOM     16  C   UNL     1       2.539  -0.090   0.281  1.00  0.00     0.251 C 
ATOM     17  H   UNL     1       2.737   1.762  -0.436  1.00  0.00     0.163 HD
BRANCH  16  18
ATOM     18  C   UNL     1       3.216  -1.293   0.796  1.00  0.00     0.039 A 
ATOM     19  C   UNL     1       4.172  -1.200   1.809  1.00  0.00     0.014 A 
ATOM     20  C   UNL     1       2.897  -2.534   0.239  1.00  0.00     0.014 A 
ATOM     21  C   UNL     1       4.916  -2.322   2.160  1.00  0.00     0.007 A 
ATOM     22  C   UNL     1       3.616  -3.666   0.622  1.00  0.00     0.007 A 
ATOM     23  C   UNL     1       4.653  -3.561   1.560  1.00  0.00    -0.023 A 
BRANCH  23  24
ATOM     24  C   UNL     1       5.531  -4.740   1.875  1.00  0.00     0.191 C 
BRANCH  24  25
ATOM     25  O   UNL     1       6.771  -4.614   1.191  1.00  0.00    -0.392 OA
ATOM     26  H   UNL     1       6.610  -4.583   0.234  1.00  0.00     0.211 HD
ENDBRANCH  24  25
ENDBRANCH  23  24
ENDBRANCH  16  18
ENDBRANCH  13  14
ENDBRANCH   9  13
ENDBRANCH   6   8
ENDBRANCH   5   6
ENDBRANCH   4   5
ENDBRANCH   3   4
ENDBRANCH   2   3
ENDBRANCH   1   2
BRANCH   1  27
ATOM     27  C   UNL     1       1.861   1.400  -5.894  1.00  0.00     0.188 C 
BRANCH  27  28
ATOM     28  O   UNL     1       1.406   2.226  -4.838  1.00  0.00    -0.377 OA
BRANCH  28  29
ATOM     29  C   UNL     1       0.218   2.991  -4.997  1.00  0.00     0.188 C 
BRANCH  29  30
ATOM     30  C   UNL     1      -0.703   2.749  -6.206  1.00  0.00     0.188 C 
BRANCH  30  31
ATOM     31  O   UNL     1      -0.025   2.540  -7.433  1.00  0.00    -0.376 OA
BRANCH  31  32
ATOM     32  C   UNL     1       0.258   3.657  -8.264  1.00  0.00     0.202 C 
BRANCH  32  33
ATOM     33  C   UNL     1       1.112   4.796  -7.683  1.00  0.00     0.261 C 
BRANCH  33  34
ATOM     34  O   UNL     1       0.548   5.515  -6.571  1.00  0.00    -0.460 OA
BRANCH  34  35
ATOM     35  C   UNL     1      -0.680   6.052  -6.727  1.00  0.00     0.338 C 
ATOM     36  O   UNL     1      -1.346   6.089  -7.741  1.00  0.00    -0.246 OA
BRANCH  35  37
ATOM     37  C   UNL     1      -1.189   6.430  -5.391  1.00  0.00     0.060 A 
ATOM     38  C   UNL     1      -2.384   5.851  -4.947  1.00  0.00     0.016 A 
ATOM     39  C   UNL     1      -0.524   7.374  -4.605  1.00  0.00     0.016 A 
ATOM     40  C   UNL     1      -2.948   6.259  -3.741  1.00  0.00     0.010 A 
ATOM     41  C   UNL     1      -1.102   7.795  -3.401  1.00  0.00     0.010 A 
ATOM     42  C   UNL     1      -2.339   7.271  -2.987  1.00  0.00    -0.014 A 
BRANCH  42  43
ATOM     43  C   UNL     1      -3.107   7.896  -1.881  1.00  0.00     0.031 A 
ATOM     44  C   UNL     1      -3.819   9.198  -2.140  1.00  0.00     0.074 A 
ATOM     45  C   UNL     1      -3.249   7.275  -0.696  1.00  0.00     0.049 A 
ATOM     46  N   UNL     1      -4.589   9.897  -1.345  1.00  0.00    -0.248 NA
ATOM     47  C   UNL     1      -3.647   9.788  -3.479  1.00  0.00     0.031 C 
ATOM     48  C   UNL     1      -2.655   5.990  -0.334  1.00  0.00     0.029 A 
ATOM     49  N   UNL     1      -3.957   7.646   0.421  1.00  0.00    -0.354 N 
ATOM     50  C   UNL     1      -5.002  10.996  -2.088  1.00  0.00     0.074 A 
ATOM     51  C   UNL     1      -4.360  10.900  -3.381  1.00  0.00     0.031 C 
ATOM     52  C   UNL     1      -3.025   5.676   0.920  1.00  0.00     0.029 A 
ATOM     53  C   UNL     1      -3.857   6.750   1.459  1.00  0.00     0.049 A 
ATOM     54  H   UNL     1      -4.485   8.475   0.474  1.00  0.00     0.167 HD
ATOM     55  C   UNL     1      -5.855  11.988  -1.738  1.00  0.00     0.031 A 
ATOM     56  C   UNL     1      -4.369   6.800   2.704  1.00  0.00     0.031 A 
ATOM     57  C   UNL     1      -6.480  12.101  -0.447  1.00  0.00     0.049 A 
ATOM     58  C   UNL     1      -5.237   7.968   3.099  1.00  0.00     0.074 A 
ATOM     59  C   UNL     1      -7.345  13.081   0.009  1.00  0.00     0.029 A 
ATOM     60  N   UNL     1      -6.308  11.203   0.594  1.00  0.00    -0.354 N 
ATOM     61  N   UNL     1      -5.632   8.991   2.379  1.00  0.00    -0.248 NA
ATOM     62  C   UNL     1      -5.744   7.977   4.479  1.00  0.00     0.031 C 
ATOM     63  C   UNL     1      -7.652  12.806   1.345  1.00  0.00     0.029 A 
ATOM     64  C   UNL     1      -7.034  11.618   1.698  1.00  0.00     0.049 A 
ATOM     65  H   UNL     1      -5.752  10.392   0.555  1.00  0.00     0.167 HD
ATOM     66  C   UNL     1      -6.457   9.743   3.208  1.00  0.00     0.074 A 
ATOM     67  C   UNL     1      -6.529   9.043   4.473  1.00  0.00     0.031 C 
ATOM     68  C   UNL     1      -7.097  10.911   2.950  1.00  0.00     0.031 A 
BRANCH  55  69
ATOM     69  C   UNL     1      -6.152  13.044  -2.765  1.00  0.00    -0.014 A 
ATOM     70  C   UNL     1      -6.944  12.759  -3.890  1.00  0.00     0.009 A 
ATOM     71  C   UNL     1      -5.683  14.354  -2.580  1.00  0.00     0.009 A 
ATOM     72  C   UNL     1      -7.240  13.759  -4.818  1.00  0.00     0.001 A 
ATOM     73  C   UNL     1      -6.006  15.358  -3.495  1.00  0.00     0.001 A 
ATOM     74  C   UNL     1      -6.778  15.059  -4.616  1.00  0.00     0.000 A 
ENDBRANCH  55  69
BRANCH  56  75
ATOM     75  C   UNL     1      -4.054   5.735   3.696  1.00  0.00    -0.014 A 
ATOM     76  C   UNL     1      -5.061   4.907   4.216  1.00  0.00     0.009 A 
ATOM     77  C   UNL     1      -2.744   5.590   4.181  1.00  0.00     0.009 A 
ATOM     78  C   UNL     1      -4.773   3.994   5.234  1.00  0.00     0.001 A 
ATOM     79  C   UNL     1      -2.452   4.650   5.171  1.00  0.00     0.001 A 
ATOM     80  C   UNL     1      -3.469   3.864   5.709  1.00  0.00     0.000 A 
ENDBRANCH  56  75
BRANCH  68  81
ATOM     81  C   UNL     1      -7.962  11.476   4.044  1.00  0.00    -0.014 A 
ATOM     82  C   UNL     1      -7.409  11.990   5.228  1.00  0.00     0.009 A 
ATOM     83  C   UNL     1      -9.357  11.506   3.881  1.00  0.00     0.009 A 
ATOM     84  C   UNL     1      -8.236  12.469   6.246  1.00  0.00     0.001 A 
ATOM     85  C   UNL     1     -10.179  12.020   4.884  1.00  0.00     0.001 A 
ATOM     86  C   UNL     1      -9.619  12.487   6.072  1.00  0.00     0.000 A 
ENDBRANCH  68  81
ENDBRANCH  42  43
ENDBRANCH  35  37
ENDBRANCH  34  35
ENDBRANCH  33  34
ENDBRANCH  32  33
ENDBRANCH  31  32
ENDBRANCH  30  31
ENDBRANCH  29  30
ENDBRANCH  28  29
ENDBRANCH  27  28
ENDBRANCH   1  27
TORSDOF 25
