REMARK SMILES O=C(OCCOCCOCCOCCOC(=O)c1cnccc1C(=O)N1CCC(Cc2ccccc2)CC1)c1ccc(-c2c3nc(c(-c4ccccc4)c4ccc([nH]4)c(-c4ccccc4)c4nc(c(-c5ccccc5)c5ccc2[nH]5)C=C4)C=C3)cc1
REMARK SMILES IDX 10 1 9 2 8 3 7 4 6 5 5 6 4 7 3 8 2 9 1 10 39 11 40 12 86 13
REMARK SMILES IDX 41 14 85 15 42 16 43 17 44 18 79 19 45 20 84 21 78 22 80 23
REMARK SMILES IDX 46 24 83 25 77 26 76 27 47 29 69 30 54 31 68 32 55 33 58 34
REMARK SMILES IDX 67 35 81 36 56 37 57 38 66 40 82 41 59 42 48 43 49 44 53 45
REMARK SMILES IDX 50 46 52 47 51 48 70 49 71 50 75 51 72 52 74 53 73 54 60 55
REMARK SMILES IDX 61 56 65 57 62 58 64 59 63 60 11 61 12 62 13 63 14 64 15 65
REMARK SMILES IDX 16 66 17 67 18 68 19 69 23 70 20 71 22 72 21 73 24 74 25 75
REMARK SMILES IDX 26 76 27 77 38 78 28 79 37 80 29 81 30 82 31 83 32 84 36 85
REMARK SMILES IDX 33 86 35 87 34 88
REMARK H PARENT 80 28 58 39
REMARK Flexibility Score: inf
ROOT
ATOM      1  C   UNL     1       4.199  -0.127  -3.545  1.00  0.00     0.188 C 
ENDROOT
BRANCH   1   2
ATOM      2  O   UNL     1       2.809   0.123  -3.718  1.00  0.00    -0.377 OA
BRANCH   2   3
ATOM      3  C   UNL     1       2.030   0.330  -2.540  1.00  0.00     0.188 C 
BRANCH   3   4
ATOM      4  C   UNL     1       2.357  -0.562  -1.342  1.00  0.00     0.188 C 
BRANCH   4   5
ATOM      5  O   UNL     1       3.653  -0.244  -0.833  1.00  0.00    -0.376 OA
BRANCH   5   6
ATOM      6  C   UNL     1       4.450  -1.356  -0.431  1.00  0.00     0.202 C 
BRANCH   6   7
ATOM      7  C   UNL     1       4.227  -1.770   1.020  1.00  0.00     0.261 C 
BRANCH   7   8
ATOM      8  O   UNL     1       2.869  -1.579   1.436  1.00  0.00    -0.460 OA
BRANCH   8   9
ATOM      9  C   UNL     1       2.291  -0.449   1.915  1.00  0.00     0.338 C 
ATOM     10  O   UNL     1       1.091  -0.489   2.188  1.00  0.00    -0.246 OA
BRANCH   9  11
ATOM     11  C   UNL     1       3.012   0.842   2.175  1.00  0.00     0.060 A 
ATOM     12  C   UNL     1       4.217   1.249   1.597  1.00  0.00     0.016 A 
ATOM     13  C   UNL     1       2.389   1.734   3.069  1.00  0.00     0.016 A 
ATOM     14  C   UNL     1       4.834   2.440   1.951  1.00  0.00     0.010 A 
ATOM     15  C   UNL     1       2.998   2.938   3.436  1.00  0.00     0.010 A 
ATOM     16  C   UNL     1       4.256   3.256   2.916  1.00  0.00    -0.014 A 
BRANCH  16  17
ATOM     17  C   UNL     1       5.141   4.235   3.567  1.00  0.00     0.031 A 
ATOM     18  C   UNL     1       5.794   3.808   4.851  1.00  0.00     0.074 A 
ATOM     19  C   UNL     1       5.501   5.360   2.927  1.00  0.00     0.049 A 
ATOM     20  N   UNL     1       6.635   4.452   5.613  1.00  0.00    -0.248 NA
ATOM     21  C   UNL     1       5.470   2.450   5.329  1.00  0.00     0.031 C 
ATOM     22  C   UNL     1       5.048   5.755   1.592  1.00  0.00     0.029 A 
ATOM     23  N   UNL     1       6.372   6.348   3.295  1.00  0.00    -0.354 N 
ATOM     24  C   UNL     1       6.907   3.594   6.672  1.00  0.00     0.074 A 
ATOM     25  C   UNL     1       6.150   2.385   6.460  1.00  0.00     0.031 C 
ATOM     26  C   UNL     1       5.670   6.894   1.242  1.00  0.00     0.029 A 
ATOM     27  C   UNL     1       6.512   7.333   2.349  1.00  0.00     0.049 A 
ATOM     28  H   UNL     1       6.852   6.352   4.154  1.00  0.00     0.167 HD
ATOM     29  C   UNL     1       7.712   3.808   7.737  1.00  0.00     0.031 A 
ATOM     30  C   UNL     1       7.230   8.471   2.400  1.00  0.00     0.031 A 
ATOM     31  C   UNL     1       8.445   5.027   7.925  1.00  0.00     0.049 A 
ATOM     32  C   UNL     1       8.026   8.740   3.649  1.00  0.00     0.074 A 
ATOM     33  C   UNL     1       9.229   5.415   8.992  1.00  0.00     0.029 A 
ATOM     34  N   UNL     1       8.475   6.061   6.998  1.00  0.00    -0.354 N 
ATOM     35  N   UNL     1       8.208   7.968   4.697  1.00  0.00    -0.248 NA
ATOM     36  C   UNL     1       8.707  10.037   3.730  1.00  0.00     0.031 C 
ATOM     37  C   UNL     1       9.693   6.710   8.733  1.00  0.00     0.029 A 
ATOM     38  C   UNL     1       9.250   7.099   7.476  1.00  0.00     0.049 A 
ATOM     39  H   UNL     1       8.012   6.055   6.129  1.00  0.00     0.167 HD
ATOM     40  C   UNL     1       9.045   8.674   5.550  1.00  0.00     0.074 A 
ATOM     41  C   UNL     1       9.346   9.929   4.887  1.00  0.00     0.031 C 
ATOM     42  C   UNL     1       9.524   8.325   6.770  1.00  0.00     0.031 A 
BRANCH  29  43
ATOM     43  C   UNL     1       7.728   2.744   8.799  1.00  0.00    -0.014 A 
ATOM     44  C   UNL     1       8.339   1.496   8.595  1.00  0.00     0.009 A 
ATOM     45  C   UNL     1       7.047   2.976  10.004  1.00  0.00     0.009 A 
ATOM     46  C   UNL     1       8.224   0.488   9.556  1.00  0.00     0.001 A 
ATOM     47  C   UNL     1       6.958   1.977  10.975  1.00  0.00     0.001 A 
ATOM     48  C   UNL     1       7.535   0.729  10.744  1.00  0.00     0.000 A 
ENDBRANCH  29  43
BRANCH  30  49
ATOM     49  C   UNL     1       7.188   9.446   1.277  1.00  0.00    -0.014 A 
ATOM     50  C   UNL     1       8.337   9.742   0.529  1.00  0.00     0.009 A 
ATOM     51  C   UNL     1       5.989  10.107   0.957  1.00  0.00     0.009 A 
ATOM     52  C   UNL     1       8.292  10.692  -0.497  1.00  0.00     0.001 A 
ATOM     53  C   UNL     1       5.939  11.033  -0.088  1.00  0.00     0.001 A 
ATOM     54  C   UNL     1       7.093  11.332  -0.808  1.00  0.00     0.000 A 
ENDBRANCH  30  49
BRANCH  42  55
ATOM     55  C   UNL     1      10.462   9.294   7.428  1.00  0.00    -0.014 A 
ATOM     56  C   UNL     1      10.002  10.499   7.978  1.00  0.00     0.009 A 
ATOM     57  C   UNL     1      11.822   8.964   7.536  1.00  0.00     0.009 A 
ATOM     58  C   UNL     1      10.897  11.375   8.592  1.00  0.00     0.001 A 
ATOM     59  C   UNL     1      12.707   9.826   8.180  1.00  0.00     0.001 A 
ATOM     60  C   UNL     1      12.246  11.035   8.698  1.00  0.00     0.000 A 
ENDBRANCH  42  55
ENDBRANCH  16  17
ENDBRANCH   9  11
ENDBRANCH   8   9
ENDBRANCH   7   8
ENDBRANCH   6   7
ENDBRANCH   5   6
ENDBRANCH   4   5
ENDBRANCH   3   4
ENDBRANCH   2   3
ENDBRANCH   1   2
BRANCH   1  61
ATOM     61  C   UNL     1       5.106   1.008  -3.008  1.00  0.00     0.188 C 
BRANCH  61  62
ATOM     62  O   UNL     1       4.454   2.090  -2.380  1.00  0.00    -0.376 OA
BRANCH  62  63
ATOM     63  C   UNL     1       3.948   3.167  -3.149  1.00  0.00     0.202 C 
BRANCH  63  64
ATOM     64  C   UNL     1       3.814   3.174  -4.679  1.00  0.00     0.261 C 
BRANCH  64  65
ATOM     65  O   UNL     1       4.138   1.975  -5.391  1.00  0.00    -0.460 OA
BRANCH  65  66
ATOM     66  C   UNL     1       5.295   1.958  -6.088  1.00  0.00     0.340 C 
ATOM     67  O   UNL     1       6.161   2.819  -6.094  1.00  0.00    -0.246 OA
BRANCH  66  68
ATOM     68  C   UNL     1       5.453   0.664  -6.750  1.00  0.00     0.091 A 
ATOM     69  C   UNL     1       6.581  -0.042  -6.324  1.00  0.00     0.127 A 
ATOM     70  C   UNL     1       4.551   0.028  -7.605  1.00  0.00     0.057 A 
ATOM     71  N   UNL     1       6.837  -1.336  -6.619  1.00  0.00    -0.264 NA
ATOM     72  C   UNL     1       4.829  -1.319  -7.932  1.00  0.00     0.035 A 
ATOM     73  C   UNL     1       5.944  -1.953  -7.410  1.00  0.00     0.112 A 
BRANCH  70  74
ATOM     74  C   UNL     1       3.220   0.518  -8.089  1.00  0.00     0.254 C 
ATOM     75  O   UNL     1       2.439  -0.347  -8.502  1.00  0.00    -0.269 OA
ATOM     76  N   UNL     1       2.787   1.841  -8.011  1.00  0.00    -0.339 N 
ATOM     77  C   UNL     1       1.433   2.003  -7.481  1.00  0.00     0.120 C 
ATOM     78  C   UNL     1       3.594   3.038  -8.253  1.00  0.00     0.120 C 
ATOM     79  C   UNL     1       0.683   3.212  -8.012  1.00  0.00     0.025 C 
ATOM     80  C   UNL     1       2.805   4.238  -8.760  1.00  0.00     0.025 C 
ATOM     81  C   UNL     1       1.548   4.471  -7.903  1.00  0.00    -0.003 C 
BRANCH  81  82
ATOM     82  C   UNL     1       0.842   5.759  -8.355  1.00  0.00     0.039 C 
BRANCH  82  83
ATOM     83  C   UNL     1      -0.545   5.960  -7.798  1.00  0.00    -0.048 A 
ATOM     84  C   UNL     1      -1.654   5.808  -8.644  1.00  0.00     0.004 A 
ATOM     85  C   UNL     1      -0.757   6.286  -6.453  1.00  0.00     0.004 A 
ATOM     86  C   UNL     1      -2.948   5.992  -8.160  1.00  0.00     0.000 A 
ATOM     87  C   UNL     1      -2.056   6.470  -5.970  1.00  0.00     0.000 A 
ATOM     88  C   UNL     1      -3.149   6.327  -6.823  1.00  0.00     0.000 A 
ENDBRANCH  82  83
ENDBRANCH  81  82
ENDBRANCH  70  74
ENDBRANCH  66  68
ENDBRANCH  65  66
ENDBRANCH  64  65
ENDBRANCH  63  64
ENDBRANCH  62  63
ENDBRANCH  61  62
ENDBRANCH   1  61
TORSDOF 23
