REMARK SMILES Cc1ccc(F)cc1S(=O)(=O)Nc1cc(C(=O)OCCOCCOCCOCCOC(=O)c2ccc(-c3c4nc(c(-c5ccccc5)c5ccc([nH]5)c(-c5ccccc5)c5nc(c(-c6ccccc6)c6ccc3[nH]6)C=C5)C=C4)cc2)ccc1N(C)Cc1ccccc1
REMARK SMILES IDX 23 1 22 2 21 3 20 4 19 5 18 6 16 7 17 8 15 9 13 10 14 11
REMARK SMILES IDX 83 12 82 13 81 14 12 15 9 17 10 18 11 19 8 20 1 21 2 22 3 23
REMARK SMILES IDX 4 24 7 25 5 26 6 27 84 28 85 29 86 30 87 31 88 32 92 33
REMARK SMILES IDX 89 34 91 35 90 36 24 37 25 38 26 39 27 40 28 41 29 42 30 43
REMARK SMILES IDX 31 44 32 45 33 46 34 47 80 48 35 49 79 50 36 51 37 52 38 53
REMARK SMILES IDX 73 54 39 55 78 56 72 57 74 58 40 59 77 60 71 61 70 62 41 64
REMARK SMILES IDX 63 65 48 66 62 67 49 68 52 69 61 70 75 71 50 72 51 73 60 75
REMARK SMILES IDX 76 76 53 77 42 78 43 79 47 80 44 81 46 82 45 83 64 84 65 85
REMARK SMILES IDX 69 86 66 87 68 88 67 89 54 90 55 91 59 92 56 93 58 94 57 95
REMARK H PARENT 12 16 74 63 52 74
REMARK Flexibility Score: inf
ROOT
ATOM      1  C   UNL     1       8.229  -0.247   0.580  1.00  0.00     0.188 C 
ENDROOT
BRANCH   1   2
ATOM      2  C   UNL     1       8.406  -0.560  -0.921  1.00  0.00     0.188 C 
BRANCH   2   3
ATOM      3  O   UNL     1       9.504   0.059  -1.552  1.00  0.00    -0.376 OA
BRANCH   3   4
ATOM      4  C   UNL     1       9.364   1.336  -2.152  1.00  0.00     0.202 C 
BRANCH   4   5
ATOM      5  C   UNL     1       8.166   2.293  -1.940  1.00  0.00     0.261 C 
BRANCH   5   6
ATOM      6  O   UNL     1       7.271   2.025  -0.836  1.00  0.00    -0.460 OA
BRANCH   6   7
ATOM      7  C   UNL     1       6.051   1.575  -1.215  1.00  0.00     0.338 C 
ATOM      8  O   UNL     1       5.697   1.540  -2.385  1.00  0.00    -0.246 OA
BRANCH   7   9
ATOM      9  C   UNL     1       5.249   0.864  -0.155  1.00  0.00     0.062 A 
ATOM     10  C   UNL     1       3.785  -1.087   0.178  1.00  0.00     0.073 A 
ATOM     11  C   UNL     1       4.886  -0.450  -0.453  1.00  0.00     0.044 A 
ATOM     12  C   UNL     1       3.114  -0.568   1.293  1.00  0.00     0.061 A 
ATOM     13  C   UNL     1       3.648   0.705   1.691  1.00  0.00     0.029 A 
ATOM     14  C   UNL     1       4.658   1.433   0.962  1.00  0.00     0.018 A 
BRANCH  10  15
ATOM     15  N   UNL     1       3.066  -1.997  -0.653  1.00  0.00    -0.277 N 
ATOM     16  H   UNL     1       3.034  -2.973  -0.524  1.00  0.00     0.180 HD
BRANCH  15  17
ATOM     17  S   UNL     1       2.255  -1.134  -1.924  1.00  0.00     0.262 S 
ATOM     18  O   UNL     1       1.267  -2.000  -2.495  1.00  0.00    -0.201 OA
ATOM     19  O   UNL     1       3.332  -0.726  -2.815  1.00  0.00    -0.201 OA
BRANCH  17  20
ATOM     20  C   UNL     1       1.425   0.350  -1.216  1.00  0.00     0.093 A 
ATOM     21  C   UNL     1       2.803   2.095  -2.446  1.00  0.00     0.046 C 
ATOM     22  C   UNL     1       1.657   1.666  -1.607  1.00  0.00    -0.030 A 
ATOM     23  C   UNL     1       0.800   2.709  -1.157  1.00  0.00     0.008 A 
ATOM     24  C   UNL     1      -0.249   2.483  -0.274  1.00  0.00     0.039 A 
ATOM     25  C   UNL     1       0.447   0.206  -0.236  1.00  0.00     0.061 A 
ATOM     26  C   UNL     1      -0.390   1.218   0.220  1.00  0.00     0.124 A 
ATOM     27  F   UNL     1      -1.311   0.951   1.158  1.00  0.00    -0.207 F 
ENDBRANCH  17  20
ENDBRANCH  15  17
ENDBRANCH  10  15
BRANCH  12  28
ATOM     28  N   UNL     1       1.923  -1.151   1.826  1.00  0.00    -0.369 N 
ATOM     29  C   UNL     1       1.401  -0.485   3.031  1.00  0.00     0.144 C 
BRANCH  28  30
ATOM     30  C   UNL     1       1.348  -2.592   1.630  1.00  0.00     0.151 C 
BRANCH  30  31
ATOM     31  C   UNL     1       0.504  -3.174   0.417  1.00  0.00    -0.029 A 
ATOM     32  C   UNL     1      -0.580  -2.627  -0.313  1.00  0.00     0.005 A 
ATOM     33  C   UNL     1       0.758  -4.520   0.073  1.00  0.00     0.005 A 
ATOM     34  C   UNL     1      -1.053  -3.191  -1.524  1.00  0.00     0.000 A 
ATOM     35  C   UNL     1       0.202  -5.146  -1.065  1.00  0.00     0.000 A 
ATOM     36  C   UNL     1      -0.624  -4.442  -1.926  1.00  0.00     0.000 A 
ENDBRANCH  30  31
ENDBRANCH  28  30
ENDBRANCH  12  28
ENDBRANCH   7   9
ENDBRANCH   6   7
ENDBRANCH   5   6
ENDBRANCH   4   5
ENDBRANCH   3   4
ENDBRANCH   2   3
ENDBRANCH   1   2
BRANCH   1  37
ATOM     37  O   UNL     1       8.743   0.965   1.096  1.00  0.00    -0.377 OA
BRANCH  37  38
ATOM     38  C   UNL     1      10.139   1.214   1.032  1.00  0.00     0.188 C 
BRANCH  38  39
ATOM     39  C   UNL     1      11.157   0.076   0.787  1.00  0.00     0.188 C 
BRANCH  39  40
ATOM     40  O   UNL     1      10.648  -1.243   0.870  1.00  0.00    -0.376 OA
BRANCH  40  41
ATOM     41  C   UNL     1      10.838  -1.972   2.073  1.00  0.00     0.202 C 
BRANCH  41  42
ATOM     42  C   UNL     1      10.216  -1.424   3.370  1.00  0.00     0.261 C 
BRANCH  42  43
ATOM     43  O   UNL     1      10.543  -0.069   3.703  1.00  0.00    -0.460 OA
BRANCH  43  44
ATOM     44  C   UNL     1      11.843   0.195   3.955  1.00  0.00     0.338 C 
ATOM     45  O   UNL     1      12.768  -0.591   3.961  1.00  0.00    -0.246 OA
BRANCH  44  46
ATOM     46  C   UNL     1      11.995   1.662   4.034  1.00  0.00     0.060 A 
ATOM     47  C   UNL     1      12.859   2.296   3.130  1.00  0.00     0.016 A 
ATOM     48  C   UNL     1      11.290   2.403   4.985  1.00  0.00     0.016 A 
ATOM     49  C   UNL     1      13.068   3.669   3.214  1.00  0.00     0.010 A 
ATOM     50  C   UNL     1      11.522   3.775   5.088  1.00  0.00     0.010 A 
ATOM     51  C   UNL     1      12.452   4.400   4.237  1.00  0.00    -0.014 A 
BRANCH  51  52
ATOM     52  C   UNL     1      13.001   5.729   4.590  1.00  0.00     0.031 A 
ATOM     53  C   UNL     1      14.017   5.791   5.699  1.00  0.00     0.074 A 
ATOM     54  C   UNL     1      12.661   6.841   3.918  1.00  0.00     0.049 A 
ATOM     55  N   UNL     1      14.647   6.824   6.197  1.00  0.00    -0.248 NA
ATOM     56  C   UNL     1      14.368   4.508   6.331  1.00  0.00     0.031 C 
ATOM     57  C   UNL     1      11.744   6.901   2.783  1.00  0.00     0.029 A 
ATOM     58  N   UNL     1      13.066   8.139   4.100  1.00  0.00    -0.354 N 
ATOM     59  C   UNL     1      15.459   6.315   7.203  1.00  0.00     0.074 A 
ATOM     60  C   UNL     1      15.210   4.893   7.276  1.00  0.00     0.031 C 
ATOM     61  C   UNL     1      11.659   8.176   2.364  1.00  0.00     0.029 A 
ATOM     62  C   UNL     1      12.487   9.021   3.223  1.00  0.00     0.049 A 
ATOM     63  H   UNL     1      13.709   8.411   4.793  1.00  0.00     0.167 HD
ATOM     64  C   UNL     1      16.343   6.969   7.993  1.00  0.00     0.031 A 
ATOM     65  C   UNL     1      12.608  10.360   3.136  1.00  0.00     0.031 A 
ATOM     66  C   UNL     1      16.568   8.387   7.941  1.00  0.00     0.049 A 
ATOM     67  C   UNL     1      13.515  11.084   4.096  1.00  0.00     0.074 A 
ATOM     68  C   UNL     1      17.434   9.152   8.701  1.00  0.00     0.029 A 
ATOM     69  N   UNL     1      15.910   9.256   7.084  1.00  0.00    -0.354 N 
ATOM     70  N   UNL     1      14.286  10.596   5.039  1.00  0.00    -0.248 NA
ATOM     71  C   UNL     1      13.576  12.547   3.969  1.00  0.00     0.031 C 
ATOM     72  C   UNL     1      17.252  10.494   8.348  1.00  0.00     0.029 A 
ATOM     73  C   UNL     1      16.331  10.555   7.314  1.00  0.00     0.049 A 
ATOM     74  H   UNL     1      15.243   8.989   6.411  1.00  0.00     0.167 HD
ATOM     75  C   UNL     1      14.955  11.685   5.587  1.00  0.00     0.074 A 
ATOM     76  C   UNL     1      14.502  12.857   4.865  1.00  0.00     0.031 C 
ATOM     77  C   UNL     1      15.870  11.712   6.588  1.00  0.00     0.031 A 
BRANCH  64  78
ATOM     78  C   UNL     1      17.081   6.146   9.014  1.00  0.00    -0.014 A 
ATOM     79  C   UNL     1      18.026   5.177   8.635  1.00  0.00     0.009 A 
ATOM     80  C   UNL     1      16.811   6.329  10.379  1.00  0.00     0.009 A 
ATOM     81  C   UNL     1      18.640   4.372   9.597  1.00  0.00     0.001 A 
ATOM     82  C   UNL     1      17.455   5.549  11.341  1.00  0.00     0.001 A 
ATOM     83  C   UNL     1      18.357   4.561  10.949  1.00  0.00     0.000 A 
ENDBRANCH  64  78
BRANCH  65  84
ATOM     84  C   UNL     1      11.854  11.108   2.095  1.00  0.00    -0.014 A 
ATOM     85  C   UNL     1      12.529  11.725   1.030  1.00  0.00     0.009 A 
ATOM     86  C   UNL     1      10.456  11.220   2.167  1.00  0.00     0.009 A 
ATOM     87  C   UNL     1      11.822  12.455   0.072  1.00  0.00     0.001 A 
ATOM     88  C   UNL     1       9.750  11.925   1.190  1.00  0.00     0.001 A 
ATOM     89  C   UNL     1      10.434  12.549   0.149  1.00  0.00     0.000 A 
ENDBRANCH  65  84
BRANCH  77  90
ATOM     90  C   UNL     1      16.489  13.043   6.926  1.00  0.00    -0.014 A 
ATOM     91  C   UNL     1      15.755  14.067   7.544  1.00  0.00     0.009 A 
ATOM     92  C   UNL     1      17.851  13.256   6.652  1.00  0.00     0.009 A 
ATOM     93  C   UNL     1      16.361  15.290   7.841  1.00  0.00     0.001 A 
ATOM     94  C   UNL     1      18.463  14.466   6.983  1.00  0.00     0.001 A 
ATOM     95  C   UNL     1      17.714  15.486   7.565  1.00  0.00     0.000 A 
ENDBRANCH  77  90
ENDBRANCH  51  52
ENDBRANCH  44  46
ENDBRANCH  43  44
ENDBRANCH  42  43
ENDBRANCH  41  42
ENDBRANCH  40  41
ENDBRANCH  39  40
ENDBRANCH  38  39
ENDBRANCH  37  38
ENDBRANCH   1  37
TORSDOF 26
