REMARK SMILES COc1ccccc1C(=O)N/C(=C/c1ccc2c(c1)OCO2)C(=O)Nc1ccc(C(=O)OCCOCCOCCOCCOC(=O)c2ccc(-c3c4nc(c(-c5ccccc5)c5ccc([nH]5)c(-c5ccccc5)c5nc(c(-c6ccccc6)c6ccc3[nH]6)C=C5)C=C4)cc2)cc1
REMARK SMILES IDX 36 1 35 2 34 3 33 4 32 5 30 6 31 7 29 8 26 9 27 10 96 11
REMARK SMILES IDX 28 12 95 13 25 14 23 15 24 16 12 18 13 19 11 20 9 21 10 22
REMARK SMILES IDX 8 24 3 25 4 26 5 27 7 28 6 29 2 30 1 31 14 32 15 33 19 34
REMARK SMILES IDX 16 35 18 36 17 37 20 38 22 39 21 40 37 41 38 42 39 43 40 44
REMARK SMILES IDX 41 45 42 46 43 47 44 48 45 49 46 50 47 51 48 52 94 53 49 54
REMARK SMILES IDX 93 55 50 56 51 57 52 58 87 59 53 60 92 61 86 62 88 63 54 64
REMARK SMILES IDX 91 65 85 66 84 67 55 69 77 70 62 71 76 72 63 73 66 74 75 75
REMARK SMILES IDX 89 76 64 77 65 78 74 80 90 81 67 82 56 83 57 84 61 85 58 86
REMARK SMILES IDX 60 87 59 88 78 89 79 90 83 91 80 92 82 93 81 94 68 95 69 96
REMARK SMILES IDX 73 97 70 98 72 99 71 100
REMARK H PARENT 25 17 11 23 88 68 66 79
REMARK Flexibility Score: inf
ROOT
ATOM      1  C   UNL     1      -4.984   0.168   5.253  1.00  0.00     0.188 C 
ENDROOT
BRANCH   1   2
ATOM      2  O   UNL     1      -5.217   0.209   6.649  1.00  0.00    -0.376 OA
BRANCH   2   3
ATOM      3  C   UNL     1      -4.295   0.738   7.608  1.00  0.00     0.202 C 
BRANCH   3   4
ATOM      4  C   UNL     1      -2.764   0.970   7.441  1.00  0.00     0.261 C 
BRANCH   4   5
ATOM      5  O   UNL     1      -2.108   0.617   6.235  1.00  0.00    -0.460 OA
BRANCH   5   6
ATOM      6  C   UNL     1      -2.231  -0.677   5.886  1.00  0.00     0.338 C 
ATOM      7  O   UNL     1      -2.558  -1.622   6.578  1.00  0.00    -0.246 OA
BRANCH   6   8
ATOM      8  C   UNL     1      -2.432  -0.628   4.420  1.00  0.00     0.060 A 
ATOM      9  C   UNL     1      -2.242  -0.617   0.604  1.00  0.00     0.041 A 
ATOM     10  C   UNL     1      -2.907  -2.238   1.380  1.00  0.00     0.027 A 
ATOM     11  C   UNL     1      -1.842   1.007   1.563  1.00  0.00     0.027 A 
ATOM     12  C   UNL     1      -3.034  -2.261   3.518  1.00  0.00     0.018 A 
ATOM     13  C   UNL     1      -1.953   1.028   3.510  1.00  0.00     0.018 A 
BRANCH   9  14
ATOM     14  N   UNL     1      -1.237  -1.466  -0.003  1.00  0.00    -0.321 N 
ATOM     15  C   UNL     1       0.007  -1.229  -0.339  1.00  0.00     0.272 C 
ATOM     16  O   UNL     1      -0.409  -0.624  -1.335  1.00  0.00    -0.267 OA
ATOM     17  H   UNL     1      -1.542  -2.382  -0.196  1.00  0.00     0.170 HD
BRANCH  15  18
ATOM     18  C   UNL     1       1.563  -1.243   0.399  1.00  0.00     0.108 C 
ATOM     19  C   UNL     1       1.652  -1.027   1.734  1.00  0.00     0.040 C 
BRANCH  18  20
ATOM     20  N   UNL     1       2.857  -1.034  -0.220  1.00  0.00    -0.317 N 
ATOM     21  C   UNL     1       3.452  -1.009  -1.528  1.00  0.00     0.259 C 
ATOM     22  O   UNL     1       4.588  -0.543  -1.647  1.00  0.00    -0.269 OA
ATOM     23  H   UNL     1       3.539  -0.855   0.468  1.00  0.00     0.170 HD
BRANCH  21  24
ATOM     24  C   UNL     1       2.660  -1.374  -2.770  1.00  0.00     0.082 A 
ATOM     25  C   UNL     1       1.386  -0.959  -2.637  1.00  0.00     0.131 A 
ATOM     26  C   UNL     1       0.342  -1.563  -3.384  1.00  0.00     0.047 A 
ATOM     27  C   UNL     1       0.634  -2.058  -4.627  1.00  0.00     0.004 A 
ATOM     28  C   UNL     1       2.970  -1.539  -4.108  1.00  0.00     0.018 A 
ATOM     29  C   UNL     1       1.942  -1.867  -5.045  1.00  0.00     0.001 A 
BRANCH  25  30
ATOM     30  O   UNL     1       1.527   0.208  -1.942  1.00  0.00    -0.496 OA
ATOM     31  C   UNL     1       1.084   1.151  -0.984  1.00  0.00     0.278 C 
ENDBRANCH  25  30
ENDBRANCH  21  24
ENDBRANCH  18  20
BRANCH  19  32
ATOM     32  C   UNL     1       0.573  -1.315   2.579  1.00  0.00    -0.019 A 
ATOM     33  C   UNL     1      -0.232  -0.301   2.765  1.00  0.00     0.012 A 
ATOM     34  C   UNL     1      -0.123  -2.428   2.554  1.00  0.00     0.058 A 
ATOM     35  C   UNL     1      -1.925  -0.637   2.583  1.00  0.00     0.051 A 
ATOM     36  C   UNL     1      -1.545  -2.053   2.519  1.00  0.00     0.166 A 
ATOM     37  C   UNL     1      -3.233  -0.942   2.437  1.00  0.00     0.165 A 
ATOM     38  O   UNL     1      -1.988  -3.809   2.601  1.00  0.00    -0.454 OA
ATOM     39  O   UNL     1      -4.448  -2.414   2.296  1.00  0.00    -0.454 OA
ATOM     40  C   UNL     1      -3.506  -4.013   2.273  1.00  0.00     0.468 C 
ENDBRANCH  19  32
ENDBRANCH  15  18
ENDBRANCH   9  14
ENDBRANCH   6   8
ENDBRANCH   5   6
ENDBRANCH   4   5
ENDBRANCH   3   4
ENDBRANCH   2   3
ENDBRANCH   1   2
BRANCH   1  41
ATOM     41  C   UNL     1      -4.730   1.379   4.338  1.00  0.00     0.188 C 
BRANCH  41  42
ATOM     42  O   UNL     1      -3.848   2.222   5.004  1.00  0.00    -0.377 OA
BRANCH  42  43
ATOM     43  C   UNL     1      -4.649   2.994   5.871  1.00  0.00     0.188 C 
BRANCH  43  44
ATOM     44  C   UNL     1      -6.177   2.509   6.296  1.00  0.00     0.188 C 
BRANCH  44  45
ATOM     45  O   UNL     1      -7.235   1.629   5.791  1.00  0.00    -0.376 OA
BRANCH  45  46
ATOM     46  C   UNL     1      -7.426   1.421   4.396  1.00  0.00     0.202 C 
BRANCH  46  47
ATOM     47  C   UNL     1      -7.439   2.679   3.448  1.00  0.00     0.261 C 
BRANCH  47  48
ATOM     48  O   UNL     1      -6.818   3.970   3.835  1.00  0.00    -0.460 OA
BRANCH  48  49
ATOM     49  C   UNL     1      -7.344   4.725   4.867  1.00  0.00     0.338 C 
ATOM     50  O   UNL     1      -8.374   4.477   5.473  1.00  0.00    -0.246 OA
BRANCH  49  51
ATOM     51  C   UNL     1      -6.330   5.692   5.438  1.00  0.00     0.060 A 
ATOM     52  C   UNL     1      -5.863   5.724   6.790  1.00  0.00     0.016 A 
ATOM     53  C   UNL     1      -5.988   6.710   4.579  1.00  0.00     0.016 A 
ATOM     54  C   UNL     1      -5.248   6.867   7.303  1.00  0.00     0.010 A 
ATOM     55  C   UNL     1      -5.383   7.846   5.091  1.00  0.00     0.010 A 
ATOM     56  C   UNL     1      -5.051   7.954   6.453  1.00  0.00    -0.014 A 
BRANCH  56  57
ATOM     57  C   UNL     1      -4.553   9.241   6.971  1.00  0.00     0.031 A 
ATOM     58  C   UNL     1      -5.432  10.447   6.903  1.00  0.00     0.074 A 
ATOM     59  C   UNL     1      -3.310   9.334   7.477  1.00  0.00     0.049 A 
ATOM     60  N   UNL     1      -5.152  11.661   7.290  1.00  0.00    -0.248 NA
ATOM     61  C   UNL     1      -6.780  10.284   6.331  1.00  0.00     0.031 C 
ATOM     62  C   UNL     1      -2.376   8.217   7.593  1.00  0.00     0.029 A 
ATOM     63  N   UNL     1      -2.618  10.405   7.985  1.00  0.00    -0.354 N 
ATOM     64  C   UNL     1      -6.283  12.404   7.014  1.00  0.00     0.074 A 
ATOM     65  C   UNL     1      -7.238  11.525   6.378  1.00  0.00     0.031 C 
ATOM     66  C   UNL     1      -1.246   8.651   8.168  1.00  0.00     0.029 A 
ATOM     67  C   UNL     1      -1.352  10.084   8.413  1.00  0.00     0.049 A 
ATOM     68  H   UNL     1      -2.991  11.315   8.038  1.00  0.00     0.167 HD
ATOM     69  C   UNL     1      -6.499  13.707   7.288  1.00  0.00     0.031 A 
ATOM     70  C   UNL     1      -0.370  10.845   8.933  1.00  0.00     0.031 A 
ATOM     71  C   UNL     1      -5.531  14.576   7.882  1.00  0.00     0.049 A 
ATOM     72  C   UNL     1      -0.602  12.313   9.119  1.00  0.00     0.074 A 
ATOM     73  C   UNL     1      -5.689  15.913   8.189  1.00  0.00     0.029 A 
ATOM     74  N   UNL     1      -4.239  14.223   8.232  1.00  0.00    -0.354 N 
ATOM     75  N   UNL     1      -1.692  12.994   8.875  1.00  0.00    -0.248 NA
ATOM     76  C   UNL     1       0.511  13.119   9.643  1.00  0.00     0.031 C 
ATOM     77  C   UNL     1      -4.474  16.395   8.649  1.00  0.00     0.029 A 
ATOM     78  C   UNL     1      -3.582  15.340   8.713  1.00  0.00     0.049 A 
ATOM     79  H   UNL     1      -3.852  13.322   8.152  1.00  0.00     0.167 HD
ATOM     80  C   UNL     1      -1.413  14.296   9.252  1.00  0.00     0.074 A 
ATOM     81  C   UNL     1      -0.054  14.312   9.751  1.00  0.00     0.031 C 
ATOM     82  C   UNL     1      -2.232  15.371   9.196  1.00  0.00     0.031 A 
BRANCH  69  83
ATOM     83  C   UNL     1      -7.819  14.286   6.896  1.00  0.00    -0.014 A 
ATOM     84  C   UNL     1      -9.012  13.828   7.471  1.00  0.00     0.009 A 
ATOM     85  C   UNL     1      -7.862  15.327   5.956  1.00  0.00     0.009 A 
ATOM     86  C   UNL     1     -10.233  14.321   7.019  1.00  0.00     0.001 A 
ATOM     87  C   UNL     1      -9.078  15.883   5.578  1.00  0.00     0.001 A 
ATOM     88  C   UNL     1     -10.263  15.361   6.090  1.00  0.00     0.000 A 
ENDBRANCH  69  83
BRANCH  70  89
ATOM     89  C   UNL     1       0.945  10.249   9.276  1.00  0.00    -0.014 A 
ATOM     90  C   UNL     1       1.445  10.313  10.584  1.00  0.00     0.009 A 
ATOM     91  C   UNL     1       1.739   9.677   8.270  1.00  0.00     0.009 A 
ATOM     92  C   UNL     1       2.747   9.896  10.857  1.00  0.00     0.001 A 
ATOM     93  C   UNL     1       3.005   9.178   8.566  1.00  0.00     0.001 A 
ATOM     94  C   UNL     1       3.516   9.306   9.855  1.00  0.00     0.000 A 
ENDBRANCH  70  89
BRANCH  82  95
ATOM     95  C   UNL     1      -1.727  16.658   9.773  1.00  0.00    -0.014 A 
ATOM     96  C   UNL     1      -0.599  17.312   9.265  1.00  0.00     0.009 A 
ATOM     97  C   UNL     1      -2.412  17.220  10.864  1.00  0.00     0.009 A 
ATOM     98  C   UNL     1      -0.080  18.417   9.936  1.00  0.00     0.001 A 
ATOM     99  C   UNL     1      -1.953  18.385  11.466  1.00  0.00     0.001 A 
ATOM    100  C   UNL     1      -0.766  18.962  11.023  1.00  0.00     0.000 A 
ENDBRANCH  82  95
ENDBRANCH  56  57
ENDBRANCH  49  51
ENDBRANCH  48  49
ENDBRANCH  47  48
ENDBRANCH  46  47
ENDBRANCH  45  46
ENDBRANCH  44  45
ENDBRANCH  43  44
ENDBRANCH  42  43
ENDBRANCH  41  42
ENDBRANCH   1  41
TORSDOF 26
