REMARK SMILES COc1ccc(-c2nc3ccc(C)cc3[nH]2)c(C(=O)OCCOCCOCCOCCOC(=O)c2ccc(-c3c4nc(c(-c5ccccc5)c5ccc([nH]5)c(-c5ccccc5)c5nc(c(-c6ccccc6)c6ccc3[nH]6)C=C5)C=C4)cc2)c1OC
REMARK SMILES IDX 27 1 26 2 25 3 24 4 23 5 22 6 21 7 20 8 18 9 19 10 17 11
REMARK SMILES IDX 3 12 4 13 83 14 5 15 6 16 2 17 1 18 84 19 85 20 7 21 8 22
REMARK SMILES IDX 16 23 9 24 15 25 10 27 14 28 11 29 12 30 13 31 28 32 29 33
REMARK SMILES IDX 30 34 31 35 32 36 33 37 34 38 35 39 36 40 82 41 37 42 81 43
REMARK SMILES IDX 38 44 39 45 40 46 75 47 41 48 80 49 74 50 76 51 42 52 79 53
REMARK SMILES IDX 73 54 72 55 43 57 65 58 50 59 64 60 51 61 54 62 63 63 77 64
REMARK SMILES IDX 52 65 53 66 62 68 78 69 55 70 44 71 45 72 49 73 46 74 48 75
REMARK SMILES IDX 47 76 66 77 67 78 71 79 68 80 70 81 69 82 56 83 57 84 61 85
REMARK SMILES IDX 58 86 60 87 59 88
REMARK H PARENT 16 26 76 56 54 67
REMARK Flexibility Score: inf
ROOT
ATOM      1  C   UNL     1       6.844  -2.440  -3.796  1.00  0.00     0.188 C 
ENDROOT
BRANCH   1   2
ATOM      2  O   UNL     1       5.437  -2.624  -3.834  1.00  0.00    -0.377 OA
BRANCH   2   3
ATOM      3  C   UNL     1       4.689  -1.456  -4.140  1.00  0.00     0.188 C 
BRANCH   3   4
ATOM      4  C   UNL     1       5.260  -0.424  -5.120  1.00  0.00     0.188 C 
BRANCH   4   5
ATOM      5  O   UNL     1       6.513   0.148  -4.728  1.00  0.00    -0.376 OA
BRANCH   5   6
ATOM      6  C   UNL     1       6.491   1.575  -4.638  1.00  0.00     0.202 C 
BRANCH   6   7
ATOM      7  C   UNL     1       5.958   2.021  -3.275  1.00  0.00     0.261 C 
BRANCH   7   8
ATOM      8  O   UNL     1       4.607   1.575  -3.073  1.00  0.00    -0.460 OA
BRANCH   8   9
ATOM      9  C   UNL     1       3.615   2.342  -3.585  1.00  0.00     0.342 C 
ATOM     10  O   UNL     1       3.732   3.458  -4.066  1.00  0.00    -0.246 OA
BRANCH   9  11
ATOM     11  C   UNL     1       2.352   1.556  -3.574  1.00  0.00     0.116 A 
ATOM     12  C   UNL     1       0.763   0.146  -2.401  1.00  0.00     0.161 A 
ATOM     13  C   UNL     1       0.012   0.033  -3.574  1.00  0.00     0.051 A 
ATOM     14  C   UNL     1       1.943   0.901  -2.390  1.00  0.00     0.176 A 
ATOM     15  C   UNL     1       0.419   0.674  -4.749  1.00  0.00     0.017 A 
ATOM     16  C   UNL     1       1.604   1.423  -4.777  1.00  0.00     0.036 A 
BRANCH  12  17
ATOM     17  O   UNL     1       0.335  -0.615  -1.346  1.00  0.00    -0.493 OA
ATOM     18  C   UNL     1      -0.058   0.151  -0.210  1.00  0.00     0.278 C 
ENDBRANCH  12  17
BRANCH  14  19
ATOM     19  O   UNL     1       2.672   1.083  -1.240  1.00  0.00    -0.492 OA
ATOM     20  C   UNL     1       3.197  -0.123  -0.675  1.00  0.00     0.278 C 
ENDBRANCH  14  19
BRANCH  16  21
ATOM     21  C   UNL     1       2.173   1.792  -6.082  1.00  0.00     0.139 A 
ATOM     22  N   UNL     1       3.333   1.333  -6.489  1.00  0.00    -0.228 NA
ATOM     23  N   UNL     1       1.612   2.557  -7.083  1.00  0.00    -0.338 N 
ATOM     24  C   UNL     1       3.591   1.874  -7.704  1.00  0.00     0.089 A 
ATOM     25  C   UNL     1       2.520   2.644  -8.125  1.00  0.00     0.066 A 
ATOM     26  H   UNL     1       0.719   2.971  -7.061  1.00  0.00     0.168 HD
ATOM     27  C   UNL     1       4.739   1.737  -8.490  1.00  0.00     0.031 A 
ATOM     28  C   UNL     1       2.530   3.307  -9.358  1.00  0.00     0.031 A 
ATOM     29  C   UNL     1       4.784   2.408  -9.709  1.00  0.00     0.006 A 
ATOM     30  C   UNL     1       3.699   3.185 -10.144  1.00  0.00    -0.049 A 
ATOM     31  C   UNL     1       3.819   3.879 -11.471  1.00  0.00     0.044 C 
ENDBRANCH  16  21
ENDBRANCH   9  11
ENDBRANCH   8   9
ENDBRANCH   7   8
ENDBRANCH   6   7
ENDBRANCH   5   6
ENDBRANCH   4   5
ENDBRANCH   3   4
ENDBRANCH   2   3
ENDBRANCH   1   2
BRANCH   1  32
ATOM     32  C   UNL     1       7.491  -2.609  -5.185  1.00  0.00     0.188 C 
BRANCH  32  33
ATOM     33  O   UNL     1       6.536  -2.777  -6.231  1.00  0.00    -0.376 OA
BRANCH  33  34
ATOM     34  C   UNL     1       6.256  -4.103  -6.658  1.00  0.00     0.202 C 
BRANCH  34  35
ATOM     35  C   UNL     1       5.633  -5.081  -5.648  1.00  0.00     0.261 C 
BRANCH  35  36
ATOM     36  O   UNL     1       6.372  -5.312  -4.438  1.00  0.00    -0.460 OA
BRANCH  36  37
ATOM     37  C   UNL     1       7.629  -5.793  -4.524  1.00  0.00     0.338 C 
ATOM     38  O   UNL     1       8.219  -6.155  -5.524  1.00  0.00    -0.246 OA
BRANCH  37  39
ATOM     39  C   UNL     1       8.256  -5.585  -3.197  1.00  0.00     0.060 A 
ATOM     40  C   UNL     1       9.465  -4.878  -3.127  1.00  0.00     0.016 A 
ATOM     41  C   UNL     1       7.609  -5.994  -2.026  1.00  0.00     0.016 A 
ATOM     42  C   UNL     1      10.039  -4.597  -1.886  1.00  0.00     0.010 A 
ATOM     43  C   UNL     1       8.201  -5.742  -0.785  1.00  0.00     0.010 A 
ATOM     44  C   UNL     1       9.433  -5.071  -0.714  1.00  0.00    -0.014 A 
BRANCH  44  45
ATOM     45  C   UNL     1      10.219  -5.110   0.541  1.00  0.00     0.031 A 
ATOM     46  C   UNL     1      11.059  -6.335   0.787  1.00  0.00     0.074 A 
ATOM     47  C   UNL     1      10.220  -4.096   1.423  1.00  0.00     0.049 A 
ATOM     48  N   UNL     1      11.835  -6.622   1.800  1.00  0.00    -0.248 NA
ATOM     49  C   UNL     1      11.020  -7.373  -0.258  1.00  0.00     0.031 C 
ATOM     50  C   UNL     1       9.491  -2.838   1.279  1.00  0.00     0.029 A 
ATOM     51  N   UNL     1      10.870  -3.974   2.627  1.00  0.00    -0.354 N 
ATOM     52  C   UNL     1      12.386  -7.863   1.504  1.00  0.00     0.074 A 
ATOM     53  C   UNL     1      11.831  -8.291   0.240  1.00  0.00     0.031 C 
ATOM     54  C   UNL     1       9.731  -2.071   2.360  1.00  0.00     0.029 A 
ATOM     55  C   UNL     1      10.608  -2.794   3.279  1.00  0.00     0.049 A 
ATOM     56  H   UNL     1      11.468  -4.668   2.988  1.00  0.00     0.167 HD
ATOM     57  C   UNL     1      13.284  -8.583   2.214  1.00  0.00     0.031 A 
ATOM     58  C   UNL     1      11.022  -2.361   4.486  1.00  0.00     0.031 A 
ATOM     59  C   UNL     1      13.805  -8.185   3.490  1.00  0.00     0.049 A 
ATOM     60  C   UNL     1      11.934  -3.234   5.312  1.00  0.00     0.074 A 
ATOM     61  C   UNL     1      14.696  -8.859   4.306  1.00  0.00     0.029 A 
ATOM     62  N   UNL     1      13.470  -7.009   4.140  1.00  0.00    -0.354 N 
ATOM     63  N   UNL     1      12.462  -4.397   5.015  1.00  0.00    -0.248 NA
ATOM     64  C   UNL     1      12.312  -2.727   6.640  1.00  0.00     0.031 C 
ATOM     65  C   UNL     1      14.867  -8.107   5.474  1.00  0.00     0.029 A 
ATOM     66  C   UNL     1      14.123  -6.944   5.358  1.00  0.00     0.049 A 
ATOM     67  H   UNL     1      12.859  -6.322   3.788  1.00  0.00     0.167 HD
ATOM     68  C   UNL     1      13.257  -4.743   6.101  1.00  0.00     0.074 A 
ATOM     69  C   UNL     1      13.152  -3.662   7.059  1.00  0.00     0.031 C 
ATOM     70  C   UNL     1      14.010  -5.854   6.291  1.00  0.00     0.031 A 
BRANCH  57  71
ATOM     71  C   UNL     1      13.727  -9.889   1.625  1.00  0.00    -0.014 A 
ATOM     72  C   UNL     1      14.592  -9.926   0.519  1.00  0.00     0.009 A 
ATOM     73  C   UNL     1      13.278 -11.096   2.180  1.00  0.00     0.009 A 
ATOM     74  C   UNL     1      14.977 -11.147  -0.035  1.00  0.00     0.001 A 
ATOM     75  C   UNL     1      13.685 -12.316   1.639  1.00  0.00     0.001 A 
ATOM     76  C   UNL     1      14.527 -12.341   0.527  1.00  0.00     0.000 A 
ENDBRANCH  57  71
BRANCH  58  77
ATOM     77  C   UNL     1      10.569  -1.047   5.016  1.00  0.00    -0.014 A 
ATOM     78  C   UNL     1      11.476   0.012   5.180  1.00  0.00     0.009 A 
ATOM     79  C   UNL     1       9.236  -0.864   5.417  1.00  0.00     0.009 A 
ATOM     80  C   UNL     1      11.065   1.214   5.763  1.00  0.00     0.001 A 
ATOM     81  C   UNL     1       8.822   0.348   5.975  1.00  0.00     0.001 A 
ATOM     82  C   UNL     1       9.739   1.382   6.158  1.00  0.00     0.000 A 
ENDBRANCH  58  77
BRANCH  70  83
ATOM     83  C   UNL     1      14.814  -5.936   7.558  1.00  0.00    -0.014 A 
ATOM     84  C   UNL     1      14.202  -6.188   8.795  1.00  0.00     0.009 A 
ATOM     85  C   UNL     1      16.210  -5.807   7.500  1.00  0.00     0.009 A 
ATOM     86  C   UNL     1      14.973  -6.276   9.956  1.00  0.00     0.001 A 
ATOM     87  C   UNL     1      16.980  -5.923   8.658  1.00  0.00     0.001 A 
ATOM     88  C   UNL     1      16.360  -6.148   9.886  1.00  0.00     0.000 A 
ENDBRANCH  70  83
ENDBRANCH  44  45
ENDBRANCH  37  39
ENDBRANCH  36  37
ENDBRANCH  35  36
ENDBRANCH  34  35
ENDBRANCH  33  34
ENDBRANCH  32  33
ENDBRANCH   1  32
TORSDOF 23
