REMARK SMILES Cc1c(NC(=O)c2cccc(-c3cc4ccccc4oc3=O)c2)cccc1C(=O)OCCOCCOCCOCCOC(=O)c1ccc(-c2c3nc(c(-c4ccccc4)c4ccc([nH]4)c(-c4ccccc4)c4nc(c(-c5ccccc5)c5ccc2[nH]5)C=C4)C=C3)cc1
REMARK SMILES IDX 35 1 34 2 33 3 32 4 31 5 30 6 28 7 29 8 27 9 1 10 2 11 3 12
REMARK SMILES IDX 24 13 26 14 25 15 4 16 5 17 6 19 7 20 8 21 23 22 9 23 11 24
REMARK SMILES IDX 10 25 12 26 13 27 21 28 14 29 20 30 22 31 15 32 19 33 16 34
REMARK SMILES IDX 18 35 17 36 36 37 37 38 38 39 39 40 40 41 41 42 42 43 43 44
REMARK SMILES IDX 44 45 45 46 46 47 92 48 47 49 91 50 48 51 49 52 50 53 85 54
REMARK SMILES IDX 51 55 90 56 84 57 86 58 52 59 89 60 83 61 82 62 53 64 75 65
REMARK SMILES IDX 60 66 74 67 61 68 64 69 73 70 87 71 62 72 63 73 72 75 88 76
REMARK SMILES IDX 65 77 54 78 55 79 59 80 56 81 58 82 57 83 76 84 77 85 81 86
REMARK SMILES IDX 78 87 80 88 79 89 66 90 67 91 71 92 68 93 70 94 69 95
REMARK H PARENT 4 18 86 63 64 74
REMARK Flexibility Score: inf
ROOT
ATOM      1  C   UNL     1      -0.231   2.553  -3.016  1.00  0.00     0.188 C 
ENDROOT
BRANCH   1   2
ATOM      2  C   UNL     1      -1.264   2.817  -1.929  1.00  0.00     0.188 C 
BRANCH   2   3
ATOM      3  O   UNL     1      -1.125   4.144  -1.419  1.00  0.00    -0.376 OA
BRANCH   3   4
ATOM      4  C   UNL     1       0.002   4.284  -0.559  1.00  0.00     0.202 C 
BRANCH   4   5
ATOM      5  C   UNL     1      -0.303   3.766   0.832  1.00  0.00     0.261 C 
BRANCH   5   6
ATOM      6  O   UNL     1      -0.262   2.332   0.890  1.00  0.00    -0.460 OA
BRANCH   6   7
ATOM      7  C   UNL     1      -1.113   1.815   1.810  1.00  0.00     0.338 C 
ATOM      8  O   UNL     1      -1.777   2.418   2.615  1.00  0.00    -0.246 OA
BRANCH   7   9
ATOM      9  C   UNL     1      -1.413   0.403   1.479  1.00  0.00     0.065 A 
ATOM     10  C   UNL     1       0.970  -0.456   1.663  1.00  0.00     0.047 C 
ATOM     11  C   UNL     1      -0.501  -0.681   1.423  1.00  0.00    -0.013 A 
ATOM     12  C   UNL     1      -1.024  -1.966   1.119  1.00  0.00     0.045 A 
ATOM     13  C   UNL     1      -2.410  -2.121   0.960  1.00  0.00     0.026 A 
ATOM     14  C   UNL     1      -2.776   0.225   1.206  1.00  0.00     0.016 A 
ATOM     15  C   UNL     1      -3.276  -1.036   0.956  1.00  0.00     0.003 A 
BRANCH  12  16
ATOM     16  N   UNL     1      -0.168  -3.087   0.980  1.00  0.00    -0.322 N 
ATOM     17  C   UNL     1      -0.352  -4.321   0.366  1.00  0.00     0.255 C 
ATOM     18  H   UNL     1       0.718  -2.972   1.395  1.00  0.00     0.170 HD
ATOM     19  O   UNL     1       0.450  -5.229   0.587  1.00  0.00    -0.269 OA
BRANCH  17  20
ATOM     20  C   UNL     1      -1.419  -4.564  -0.649  1.00  0.00     0.040 A 
ATOM     21  C   UNL     1      -2.116  -5.764  -0.702  1.00  0.00     0.014 A 
ATOM     22  C   UNL     1      -1.673  -3.608  -1.631  1.00  0.00     0.022 A 
ATOM     23  C   UNL     1      -3.108  -5.943  -1.675  1.00  0.00     0.001 A 
ATOM     24  C   UNL     1      -2.656  -3.755  -2.626  1.00  0.00    -0.010 A 
ATOM     25  C   UNL     1      -3.386  -4.943  -2.620  1.00  0.00     0.009 A 
BRANCH  24  26
ATOM     26  C   UNL     1      -2.913  -2.753  -3.712  1.00  0.00     0.068 A 
ATOM     27  C   UNL     1      -2.809  -1.414  -3.541  1.00  0.00     0.028 A 
ATOM     28  C   UNL     1      -2.273  -3.056  -5.042  1.00  0.00     0.344 A 
ATOM     29  C   UNL     1      -1.390  -1.089  -3.317  1.00  0.00     0.018 A 
ATOM     30  O   UNL     1      -0.939  -2.619  -5.138  1.00  0.00    -0.422 OA
ATOM     31  O   UNL     1      -2.861  -3.635  -5.945  1.00  0.00    -0.246 OA
ATOM     32  C   UNL     1      -0.975  -0.416  -2.185  1.00  0.00     0.012 A 
ATOM     33  C   UNL     1      -0.455  -1.784  -4.103  1.00  0.00     0.138 A 
ATOM     34  C   UNL     1       0.376  -0.461  -1.838  1.00  0.00     0.001 A 
ATOM     35  C   UNL     1       0.894  -1.813  -3.774  1.00  0.00     0.048 A 
ATOM     36  C   UNL     1       1.306  -1.152  -2.619  1.00  0.00     0.004 A 
ENDBRANCH  24  26
ENDBRANCH  17  20
ENDBRANCH  12  16
ENDBRANCH   7   9
ENDBRANCH   6   7
ENDBRANCH   5   6
ENDBRANCH   4   5
ENDBRANCH   3   4
ENDBRANCH   2   3
ENDBRANCH   1   2
BRANCH   1  37
ATOM     37  O   UNL     1       1.002   2.086  -2.479  1.00  0.00    -0.377 OA
BRANCH  37  38
ATOM     38  C   UNL     1       2.214   2.424  -3.149  1.00  0.00     0.188 C 
BRANCH  38  39
ATOM     39  C   UNL     1       2.145   2.690  -4.643  1.00  0.00     0.188 C 
BRANCH  39  40
ATOM     40  O   UNL     1       1.438   3.914  -4.789  1.00  0.00    -0.376 OA
BRANCH  40  41
ATOM     41  C   UNL     1       0.642   4.060  -5.950  1.00  0.00     0.202 C 
BRANCH  41  42
ATOM     42  C   UNL     1       1.534   4.434  -7.123  1.00  0.00     0.261 C 
BRANCH  42  43
ATOM     43  O   UNL     1       2.204   5.673  -6.788  1.00  0.00    -0.460 OA
BRANCH  43  44
ATOM     44  C   UNL     1       3.478   5.526  -6.329  1.00  0.00     0.338 C 
ATOM     45  O   UNL     1       4.344   4.862  -6.879  1.00  0.00    -0.246 OA
BRANCH  44  46
ATOM     46  C   UNL     1       3.619   6.048  -4.932  1.00  0.00     0.060 A 
ATOM     47  C   UNL     1       4.817   5.824  -4.233  1.00  0.00     0.016 A 
ATOM     48  C   UNL     1       2.480   6.417  -4.223  1.00  0.00     0.016 A 
ATOM     49  C   UNL     1       4.827   5.789  -2.829  1.00  0.00     0.010 A 
ATOM     50  C   UNL     1       2.467   6.241  -2.849  1.00  0.00     0.010 A 
ATOM     51  C   UNL     1       3.623   5.888  -2.132  1.00  0.00    -0.014 A 
BRANCH  51  52
ATOM     52  C   UNL     1       3.403   5.449  -0.731  1.00  0.00     0.031 A 
ATOM     53  C   UNL     1       2.585   6.325   0.187  1.00  0.00     0.074 A 
ATOM     54  C   UNL     1       3.614   4.135  -0.438  1.00  0.00     0.049 A 
ATOM     55  N   UNL     1       2.197   6.005   1.375  1.00  0.00    -0.248 NA
ATOM     56  C   UNL     1       2.079   7.650  -0.192  1.00  0.00     0.031 C 
ATOM     57  C   UNL     1       2.976   3.335   0.611  1.00  0.00     0.029 A 
ATOM     58  N   UNL     1       4.416   3.177  -1.047  1.00  0.00    -0.354 N 
ATOM     59  C   UNL     1       1.194   6.874   1.777  1.00  0.00     0.074 A 
ATOM     60  C   UNL     1       1.198   7.915   0.781  1.00  0.00     0.031 C 
ATOM     61  C   UNL     1       3.485   2.095   0.648  1.00  0.00     0.029 A 
ATOM     62  C   UNL     1       4.674   2.140  -0.148  1.00  0.00     0.049 A 
ATOM     63  H   UNL     1       4.751   3.223  -1.972  1.00  0.00     0.167 HD
ATOM     64  C   UNL     1       0.397   6.543   2.841  1.00  0.00     0.031 A 
ATOM     65  C   UNL     1       5.901   1.939   0.419  1.00  0.00     0.031 A 
ATOM     66  C   UNL     1       0.926   5.376   3.575  1.00  0.00     0.049 A 
ATOM     67  C   UNL     1       5.864   2.330   1.907  1.00  0.00     0.074 A 
ATOM     68  C   UNL     1       0.393   4.184   4.034  1.00  0.00     0.029 A 
ATOM     69  N   UNL     1       2.304   5.261   3.770  1.00  0.00    -0.354 N 
ATOM     70  N   UNL     1       5.053   3.254   2.389  1.00  0.00    -0.248 NA
ATOM     71  C   UNL     1       6.511   1.573   2.982  1.00  0.00     0.031 C 
ATOM     72  C   UNL     1       1.473   3.280   4.265  1.00  0.00     0.029 A 
ATOM     73  C   UNL     1       2.665   3.975   4.108  1.00  0.00     0.049 A 
ATOM     74  H   UNL     1       2.940   6.007   3.677  1.00  0.00     0.167 HD
ATOM     75  C   UNL     1       4.951   3.121   3.751  1.00  0.00     0.074 A 
ATOM     76  C   UNL     1       5.930   2.096   4.080  1.00  0.00     0.031 C 
ATOM     77  C   UNL     1       4.018   3.703   4.568  1.00  0.00     0.031 A 
BRANCH  64  78
ATOM     78  C   UNL     1      -0.983   7.143   3.133  1.00  0.00    -0.014 A 
ATOM     79  C   UNL     1      -1.701   6.728   4.276  1.00  0.00     0.009 A 
ATOM     80  C   UNL     1      -1.685   8.025   2.286  1.00  0.00     0.009 A 
ATOM     81  C   UNL     1      -3.017   7.144   4.548  1.00  0.00     0.001 A 
ATOM     82  C   UNL     1      -2.988   8.482   2.574  1.00  0.00     0.001 A 
ATOM     83  C   UNL     1      -3.660   8.033   3.701  1.00  0.00     0.000 A 
ENDBRANCH  64  78
BRANCH  65  84
ATOM     84  C   UNL     1       6.960   1.869  -0.640  1.00  0.00    -0.014 A 
ATOM     85  C   UNL     1       6.795   0.739  -1.484  1.00  0.00     0.009 A 
ATOM     86  C   UNL     1       7.426   3.055  -1.236  1.00  0.00     0.009 A 
ATOM     87  C   UNL     1       6.732   0.890  -2.876  1.00  0.00     0.001 A 
ATOM     88  C   UNL     1       7.413   3.183  -2.640  1.00  0.00     0.001 A 
ATOM     89  C   UNL     1       6.983   2.130  -3.450  1.00  0.00     0.000 A 
ENDBRANCH  65  84
BRANCH  77  90
ATOM     90  C   UNL     1       4.325   4.151   5.982  1.00  0.00    -0.014 A 
ATOM     91  C   UNL     1       5.628   4.257   6.474  1.00  0.00     0.009 A 
ATOM     92  C   UNL     1       3.299   4.744   6.764  1.00  0.00     0.009 A 
ATOM     93  C   UNL     1       5.891   4.907   7.684  1.00  0.00     0.001 A 
ATOM     94  C   UNL     1       3.563   5.435   7.944  1.00  0.00     0.001 A 
ATOM     95  C   UNL     1       4.866   5.510   8.408  1.00  0.00     0.000 A 
ENDBRANCH  77  90
ENDBRANCH  51  52
ENDBRANCH  44  46
ENDBRANCH  43  44
ENDBRANCH  42  43
ENDBRANCH  41  42
ENDBRANCH  40  41
ENDBRANCH  39  40
ENDBRANCH  38  39
ENDBRANCH  37  38
ENDBRANCH   1  37
TORSDOF 23
