REMARK SMILES CS(=O)(=O)c1ccc(/C=C(/C(=O)OCCOCCOCCOCCOC(=O)c2ccc(-c3c4nc(c(-c5ccccc5)c5ccc([nH]5)c(-c5ccccc5)c5nc(c(-c6ccccc6)c6ccc3[nH]6)C=C5)C=C4)cc2)c2ccc(-c3ccc(F)cc3F)cc2)cc1
REMARK SMILES IDX 19 1 18 2 17 3 16 4 15 5 14 6 13 7 11 8 12 9 10 10 9 11 8 12
REMARK SMILES IDX 5 13 6 14 91 15 7 16 90 17 2 18 1 19 3 20 4 21 76 22 77 23
REMARK SMILES IDX 89 24 78 25 88 26 79 27 80 28 81 29 86 30 82 31 85 32 87 33
REMARK SMILES IDX 83 34 84 35 20 36 21 37 22 38 23 39 24 40 25 41 26 42 27 43
REMARK SMILES IDX 28 44 29 45 75 46 30 47 74 48 31 49 32 50 33 51 68 52 34 53
REMARK SMILES IDX 73 54 67 55 69 56 35 57 72 58 66 59 65 60 36 62 58 63 43 64
REMARK SMILES IDX 57 65 44 66 47 67 56 68 70 69 45 70 46 71 55 73 71 74 48 75
REMARK SMILES IDX 37 76 38 77 42 78 39 79 41 80 40 81 59 82 60 83 64 84 61 85
REMARK SMILES IDX 63 86 62 87 49 88 50 89 54 90 51 91 53 92 52 93
REMARK H PARENT 69 61 47 72
REMARK Flexibility Score: inf
ROOT
ATOM      1  O   UNL     1       0.820   9.784   2.691  1.00  0.00    -0.377 OA
ENDROOT
BRANCH   1   2
ATOM      2  C   UNL     1       1.693   8.876   3.339  1.00  0.00     0.188 C 
BRANCH   2   3
ATOM      3  C   UNL     1       3.087   9.354   3.801  1.00  0.00     0.188 C 
BRANCH   3   4
ATOM      4  O   UNL     1       3.403  10.690   3.434  1.00  0.00    -0.376 OA
BRANCH   4   5
ATOM      5  C   UNL     1       4.403  10.838   2.438  1.00  0.00     0.202 C 
BRANCH   5   6
ATOM      6  C   UNL     1       3.964  10.452   1.019  1.00  0.00     0.261 C 
BRANCH   6   7
ATOM      7  O   UNL     1       3.416   9.128   0.889  1.00  0.00    -0.460 OA
BRANCH   7   8
ATOM      8  C   UNL     1       4.280   8.091   1.012  1.00  0.00     0.338 C 
ATOM      9  O   UNL     1       5.487   8.199   1.173  1.00  0.00    -0.246 OA
BRANCH   8  10
ATOM     10  C   UNL     1       3.540   6.783   1.069  1.00  0.00     0.067 C 
ATOM     11  C   UNL     1       2.454   6.605   0.279  1.00  0.00     0.024 C 
BRANCH  11  12
ATOM     12  C   UNL     1       1.682   5.365   0.030  1.00  0.00    -0.025 A 
ATOM     13  C   UNL     1       0.615   2.883  -0.740  1.00  0.00     0.067 A 
ATOM     14  C   UNL     1       1.030   3.077   0.573  1.00  0.00     0.021 A 
ATOM     15  C   UNL     1       0.611   3.951  -1.639  1.00  0.00     0.021 A 
ATOM     16  C   UNL     1       1.526   4.327   0.958  1.00  0.00     0.009 A 
ATOM     17  C   UNL     1       1.137   5.187  -1.250  1.00  0.00     0.009 A 
BRANCH  13  18
ATOM     18  S   UNL     1       0.186   1.273  -1.354  1.00  0.00     0.175 S 
ATOM     19  C   UNL     1       0.922   0.091  -0.256  1.00  0.00     0.163 C 
ATOM     20  O   UNL     1       0.859   1.130  -2.632  1.00  0.00    -0.224 OA
ATOM     21  O   UNL     1      -1.254   1.157  -1.245  1.00  0.00    -0.224 OA
ENDBRANCH  13  18
ENDBRANCH  11  12
BRANCH  10  22
ATOM     22  C   UNL     1       4.058   5.753   1.992  1.00  0.00    -0.011 A 
ATOM     23  C   UNL     1       3.733   5.814   3.353  1.00  0.00     0.009 A 
ATOM     24  C   UNL     1       4.809   4.671   1.537  1.00  0.00     0.009 A 
ATOM     25  C   UNL     1       4.177   4.843   4.250  1.00  0.00     0.009 A 
ATOM     26  C   UNL     1       5.229   3.681   2.436  1.00  0.00     0.009 A 
ATOM     27  C   UNL     1       4.942   3.755   3.813  1.00  0.00    -0.015 A 
BRANCH  27  28
ATOM     28  C   UNL     1       5.447   2.760   4.782  1.00  0.00     0.018 A 
ATOM     29  C   UNL     1       4.668   2.352   5.886  1.00  0.00     0.015 A 
ATOM     30  C   UNL     1       6.742   2.221   4.678  1.00  0.00     0.133 A 
ATOM     31  C   UNL     1       5.178   1.470   6.844  1.00  0.00     0.040 A 
ATOM     32  C   UNL     1       7.253   1.335   5.622  1.00  0.00     0.079 A 
ATOM     33  F   UNL     1       7.547   2.575   3.664  1.00  0.00    -0.206 F 
ATOM     34  C   UNL     1       6.467   0.974   6.702  1.00  0.00     0.126 A 
ATOM     35  F   UNL     1       6.957   0.139   7.626  1.00  0.00    -0.207 F 
ENDBRANCH  27  28
ENDBRANCH  10  22
ENDBRANCH   8  10
ENDBRANCH   7   8
ENDBRANCH   6   7
ENDBRANCH   5   6
ENDBRANCH   4   5
ENDBRANCH   3   4
ENDBRANCH   2   3
ENDBRANCH   1   2
BRANCH   1  36
ATOM     36  C   UNL     1       0.736  11.118   3.171  1.00  0.00     0.188 C 
BRANCH  36  37
ATOM     37  C   UNL     1       0.899  11.402   4.680  1.00  0.00     0.188 C 
BRANCH  37  38
ATOM     38  O   UNL     1       0.870  10.245   5.506  1.00  0.00    -0.376 OA
BRANCH  38  39
ATOM     39  C   UNL     1      -0.311  10.029   6.263  1.00  0.00     0.202 C 
BRANCH  39  40
ATOM     40  C   UNL     1      -1.558   9.658   5.452  1.00  0.00     0.261 C 
BRANCH  40  41
ATOM     41  O   UNL     1      -1.982  10.625   4.479  1.00  0.00    -0.460 OA
BRANCH  41  42
ATOM     42  C   UNL     1      -2.331  11.859   4.913  1.00  0.00     0.338 C 
ATOM     43  O   UNL     1      -2.357  12.264   6.055  1.00  0.00    -0.246 OA
BRANCH  42  44
ATOM     44  C   UNL     1      -2.490  12.698   3.705  1.00  0.00     0.060 A 
ATOM     45  C   UNL     1      -1.629  13.786   3.502  1.00  0.00     0.016 A 
ATOM     46  C   UNL     1      -3.434  12.350   2.739  1.00  0.00     0.016 A 
ATOM     47  C   UNL     1      -1.704  14.522   2.317  1.00  0.00     0.010 A 
ATOM     48  C   UNL     1      -3.530  13.105   1.571  1.00  0.00     0.010 A 
ATOM     49  C   UNL     1      -2.673  14.199   1.358  1.00  0.00    -0.014 A 
BRANCH  49  50
ATOM     50  C   UNL     1      -2.919  15.086   0.198  1.00  0.00     0.031 A 
ATOM     51  C   UNL     1      -4.005  16.116   0.310  1.00  0.00     0.074 A 
ATOM     52  C   UNL     1      -2.227  14.953  -0.946  1.00  0.00     0.049 A 
ATOM     53  N   UNL     1      -4.494  16.910  -0.606  1.00  0.00    -0.248 NA
ATOM     54  C   UNL     1      -4.626  16.262   1.637  1.00  0.00     0.031 C 
ATOM     55  C   UNL     1      -1.112  14.034  -1.163  1.00  0.00     0.029 A 
ATOM     56  N   UNL     1      -2.382  15.589  -2.153  1.00  0.00    -0.354 N 
ATOM     57  C   UNL     1      -5.485  17.646   0.031  1.00  0.00     0.074 A 
ATOM     58  C   UNL     1      -5.544  17.187   1.401  1.00  0.00     0.031 C 
ATOM     59  C   UNL     1      -0.692  14.154  -2.436  1.00  0.00     0.029 A 
ATOM     60  C   UNL     1      -1.540  15.121  -3.132  1.00  0.00     0.049 A 
ATOM     61  H   UNL     1      -3.035  16.311  -2.302  1.00  0.00     0.167 HD
ATOM     62  C   UNL     1      -6.279  18.615  -0.482  1.00  0.00     0.031 A 
ATOM     63  C   UNL     1      -1.487  15.415  -4.446  1.00  0.00     0.031 A 
ATOM     64  C   UNL     1      -6.245  19.043  -1.853  1.00  0.00     0.049 A 
ATOM     65  C   UNL     1      -2.469  16.401  -5.024  1.00  0.00     0.074 A 
ATOM     66  C   UNL     1      -7.004  20.022  -2.470  1.00  0.00     0.029 A 
ATOM     67  N   UNL     1      -5.420  18.501  -2.827  1.00  0.00    -0.354 N 
ATOM     68  N   UNL     1      -3.388  17.110  -4.413  1.00  0.00    -0.248 NA
ATOM     69  C   UNL     1      -2.412  16.619  -6.478  1.00  0.00     0.031 C 
ATOM     70  C   UNL     1      -6.684  20.026  -3.832  1.00  0.00     0.029 A 
ATOM     71  C   UNL     1      -5.681  19.095  -4.050  1.00  0.00     0.049 A 
ATOM     72  H   UNL     1      -4.749  17.798  -2.671  1.00  0.00     0.167 HD
ATOM     73  C   UNL     1      -4.002  17.872  -5.401  1.00  0.00     0.074 A 
ATOM     74  C   UNL     1      -3.342  17.550  -6.649  1.00  0.00     0.031 C 
ATOM     75  C   UNL     1      -5.020  18.759  -5.285  1.00  0.00     0.031 A 
BRANCH  62  76
ATOM     76  C   UNL     1      -7.285  19.237   0.445  1.00  0.00    -0.014 A 
ATOM     77  C   UNL     1      -6.888  20.082   1.494  1.00  0.00     0.009 A 
ATOM     78  C   UNL     1      -8.651  18.978   0.261  1.00  0.00     0.009 A 
ATOM     79  C   UNL     1      -7.837  20.621   2.365  1.00  0.00     0.001 A 
ATOM     80  C   UNL     1      -9.601  19.543   1.114  1.00  0.00     0.001 A 
ATOM     81  C   UNL     1      -9.192  20.354   2.171  1.00  0.00     0.000 A 
ENDBRANCH  62  76
BRANCH  63  82
ATOM     82  C   UNL     1      -0.492  14.741  -5.323  1.00  0.00    -0.014 A 
ATOM     83  C   UNL     1       0.566  15.467  -5.890  1.00  0.00     0.009 A 
ATOM     84  C   UNL     1      -0.606  13.372  -5.613  1.00  0.00     0.009 A 
ATOM     85  C   UNL     1       1.479  14.840  -6.742  1.00  0.00     0.001 A 
ATOM     86  C   UNL     1       0.324  12.742  -6.443  1.00  0.00     0.001 A 
ATOM     87  C   UNL     1       1.361  13.478  -7.013  1.00  0.00     0.000 A 
ENDBRANCH  63  82
BRANCH  75  88
ATOM     88  C   UNL     1      -5.475  19.464  -6.532  1.00  0.00    -0.014 A 
ATOM     89  C   UNL     1      -6.220  18.795  -7.516  1.00  0.00     0.009 A 
ATOM     90  C   UNL     1      -5.215  20.835  -6.692  1.00  0.00     0.009 A 
ATOM     91  C   UNL     1      -6.676  19.481  -8.644  1.00  0.00     0.001 A 
ATOM     92  C   UNL     1      -5.698  21.524  -7.806  1.00  0.00     0.001 A 
ATOM     93  C   UNL     1      -6.422  20.845  -8.784  1.00  0.00     0.000 A 
ENDBRANCH  75  88
ENDBRANCH  49  50
ENDBRANCH  42  44
ENDBRANCH  41  42
ENDBRANCH  40  41
ENDBRANCH  39  40
ENDBRANCH  38  39
ENDBRANCH  37  38
ENDBRANCH  36  37
ENDBRANCH   1  36
TORSDOF 24
