REMARK SMILES CCCC[C@H](C(=O)OCCOCCOCCOCCOC(=O)c1ccc(-c2c3nc(c(-c4ccccc4)c4ccc([nH]4)c(-c4ccccc4)c4nc(c(-c5ccccc5)c5ccc2[nH]5)C=C4)C=C3)cc1)[C@H](C)O
REMARK SMILES IDX 13 1 12 2 11 3 10 4 9 5 8 6 6 7 7 8 5 9 4 10 3 11 2 12 1 13
REMARK SMILES IDX 71 14 72 15 73 16 14 18 15 19 16 20 17 21 18 22 19 23 20 24
REMARK SMILES IDX 21 25 22 26 23 27 24 28 70 29 25 30 69 31 26 32 27 33 28 34
REMARK SMILES IDX 63 35 29 36 68 37 62 38 64 39 30 40 67 41 61 42 60 43 31 45
REMARK SMILES IDX 53 46 38 47 52 48 39 49 42 50 51 51 65 52 40 53 41 54 50 56
REMARK SMILES IDX 66 57 43 58 32 59 33 60 37 61 34 62 36 63 35 64 54 65 55 66
REMARK SMILES IDX 59 67 56 68 58 69 57 70 44 71 45 72 49 73 46 74 48 75 47 76
REMARK H PARENT 73 17 64 44 42 55
REMARK Flexibility Score: inf
ROOT
ATOM      1  C   UNL     1       0.871  -2.594  -2.617  1.00  0.00     0.188 C 
ENDROOT
BRANCH   1   2
ATOM      2  C   UNL     1      -0.017  -2.272  -1.395  1.00  0.00     0.188 C 
BRANCH   2   3
ATOM      3  O   UNL     1      -0.637  -3.391  -0.788  1.00  0.00    -0.376 OA
BRANCH   3   4
ATOM      4  C   UNL     1      -1.842  -3.954  -1.282  1.00  0.00     0.202 C 
BRANCH   4   5
ATOM      5  C   UNL     1      -2.484  -3.669  -2.655  1.00  0.00     0.261 C 
BRANCH   5   6
ATOM      6  O   UNL     1      -1.908  -2.613  -3.417  1.00  0.00    -0.463 OA
BRANCH   6   7
ATOM      7  C   UNL     1      -2.473  -1.381  -3.360  1.00  0.00     0.311 C 
ATOM      8  O   UNL     1      -3.509  -1.109  -2.770  1.00  0.00    -0.252 OA
BRANCH   7   9
ATOM      9  C   UNL     1      -1.526  -0.368  -4.005  1.00  0.00     0.127 C 
BRANCH   9  10
ATOM     10  C   UNL     1      -1.200  -0.752  -5.465  1.00  0.00     0.018 C 
BRANCH  10  11
ATOM     11  C   UNL     1      -1.695   0.108  -6.621  1.00  0.00     0.001 C 
BRANCH  11  12
ATOM     12  C   UNL     1      -1.048   1.481  -6.822  1.00  0.00    -0.003 C 
ATOM     13  C   UNL     1       0.459   1.535  -6.606  1.00  0.00     0.004 C 
ENDBRANCH  11  12
ENDBRANCH  10  11
ENDBRANCH   9  10
BRANCH   9  14
ATOM     14  C   UNL     1      -1.872   1.074  -3.625  1.00  0.00     0.125 C 
ATOM     15  C   UNL     1      -1.501   1.386  -2.169  1.00  0.00     0.039 C 
BRANCH  14  16
ATOM     16  O   UNL     1      -3.239   1.376  -3.852  1.00  0.00    -0.393 OA
ATOM     17  H   UNL     1      -3.793   0.821  -3.280  1.00  0.00     0.210 HD
ENDBRANCH  14  16
ENDBRANCH   9  14
ENDBRANCH   7   9
ENDBRANCH   6   7
ENDBRANCH   5   6
ENDBRANCH   4   5
ENDBRANCH   3   4
ENDBRANCH   2   3
ENDBRANCH   1   2
BRANCH   1  18
ATOM     18  O   UNL     1       0.558  -3.827  -3.233  1.00  0.00    -0.377 OA
BRANCH  18  19
ATOM     19  C   UNL     1       1.141  -5.002  -2.682  1.00  0.00     0.188 C 
BRANCH  19  20
ATOM     20  C   UNL     1       1.685  -5.046  -1.231  1.00  0.00     0.188 C 
BRANCH  20  21
ATOM     21  O   UNL     1       2.260  -3.839  -0.750  1.00  0.00    -0.376 OA
BRANCH  21  22
ATOM     22  C   UNL     1       3.669  -3.727  -0.658  1.00  0.00     0.202 C 
BRANCH  22  23
ATOM     23  C   UNL     1       4.448  -3.672  -1.981  1.00  0.00     0.261 C 
BRANCH  23  24
ATOM     24  O   UNL     1       4.197  -4.757  -2.884  1.00  0.00    -0.460 OA
BRANCH  24  25
ATOM     25  C   UNL     1       4.582  -5.978  -2.463  1.00  0.00     0.338 C 
ATOM     26  O   UNL     1       5.150  -6.253  -1.416  1.00  0.00    -0.246 OA
BRANCH  25  27
ATOM     27  C   UNL     1       4.034  -6.984  -3.389  1.00  0.00     0.060 A 
ATOM     28  C   UNL     1       3.198  -7.981  -2.870  1.00  0.00     0.016 A 
ATOM     29  C   UNL     1       4.358  -6.961  -4.748  1.00  0.00     0.016 A 
ATOM     30  C   UNL     1       2.744  -9.004  -3.695  1.00  0.00     0.010 A 
ATOM     31  C   UNL     1       3.920  -8.001  -5.572  1.00  0.00     0.010 A 
ATOM     32  C   UNL     1       3.162  -9.056  -5.031  1.00  0.00    -0.014 A 
BRANCH  32  33
ATOM     33  C   UNL     1       3.033 -10.341  -5.757  1.00  0.00     0.031 A 
ATOM     34  C   UNL     1       4.230 -11.257  -5.783  1.00  0.00     0.074 A 
ATOM     35  C   UNL     1       1.868 -10.729  -6.301  1.00  0.00     0.049 A 
ATOM     36  N   UNL     1       4.354 -12.448  -6.309  1.00  0.00    -0.248 NA
ATOM     37  C   UNL     1       5.450 -10.761  -5.123  1.00  0.00     0.031 C 
ATOM     38  C   UNL     1       0.626  -9.958  -6.292  1.00  0.00     0.029 A 
ATOM     39  N   UNL     1       1.543 -11.888  -6.960  1.00  0.00    -0.354 N 
ATOM     40  C   UNL     1       5.663 -12.838  -6.049  1.00  0.00     0.074 A 
ATOM     41  C   UNL     1       6.304 -11.745  -5.354  1.00  0.00     0.031 C 
ATOM     42  C   UNL     1      -0.330 -10.668  -6.917  1.00  0.00     0.029 A 
ATOM     43  C   UNL     1       0.241 -11.927  -7.393  1.00  0.00     0.049 A 
ATOM     44  H   UNL     1       2.183 -12.621  -7.109  1.00  0.00     0.167 HD
ATOM     45  C   UNL     1       6.276 -14.005  -6.351  1.00  0.00     0.031 A 
ATOM     46  C   UNL     1      -0.409 -12.871  -8.102  1.00  0.00     0.031 A 
ATOM     47  C   UNL     1       5.643 -15.089  -7.053  1.00  0.00     0.049 A 
ATOM     48  C   UNL     1       0.320 -14.132  -8.490  1.00  0.00     0.074 A 
ATOM     49  C   UNL     1       6.176 -16.316  -7.404  1.00  0.00     0.029 A 
ATOM     50  N   UNL     1       4.337 -15.070  -7.515  1.00  0.00    -0.354 N 
ATOM     51  N   UNL     1       1.550 -14.499  -8.221  1.00  0.00    -0.248 NA
ATOM     52  C   UNL     1      -0.444 -15.121  -9.265  1.00  0.00     0.031 C 
ATOM     53  C   UNL     1       5.211 -17.016  -8.136  1.00  0.00     0.029 A 
ATOM     54  C   UNL     1       4.052 -16.257  -8.169  1.00  0.00     0.049 A 
ATOM     55  H   UNL     1       3.705 -14.325  -7.395  1.00  0.00     0.167 HD
ATOM     56  C   UNL     1       1.693 -15.775  -8.755  1.00  0.00     0.074 A 
ATOM     57  C   UNL     1       0.418 -16.123  -9.348  1.00  0.00     0.031 C 
ATOM     58  C   UNL     1       2.777 -16.590  -8.751  1.00  0.00     0.031 A 
BRANCH  45  59
ATOM     59  C   UNL     1       7.721 -14.150  -5.959  1.00  0.00    -0.014 A 
ATOM     60  C   UNL     1       8.110 -14.269  -4.615  1.00  0.00     0.009 A 
ATOM     61  C   UNL     1       8.707 -14.195  -6.957  1.00  0.00     0.009 A 
ATOM     62  C   UNL     1       9.460 -14.396  -4.278  1.00  0.00     0.001 A 
ATOM     63  C   UNL     1      10.052 -14.356  -6.619  1.00  0.00     0.001 A 
ATOM     64  C   UNL     1      10.428 -14.447  -5.280  1.00  0.00     0.000 A 
ENDBRANCH  45  59
BRANCH  46  65
ATOM     65  C   UNL     1      -1.825 -12.664  -8.509  1.00  0.00    -0.014 A 
ATOM     66  C   UNL     1      -2.850 -13.475  -7.997  1.00  0.00     0.009 A 
ATOM     67  C   UNL     1      -2.151 -11.677  -9.453  1.00  0.00     0.009 A 
ATOM     68  C   UNL     1      -4.163 -13.328  -8.452  1.00  0.00     0.001 A 
ATOM     69  C   UNL     1      -3.470 -11.510  -9.879  1.00  0.00     0.001 A 
ATOM     70  C   UNL     1      -4.473 -12.344  -9.389  1.00  0.00     0.000 A 
ENDBRANCH  46  65
BRANCH  58  71
ATOM     71  C   UNL     1       2.611 -17.962  -9.347  1.00  0.00    -0.014 A 
ATOM     72  C   UNL     1       2.416 -18.155 -10.723  1.00  0.00     0.009 A 
ATOM     73  C   UNL     1       2.666 -19.087  -8.507  1.00  0.00     0.009 A 
ATOM     74  C   UNL     1       2.222 -19.440 -11.236  1.00  0.00     0.001 A 
ATOM     75  C   UNL     1       2.512 -20.372  -9.028  1.00  0.00     0.001 A 
ATOM     76  C   UNL     1       2.273 -20.547 -10.389  1.00  0.00     0.000 A 
ENDBRANCH  58  71
ENDBRANCH  32  33
ENDBRANCH  25  27
ENDBRANCH  24  25
ENDBRANCH  23  24
ENDBRANCH  22  23
ENDBRANCH  21  22
ENDBRANCH  20  21
ENDBRANCH  19  20
ENDBRANCH  18  19
ENDBRANCH   1  18
TORSDOF 25
