REMARK SMILES COc1ccc([C@H]2CC(c3ccc(S(C)(=O)=O)cc3)=NN2c2ccc(C(=O)OCCOCCOCCOCCOC(=O)c3ccc(-c4c5nc(c(-c6ccccc6)c6ccc([nH]6)c(-c6ccccc6)c6nc(c(-c7ccccc7)c7ccc4[nH]7)C=C6)C=C5)cc3)cc2)cc1
REMARK SMILES IDX 33 1 32 2 31 3 30 4 29 5 28 6 26 7 27 8 25 9 22 10 23 11
REMARK SMILES IDX 92 12 24 13 91 14 21 15 7 16 8 17 9 18 20 19 6 20 3 21 4 22
REMARK SMILES IDX 94 23 5 24 93 25 2 26 1 27 10 28 11 29 19 30 12 31 18 32
REMARK SMILES IDX 13 33 14 34 15 35 16 36 17 37 34 38 35 39 36 40 37 41 38 42
REMARK SMILES IDX 39 43 40 44 41 45 42 46 43 47 44 48 90 49 45 50 89 51 46 52
REMARK SMILES IDX 47 53 48 54 83 55 49 56 88 57 82 58 84 59 50 60 87 61 81 62
REMARK SMILES IDX 80 63 51 65 73 66 58 67 72 68 59 69 62 70 71 71 85 72 60 73
REMARK SMILES IDX 61 74 70 76 86 77 63 78 52 79 53 80 57 81 54 82 56 83 55 84
REMARK SMILES IDX 74 85 75 86 79 87 76 88 78 89 77 90 64 91 65 92 69 93 66 94
REMARK SMILES IDX 68 95 67 96
REMARK H PARENT 84 64 62 75
REMARK Flexibility Score: inf
ROOT
ATOM      1  C   UNL     1       4.564   2.136  10.448  1.00  0.00     0.188 C 
ENDROOT
BRANCH   1   2
ATOM      2  C   UNL     1       4.875   3.405   9.623  1.00  0.00     0.188 C 
BRANCH   2   3
ATOM      3  O   UNL     1       4.355   4.599  10.182  1.00  0.00    -0.376 OA
BRANCH   3   4
ATOM      4  C   UNL     1       3.268   5.239   9.544  1.00  0.00     0.202 C 
BRANCH   4   5
ATOM      5  C   UNL     1       1.944   4.472   9.405  1.00  0.00     0.261 C 
BRANCH   5   6
ATOM      6  O   UNL     1       2.046   3.112   8.970  1.00  0.00    -0.460 OA
BRANCH   6   7
ATOM      7  C   UNL     1       2.376   2.913   7.675  1.00  0.00     0.338 C 
ATOM      8  O   UNL     1       2.576   3.774   6.837  1.00  0.00    -0.246 OA
BRANCH   7   9
ATOM      9  C   UNL     1       2.649   1.470   7.481  1.00  0.00     0.060 A 
ATOM     10  C   UNL     1       3.172  -1.247   6.991  1.00  0.00     0.060 A 
ATOM     11  C   UNL     1       4.066  -0.262   6.554  1.00  0.00     0.029 A 
ATOM     12  C   UNL     1       2.071  -0.854   7.768  1.00  0.00     0.029 A 
ATOM     13  C   UNL     1       3.790   1.092   6.764  1.00  0.00     0.018 A 
ATOM     14  C   UNL     1       1.815   0.494   8.031  1.00  0.00     0.018 A 
BRANCH  10  15
ATOM     15  N   UNL     1       3.298  -2.566   6.565  1.00  0.00    -0.257 N 
ATOM     16  C   UNL     1       2.255  -3.205   5.757  1.00  0.00     0.144 C 
ATOM     17  C   UNL     1       2.908  -4.527   5.350  1.00  0.00     0.091 C 
ATOM     18  C   UNL     1       4.268  -4.356   5.970  1.00  0.00     0.071 C 
ATOM     19  N   UNL     1       4.475  -3.247   6.610  1.00  0.00    -0.176 NA
BRANCH  16  20
ATOM     20  C   UNL     1       1.826  -2.360   4.563  1.00  0.00    -0.023 A 
ATOM     21  C   UNL     1       0.978  -0.781   2.377  1.00  0.00     0.118 A 
ATOM     22  C   UNL     1       0.098  -1.087   3.416  1.00  0.00     0.047 A 
ATOM     23  C   UNL     1       2.294  -1.234   2.445  1.00  0.00     0.047 A 
ATOM     24  C   UNL     1       0.512  -1.873   4.494  1.00  0.00     0.010 A 
ATOM     25  C   UNL     1       2.716  -2.010   3.534  1.00  0.00     0.010 A 
BRANCH  21  26
ATOM     26  O   UNL     1       0.453   0.001   1.386  1.00  0.00    -0.497 OA
ATOM     27  C   UNL     1       1.079  -0.093   0.112  1.00  0.00     0.278 C 
ENDBRANCH  21  26
ENDBRANCH  16  20
BRANCH  18  28
ATOM     28  C   UNL     1       5.251  -5.443   5.878  1.00  0.00    -0.002 A 
ATOM     29  C   UNL     1       5.717  -6.035   7.056  1.00  0.00     0.011 A 
ATOM     30  C   UNL     1       5.659  -5.917   4.628  1.00  0.00     0.011 A 
ATOM     31  C   UNL     1       6.586  -7.126   6.986  1.00  0.00     0.021 A 
ATOM     32  C   UNL     1       6.548  -6.992   4.556  1.00  0.00     0.021 A 
ATOM     33  C   UNL     1       7.006  -7.592   5.735  1.00  0.00     0.067 A 
BRANCH  33  34
ATOM     34  S   UNL     1       8.093  -8.998   5.648  1.00  0.00     0.175 S 
ATOM     35  C   UNL     1       9.571  -8.467   6.471  1.00  0.00     0.163 C 
ATOM     36  O   UNL     1       7.479 -10.048   6.437  1.00  0.00    -0.224 OA
ATOM     37  O   UNL     1       8.424  -9.209   4.251  1.00  0.00    -0.224 OA
ENDBRANCH  33  34
ENDBRANCH  18  28
ENDBRANCH  10  15
ENDBRANCH   7   9
ENDBRANCH   6   7
ENDBRANCH   5   6
ENDBRANCH   4   5
ENDBRANCH   3   4
ENDBRANCH   2   3
ENDBRANCH   1   2
BRANCH   1  38
ATOM     38  O   UNL     1       3.670   2.217  11.551  1.00  0.00    -0.377 OA
BRANCH  38  39
ATOM     39  C   UNL     1       3.765   3.299  12.472  1.00  0.00     0.188 C 
BRANCH  39  40
ATOM     40  C   UNL     1       5.109   4.015  12.745  1.00  0.00     0.188 C 
BRANCH  40  41
ATOM     41  O   UNL     1       6.228   3.433  12.102  1.00  0.00    -0.376 OA
BRANCH  41  42
ATOM     42  C   UNL     1       7.152   2.715  12.898  1.00  0.00     0.202 C 
BRANCH  42  43
ATOM     43  C   UNL     1       6.633   1.477  13.641  1.00  0.00     0.261 C 
BRANCH  43  44
ATOM     44  O   UNL     1       5.452   1.660  14.438  1.00  0.00    -0.460 OA
BRANCH  44  45
ATOM     45  C   UNL     1       5.554   2.439  15.533  1.00  0.00     0.338 C 
ATOM     46  O   UNL     1       6.547   3.023  15.939  1.00  0.00    -0.246 OA
BRANCH  45  47
ATOM     47  C   UNL     1       4.192   2.621  16.075  1.00  0.00     0.060 A 
ATOM     48  C   UNL     1       3.639   3.907  16.131  1.00  0.00     0.016 A 
ATOM     49  C   UNL     1       3.459   1.515  16.512  1.00  0.00     0.016 A 
ATOM     50  C   UNL     1       2.359   4.094  16.654  1.00  0.00     0.010 A 
ATOM     51  C   UNL     1       2.188   1.706  17.056  1.00  0.00     0.010 A 
ATOM     52  C   UNL     1       1.646   3.000  17.161  1.00  0.00    -0.014 A 
BRANCH  52  53
ATOM     53  C   UNL     1       0.428   3.224  17.977  1.00  0.00     0.031 A 
ATOM     54  C   UNL     1       0.563   3.204  19.475  1.00  0.00     0.074 A 
ATOM     55  C   UNL     1      -0.768   3.451  17.408  1.00  0.00     0.049 A 
ATOM     56  N   UNL     1      -0.360   3.319  20.394  1.00  0.00    -0.248 NA
ATOM     57  C   UNL     1       1.925   3.026  20.005  1.00  0.00     0.031 C 
ATOM     58  C   UNL     1      -1.023   3.545  15.973  1.00  0.00     0.029 A 
ATOM     59  N   UNL     1      -2.001   3.639  17.984  1.00  0.00    -0.354 N 
ATOM     60  C   UNL     1       0.307   3.216  21.609  1.00  0.00     0.074 A 
ATOM     61  C   UNL     1       1.705   2.998  21.310  1.00  0.00     0.031 C 
ATOM     62  C   UNL     1      -2.335   3.765  15.778  1.00  0.00     0.029 A 
ATOM     63  C   UNL     1      -3.016   3.788  17.072  1.00  0.00     0.049 A 
ATOM     64  H   UNL     1      -2.143   3.663  18.958  1.00  0.00     0.167 HD
ATOM     65  C   UNL     1      -0.197   3.301  22.863  1.00  0.00     0.031 A 
ATOM     66  C   UNL     1      -4.345   3.905  17.261  1.00  0.00     0.031 A 
ATOM     67  C   UNL     1      -1.591   3.498  23.159  1.00  0.00     0.049 A 
ATOM     68  C   UNL     1      -4.895   3.903  18.665  1.00  0.00     0.074 A 
ATOM     69  C   UNL     1      -2.200   3.608  24.396  1.00  0.00     0.029 A 
ATOM     70  N   UNL     1      -2.593   3.601  22.207  1.00  0.00    -0.354 N 
ATOM     71  N   UNL     1      -4.254   3.832  19.807  1.00  0.00    -0.248 NA
ATOM     72  C   UNL     1      -6.356   4.006  18.803  1.00  0.00     0.031 C 
ATOM     73  C   UNL     1      -3.580   3.710  24.194  1.00  0.00     0.029 A 
ATOM     74  C   UNL     1      -3.821   3.740  22.830  1.00  0.00     0.049 A 
ATOM     75  H   UNL     1      -2.452   3.578  21.233  1.00  0.00     0.167 HD
ATOM     76  C   UNL     1      -5.227   3.916  20.796  1.00  0.00     0.074 A 
ATOM     77  C   UNL     1      -6.500   4.058  20.120  1.00  0.00     0.031 C 
ATOM     78  C   UNL     1      -5.081   3.882  22.144  1.00  0.00     0.031 A 
BRANCH  65  79
ATOM     79  C   UNL     1       0.764   3.133  24.007  1.00  0.00    -0.014 A 
ATOM     80  C   UNL     1       1.735   4.105  24.299  1.00  0.00     0.009 A 
ATOM     81  C   UNL     1       0.679   1.993  24.822  1.00  0.00     0.009 A 
ATOM     82  C   UNL     1       2.624   3.920  25.360  1.00  0.00     0.001 A 
ATOM     83  C   UNL     1       1.548   1.827  25.902  1.00  0.00     0.001 A 
ATOM     84  C   UNL     1       2.526   2.784  26.163  1.00  0.00     0.000 A 
ENDBRANCH  65  79
BRANCH  66  85
ATOM     85  C   UNL     1      -5.261   4.011  16.093  1.00  0.00    -0.014 A 
ATOM     86  C   UNL     1      -5.980   5.191  15.848  1.00  0.00     0.009 A 
ATOM     87  C   UNL     1      -5.445   2.917  15.232  1.00  0.00     0.009 A 
ATOM     88  C   UNL     1      -6.882   5.264  14.784  1.00  0.00     0.001 A 
ATOM     89  C   UNL     1      -6.323   3.004  14.150  1.00  0.00     0.001 A 
ATOM     90  C   UNL     1      -7.049   4.173  13.933  1.00  0.00     0.000 A 
ENDBRANCH  66  85
BRANCH  78  91
ATOM     91  C   UNL     1      -6.320   4.048  22.982  1.00  0.00    -0.014 A 
ATOM     92  C   UNL     1      -7.301   3.047  23.053  1.00  0.00     0.009 A 
ATOM     93  C   UNL     1      -6.483   5.213  23.751  1.00  0.00     0.009 A 
ATOM     94  C   UNL     1      -8.437   3.226  23.846  1.00  0.00     0.001 A 
ATOM     95  C   UNL     1      -7.601   5.373  24.570  1.00  0.00     0.001 A 
ATOM     96  C   UNL     1      -8.583   4.385  24.608  1.00  0.00     0.000 A 
ENDBRANCH  78  91
ENDBRANCH  52  53
ENDBRANCH  45  47
ENDBRANCH  44  45
ENDBRANCH  43  44
ENDBRANCH  42  43
ENDBRANCH  41  42
ENDBRANCH  40  41
ENDBRANCH  39  40
ENDBRANCH  38  39
ENDBRANCH   1  38
TORSDOF 25
