REMARK SMILES Cc1ccc(-c2cc(C(=O)OCCOCCOCCOCCOC(=O)c3ccc(-c4c5nc(c(-c6ccccc6)c6ccc([nH]6)c(-c6ccccc6)c6nc(c(-c7ccccc7)c7ccc4[nH]7)C=C6)C=C5)cc3)c3cc(C)ccc3n2)c(C)c1
REMARK SMILES IDX 18 1 17 2 16 3 15 4 14 5 13 6 12 7 11 8 9 9 10 10 8 11 6 12
REMARK SMILES IDX 7 13 81 14 80 15 74 16 79 17 75 18 78 19 76 20 77 21 5 22
REMARK SMILES IDX 1 23 2 24 3 25 84 26 4 27 82 28 83 29 19 30 20 31 21 32
REMARK SMILES IDX 22 33 23 34 24 35 25 36 26 37 27 38 73 39 28 40 72 41 29 42
REMARK SMILES IDX 30 43 31 44 66 45 32 46 71 47 65 48 67 49 33 50 70 51 64 52
REMARK SMILES IDX 63 53 34 55 56 56 41 57 55 58 42 59 45 60 54 61 68 62 43 63
REMARK SMILES IDX 44 64 53 66 69 67 46 68 35 69 36 70 40 71 37 72 39 73 38 74
REMARK SMILES IDX 57 75 58 76 62 77 59 78 61 79 60 80 47 81 48 82 52 83 49 84
REMARK SMILES IDX 51 85 50 86
REMARK H PARENT 67 54 45 65
REMARK Flexibility Score: inf
ROOT
ATOM      1  C   UNL     1      -4.651  -7.912   1.525  1.00  0.00     0.188 C 
ENDROOT
BRANCH   1   2
ATOM      2  O   UNL     1      -4.513  -6.587   1.016  1.00  0.00    -0.377 OA
BRANCH   2   3
ATOM      3  C   UNL     1      -3.292  -5.888   1.194  1.00  0.00     0.188 C 
BRANCH   3   4
ATOM      4  C   UNL     1      -2.881  -5.561   2.647  1.00  0.00     0.188 C 
BRANCH   4   5
ATOM      5  O   UNL     1      -3.510  -6.376   3.617  1.00  0.00    -0.376 OA
BRANCH   5   6
ATOM      6  C   UNL     1      -4.634  -5.923   4.345  1.00  0.00     0.202 C 
BRANCH   6   7
ATOM      7  C   UNL     1      -5.746  -5.051   3.739  1.00  0.00     0.261 C 
BRANCH   7   8
ATOM      8  O   UNL     1      -5.419  -4.347   2.544  1.00  0.00    -0.460 OA
BRANCH   8   9
ATOM      9  C   UNL     1      -4.986  -3.076   2.664  1.00  0.00     0.338 C 
ATOM     10  O   UNL     1      -4.822  -2.459   3.702  1.00  0.00    -0.246 OA
BRANCH   9  11
ATOM     11  C   UNL     1      -4.508  -2.610   1.340  1.00  0.00     0.071 A 
ATOM     12  C   UNL     1      -2.709  -1.614   0.132  1.00  0.00     0.072 A 
ATOM     13  C   UNL     1      -3.229  -2.048   1.335  1.00  0.00     0.045 A 
ATOM     14  N   UNL     1      -3.407  -1.683  -1.023  1.00  0.00    -0.248 NA
ATOM     15  C   UNL     1      -4.638  -2.221  -1.018  1.00  0.00     0.072 A 
ATOM     16  C   UNL     1      -5.248  -2.743   0.139  1.00  0.00     0.015 A 
ATOM     17  C   UNL     1      -5.335  -2.253  -2.217  1.00  0.00     0.029 A 
ATOM     18  C   UNL     1      -6.524  -3.354   0.013  1.00  0.00     0.014 A 
ATOM     19  C   UNL     1      -6.598  -2.841  -2.328  1.00  0.00     0.005 A 
ATOM     20  C   UNL     1      -7.194  -3.420  -1.214  1.00  0.00    -0.050 A 
ATOM     21  C   UNL     1      -8.490  -4.165  -1.325  1.00  0.00     0.044 C 
BRANCH  12  22
ATOM     22  C   UNL     1      -1.403  -0.950   0.060  1.00  0.00     0.003 A 
ATOM     23  C   UNL     1       2.474   0.982  -0.012  1.00  0.00     0.044 C 
ATOM     24  C   UNL     1       1.141   0.294   0.004  1.00  0.00    -0.051 A 
ATOM     25  C   UNL     1       1.038  -1.098   0.020  1.00  0.00     0.004 A 
ATOM     26  C   UNL     1      -0.031   1.060   0.005  1.00  0.00     0.007 A 
ATOM     27  C   UNL     1      -0.219  -1.712   0.046  1.00  0.00     0.011 A 
ATOM     28  C   UNL     1      -1.300   0.456   0.036  1.00  0.00    -0.041 A 
ATOM     29  C   UNL     1      -2.507   1.358   0.026  1.00  0.00     0.045 C 
ENDBRANCH  12  22
ENDBRANCH   9  11
ENDBRANCH   8   9
ENDBRANCH   7   8
ENDBRANCH   6   7
ENDBRANCH   5   6
ENDBRANCH   4   5
ENDBRANCH   3   4
ENDBRANCH   2   3
ENDBRANCH   1   2
BRANCH   1  30
ATOM     30  C   UNL     1      -3.478  -8.704   2.156  1.00  0.00     0.188 C 
BRANCH  30  31
ATOM     31  O   UNL     1      -2.185  -8.215   1.846  1.00  0.00    -0.376 OA
BRANCH  31  32
ATOM     32  C   UNL     1      -1.379  -8.955   0.950  1.00  0.00     0.202 C 
BRANCH  32  33
ATOM     33  C   UNL     1      -1.882  -9.080  -0.494  1.00  0.00     0.261 C 
BRANCH  33  34
ATOM     34  O   UNL     1      -3.219  -9.576  -0.652  1.00  0.00    -0.460 OA
BRANCH  34  35
ATOM     35  C   UNL     1      -3.449 -10.854  -0.289  1.00  0.00     0.338 C 
ATOM     36  O   UNL     1      -2.645 -11.652   0.166  1.00  0.00    -0.246 OA
BRANCH  35  37
ATOM     37  C   UNL     1      -4.904 -11.082  -0.368  1.00  0.00     0.060 A 
ATOM     38  C   UNL     1      -5.610 -11.418   0.795  1.00  0.00     0.016 A 
ATOM     39  C   UNL     1      -5.568 -10.953  -1.590  1.00  0.00     0.016 A 
ATOM     40  C   UNL     1      -6.983 -11.658   0.731  1.00  0.00     0.010 A 
ATOM     41  C   UNL     1      -6.938 -11.216  -1.656  1.00  0.00     0.010 A 
ATOM     42  C   UNL     1      -7.644 -11.602  -0.503  1.00  0.00    -0.014 A 
BRANCH  42  43
ATOM     43  C   UNL     1      -9.017 -12.145  -0.632  1.00  0.00     0.031 A 
ATOM     44  C   UNL     1      -9.180 -13.546  -1.155  1.00  0.00     0.074 A 
ATOM     45  C   UNL     1     -10.097 -11.425  -0.280  1.00  0.00     0.049 A 
ATOM     46  N   UNL     1     -10.273 -14.216  -1.417  1.00  0.00    -0.248 NA
ATOM     47  C   UNL     1      -7.938 -14.293  -1.420  1.00  0.00     0.031 C 
ATOM     48  C   UNL     1     -10.072 -10.081   0.295  1.00  0.00     0.029 A 
ATOM     49  N   UNL     1     -11.432 -11.732  -0.363  1.00  0.00    -0.354 N 
ATOM     50  C   UNL     1      -9.851 -15.457  -1.878  1.00  0.00     0.074 A 
ATOM     51  C   UNL     1      -8.405 -15.435  -1.898  1.00  0.00     0.031 C 
ATOM     52  C   UNL     1     -11.337  -9.677   0.508  1.00  0.00     0.029 A 
ATOM     53  C   UNL     1     -12.258 -10.714   0.047  1.00  0.00     0.049 A 
ATOM     54  H   UNL     1     -11.766 -12.600  -0.686  1.00  0.00     0.167 HD
ATOM     55  C   UNL     1     -10.598 -16.524  -2.243  1.00  0.00     0.031 A 
ATOM     56  C   UNL     1     -13.602 -10.626   0.028  1.00  0.00     0.031 A 
ATOM     57  C   UNL     1     -12.036 -16.538  -2.249  1.00  0.00     0.049 A 
ATOM     58  C   UNL     1     -14.411 -11.787  -0.496  1.00  0.00     0.074 A 
ATOM     59  C   UNL     1     -12.887 -17.567  -2.613  1.00  0.00     0.029 A 
ATOM     60  N   UNL     1     -12.835 -15.468  -1.877  1.00  0.00    -0.354 N 
ATOM     61  N   UNL     1     -14.003 -12.961  -0.917  1.00  0.00    -0.248 NA
ATOM     62  C   UNL     1     -15.870 -11.610  -0.540  1.00  0.00     0.031 C 
ATOM     63  C   UNL     1     -14.201 -17.098  -2.519  1.00  0.00     0.029 A 
ATOM     64  C   UNL     1     -14.169 -15.803  -2.027  1.00  0.00     0.049 A 
ATOM     65  H   UNL     1     -12.502 -14.599  -1.555  1.00  0.00     0.167 HD
ATOM     66  C   UNL     1     -15.155 -13.672  -1.235  1.00  0.00     0.074 A 
ATOM     67  C   UNL     1     -16.277 -12.805  -0.945  1.00  0.00     0.031 C 
ATOM     68  C   UNL     1     -15.275 -14.932  -1.722  1.00  0.00     0.031 A 
BRANCH  55  69
ATOM     69  C   UNL     1      -9.867 -17.756  -2.699  1.00  0.00    -0.014 A 
ATOM     70  C   UNL     1      -9.133 -18.544  -1.797  1.00  0.00     0.009 A 
ATOM     71  C   UNL     1      -9.937 -18.152  -4.044  1.00  0.00     0.009 A 
ATOM     72  C   UNL     1      -8.457 -19.683  -2.240  1.00  0.00     0.001 A 
ATOM     73  C   UNL     1      -9.287 -19.309  -4.477  1.00  0.00     0.001 A 
ATOM     74  C   UNL     1      -8.540 -20.068  -3.577  1.00  0.00     0.000 A 
ENDBRANCH  55  69
BRANCH  56  75
ATOM     75  C   UNL     1     -14.287  -9.388   0.491  1.00  0.00    -0.014 A 
ATOM     76  C   UNL     1     -15.117  -9.409   1.623  1.00  0.00     0.009 A 
ATOM     77  C   UNL     1     -14.163  -8.191  -0.232  1.00  0.00     0.009 A 
ATOM     78  C   UNL     1     -15.836  -8.271   1.998  1.00  0.00     0.001 A 
ATOM     79  C   UNL     1     -14.856  -7.045   0.166  1.00  0.00     0.001 A 
ATOM     80  C   UNL     1     -15.702  -7.090   1.271  1.00  0.00     0.000 A 
ENDBRANCH  56  75
BRANCH  68  81
ATOM     81  C   UNL     1     -16.666 -15.473  -1.915  1.00  0.00    -0.014 A 
ATOM     82  C   UNL     1     -17.510 -14.992  -2.928  1.00  0.00     0.009 A 
ATOM     83  C   UNL     1     -17.122 -16.515  -1.091  1.00  0.00     0.009 A 
ATOM     84  C   UNL     1     -18.794 -15.518  -3.086  1.00  0.00     0.001 A 
ATOM     85  C   UNL     1     -18.392 -17.063  -1.274  1.00  0.00     0.001 A 
ATOM     86  C   UNL     1     -19.232 -16.556  -2.264  1.00  0.00     0.000 A 
ENDBRANCH  68  81
ENDBRANCH  42  43
ENDBRANCH  35  37
ENDBRANCH  34  35
ENDBRANCH  33  34
ENDBRANCH  32  33
ENDBRANCH  31  32
ENDBRANCH  30  31
ENDBRANCH   1  30
TORSDOF 21
