REMARK SMILES O=C(OCCOCCOCCOCCOC(=O)c1ccc(-c2c3nc(c(-c4ccccc4)c4ccc([nH]4)c(-c4ccccc4)c4nc(c(-c5ccccc5)c5ccc2[nH]5)C=C4)C=C3)cc1)C1=Cc2cc(Cl)cc(C#Cc3ccccc3)c2O[C@@H]1C(F)(F)F
REMARK SMILES IDX 9 1 8 2 7 3 6 4 5 5 4 6 3 7 2 8 1 9 66 10 67 11 84 12 68 13
REMARK SMILES IDX 83 14 69 15 82 16 70 17 73 18 71 19 72 20 85 21 86 22 87 23
REMARK SMILES IDX 88 24 74 25 75 26 76 27 77 28 81 29 78 30 80 31 79 32 10 33
REMARK SMILES IDX 11 34 12 35 13 36 14 37 15 38 16 39 17 40 18 41 19 42 65 43
REMARK SMILES IDX 20 44 64 45 21 46 22 47 23 48 58 49 24 50 63 51 57 52 59 53
REMARK SMILES IDX 25 54 62 55 56 56 55 57 26 59 48 60 33 61 47 62 34 63 37 64
REMARK SMILES IDX 46 65 60 66 35 67 36 68 45 70 61 71 38 72 27 73 28 74 32 75
REMARK SMILES IDX 29 76 31 77 30 78 49 79 50 80 54 81 51 82 53 83 52 84 39 85
REMARK SMILES IDX 40 86 44 87 41 88 43 89 42 90
REMARK H PARENT 59 58 37 69
REMARK Flexibility Score: inf
ROOT
ATOM      1  O   UNL     1       2.845   2.087   3.566  1.00  0.00    -0.377 OA
ENDROOT
BRANCH   1   2
ATOM      2  C   UNL     1       1.984   1.394   2.692  1.00  0.00     0.188 C 
BRANCH   2   3
ATOM      3  C   UNL     1       2.298  -0.094   2.519  1.00  0.00     0.188 C 
BRANCH   3   4
ATOM      4  O   UNL     1       3.553  -0.644   2.001  1.00  0.00    -0.376 OA
BRANCH   4   5
ATOM      5  C   UNL     1       4.274  -0.719   0.552  1.00  0.00     0.202 C 
BRANCH   5   6
ATOM      6  C   UNL     1       3.471  -0.142  -1.387  1.00  0.00     0.261 C 
BRANCH   6   7
ATOM      7  O   UNL     1       2.601  -0.989  -2.296  1.00  0.00    -0.460 OA
BRANCH   7   8
ATOM      8  C   UNL     1       2.882  -2.294  -2.199  1.00  0.00     0.338 C 
ATOM      9  O   UNL     1       2.286  -3.227  -2.673  1.00  0.00    -0.246 OA
BRANCH   8  10
ATOM     10  C   UNL     1       3.752  -2.198  -1.038  1.00  0.00     0.087 C 
ATOM     11  C   UNL     1       5.102  -1.691  -1.351  1.00  0.00     0.027 C 
ATOM     12  C   UNL     1       2.442  -1.250   0.010  1.00  0.00     0.316 C 
ATOM     13  C   UNL     1       5.668  -0.010  -0.985  1.00  0.00     0.020 A 
ATOM     14  O   UNL     1       2.974   0.599   0.297  1.00  0.00    -0.474 OA
ATOM     15  C   UNL     1       6.942   0.353  -1.328  1.00  0.00     0.032 A 
ATOM     16  C   UNL     1       4.615   1.187  -0.282  1.00  0.00     0.143 A 
ATOM     17  C   UNL     1       7.271   1.692  -1.053  1.00  0.00     0.043 A 
ATOM     18  C   UNL     1       5.014   2.499  -0.114  1.00  0.00     0.069 A 
ATOM     19  Cl  UNL     1       8.894   2.186  -1.429  1.00  0.00    -0.084 Cl
ATOM     20  C   UNL     1       6.373   2.697  -0.493  1.00  0.00     0.041 A 
BRANCH  12  21
ATOM     21  C   UNL     1       2.201  -2.524   1.047  1.00  0.00     0.430 C 
ATOM     22  F   UNL     1       1.356  -2.367   2.081  1.00  0.00    -0.167 F 
ATOM     23  F   UNL     1       1.626  -3.520   0.301  1.00  0.00    -0.167 F 
ATOM     24  F   UNL     1       3.340  -3.088   1.524  1.00  0.00    -0.167 F 
ENDBRANCH  12  21
BRANCH  18  25
ATOM     25  C   UNL     1       4.262   3.608   0.406  1.00  0.00    -0.058 C 
ATOM     26  C   UNL     1       3.759   4.566   0.923  1.00  0.00    -0.062 C 
BRANCH  26  27
ATOM     27  C   UNL     1       3.271   5.713   1.655  1.00  0.00     0.025 A 
ATOM     28  C   UNL     1       3.449   7.006   1.159  1.00  0.00     0.017 A 
ATOM     29  C   UNL     1       2.709   5.555   2.923  1.00  0.00     0.017 A 
ATOM     30  C   UNL     1       3.174   8.124   1.958  1.00  0.00     0.001 A 
ATOM     31  C   UNL     1       2.377   6.672   3.701  1.00  0.00     0.001 A 
ATOM     32  C   UNL     1       2.644   7.957   3.233  1.00  0.00     0.000 A 
ENDBRANCH  26  27
ENDBRANCH  18  25
ENDBRANCH   8  10
ENDBRANCH   7   8
ENDBRANCH   6   7
ENDBRANCH   5   6
ENDBRANCH   4   5
ENDBRANCH   3   4
ENDBRANCH   2   3
ENDBRANCH   1   2
BRANCH   1  33
ATOM     33  C   UNL     1       4.199   1.999   3.170  1.00  0.00     0.188 C 
BRANCH  33  34
ATOM     34  C   UNL     1       5.042   0.969   3.916  1.00  0.00     0.188 C 
BRANCH  34  35
ATOM     35  O   UNL     1       4.269   0.022   4.628  1.00  0.00    -0.376 OA
BRANCH  35  36
ATOM     36  C   UNL     1       3.994   0.321   5.990  1.00  0.00     0.202 C 
BRANCH  36  37
ATOM     37  C   UNL     1       3.244   1.626   6.319  1.00  0.00     0.261 C 
BRANCH  37  38
ATOM     38  O   UNL     1       3.861   2.881   5.933  1.00  0.00    -0.460 OA
BRANCH  38  39
ATOM     39  C   UNL     1       5.168   3.118   6.180  1.00  0.00     0.338 C 
ATOM     40  O   UNL     1       5.935   2.430   6.828  1.00  0.00    -0.246 OA
BRANCH  39  41
ATOM     41  C   UNL     1       5.578   4.304   5.381  1.00  0.00     0.060 A 
ATOM     42  C   UNL     1       6.556   4.223   4.369  1.00  0.00     0.016 A 
ATOM     43  C   UNL     1       4.955   5.515   5.628  1.00  0.00     0.016 A 
ATOM     44  C   UNL     1       6.914   5.354   3.606  1.00  0.00     0.010 A 
ATOM     45  C   UNL     1       5.320   6.633   4.874  1.00  0.00     0.010 A 
ATOM     46  C   UNL     1       6.324   6.590   3.876  1.00  0.00    -0.014 A 
BRANCH  46  47
ATOM     47  C   UNL     1       6.819   7.908   3.346  1.00  0.00     0.031 A 
ATOM     48  C   UNL     1       7.218   8.936   4.382  1.00  0.00     0.074 A 
ATOM     49  C   UNL     1       6.831   8.285   2.049  1.00  0.00     0.049 A 
ATOM     50  N   UNL     1       7.340  10.234   4.280  1.00  0.00    -0.248 NA
ATOM     51  C   UNL     1       7.444   8.416   5.744  1.00  0.00     0.031 C 
ATOM     52  C   UNL     1       6.564   7.439   0.891  1.00  0.00     0.029 A 
ATOM     53  N   UNL     1       7.003   9.542   1.498  1.00  0.00    -0.354 N 
ATOM     54  C   UNL     1       7.606  10.675   5.570  1.00  0.00     0.074 A 
ATOM     55  C   UNL     1       7.479   9.533   6.446  1.00  0.00     0.031 C 
ATOM     56  C   UNL     1       6.481   8.208  -0.212  1.00  0.00     0.029 A 
ATOM     57  C   UNL     1       6.696   9.605   0.156  1.00  0.00     0.049 A 
ATOM     58  H   UNL     1       7.316  10.319   2.016  1.00  0.00     0.167 HD
ATOM     59  C   UNL     1       7.999  11.897   5.998  1.00  0.00     0.031 A 
ATOM     60  C   UNL     1       6.573  10.661  -0.677  1.00  0.00     0.031 A 
ATOM     61  C   UNL     1       8.200  13.023   5.133  1.00  0.00     0.049 A 
ATOM     62  C   UNL     1       6.913  12.048  -0.185  1.00  0.00     0.074 A 
ATOM     63  C   UNL     1       8.701  14.272   5.448  1.00  0.00     0.029 A 
ATOM     64  N   UNL     1       7.916  13.030   3.778  1.00  0.00    -0.354 N 
ATOM     65  N   UNL     1       7.242  12.441   1.021  1.00  0.00    -0.248 NA
ATOM     66  C   UNL     1       6.929  13.127  -1.188  1.00  0.00     0.031 C 
ATOM     67  C   UNL     1       8.658  15.059   4.295  1.00  0.00     0.029 A 
ATOM     68  C   UNL     1       8.206  14.274   3.246  1.00  0.00     0.049 A 
ATOM     69  H   UNL     1       7.562  12.265   3.269  1.00  0.00     0.167 HD
ATOM     70  C   UNL     1       7.586  13.784   0.904  1.00  0.00     0.074 A 
ATOM     71  C   UNL     1       7.403  14.146  -0.485  1.00  0.00     0.031 C 
ATOM     72  C   UNL     1       8.045  14.629   1.860  1.00  0.00     0.031 A 
BRANCH  59  73
ATOM     73  C   UNL     1       8.270  12.050   7.470  1.00  0.00    -0.014 A 
ATOM     74  C   UNL     1       9.296  11.325   8.103  1.00  0.00     0.009 A 
ATOM     75  C   UNL     1       7.480  12.916   8.241  1.00  0.00     0.009 A 
ATOM     76  C   UNL     1       9.472  11.402   9.484  1.00  0.00     0.001 A 
ATOM     77  C   UNL     1       7.693  13.030   9.615  1.00  0.00     0.001 A 
ATOM     78  C   UNL     1       8.673  12.258  10.238  1.00  0.00     0.000 A 
ENDBRANCH  59  73
BRANCH  60  79
ATOM     79  C   UNL     1       6.159  10.469  -2.097  1.00  0.00    -0.014 A 
ATOM     80  C   UNL     1       7.098  10.595  -3.134  1.00  0.00     0.009 A 
ATOM     81  C   UNL     1       4.818  10.218  -2.432  1.00  0.00     0.009 A 
ATOM     82  C   UNL     1       6.702  10.509  -4.471  1.00  0.00     0.001 A 
ATOM     83  C   UNL     1       4.429  10.107  -3.772  1.00  0.00     0.001 A 
ATOM     84  C   UNL     1       5.368  10.262  -4.790  1.00  0.00     0.000 A 
ENDBRANCH  60  79
BRANCH  72  85
ATOM     85  C   UNL     1       8.477  16.008   1.443  1.00  0.00    -0.014 A 
ATOM     86  C   UNL     1       7.559  16.985   1.030  1.00  0.00     0.009 A 
ATOM     87  C   UNL     1       9.836  16.356   1.543  1.00  0.00     0.009 A 
ATOM     88  C   UNL     1       7.997  18.270   0.701  1.00  0.00     0.001 A 
ATOM     89  C   UNL     1      10.265  17.651   1.250  1.00  0.00     0.001 A 
ATOM     90  C   UNL     1       9.346  18.604   0.820  1.00  0.00     0.000 A 
ENDBRANCH  72  85
ENDBRANCH  46  47
ENDBRANCH  39  41
ENDBRANCH  38  39
ENDBRANCH  37  38
ENDBRANCH  36  37
ENDBRANCH  35  36
ENDBRANCH  34  35
ENDBRANCH  33  34
ENDBRANCH   1  33
TORSDOF 23
