REMARK SMILES Cc1ccc(/C=C/C(=O)N2C[C@@H](O)C[C@H]2C(=O)OCCOCCOCCOCCOC(=O)c2ccc(-c3c4nc(c(-c5ccccc5)c5ccc([nH]5)c(-c5ccccc5)c5nc(c(-c6ccccc6)c6ccc3[nH]6)C=C5)C=C4)cc2)c(C)c1
REMARK SMILES IDX 23 1 22 2 21 3 20 4 19 5 18 6 16 7 17 8 15 9 10 10 11 11
REMARK SMILES IDX 12 12 14 13 8 14 9 15 7 16 6 17 5 18 1 19 2 20 3 21 83 22
REMARK SMILES IDX 4 23 81 24 82 25 13 26 24 28 25 29 26 30 27 31 28 32 29 33
REMARK SMILES IDX 30 34 31 35 32 36 33 37 34 38 80 39 35 40 79 41 36 42 37 43
REMARK SMILES IDX 38 44 73 45 39 46 78 47 72 48 74 49 40 50 77 51 71 52 70 53
REMARK SMILES IDX 41 55 63 56 48 57 62 58 49 59 52 60 61 61 75 62 50 63 51 64
REMARK SMILES IDX 60 66 76 67 53 68 42 69 43 70 47 71 44 72 46 73 45 74 64 75
REMARK SMILES IDX 65 76 69 77 66 78 68 79 67 80 54 81 55 82 59 83 56 84 58 85
REMARK SMILES IDX 57 86
REMARK H PARENT 13 27 74 54 52 65
REMARK Flexibility Score: inf
ROOT
ATOM      1  C   UNL     1      -7.395  -1.686   0.122  1.00  0.00     0.188 C 
ENDROOT
BRANCH   1   2
ATOM      2  C   UNL     1      -8.540  -2.005  -0.852  1.00  0.00     0.188 C 
BRANCH   2   3
ATOM      3  O   UNL     1      -9.772  -2.278  -0.227  1.00  0.00    -0.376 OA
BRANCH   3   4
ATOM      4  C   UNL     1     -10.104  -3.595   0.152  1.00  0.00     0.202 C 
BRANCH   4   5
ATOM      5  C   UNL     1      -9.082  -4.690   0.525  1.00  0.00     0.261 C 
BRANCH   5   6
ATOM      6  O   UNL     1      -7.689  -4.486   0.235  1.00  0.00    -0.462 OA
BRANCH   6   7
ATOM      7  C   UNL     1      -7.213  -5.012  -0.923  1.00  0.00     0.329 C 
ATOM      8  O   UNL     1      -7.913  -5.634  -1.718  1.00  0.00    -0.250 OA
BRANCH   7   9
ATOM      9  C   UNL     1      -5.672  -4.915  -1.079  1.00  0.00     0.198 C 
ATOM     10  N   UNL     1      -4.833  -3.982  -0.288  1.00  0.00    -0.323 N 
ATOM     11  C   UNL     1      -4.117  -4.693   0.749  1.00  0.00     0.152 C 
ATOM     12  C   UNL     1      -3.844  -6.033   0.078  1.00  0.00     0.136 C 
ATOM     13  C   UNL     1      -5.126  -6.303  -0.704  1.00  0.00     0.071 C 
BRANCH  10  14
ATOM     14  C   UNL     1      -4.496  -2.740  -0.785  1.00  0.00     0.247 C 
ATOM     15  O   UNL     1      -4.985  -2.282  -1.816  1.00  0.00    -0.270 OA
BRANCH  14  16
ATOM     16  C   UNL     1      -3.514  -1.921  -0.025  1.00  0.00     0.072 C 
ATOM     17  C   UNL     1      -2.274  -1.861  -0.533  1.00  0.00     0.014 C 
BRANCH  17  18
ATOM     18  C   UNL     1      -1.125  -1.035  -0.111  1.00  0.00    -0.023 A 
ATOM     19  C   UNL     1       2.643   1.099   0.121  1.00  0.00     0.044 C 
ATOM     20  C   UNL     1       1.344   0.347   0.129  1.00  0.00    -0.051 A 
ATOM     21  C   UNL     1       1.317  -1.045   0.116  1.00  0.00     0.004 A 
ATOM     22  C   UNL     1       0.128   1.040   0.097  1.00  0.00     0.007 A 
ATOM     23  C   UNL     1       0.099  -1.723  -0.003  1.00  0.00     0.008 A 
ATOM     24  C   UNL     1      -1.113   0.371  -0.018  1.00  0.00    -0.044 A 
ATOM     25  C   UNL     1      -2.327   1.252  -0.128  1.00  0.00     0.045 C 
ENDBRANCH  17  18
ENDBRANCH  14  16
ENDBRANCH  10  14
BRANCH  12  26
ATOM     26  O   UNL     1      -3.559  -7.070   0.997  1.00  0.00    -0.391 OA
ATOM     27  H   UNL     1      -4.306  -7.176   1.607  1.00  0.00     0.211 HD
ENDBRANCH  12  26
ENDBRANCH   7   9
ENDBRANCH   6   7
ENDBRANCH   5   6
ENDBRANCH   4   5
ENDBRANCH   3   4
ENDBRANCH   2   3
ENDBRANCH   1   2
BRANCH   1  28
ATOM     28  O   UNL     1      -7.559  -1.637   1.530  1.00  0.00    -0.377 OA
BRANCH  28  29
ATOM     29  C   UNL     1      -8.750  -1.114   2.082  1.00  0.00     0.188 C 
BRANCH  29  30
ATOM     30  C   UNL     1      -9.406   0.115   1.431  1.00  0.00     0.188 C 
BRANCH  30  31
ATOM     31  O   UNL     1      -8.742   0.590   0.273  1.00  0.00    -0.376 OA
BRANCH  31  32
ATOM     32  C   UNL     1      -7.910   1.730   0.399  1.00  0.00     0.202 C 
BRANCH  32  33
ATOM     33  C   UNL     1      -6.683   1.647   1.323  1.00  0.00     0.261 C 
BRANCH  33  34
ATOM     34  O   UNL     1      -6.919   1.201   2.665  1.00  0.00    -0.460 OA
BRANCH  34  35
ATOM     35  C   UNL     1      -7.660   2.005   3.458  1.00  0.00     0.338 C 
ATOM     36  O   UNL     1      -8.156   3.073   3.172  1.00  0.00    -0.246 OA
BRANCH  35  37
ATOM     37  C   UNL     1      -7.922   1.264   4.710  1.00  0.00     0.060 A 
ATOM     38  C   UNL     1      -9.244   0.927   5.026  1.00  0.00     0.016 A 
ATOM     39  C   UNL     1      -6.872   0.899   5.555  1.00  0.00     0.016 A 
ATOM     40  C   UNL     1      -9.523   0.245   6.207  1.00  0.00     0.010 A 
ATOM     41  C   UNL     1      -7.156   0.243   6.756  1.00  0.00     0.010 A 
ATOM     42  C   UNL     1      -8.487  -0.052   7.101  1.00  0.00    -0.014 A 
BRANCH  42  43
ATOM     43  C   UNL     1      -8.836  -0.446   8.485  1.00  0.00     0.031 A 
ATOM     44  C   UNL     1      -8.893   0.632   9.531  1.00  0.00     0.074 A 
ATOM     45  C   UNL     1      -9.164  -1.712   8.794  1.00  0.00     0.049 A 
ATOM     46  N   UNL     1      -9.203   0.547  10.799  1.00  0.00    -0.248 NA
ATOM     47  C   UNL     1      -8.557   1.994   9.082  1.00  0.00     0.031 C 
ATOM     48  C   UNL     1      -9.196  -2.833   7.857  1.00  0.00     0.029 A 
ATOM     49  N   UNL     1      -9.538  -2.262   9.994  1.00  0.00    -0.354 N 
ATOM     50  C   UNL     1      -9.099   1.840  11.296  1.00  0.00     0.074 A 
ATOM     51  C   UNL     1      -8.659   2.683  10.207  1.00  0.00     0.031 C 
ATOM     52  C   UNL     1      -9.566  -3.943   8.522  1.00  0.00     0.029 A 
ATOM     53  C   UNL     1      -9.767  -3.614   9.932  1.00  0.00     0.049 A 
ATOM     54  H   UNL     1      -9.634  -1.736  10.821  1.00  0.00     0.167 HD
ATOM     55  C   UNL     1      -9.356   2.291  12.546  1.00  0.00     0.031 A 
ATOM     56  C   UNL     1     -10.084  -4.486  10.908  1.00  0.00     0.031 A 
ATOM     57  C   UNL     1      -9.764   1.446  13.635  1.00  0.00     0.049 A 
ATOM     58  C   UNL     1     -10.279  -3.978  12.313  1.00  0.00     0.074 A 
ATOM     59  C   UNL     1     -10.046   1.799  14.943  1.00  0.00     0.029 A 
ATOM     60  N   UNL     1      -9.936   0.073  13.544  1.00  0.00    -0.354 N 
ATOM     61  N   UNL     1     -10.202  -2.750  12.769  1.00  0.00    -0.248 NA
ATOM     62  C   UNL     1     -10.621  -4.977  13.336  1.00  0.00     0.031 C 
ATOM     63  C   UNL     1     -10.325   0.629  15.658  1.00  0.00     0.029 A 
ATOM     64  C   UNL     1     -10.291  -0.442  14.779  1.00  0.00     0.049 A 
ATOM     65  H   UNL     1      -9.821  -0.458  12.722  1.00  0.00     0.167 HD
ATOM     66  C   UNL     1     -10.514  -2.824  14.122  1.00  0.00     0.074 A 
ATOM     67  C   UNL     1     -10.800  -4.216  14.407  1.00  0.00     0.031 C 
ATOM     68  C   UNL     1     -10.564  -1.832  15.046  1.00  0.00     0.031 A 
BRANCH  55  69
ATOM     69  C   UNL     1      -9.149   3.759  12.802  1.00  0.00    -0.014 A 
ATOM     70  C   UNL     1      -9.987   4.729  12.227  1.00  0.00     0.009 A 
ATOM     71  C   UNL     1      -8.097   4.178  13.629  1.00  0.00     0.009 A 
ATOM     72  C   UNL     1      -9.747   6.088  12.441  1.00  0.00     0.001 A 
ATOM     73  C   UNL     1      -7.880   5.536  13.869  1.00  0.00     0.001 A 
ATOM     74  C   UNL     1      -8.696   6.490  13.265  1.00  0.00     0.000 A 
ENDBRANCH  55  69
BRANCH  56  75
ATOM     75  C   UNL     1     -10.211  -5.936  10.598  1.00  0.00    -0.014 A 
ATOM     76  C   UNL     1     -11.451  -6.588  10.676  1.00  0.00     0.009 A 
ATOM     77  C   UNL     1      -9.077  -6.681  10.238  1.00  0.00     0.009 A 
ATOM     78  C   UNL     1     -11.547  -7.959  10.424  1.00  0.00     0.001 A 
ATOM     79  C   UNL     1      -9.181  -8.045   9.954  1.00  0.00     0.001 A 
ATOM     80  C   UNL     1     -10.414  -8.684  10.057  1.00  0.00     0.000 A 
ENDBRANCH  56  75
BRANCH  68  81
ATOM     81  C   UNL     1     -10.980  -2.210  16.442  1.00  0.00    -0.014 A 
ATOM     82  C   UNL     1     -10.152  -2.978  17.275  1.00  0.00     0.009 A 
ATOM     83  C   UNL     1     -12.212  -1.758  16.942  1.00  0.00     0.009 A 
ATOM     84  C   UNL     1     -10.570  -3.322  18.563  1.00  0.00     0.001 A 
ATOM     85  C   UNL     1     -12.611  -2.072  18.241  1.00  0.00     0.001 A 
ATOM     86  C   UNL     1     -11.795  -2.865  19.046  1.00  0.00     0.000 A 
ENDBRANCH  68  81
ENDBRANCH  42  43
ENDBRANCH  35  37
ENDBRANCH  34  35
ENDBRANCH  33  34
ENDBRANCH  32  33
ENDBRANCH  31  32
ENDBRANCH  30  31
ENDBRANCH  29  30
ENDBRANCH  28  29
ENDBRANCH   1  28
TORSDOF 24
