REMARK SMILES C[C@H](NC(=O)[C@@H]1CC(=O)N(c2ccc3c(c2)OCCO3)C1)C(=O)N1CCC(C(=O)OCCOCCOCCOCCOC(=O)c2ccc(-c3c4nc(c(-c5ccccc5)c5ccc([nH]5)c(-c5ccccc5)c5nc(c(-c6ccccc6)c6ccc3[nH]6)C=C5)C=C4)cc2)CC1
REMARK SMILES IDX 35 1 34 2 33 3 32 4 31 5 30 6 28 7 29 8 27 9 22 10 23 11
REMARK SMILES IDX 24 12 25 13 94 14 26 15 93 16 2 17 1 18 3 19 4 20 5 22 6 23
REMARK SMILES IDX 7 24 21 25 8 26 10 27 9 28 11 29 12 30 16 31 13 32 15 33
REMARK SMILES IDX 14 34 17 35 20 36 18 37 19 38 36 39 37 40 38 41 39 42 40 43
REMARK SMILES IDX 41 44 42 45 43 46 44 47 45 48 46 49 92 50 47 51 91 52 48 53
REMARK SMILES IDX 49 54 50 55 85 56 51 57 90 58 84 59 86 60 52 61 89 62 83 63
REMARK SMILES IDX 82 64 53 66 75 67 60 68 74 69 61 70 64 71 73 72 87 73 62 74
REMARK SMILES IDX 63 75 72 77 88 78 65 79 54 80 55 81 59 82 56 83 58 84 57 85
REMARK SMILES IDX 76 86 77 87 81 88 78 89 80 90 79 91 66 92 67 93 71 94 68 95
REMARK SMILES IDX 70 96 69 97
REMARK H PARENT 3 21 86 65 64 76
REMARK Flexibility Score: inf
ROOT
ATOM      1  C   UNL     1      -6.756  -3.288  -0.768  1.00  0.00     0.188 C 
ENDROOT
BRANCH   1   2
ATOM      2  C   UNL     1      -6.935  -4.396   0.274  1.00  0.00     0.188 C 
BRANCH   2   3
ATOM      3  O   UNL     1      -7.758  -4.213   1.411  1.00  0.00    -0.376 OA
BRANCH   3   4
ATOM      4  C   UNL     1      -7.707  -3.030   2.195  1.00  0.00     0.202 C 
BRANCH   4   5
ATOM      5  C   UNL     1      -6.392  -2.380   2.651  1.00  0.00     0.261 C 
BRANCH   5   6
ATOM      6  O   UNL     1      -5.446  -2.048   1.624  1.00  0.00    -0.463 OA
BRANCH   6   7
ATOM      7  C   UNL     1      -4.381  -2.872   1.530  1.00  0.00     0.309 C 
ATOM      8  O   UNL     1      -4.198  -3.856   2.239  1.00  0.00    -0.252 OA
BRANCH   7   9
ATOM      9  C   UNL     1      -3.348  -2.432   0.517  1.00  0.00     0.103 C 
ATOM     10  C   UNL     1      -0.859   0.465  -1.256  1.00  0.00     0.244 C 
ATOM     11  O   UNL     1      -1.522   1.295  -1.890  1.00  0.00    -0.273 OA
ATOM     12  N   UNL     1      -1.452  -0.689  -0.778  1.00  0.00    -0.341 N 
ATOM     13  C   UNL     1      -2.552  -1.250  -1.538  1.00  0.00     0.120 C 
ATOM     14  C   UNL     1      -1.071  -1.406   0.429  1.00  0.00     0.120 C 
ATOM     15  C   UNL     1      -3.756  -1.534  -0.658  1.00  0.00     0.037 C 
ATOM     16  C   UNL     1      -2.258  -1.725   1.315  1.00  0.00     0.037 C 
BRANCH  10  17
ATOM     17  C   UNL     1       0.688   0.522  -1.352  1.00  0.00     0.168 C 
ATOM     18  C   UNL     1       1.053  -0.005  -2.736  1.00  0.00     0.041 C 
BRANCH  17  19
ATOM     19  N   UNL     1       1.448  -0.007  -0.215  1.00  0.00    -0.344 N 
ATOM     20  C   UNL     1       2.030  -1.185   0.117  1.00  0.00     0.226 C 
ATOM     21  H   UNL     1       1.567   0.669   0.491  1.00  0.00     0.164 HD
ATOM     22  O   UNL     1       2.209  -1.381   1.322  1.00  0.00    -0.275 OA
BRANCH  20  23
ATOM     23  C   UNL     1       2.513  -2.186  -0.907  1.00  0.00     0.107 C 
ATOM     24  C   UNL     1       1.826  -3.546  -0.813  1.00  0.00     0.116 C 
ATOM     25  C   UNL     1       3.976  -2.471  -0.610  1.00  0.00     0.139 C 
ATOM     26  C   UNL     1       2.791  -4.430  -0.072  1.00  0.00     0.227 C 
ATOM     27  N   UNL     1       3.975  -3.727   0.087  1.00  0.00    -0.311 N 
ATOM     28  O   UNL     1       2.513  -5.556   0.309  1.00  0.00    -0.274 OA
BRANCH  27  29
ATOM     29  C   UNL     1       5.109  -4.215   0.751  1.00  0.00     0.048 A 
ATOM     30  C   UNL     1       5.809  -3.392   1.642  1.00  0.00     0.030 A 
ATOM     31  C   UNL     1       5.533  -5.526   0.535  1.00  0.00     0.076 A 
ATOM     32  C   UNL     1       6.918  -3.888   2.328  1.00  0.00     0.052 A 
ATOM     33  C   UNL     1       6.665  -6.003   1.185  1.00  0.00     0.163 A 
ATOM     34  C   UNL     1       7.358  -5.186   2.083  1.00  0.00     0.161 A 
ATOM     35  O   UNL     1       7.050  -7.282   0.875  1.00  0.00    -0.486 OA
ATOM     36  O   UNL     1       8.472  -5.598   2.766  1.00  0.00    -0.486 OA
ATOM     37  C   UNL     1       7.960  -7.796   1.849  1.00  0.00     0.271 C 
ATOM     38  C   UNL     1       9.036  -6.774   2.178  1.00  0.00     0.271 C 
ENDBRANCH  27  29
ENDBRANCH  20  23
ENDBRANCH  17  19
ENDBRANCH  10  17
ENDBRANCH   7   9
ENDBRANCH   6   7
ENDBRANCH   5   6
ENDBRANCH   4   5
ENDBRANCH   3   4
ENDBRANCH   2   3
ENDBRANCH   1   2
BRANCH   1  39
ATOM     39  O   UNL     1      -7.134  -1.988  -0.365  1.00  0.00    -0.377 OA
BRANCH  39  40
ATOM     40  C   UNL     1      -8.444  -1.544  -0.707  1.00  0.00     0.188 C 
BRANCH  40  41
ATOM     41  C   UNL     1      -9.552  -2.599  -0.889  1.00  0.00     0.188 C 
BRANCH  41  42
ATOM     42  O   UNL     1      -9.199  -3.674  -1.747  1.00  0.00    -0.376 OA
BRANCH  42  43
ATOM     43  C   UNL     1      -9.510  -3.587  -3.131  1.00  0.00     0.202 C 
BRANCH  43  44
ATOM     44  C   UNL     1      -8.889  -2.442  -3.950  1.00  0.00     0.261 C 
BRANCH  44  45
ATOM     45  O   UNL     1      -9.246  -1.105  -3.560  1.00  0.00    -0.460 OA
BRANCH  45  46
ATOM     46  C   UNL     1     -10.554  -0.791  -3.492  1.00  0.00     0.338 C 
ATOM     47  O   UNL     1     -11.499  -1.488  -3.821  1.00  0.00    -0.246 OA
BRANCH  46  48
ATOM     48  C   UNL     1     -10.679   0.478  -2.746  1.00  0.00     0.060 A 
ATOM     49  C   UNL     1     -11.440   0.489  -1.571  1.00  0.00     0.016 A 
ATOM     50  C   UNL     1     -10.069   1.648  -3.205  1.00  0.00     0.016 A 
ATOM     51  C   UNL     1     -11.629   1.679  -0.872  1.00  0.00     0.010 A 
ATOM     52  C   UNL     1     -10.280   2.847  -2.516  1.00  0.00     0.010 A 
ATOM     53  C   UNL     1     -11.091   2.873  -1.368  1.00  0.00    -0.014 A 
BRANCH  53  54
ATOM     54  C   UNL     1     -11.541   4.160  -0.784  1.00  0.00     0.031 A 
ATOM     55  C   UNL     1     -12.644   4.918  -1.473  1.00  0.00     0.074 A 
ATOM     56  C   UNL     1     -11.027   4.617   0.371  1.00  0.00     0.049 A 
ATOM     57  N   UNL     1     -13.216   6.044  -1.132  1.00  0.00    -0.248 NA
ATOM     58  C   UNL     1     -13.175   4.321  -2.709  1.00  0.00     0.031 C 
ATOM     59  C   UNL     1      -9.993   3.951   1.161  1.00  0.00     0.029 A 
ATOM     60  N   UNL     1     -11.317   5.754   1.082  1.00  0.00    -0.354 N 
ATOM     61  C   UNL     1     -14.170   6.292  -2.111  1.00  0.00     0.074 A 
ATOM     62  C   UNL     1     -14.077   5.219  -3.077  1.00  0.00     0.031 C 
ATOM     63  C   UNL     1      -9.735   4.693   2.252  1.00  0.00     0.029 A 
ATOM     64  C   UNL     1     -10.561   5.899   2.219  1.00  0.00     0.049 A 
ATOM     65  H   UNL     1     -12.002   6.404   0.804  1.00  0.00     0.167 HD
ATOM     66  C   UNL     1     -15.051   7.317  -2.198  1.00  0.00     0.031 A 
ATOM     67  C   UNL     1     -10.529   6.899   3.121  1.00  0.00     0.031 A 
ATOM     68  C   UNL     1     -15.130   8.397  -1.250  1.00  0.00     0.049 A 
ATOM     69  C   UNL     1     -11.457   8.073   2.954  1.00  0.00     0.074 A 
ATOM     70  C   UNL     1     -15.993   9.479  -1.246  1.00  0.00     0.029 A 
ATOM     71  N   UNL     1     -14.306   8.539  -0.145  1.00  0.00    -0.354 N 
ATOM     72  N   UNL     1     -12.374   8.284   2.039  1.00  0.00    -0.248 NA
ATOM     73  C   UNL     1     -11.352   9.144   3.955  1.00  0.00     0.031 C 
ATOM     74  C   UNL     1     -15.646  10.310  -0.176  1.00  0.00     0.029 A 
ATOM     75  C   UNL     1     -14.617   9.708   0.530  1.00  0.00     0.049 A 
ATOM     76  H   UNL     1     -13.603   7.903   0.122  1.00  0.00     0.167 HD
ATOM     77  C   UNL     1     -12.971   9.494   2.370  1.00  0.00     0.074 A 
ATOM     78  C   UNL     1     -12.330   9.957   3.584  1.00  0.00     0.031 C 
ATOM     79  C   UNL     1     -13.962  10.164   1.730  1.00  0.00     0.031 A 
BRANCH  66  80
ATOM     80  C   UNL     1     -15.971   7.340  -3.388  1.00  0.00    -0.014 A 
ATOM     81  C   UNL     1     -17.010   6.406  -3.531  1.00  0.00     0.009 A 
ATOM     82  C   UNL     1     -15.811   8.331  -4.370  1.00  0.00     0.009 A 
ATOM     83  C   UNL     1     -17.847   6.444  -4.649  1.00  0.00     0.001 A 
ATOM     84  C   UNL     1     -16.669   8.386  -5.470  1.00  0.00     0.001 A 
ATOM     85  C   UNL     1     -17.679   7.437  -5.614  1.00  0.00     0.000 A 
ENDBRANCH  66  80
BRANCH  67  86
ATOM     86  C   UNL     1      -9.569   6.852   4.257  1.00  0.00    -0.014 A 
ATOM     87  C   UNL     1     -10.022   6.729   5.579  1.00  0.00     0.009 A 
ATOM     88  C   UNL     1      -8.189   6.965   4.023  1.00  0.00     0.009 A 
ATOM     89  C   UNL     1      -9.117   6.749   6.643  1.00  0.00     0.001 A 
ATOM     90  C   UNL     1      -7.284   6.950   5.086  1.00  0.00     0.001 A 
ATOM     91  C   UNL     1      -7.749   6.854   6.396  1.00  0.00     0.000 A 
ENDBRANCH  67  86
BRANCH  79  92
ATOM     92  C   UNL     1     -14.433  11.452   2.351  1.00  0.00    -0.014 A 
ATOM     93  C   UNL     1     -13.618  12.595   2.379  1.00  0.00     0.009 A 
ATOM     94  C   UNL     1     -15.721  11.526   2.904  1.00  0.00     0.009 A 
ATOM     95  C   UNL     1     -14.063  13.767   2.995  1.00  0.00     0.001 A 
ATOM     96  C   UNL     1     -16.178  12.710   3.486  1.00  0.00     0.001 A 
ATOM     97  C   UNL     1     -15.344  13.824   3.545  1.00  0.00     0.000 A 
ENDBRANCH  79  92
ENDBRANCH  53  54
ENDBRANCH  46  48
ENDBRANCH  45  46
ENDBRANCH  44  45
ENDBRANCH  43  44
ENDBRANCH  42  43
ENDBRANCH  41  42
ENDBRANCH  40  41
ENDBRANCH  39  40
ENDBRANCH   1  39
TORSDOF 24
