REMARK SMILES Cc1ccc(S(=O)(=O)Nc2cc3c(cc2C(=O)OCCOCCOCCOCCOC(=O)c2ccc(-c4c5nc(c(-c6ccccc6)c6ccc([nH]6)c(-c6ccccc6)c6nc(c(-c7ccccc7)c7ccc4[nH]7)C=C6)C=C5)cc2)OCCO3)s1
REMARK SMILES IDX 23 1 22 2 21 3 20 4 19 5 18 6 16 7 17 8 15 9 10 10 11 11
REMARK SMILES IDX 12 12 14 13 13 14 84 15 81 16 83 17 82 18 9 19 6 21 7 22
REMARK SMILES IDX 8 23 5 24 1 25 2 26 3 27 85 28 4 29 24 30 25 31 26 32 27 33
REMARK SMILES IDX 28 34 29 35 30 36 31 37 32 38 33 39 34 40 80 41 35 42 79 43
REMARK SMILES IDX 36 44 37 45 38 46 73 47 39 48 78 49 72 50 74 51 40 52 77 53
REMARK SMILES IDX 71 54 70 55 41 57 63 58 48 59 62 60 49 61 52 62 61 63 75 64
REMARK SMILES IDX 50 65 51 66 60 68 76 69 53 70 42 71 43 72 47 73 44 74 46 75
REMARK SMILES IDX 45 76 64 77 65 78 69 79 66 80 68 81 67 82 54 83 55 84 59 85
REMARK SMILES IDX 56 86 58 87 57 88
REMARK H PARENT 9 20 74 56 52 67
REMARK Flexibility Score: inf
ROOT
ATOM      1  C   UNL     1      -0.449   0.475   1.885  1.00  0.00     0.188 C 
ENDROOT
BRANCH   1   2
ATOM      2  C   UNL     1      -1.689   1.140   2.482  1.00  0.00     0.188 C 
BRANCH   2   3
ATOM      3  O   UNL     1      -1.874   1.121   3.896  1.00  0.00    -0.376 OA
BRANCH   3   4
ATOM      4  C   UNL     1      -1.246   0.104   4.658  1.00  0.00     0.202 C 
BRANCH   4   5
ATOM      5  C   UNL     1      -1.925  -1.263   4.638  1.00  0.00     0.261 C 
BRANCH   5   6
ATOM      6  O   UNL     1      -2.132  -1.816   3.326  1.00  0.00    -0.460 OA
BRANCH   6   7
ATOM      7  C   UNL     1      -3.400  -1.695   2.860  1.00  0.00     0.340 C 
ATOM      8  O   UNL     1      -4.317  -1.086   3.389  1.00  0.00    -0.246 OA
BRANCH   7   9
ATOM      9  C   UNL     1      -3.609  -2.505   1.641  1.00  0.00     0.088 A 
ATOM     10  C   UNL     1      -4.456  -2.027   0.626  1.00  0.00     0.067 A 
ATOM     11  C   UNL     1      -5.033  -2.926  -0.271  1.00  0.00     0.078 A 
ATOM     12  C   UNL     1      -4.577  -4.241  -0.306  1.00  0.00     0.163 A 
ATOM     13  C   UNL     1      -3.140  -3.824   1.596  1.00  0.00     0.068 A 
ATOM     14  C   UNL     1      -3.576  -4.666   0.576  1.00  0.00     0.162 A 
ATOM     15  O   UNL     1      -5.084  -5.026  -1.309  1.00  0.00    -0.486 OA
ATOM     16  O   UNL     1      -2.989  -5.901   0.489  1.00  0.00    -0.486 OA
ATOM     17  C   UNL     1      -4.673  -6.391  -1.182  1.00  0.00     0.271 C 
ATOM     18  C   UNL     1      -3.202  -6.476  -0.808  1.00  0.00     0.271 C 
BRANCH  10  19
ATOM     19  N   UNL     1      -4.598  -0.612   0.409  1.00  0.00    -0.278 N 
ATOM     20  H   UNL     1      -4.995  -0.019   1.087  1.00  0.00     0.180 HD
BRANCH  19  21
ATOM     21  S   UNL     1      -4.035  -0.015  -1.103  1.00  0.00     0.271 S 
ATOM     22  O   UNL     1      -3.596   1.345  -0.880  1.00  0.00    -0.200 OA
ATOM     23  O   UNL     1      -5.054  -0.323  -2.083  1.00  0.00    -0.200 OA
BRANCH  21  24
ATOM     24  C   UNL     1      -2.614  -0.975  -1.611  1.00  0.00     0.140 A 
ATOM     25  C   UNL     1       1.126  -1.921  -1.088  1.00  0.00     0.056 C 
ATOM     26  C   UNL     1      -0.293  -1.777  -1.514  1.00  0.00     0.003 A 
ATOM     27  C   UNL     1      -1.149  -2.749  -1.984  1.00  0.00     0.016 A 
ATOM     28  S   UNL     1      -1.079  -0.261  -1.458  1.00  0.00    -0.127 S 
ATOM     29  C   UNL     1      -2.478  -2.253  -2.129  1.00  0.00     0.034 A 
ENDBRANCH  21  24
ENDBRANCH  19  21
ENDBRANCH  10  19
ENDBRANCH   7   9
ENDBRANCH   6   7
ENDBRANCH   5   6
ENDBRANCH   4   5
ENDBRANCH   3   4
ENDBRANCH   2   3
ENDBRANCH   1   2
BRANCH   1  30
ATOM     30  O   UNL     1       0.712   0.856   2.613  1.00  0.00    -0.377 OA
BRANCH  30  31
ATOM     31  C   UNL     1       1.909   0.859   1.850  1.00  0.00     0.188 C 
BRANCH  31  32
ATOM     32  C   UNL     1       1.923   2.028   0.865  1.00  0.00     0.188 C 
BRANCH  32  33
ATOM     33  O   UNL     1       1.485   1.549  -0.408  1.00  0.00    -0.376 OA
BRANCH  33  34
ATOM     34  C   UNL     1       2.038   2.249  -1.519  1.00  0.00     0.202 C 
BRANCH  34  35
ATOM     35  C   UNL     1       2.812   1.254  -2.397  1.00  0.00     0.261 C 
BRANCH  35  36
ATOM     36  O   UNL     1       3.652   0.361  -1.633  1.00  0.00    -0.460 OA
BRANCH  36  37
ATOM     37  C   UNL     1       4.606   0.955  -0.888  1.00  0.00     0.338 C 
ATOM     38  O   UNL     1       4.942   2.129  -0.932  1.00  0.00    -0.246 OA
BRANCH  37  39
ATOM     39  C   UNL     1       5.096   0.014   0.143  1.00  0.00     0.060 A 
ATOM     40  C   UNL     1       5.365   0.532   1.416  1.00  0.00     0.016 A 
ATOM     41  C   UNL     1       5.343  -1.334  -0.135  1.00  0.00     0.016 A 
ATOM     42  C   UNL     1       5.940  -0.274   2.394  1.00  0.00     0.010 A 
ATOM     43  C   UNL     1       5.941  -2.140   0.840  1.00  0.00     0.010 A 
ATOM     44  C   UNL     1       6.289  -1.595   2.088  1.00  0.00    -0.014 A 
BRANCH  44  45
ATOM     45  C   UNL     1       7.250  -2.289   2.978  1.00  0.00     0.031 A 
ATOM     46  C   UNL     1       8.717  -2.164   2.659  1.00  0.00     0.074 A 
ATOM     47  C   UNL     1       6.848  -2.940   4.082  1.00  0.00     0.049 A 
ATOM     48  N   UNL     1       9.753  -2.609   3.322  1.00  0.00    -0.248 NA
ATOM     49  C   UNL     1       9.061  -1.430   1.428  1.00  0.00     0.031 C 
ATOM     50  C   UNL     1       5.463  -3.089   4.523  1.00  0.00     0.029 A 
ATOM     51  N   UNL     1       7.582  -3.591   5.042  1.00  0.00    -0.354 N 
ATOM     52  C   UNL     1      10.866  -2.202   2.595  1.00  0.00     0.074 A 
ATOM     53  C   UNL     1      10.382  -1.509   1.423  1.00  0.00     0.031 C 
ATOM     54  C   UNL     1       5.446  -3.792   5.671  1.00  0.00     0.029 A 
ATOM     55  C   UNL     1       6.816  -4.153   6.033  1.00  0.00     0.049 A 
ATOM     56  H   UNL     1       8.564  -3.648   5.021  1.00  0.00     0.167 HD
ATOM     57  C   UNL     1      12.176  -2.380   2.880  1.00  0.00     0.031 A 
ATOM     58  C   UNL     1       7.184  -4.882   7.105  1.00  0.00     0.031 A 
ATOM     59  C   UNL     1      12.661  -3.088   4.031  1.00  0.00     0.049 A 
ATOM     60  C   UNL     1       8.649  -5.135   7.357  1.00  0.00     0.074 A 
ATOM     61  C   UNL     1      13.970  -3.321   4.413  1.00  0.00     0.029 A 
ATOM     62  N   UNL     1      11.851  -3.688   4.982  1.00  0.00    -0.354 N 
ATOM     63  N   UNL     1       9.691  -4.712   6.683  1.00  0.00    -0.248 NA
ATOM     64  C   UNL     1       8.985  -5.956   8.530  1.00  0.00     0.031 C 
ATOM     65  C   UNL     1      13.952  -4.112   5.566  1.00  0.00     0.029 A 
ATOM     66  C   UNL     1      12.632  -4.319   5.934  1.00  0.00     0.049 A 
ATOM     67  H   UNL     1      10.867  -3.669   4.980  1.00  0.00     0.167 HD
ATOM     68  C   UNL     1      10.804  -5.191   7.364  1.00  0.00     0.074 A 
ATOM     69  C   UNL     1      10.310  -5.921   8.513  1.00  0.00     0.031 C 
ATOM     70  C   UNL     1      12.119  -5.042   7.068  1.00  0.00     0.031 A 
BRANCH  57  71
ATOM     71  C   UNL     1      13.174  -1.827   1.903  1.00  0.00    -0.014 A 
ATOM     72  C   UNL     1      13.401  -0.446   1.794  1.00  0.00     0.009 A 
ATOM     73  C   UNL     1      13.912  -2.704   1.093  1.00  0.00     0.009 A 
ATOM     74  C   UNL     1      14.326   0.047   0.872  1.00  0.00     0.001 A 
ATOM     75  C   UNL     1      14.855  -2.209   0.190  1.00  0.00     0.001 A 
ATOM     76  C   UNL     1      15.055  -0.835   0.074  1.00  0.00     0.000 A 
ENDBRANCH  57  71
BRANCH  58  77
ATOM     77  C   UNL     1       6.155  -5.447   8.018  1.00  0.00    -0.014 A 
ATOM     78  C   UNL     1       6.028  -4.987   9.337  1.00  0.00     0.009 A 
ATOM     79  C   UNL     1       5.318  -6.486   7.580  1.00  0.00     0.009 A 
ATOM     80  C   UNL     1       5.108  -5.577  10.208  1.00  0.00     0.001 A 
ATOM     81  C   UNL     1       4.378  -7.054   8.444  1.00  0.00     0.001 A 
ATOM     82  C   UNL     1       4.282  -6.606   9.760  1.00  0.00     0.000 A 
ENDBRANCH  58  77
BRANCH  70  83
ATOM     83  C   UNL     1      13.113  -5.655   8.015  1.00  0.00    -0.014 A 
ATOM     84  C   UNL     1      13.295  -7.045   8.083  1.00  0.00     0.009 A 
ATOM     85  C   UNL     1      13.908  -4.824   8.820  1.00  0.00     0.009 A 
ATOM     86  C   UNL     1      14.228  -7.591   8.966  1.00  0.00     0.001 A 
ATOM     87  C   UNL     1      14.861  -5.371   9.680  1.00  0.00     0.001 A 
ATOM     88  C   UNL     1      15.012  -6.755   9.760  1.00  0.00     0.000 A 
ENDBRANCH  70  83
ENDBRANCH  44  45
ENDBRANCH  37  39
ENDBRANCH  36  37
ENDBRANCH  35  36
ENDBRANCH  34  35
ENDBRANCH  33  34
ENDBRANCH  32  33
ENDBRANCH  31  32
ENDBRANCH  30  31
ENDBRANCH   1  30
TORSDOF 23
