REMARK SMILES CC[C@@H](C)N(CC)c1cc(C(=O)OCCOCCOCCOCCOC(=O)c2ccc(-c3c4nc(c(-c5ccccc5)c5ccc([nH]5)c(-c5ccccc5)c5nc(c(-c6ccccc6)c6ccc3[nH]6)C=C5)C=C4)cc2)c2ccccc2n1
REMARK SMILES IDX 18 1 17 2 16 3 15 4 14 5 13 6 11 7 12 8 10 9 8 10 9 11 82 12
REMARK SMILES IDX 81 13 76 14 80 15 77 16 79 17 78 18 5 19 3 20 4 21 2 22 1 23
REMARK SMILES IDX 6 24 7 25 19 26 20 27 21 28 22 29 23 30 24 31 25 32 26 33
REMARK SMILES IDX 27 34 28 35 29 36 75 37 30 38 74 39 31 40 32 41 33 42 68 43
REMARK SMILES IDX 34 44 73 45 67 46 69 47 35 48 72 49 66 50 65 51 36 53 58 54
REMARK SMILES IDX 43 55 57 56 44 57 47 58 56 59 70 60 45 61 46 62 55 64 71 65
REMARK SMILES IDX 48 66 37 67 38 68 42 69 39 70 41 71 40 72 59 73 60 74 64 75
REMARK SMILES IDX 61 76 63 77 62 78 49 79 50 80 54 81 51 82 53 83 52 84
REMARK H PARENT 69 52 47 63
REMARK Flexibility Score: inf
ROOT
ATOM      1  C   UNL     1      -2.962  -7.505   1.885  1.00  0.00     0.188 C 
ENDROOT
BRANCH   1   2
ATOM      2  C   UNL     1      -2.413  -7.626   3.324  1.00  0.00     0.188 C 
BRANCH   2   3
ATOM      3  O   UNL     1      -3.240  -8.387   4.185  1.00  0.00    -0.376 OA
BRANCH   3   4
ATOM      4  C   UNL     1      -4.067  -7.753   5.141  1.00  0.00     0.202 C 
BRANCH   4   5
ATOM      5  C   UNL     1      -4.914  -6.515   4.807  1.00  0.00     0.261 C 
BRANCH   5   6
ATOM      6  O   UNL     1      -4.445  -5.704   3.731  1.00  0.00    -0.460 OA
BRANCH   6   7
ATOM      7  C   UNL     1      -3.619  -4.683   4.037  1.00  0.00     0.339 C 
ATOM      8  O   UNL     1      -3.224  -4.381   5.149  1.00  0.00    -0.246 OA
BRANCH   7   9
ATOM      9  C   UNL     1      -3.070  -4.123   2.781  1.00  0.00     0.073 A 
ATOM     10  C   UNL     1      -1.066  -3.504   1.617  1.00  0.00     0.130 A 
ATOM     11  C   UNL     1      -1.678  -3.995   2.752  1.00  0.00     0.063 A 
ATOM     12  N   UNL     1      -1.801  -3.103   0.566  1.00  0.00    -0.231 NA
ATOM     13  C   UNL     1      -3.140  -3.201   0.588  1.00  0.00     0.074 A 
ATOM     14  C   UNL     1      -3.853  -3.756   1.664  1.00  0.00     0.015 A 
ATOM     15  C   UNL     1      -3.845  -2.715  -0.506  1.00  0.00     0.029 A 
ATOM     16  C   UNL     1      -5.263  -3.890   1.546  1.00  0.00     0.011 A 
ATOM     17  C   UNL     1      -5.233  -2.816  -0.600  1.00  0.00     0.002 A 
ATOM     18  C   UNL     1      -5.942  -3.435   0.418  1.00  0.00     0.001 A 
BRANCH  10  19
ATOM     19  N   UNL     1       0.308  -3.342   1.588  1.00  0.00    -0.354 N 
BRANCH  19  20
ATOM     20  C   UNL     1       0.870  -1.984   1.486  1.00  0.00     0.080 C 
ATOM     21  C   UNL     1       0.468  -1.178   2.725  1.00  0.00     0.031 C 
BRANCH  20  22
ATOM     22  C   UNL     1       0.518  -1.286   0.158  1.00  0.00     0.021 C 
ATOM     23  C   UNL     1       1.182   0.072  -0.015  1.00  0.00     0.006 C 
ENDBRANCH  20  22
ENDBRANCH  19  20
BRANCH  19  24
ATOM     24  C   UNL     1       1.155  -4.499   1.303  1.00  0.00     0.115 C 
ATOM     25  C   UNL     1       1.331  -5.391   2.526  1.00  0.00     0.027 C 
ENDBRANCH  19  24
ENDBRANCH  10  19
ENDBRANCH   7   9
ENDBRANCH   6   7
ENDBRANCH   5   6
ENDBRANCH   4   5
ENDBRANCH   3   4
ENDBRANCH   2   3
ENDBRANCH   1   2
BRANCH   1  26
ATOM     26  O   UNL     1      -4.344  -7.757   1.688  1.00  0.00    -0.377 OA
BRANCH  26  27
ATOM     27  C   UNL     1      -4.890  -9.030   2.028  1.00  0.00     0.188 C 
BRANCH  27  28
ATOM     28  C   UNL     1      -4.011 -10.263   2.356  1.00  0.00     0.188 C 
BRANCH  28  29
ATOM     29  O   UNL     1      -2.650 -10.147   1.985  1.00  0.00    -0.376 OA
BRANCH  29  30
ATOM     30  C   UNL     1      -2.191 -10.894   0.874  1.00  0.00     0.202 C 
BRANCH  30  31
ATOM     31  C   UNL     1      -2.804 -10.559  -0.492  1.00  0.00     0.261 C 
BRANCH  31  32
ATOM     32  O   UNL     1      -4.238 -10.577  -0.560  1.00  0.00    -0.460 OA
BRANCH  32  33
ATOM     33  C   UNL     1      -4.849 -11.769  -0.402  1.00  0.00     0.338 C 
ATOM     34  O   UNL     1      -4.321 -12.852  -0.203  1.00  0.00    -0.246 OA
BRANCH  33  35
ATOM     35  C   UNL     1      -6.301 -11.517  -0.328  1.00  0.00     0.060 A 
ATOM     36  C   UNL     1      -6.997 -11.850   0.842  1.00  0.00     0.016 A 
ATOM     37  C   UNL     1      -6.969 -10.943  -1.411  1.00  0.00     0.016 A 
ATOM     38  C   UNL     1      -8.373 -11.637   0.918  1.00  0.00     0.010 A 
ATOM     39  C   UNL     1      -8.351 -10.751  -1.342  1.00  0.00     0.010 A 
ATOM     40  C   UNL     1      -9.064 -11.128  -0.190  1.00  0.00    -0.014 A 
BRANCH  40  41
ATOM     41  C   UNL     1     -10.545 -11.174  -0.223  1.00  0.00     0.031 A 
ATOM     42  C   UNL     1     -11.205 -12.309  -0.958  1.00  0.00     0.074 A 
ATOM     43  C   UNL     1     -11.292 -10.243   0.396  1.00  0.00     0.049 A 
ATOM     44  N   UNL     1     -12.475 -12.527  -1.181  1.00  0.00    -0.248 NA
ATOM     45  C   UNL     1     -10.308 -13.334  -1.518  1.00  0.00     0.031 C 
ATOM     46  C   UNL     1     -10.777  -9.123   1.180  1.00  0.00     0.029 A 
ATOM     47  N   UNL     1     -12.656 -10.094   0.448  1.00  0.00    -0.354 N 
ATOM     48  C   UNL     1     -12.529 -13.710  -1.908  1.00  0.00     0.074 A 
ATOM     49  C   UNL     1     -11.166 -14.142  -2.121  1.00  0.00     0.031 C 
ATOM     50  C   UNL     1     -11.813  -8.389   1.622  1.00  0.00     0.029 A 
ATOM     51  C   UNL     1     -13.060  -8.966   1.120  1.00  0.00     0.049 A 
ATOM     52  H   UNL     1     -13.285 -10.733   0.042  1.00  0.00     0.167 HD
ATOM     53  C   UNL     1     -13.617 -14.385  -2.350  1.00  0.00     0.031 A 
ATOM     54  C   UNL     1     -14.292  -8.444   1.283  1.00  0.00     0.031 A 
ATOM     55  C   UNL     1     -14.972 -13.943  -2.161  1.00  0.00     0.049 A 
ATOM     56  C   UNL     1     -15.482  -9.161   0.696  1.00  0.00     0.074 A 
ATOM     57  C   UNL     1     -16.143 -14.550  -2.579  1.00  0.00     0.029 A 
ATOM     58  N   UNL     1     -15.336 -12.778  -1.504  1.00  0.00    -0.354 N 
ATOM     59  N   UNL     1     -15.523 -10.287   0.025  1.00  0.00    -0.248 NA
ATOM     60  C   UNL     1     -16.798  -8.537   0.898  1.00  0.00     0.031 C 
ATOM     61  C   UNL     1     -17.212 -13.722  -2.227  1.00  0.00     0.029 A 
ATOM     62  C   UNL     1     -16.713 -12.636  -1.526  1.00  0.00     0.049 A 
ATOM     63  H   UNL     1     -14.709 -12.145  -1.085  1.00  0.00     0.167 HD
ATOM     64  C   UNL     1     -16.867 -10.521  -0.244  1.00  0.00     0.074 A 
ATOM     65  C   UNL     1     -17.609  -9.430   0.351  1.00  0.00     0.031 C 
ATOM     66  C   UNL     1     -17.438 -11.547  -0.924  1.00  0.00     0.031 A 
BRANCH  53  67
ATOM     67  C   UNL     1     -13.377 -15.661  -3.108  1.00  0.00    -0.014 A 
ATOM     68  C   UNL     1     -12.891 -16.810  -2.464  1.00  0.00     0.009 A 
ATOM     69  C   UNL     1     -13.672 -15.724  -4.479  1.00  0.00     0.009 A 
ATOM     70  C   UNL     1     -12.675 -17.987  -3.185  1.00  0.00     0.001 A 
ATOM     71  C   UNL     1     -13.485 -16.911  -5.190  1.00  0.00     0.001 A 
ATOM     72  C   UNL     1     -12.978 -18.038  -4.545  1.00  0.00     0.000 A 
ENDBRANCH  53  67
BRANCH  54  73
ATOM     73  C   UNL     1     -14.470  -7.151   1.998  1.00  0.00    -0.014 A 
ATOM     74  C   UNL     1     -15.159  -7.088   3.220  1.00  0.00     0.009 A 
ATOM     75  C   UNL     1     -13.988  -5.958   1.434  1.00  0.00     0.009 A 
ATOM     76  C   UNL     1     -15.391  -5.858   3.841  1.00  0.00     0.001 A 
ATOM     77  C   UNL     1     -14.190  -4.734   2.075  1.00  0.00     0.001 A 
ATOM     78  C   UNL     1     -14.903  -4.683   3.271  1.00  0.00     0.000 A 
ENDBRANCH  54  73
BRANCH  66  79
ATOM     79  C   UNL     1     -18.940 -11.568  -1.017  1.00  0.00    -0.014 A 
ATOM     80  C   UNL     1     -19.641 -10.644  -1.807  1.00  0.00     0.009 A 
ATOM     81  C   UNL     1     -19.660 -12.563  -0.336  1.00  0.00     0.009 A 
ATOM     82  C   UNL     1     -21.035 -10.693  -1.881  1.00  0.00     0.001 A 
ATOM     83  C   UNL     1     -21.050 -12.631  -0.441  1.00  0.00     0.001 A 
ATOM     84  C   UNL     1     -21.737 -11.689  -1.204  1.00  0.00     0.000 A 
ENDBRANCH  66  79
ENDBRANCH  40  41
ENDBRANCH  33  35
ENDBRANCH  32  33
ENDBRANCH  31  32
ENDBRANCH  30  31
ENDBRANCH  29  30
ENDBRANCH  28  29
ENDBRANCH  27  28
ENDBRANCH  26  27
ENDBRANCH   1  26
TORSDOF 24
