REMARK SMILES Cc1cc(OCC(=O)OCCOCCOCCOCCOC(=O)c2ccc(-c3c4nc(c(-c5ccccc5)c5ccc([nH]5)c(-c5ccccc5)c5nc(c(-c6ccccc6)c6ccc3[nH]6)C=C5)C=C4)cc2)ccc1NC(=O)c1ccc(N2C(=O)[C@@H]3[C@H](C2=O)[C@H]2C=C[C@@H]3C2)cc1
REMARK SMILES IDX 13 1 12 2 11 3 10 4 9 5 7 6 8 7 6 8 5 9 4 10 1 11 2 12 3 13
REMARK SMILES IDX 74 14 73 15 72 16 75 17 76 18 77 20 78 21 79 22 95 23 80 24
REMARK SMILES IDX 94 25 81 26 82 27 83 28 87 29 84 30 85 31 86 32 88 33 92 34
REMARK SMILES IDX 89 35 91 36 93 37 90 38 14 39 15 40 16 41 17 42 18 43 19 44
REMARK SMILES IDX 20 45 21 46 22 47 23 48 24 49 25 50 71 51 26 52 70 53 27 54
REMARK SMILES IDX 28 55 29 56 64 57 30 58 69 59 63 60 65 61 31 62 68 63 62 64
REMARK SMILES IDX 61 65 32 67 54 68 39 69 53 70 40 71 43 72 52 73 66 74 41 75
REMARK SMILES IDX 42 76 51 78 67 79 44 80 33 81 34 82 38 83 35 84 37 85 36 86
REMARK SMILES IDX 55 87 56 88 60 89 57 90 59 91 58 92 45 93 46 94 50 95 47 96
REMARK SMILES IDX 49 97 48 98
REMARK H PARENT 75 19 65 66 43 77
REMARK Flexibility Score: inf
ROOT
ATOM      1  C   UNL     1      -2.178   0.048   0.415  1.00  0.00     0.188 C 
ENDROOT
BRANCH   1   2
ATOM      2  O   UNL     1      -3.422   0.452   0.948  1.00  0.00    -0.376 OA
BRANCH   2   3
ATOM      3  C   UNL     1      -4.289  -0.620   1.194  1.00  0.00     0.202 C 
BRANCH   3   4
ATOM      4  C   UNL     1      -5.050  -1.289   0.075  1.00  0.00     0.261 C 
BRANCH   4   5
ATOM      5  O   UNL     1      -4.150  -2.112  -0.669  1.00  0.00    -0.461 OA
BRANCH   5   6
ATOM      6  C   UNL     1      -3.882  -1.683  -1.935  1.00  0.00     0.344 C 
ATOM      7  O   UNL     1      -4.486  -0.820  -2.521  1.00  0.00    -0.248 OA
BRANCH   6   8
ATOM      8  C   UNL     1      -2.679  -2.463  -2.507  1.00  0.00     0.351 C 
BRANCH   8   9
ATOM      9  O   UNL     1      -1.322  -2.055  -2.608  1.00  0.00    -0.482 OA
BRANCH   9  10
ATOM     10  C   UNL     1      -0.881  -0.775  -2.460  1.00  0.00     0.120 A 
ATOM     11  C   UNL     1       2.231   0.469  -0.698  1.00  0.00     0.047 C 
ATOM     12  C   UNL     1       0.901   0.575  -1.403  1.00  0.00    -0.024 A 
ATOM     13  C   UNL     1       0.392  -0.660  -1.896  1.00  0.00     0.052 A 
ATOM     14  C   UNL     1       0.101   1.745  -1.486  1.00  0.00     0.044 A 
ATOM     15  C   UNL     1      -1.091   1.648  -2.221  1.00  0.00     0.030 A 
ATOM     16  C   UNL     1      -1.563   0.403  -2.731  1.00  0.00     0.048 A 
BRANCH  14  17
ATOM     17  N   UNL     1       0.504   2.956  -0.821  1.00  0.00    -0.322 N 
ATOM     18  C   UNL     1      -0.106   4.214  -0.820  1.00  0.00     0.255 C 
ATOM     19  H   UNL     1       1.329   2.889  -0.288  1.00  0.00     0.170 HD
ATOM     20  O   UNL     1       0.362   5.127  -1.498  1.00  0.00    -0.269 OA
BRANCH  18  21
ATOM     21  C   UNL     1      -1.098   4.593   0.256  1.00  0.00     0.040 A 
ATOM     22  C   UNL     1      -2.433   4.819  -0.050  1.00  0.00     0.016 A 
ATOM     23  C   UNL     1      -0.700   4.963   1.549  1.00  0.00     0.016 A 
ATOM     24  C   UNL     1      -3.372   5.164   0.964  1.00  0.00     0.027 A 
ATOM     25  C   UNL     1      -1.650   5.306   2.566  1.00  0.00     0.027 A 
ATOM     26  C   UNL     1      -3.033   5.295   2.327  1.00  0.00     0.052 A 
BRANCH  26  27
ATOM     27  N   UNL     1      -4.050   5.378   3.382  1.00  0.00    -0.250 N 
ATOM     28  C   UNL     1      -5.405   5.240   3.140  1.00  0.00     0.238 C 
ATOM     29  C   UNL     1      -3.817   5.425   4.756  1.00  0.00     0.238 C 
ATOM     30  O   UNL     1      -5.975   4.922   2.103  1.00  0.00    -0.274 OA
ATOM     31  C   UNL     1      -6.190   5.465   4.406  1.00  0.00     0.099 C 
ATOM     32  C   UNL     1      -5.139   5.540   5.519  1.00  0.00     0.099 C 
ATOM     33  O   UNL     1      -2.745   5.385   5.347  1.00  0.00    -0.274 OA
ATOM     34  C   UNL     1      -7.059   4.254   4.807  1.00  0.00     0.025 C 
ATOM     35  C   UNL     1      -5.564   4.386   6.476  1.00  0.00     0.025 C 
ATOM     36  C   UNL     1      -7.829   4.617   6.052  1.00  0.00    -0.027 C 
ATOM     37  C   UNL     1      -6.036   3.338   5.486  1.00  0.00     0.017 C 
ATOM     38  C   UNL     1      -6.938   4.686   7.056  1.00  0.00    -0.027 C 
ENDBRANCH  26  27
ENDBRANCH  18  21
ENDBRANCH  14  17
ENDBRANCH   9  10
ENDBRANCH   8   9
ENDBRANCH   6   8
ENDBRANCH   5   6
ENDBRANCH   4   5
ENDBRANCH   3   4
ENDBRANCH   2   3
ENDBRANCH   1   2
BRANCH   1  39
ATOM     39  C   UNL     1      -1.448  -1.263   0.807  1.00  0.00     0.188 C 
BRANCH  39  40
ATOM     40  O   UNL     1      -1.304  -1.567   2.184  1.00  0.00    -0.377 OA
BRANCH  40  41
ATOM     41  C   UNL     1       0.014  -1.374   2.704  1.00  0.00     0.188 C 
BRANCH  41  42
ATOM     42  C   UNL     1      -0.030  -0.183   3.628  1.00  0.00     0.188 C 
BRANCH  42  43
ATOM     43  O   UNL     1      -0.604   0.895   2.919  1.00  0.00    -0.376 OA
BRANCH  43  44
ATOM     44  C   UNL     1       0.281   1.743   2.230  1.00  0.00     0.202 C 
BRANCH  44  45
ATOM     45  C   UNL     1       1.179   2.546   3.168  1.00  0.00     0.261 C 
BRANCH  45  46
ATOM     46  O   UNL     1       0.369   3.294   4.103  1.00  0.00    -0.460 OA
BRANCH  46  47
ATOM     47  C   UNL     1       0.147   2.694   5.311  1.00  0.00     0.338 C 
ATOM     48  O   UNL     1       1.034   2.307   6.055  1.00  0.00    -0.246 OA
BRANCH  47  49
ATOM     49  C   UNL     1      -1.300   2.325   5.474  1.00  0.00     0.060 A 
ATOM     50  C   UNL     1      -1.713   1.442   6.479  1.00  0.00     0.016 A 
ATOM     51  C   UNL     1      -2.137   2.515   4.389  1.00  0.00     0.016 A 
ATOM     52  C   UNL     1      -2.865   0.642   6.293  1.00  0.00     0.010 A 
ATOM     53  C   UNL     1      -3.174   1.641   4.150  1.00  0.00     0.010 A 
ATOM     54  C   UNL     1      -3.566   0.687   5.080  1.00  0.00    -0.014 A 
BRANCH  54  55
ATOM     55  C   UNL     1      -4.521  -0.326   4.580  1.00  0.00     0.031 A 
ATOM     56  C   UNL     1      -5.861   0.050   4.005  1.00  0.00     0.074 A 
ATOM     57  C   UNL     1      -3.998  -1.535   4.247  1.00  0.00     0.049 A 
ATOM     58  N   UNL     1      -6.896  -0.728   3.935  1.00  0.00    -0.248 NA
ATOM     59  C   UNL     1      -6.101   1.317   3.299  1.00  0.00     0.031 C 
ATOM     60  C   UNL     1      -4.552  -2.566   3.365  1.00  0.00     0.029 A 
ATOM     61  N   UNL     1      -2.720  -2.033   4.523  1.00  0.00    -0.354 N 
ATOM     62  C   UNL     1      -7.758  -0.185   2.988  1.00  0.00     0.074 A 
ATOM     63  C   UNL     1      -7.297   1.150   2.742  1.00  0.00     0.031 C 
ATOM     64  C   UNL     1      -3.711  -3.615   3.279  1.00  0.00     0.029 A 
ATOM     65  C   UNL     1      -2.716  -3.429   4.316  1.00  0.00     0.049 A 
ATOM     66  H   UNL     1      -1.948  -1.496   4.814  1.00  0.00     0.167 HD
ATOM     67  C   UNL     1      -8.606  -0.942   2.230  1.00  0.00     0.031 A 
ATOM     68  C   UNL     1      -2.584  -4.256   5.395  1.00  0.00     0.031 A 
ATOM     69  C   UNL     1      -8.297  -2.370   2.361  1.00  0.00     0.049 A 
ATOM     70  C   UNL     1      -3.958  -4.827   5.724  1.00  0.00     0.074 A 
ATOM     71  C   UNL     1      -7.860  -3.341   1.473  1.00  0.00     0.029 A 
ATOM     72  N   UNL     1      -8.122  -2.919   3.630  1.00  0.00    -0.354 N 
ATOM     73  N   UNL     1      -5.070  -4.247   5.337  1.00  0.00    -0.248 NA
ATOM     74  C   UNL     1      -4.223  -6.141   6.304  1.00  0.00     0.031 C 
ATOM     75  C   UNL     1      -7.290  -4.410   2.230  1.00  0.00     0.029 A 
ATOM     76  C   UNL     1      -7.453  -4.128   3.580  1.00  0.00     0.049 A 
ATOM     77  H   UNL     1      -8.437  -2.497   4.462  1.00  0.00     0.167 HD
ATOM     78  C   UNL     1      -6.104  -5.125   5.389  1.00  0.00     0.074 A 
ATOM     79  C   UNL     1      -5.553  -6.262   6.108  1.00  0.00     0.031 C 
ATOM     80  C   UNL     1      -7.317  -4.925   4.796  1.00  0.00     0.031 A 
BRANCH  67  81
ATOM     81  C   UNL     1      -9.500  -0.331   1.149  1.00  0.00    -0.014 A 
ATOM     82  C   UNL     1     -10.001  -1.106   0.089  1.00  0.00     0.009 A 
ATOM     83  C   UNL     1      -9.934   1.016   1.161  1.00  0.00     0.009 A 
ATOM     84  C   UNL     1     -10.803  -0.560  -0.931  1.00  0.00     0.001 A 
ATOM     85  C   UNL     1     -10.695   1.581   0.123  1.00  0.00     0.001 A 
ATOM     86  C   UNL     1     -11.130   0.790  -0.928  1.00  0.00     0.000 A 
ENDBRANCH  67  81
BRANCH  68  87
ATOM     87  C   UNL     1      -1.423  -3.820   6.240  1.00  0.00    -0.014 A 
ATOM     88  C   UNL     1      -0.137  -4.014   5.670  1.00  0.00     0.009 A 
ATOM     89  C   UNL     1      -1.549  -2.801   7.196  1.00  0.00     0.009 A 
ATOM     90  C   UNL     1       0.915  -3.114   5.899  1.00  0.00     0.001 A 
ATOM     91  C   UNL     1      -0.487  -1.904   7.426  1.00  0.00     0.001 A 
ATOM     92  C   UNL     1       0.722  -2.026   6.740  1.00  0.00     0.000 A 
ENDBRANCH  68  87
BRANCH  80  93
ATOM     93  C   UNL     1      -8.591  -5.436   5.398  1.00  0.00    -0.014 A 
ATOM     94  C   UNL     1      -8.693  -5.722   6.763  1.00  0.00     0.009 A 
ATOM     95  C   UNL     1      -9.791  -5.336   4.658  1.00  0.00     0.009 A 
ATOM     96  C   UNL     1      -9.938  -5.914   7.360  1.00  0.00     0.001 A 
ATOM     97  C   UNL     1     -11.036  -5.464   5.265  1.00  0.00     0.001 A 
ATOM     98  C   UNL     1     -11.107  -5.765   6.617  1.00  0.00     0.000 A 
ENDBRANCH  80  93
ENDBRANCH  54  55
ENDBRANCH  47  49
ENDBRANCH  46  47
ENDBRANCH  45  46
ENDBRANCH  44  45
ENDBRANCH  43  44
ENDBRANCH  42  43
ENDBRANCH  41  42
ENDBRANCH  40  41
ENDBRANCH  39  40
ENDBRANCH   1  39
TORSDOF 25
