REMARK SMILES O=C(OCCOCCOCCOCCOC(=O)[C@@H]1C[NH2+]CCN1C(=O)N[C@@H]1CCOC1)c1ccc(-c2c3nc(c(-c4ccccc4)c4ccc([nH]4)c(-c4ccccc4)c4nc(c(-c5ccccc5)c5ccc2[nH]5)C=C4)C=C3)cc1
REMARK SMILES IDX 9 1 8 2 7 3 6 4 5 5 4 6 3 7 2 8 1 9 32 10 33 11 79 12 34 13
REMARK SMILES IDX 78 14 35 15 36 16 37 17 72 18 38 19 77 20 71 21 73 22 39 23
REMARK SMILES IDX 76 24 70 25 69 26 40 28 62 29 47 30 61 31 48 32 51 33 60 34
REMARK SMILES IDX 74 35 49 36 50 37 59 39 75 40 52 41 41 42 42 43 46 44 43 45
REMARK SMILES IDX 45 46 44 47 63 48 64 49 68 50 65 51 67 52 66 53 53 54 54 55
REMARK SMILES IDX 58 56 55 57 57 58 56 59 10 60 11 61 12 62 13 63 14 64 15 65
REMARK SMILES IDX 16 66 17 67 18 68 19 69 23 70 20 71 22 72 21 73 24 76 25 77
REMARK SMILES IDX 26 78 27 80 28 81 31 82 29 83 30 84
REMARK H PARENT 73 27 51 38 20 74 20 75 26 79
REMARK Flexibility Score: inf
ROOT
ATOM      1  O   UNL     1       3.855  -2.854  -1.736  1.00  0.00    -0.377 OA
ENDROOT
BRANCH   1   2
ATOM      2  C   UNL     1       2.891  -2.244  -0.887  1.00  0.00     0.188 C 
BRANCH   2   3
ATOM      3  C   UNL     1       3.036  -0.764  -0.724  1.00  0.00     0.188 C 
BRANCH   3   4
ATOM      4  O   UNL     1       4.400  -0.438  -0.571  1.00  0.00    -0.376 OA
BRANCH   4   5
ATOM      5  C   UNL     1       5.103  -0.290   0.642  1.00  0.00     0.202 C 
BRANCH   5   6
ATOM      6  C   UNL     1       4.346  -0.362   1.933  1.00  0.00     0.261 C 
BRANCH   6   7
ATOM      7  O   UNL     1       3.085   0.341   2.083  1.00  0.00    -0.460 OA
BRANCH   7   8
ATOM      8  C   UNL     1       2.398   1.401   1.619  1.00  0.00     0.338 C 
ATOM      9  O   UNL     1       1.222   1.517   1.965  1.00  0.00    -0.246 OA
BRANCH   8  10
ATOM     10  C   UNL     1       2.939   2.480   0.752  1.00  0.00     0.060 A 
ATOM     11  C   UNL     1       3.856   2.310  -0.267  1.00  0.00     0.016 A 
ATOM     12  C   UNL     1       2.406   3.763   0.886  1.00  0.00     0.016 A 
ATOM     13  C   UNL     1       4.453   3.329  -0.951  1.00  0.00     0.010 A 
ATOM     14  C   UNL     1       2.903   4.821   0.117  1.00  0.00     0.010 A 
ATOM     15  C   UNL     1       3.985   4.599  -0.744  1.00  0.00    -0.014 A 
BRANCH  15  16
ATOM     16  C   UNL     1       4.862   5.654  -1.230  1.00  0.00     0.031 A 
ATOM     17  C   UNL     1       5.680   6.345  -0.192  1.00  0.00     0.074 A 
ATOM     18  C   UNL     1       5.081   5.795  -2.547  1.00  0.00     0.049 A 
ATOM     19  N   UNL     1       6.400   7.420  -0.293  1.00  0.00    -0.248 NA
ATOM     20  C   UNL     1       5.684   5.735   1.155  1.00  0.00     0.031 C 
ATOM     21  C   UNL     1       4.525   4.941  -3.607  1.00  0.00     0.029 A 
ATOM     22  N   UNL     1       5.858   6.691  -3.216  1.00  0.00    -0.354 N 
ATOM     23  C   UNL     1       6.864   7.666   0.990  1.00  0.00     0.074 A 
ATOM     24  C   UNL     1       6.368   6.623   1.853  1.00  0.00     0.031 C 
ATOM     25  C   UNL     1       4.971   5.374  -4.796  1.00  0.00     0.029 A 
ATOM     26  C   UNL     1       5.744   6.587  -4.579  1.00  0.00     0.049 A 
ATOM     27  H   UNL     1       6.441   7.346  -2.768  1.00  0.00     0.167 HD
ATOM     28  C   UNL     1       7.615   8.711   1.394  1.00  0.00     0.031 A 
ATOM     29  C   UNL     1       6.154   7.446  -5.524  1.00  0.00     0.031 A 
ATOM     30  C   UNL     1       8.061   9.714   0.472  1.00  0.00     0.049 A 
ATOM     31  C   UNL     1       6.851   8.688  -5.043  1.00  0.00     0.074 A 
ATOM     32  C   UNL     1       8.750  10.881   0.719  1.00  0.00     0.029 A 
ATOM     33  N   UNL     1       7.844   9.648  -0.902  1.00  0.00    -0.354 N 
ATOM     34  N   UNL     1       7.179   9.025  -3.815  1.00  0.00    -0.248 NA
ATOM     35  C   UNL     1       7.219   9.673  -6.062  1.00  0.00     0.031 C 
ATOM     36  C   UNL     1       8.889  11.554  -0.500  1.00  0.00     0.029 A 
ATOM     37  C   UNL     1       8.364  10.766  -1.518  1.00  0.00     0.049 A 
ATOM     38  H   UNL     1       7.387   8.910  -1.366  1.00  0.00     0.167 HD
ATOM     39  C   UNL     1       7.823  10.248  -3.913  1.00  0.00     0.074 A 
ATOM     40  C   UNL     1       7.844  10.582  -5.327  1.00  0.00     0.031 C 
ATOM     41  C   UNL     1       8.354  11.028  -2.937  1.00  0.00     0.031 A 
BRANCH  28  42
ATOM     42  C   UNL     1       7.838   8.854   2.871  1.00  0.00    -0.014 A 
ATOM     43  C   UNL     1       8.618   7.945   3.605  1.00  0.00     0.009 A 
ATOM     44  C   UNL     1       7.167   9.877   3.559  1.00  0.00     0.009 A 
ATOM     45  C   UNL     1       8.678   8.029   4.999  1.00  0.00     0.001 A 
ATOM     46  C   UNL     1       7.257   9.980   4.947  1.00  0.00     0.001 A 
ATOM     47  C   UNL     1       8.001   9.048   5.668  1.00  0.00     0.000 A 
ENDBRANCH  28  42
BRANCH  29  48
ATOM     48  C   UNL     1       5.829   7.209  -6.955  1.00  0.00    -0.014 A 
ATOM     49  C   UNL     1       6.845   7.000  -7.897  1.00  0.00     0.009 A 
ATOM     50  C   UNL     1       4.492   7.183  -7.389  1.00  0.00     0.009 A 
ATOM     51  C   UNL     1       6.530   6.796  -9.245  1.00  0.00     0.001 A 
ATOM     52  C   UNL     1       4.178   6.947  -8.730  1.00  0.00     0.001 A 
ATOM     53  C   UNL     1       5.199   6.765  -9.659  1.00  0.00     0.000 A 
ENDBRANCH  29  48
BRANCH  41  54
ATOM     54  C   UNL     1       9.055  12.275  -3.387  1.00  0.00    -0.014 A 
ATOM     55  C   UNL     1       8.346  13.379  -3.879  1.00  0.00     0.009 A 
ATOM     56  C   UNL     1      10.448  12.357  -3.240  1.00  0.00     0.009 A 
ATOM     57  C   UNL     1       9.030  14.537  -4.248  1.00  0.00     0.001 A 
ATOM     58  C   UNL     1      11.122  13.529  -3.570  1.00  0.00     0.001 A 
ATOM     59  C   UNL     1      10.414  14.613  -4.084  1.00  0.00     0.000 A 
ENDBRANCH  41  54
ENDBRANCH  15  16
ENDBRANCH   8  10
ENDBRANCH   7   8
ENDBRANCH   6   7
ENDBRANCH   5   6
ENDBRANCH   4   5
ENDBRANCH   3   4
ENDBRANCH   2   3
ENDBRANCH   1   2
BRANCH   1  60
ATOM     60  C   UNL     1       5.188  -2.314  -1.974  1.00  0.00     0.188 C 
BRANCH  60  61
ATOM     61  C   UNL     1       5.524  -1.097  -3.117  1.00  0.00     0.188 C 
BRANCH  61  62
ATOM     62  O   UNL     1       5.220  -1.076  -4.602  1.00  0.00    -0.376 OA
BRANCH  62  63
ATOM     63  C   UNL     1       3.747  -0.710  -5.422  1.00  0.00     0.202 C 
BRANCH  63  64
ATOM     64  C   UNL     1       2.138  -2.205  -5.601  1.00  0.00     0.261 C 
BRANCH  64  65
ATOM     65  O   UNL     1       2.448  -3.757  -4.681  1.00  0.00    -0.462 OA
BRANCH  65  66
ATOM     66  C   UNL     1       3.706  -4.111  -4.095  1.00  0.00     0.334 C 
ATOM     67  O   UNL     1       4.662  -3.358  -3.945  1.00  0.00    -0.250 OA
BRANCH  66  68
ATOM     68  C   UNL     1       4.195  -5.471  -4.016  1.00  0.00     0.252 C 
ATOM     69  C   UNL     1       5.776  -5.524  -4.121  1.00  0.00     0.298 C 
ATOM     70  N   UNL     1       3.695  -6.128  -5.164  1.00  0.00    -0.300 N 
ATOM     71  N   UNL     1       6.297  -6.897  -4.015  1.00  0.00    -0.343 N 
ATOM     72  C   UNL     1       3.996  -7.554  -5.020  1.00  0.00     0.183 C 
ATOM     73  C   UNL     1       5.542  -7.787  -4.926  1.00  0.00     0.282 C 
ATOM     74  H   UNL     1       6.194  -7.226  -3.055  1.00  0.00     0.346 HD
ATOM     75  H   UNL     1       7.284  -6.905  -4.274  1.00  0.00     0.346 HD
BRANCH  70  76
ATOM     76  C   UNL     1       3.594  -5.497  -6.391  1.00  0.00     0.318 C 
ATOM     77  O   UNL     1       3.357  -6.163  -7.404  1.00  0.00    -0.249 OA
ATOM     78  N   UNL     1       3.689  -4.128  -6.576  1.00  0.00    -0.333 N 
ATOM     79  H   UNL     1       3.554  -3.971  -7.538  1.00  0.00     0.165 HD
BRANCH  78  80
ATOM     80  C   UNL     1       3.941  -2.565  -5.862  1.00  0.00     0.112 C 
ATOM     81  C   UNL     1       3.025  -1.750  -4.088  1.00  0.00     0.056 C 
ATOM     82  C   UNL     1       3.136  -1.471  -7.296  1.00  0.00     0.185 C 
ATOM     83  C   UNL     1       1.804  -0.334  -4.765  1.00  0.00     0.162 C 
ATOM     84  O   UNL     1       1.983  -0.317  -6.543  1.00  0.00    -0.379 OA
ENDBRANCH  78  80
ENDBRANCH  70  76
ENDBRANCH  66  68
ENDBRANCH  65  66
ENDBRANCH  64  65
ENDBRANCH  63  64
ENDBRANCH  62  63
ENDBRANCH  61  62
ENDBRANCH  60  61
ENDBRANCH   1  60
TORSDOF 22
