REMARK SMILES Cc1ccc(NC(=O)c2ccccc2NC(=O)[C@H]2CCCC[C@H]2C(=O)OCCOCCOCCOCCOC(=O)c2ccc(-c3c4nc(c(-c5ccccc5)c5ccc([nH]5)c(-c5ccccc5)c5nc(c(-c6ccccc6)c6ccc3[nH]6)C=C5)C=C4)cc2)cc1
REMARK SMILES IDX 31 1 30 2 29 3 28 4 27 5 26 6 24 7 25 8 23 9 18 10 19 11
REMARK SMILES IDX 20 12 22 13 21 14 16 15 15 16 17 18 14 19 9 20 10 21 11 22
REMARK SMILES IDX 13 23 12 24 7 25 6 26 8 28 5 29 1 30 2 31 3 32 90 33 4 34
REMARK SMILES IDX 89 35 32 36 33 37 34 38 35 39 36 40 37 41 38 42 39 43 40 44
REMARK SMILES IDX 41 45 42 46 88 47 43 48 87 49 44 50 45 51 46 52 81 53 47 54
REMARK SMILES IDX 86 55 80 56 82 57 48 58 85 59 79 60 78 61 49 63 71 64 56 65
REMARK SMILES IDX 70 66 57 67 60 68 69 69 83 70 58 71 59 72 68 74 84 75 61 76
REMARK SMILES IDX 50 77 51 78 55 79 52 80 54 81 53 82 72 83 73 84 77 85 74 86
REMARK SMILES IDX 76 87 75 88 62 89 63 90 67 91 64 92 66 93 65 94
REMARK H PARENT 15 17 6 27 82 62 60 73
REMARK Flexibility Score: inf
ROOT
ATOM      1  C   UNL     1      -1.935   0.577   2.768  1.00  0.00     0.188 C 
ENDROOT
BRANCH   1   2
ATOM      2  C   UNL     1      -3.288   0.902   3.401  1.00  0.00     0.188 C 
BRANCH   2   3
ATOM      3  O   UNL     1      -3.322   1.748   4.528  1.00  0.00    -0.376 OA
BRANCH   3   4
ATOM      4  C   UNL     1      -2.877   1.194   5.758  1.00  0.00     0.202 C 
BRANCH   4   5
ATOM      5  C   UNL     1      -3.203  -0.242   6.138  1.00  0.00     0.261 C 
BRANCH   5   6
ATOM      6  O   UNL     1      -2.198  -1.151   5.637  1.00  0.00    -0.463 OA
BRANCH   6   7
ATOM      7  C   UNL     1      -2.657  -2.107   4.816  1.00  0.00     0.309 C 
ATOM      8  O   UNL     1      -3.833  -2.220   4.473  1.00  0.00    -0.252 OA
BRANCH   7   9
ATOM      9  C   UNL     1      -1.629  -3.118   4.379  1.00  0.00     0.111 C 
ATOM     10  C   UNL     1      -0.505  -2.764   3.375  1.00  0.00     0.093 C 
ATOM     11  C   UNL     1      -0.119  -4.100   2.694  1.00  0.00     0.014 C 
ATOM     12  C   UNL     1       0.150  -5.239   3.701  1.00  0.00     0.001 C 
ATOM     13  C   UNL     1      -1.267  -4.126   5.459  1.00  0.00     0.016 C 
ATOM     14  C   UNL     1      -0.940  -5.440   4.756  1.00  0.00     0.001 C 
BRANCH  10  15
ATOM     15  C   UNL     1       0.810  -2.109   3.845  1.00  0.00     0.228 C 
ATOM     16  N   UNL     1       1.636  -1.329   3.051  1.00  0.00    -0.325 N 
ATOM     17  H   UNL     1       2.496  -1.157   3.499  1.00  0.00     0.169 HD
ATOM     18  O   UNL     1       1.248  -2.358   4.976  1.00  0.00    -0.274 OA
BRANCH  16  19
ATOM     19  C   UNL     1       1.592  -0.702   1.765  1.00  0.00     0.054 A 
ATOM     20  C   UNL     1       2.580   0.253   1.362  1.00  0.00     0.063 A 
ATOM     21  C   UNL     1       2.405   1.018   0.180  1.00  0.00     0.016 A 
ATOM     22  C   UNL     1       1.278   0.866  -0.613  1.00  0.00     0.001 A 
ATOM     23  C   UNL     1       0.534  -0.902   0.871  1.00  0.00     0.027 A 
ATOM     24  C   UNL     1       0.353  -0.106  -0.273  1.00  0.00     0.002 A 
BRANCH  20  25
ATOM     25  C   UNL     1       3.766   0.729   2.126  1.00  0.00     0.257 C 
ATOM     26  N   UNL     1       4.749  -0.087   2.623  1.00  0.00    -0.322 N 
ATOM     27  H   UNL     1       5.530   0.380   2.997  1.00  0.00     0.170 HD
ATOM     28  O   UNL     1       3.876   1.944   2.316  1.00  0.00    -0.269 OA
BRANCH  26  29
ATOM     29  C   UNL     1       4.810  -1.476   2.681  1.00  0.00     0.041 A 
ATOM     30  C   UNL     1       3.952  -5.558   3.570  1.00  0.00     0.044 C 
ATOM     31  C   UNL     1       4.352  -4.157   3.232  1.00  0.00    -0.051 A 
ATOM     32  C   UNL     1       4.050  -3.638   1.968  1.00  0.00     0.005 A 
ATOM     33  C   UNL     1       5.014  -3.356   4.167  1.00  0.00     0.005 A 
ATOM     34  C   UNL     1       4.295  -2.299   1.687  1.00  0.00     0.026 A 
ATOM     35  C   UNL     1       5.272  -2.020   3.880  1.00  0.00     0.026 A 
ENDBRANCH  26  29
ENDBRANCH  20  25
ENDBRANCH  16  19
ENDBRANCH  10  15
ENDBRANCH   7   9
ENDBRANCH   6   7
ENDBRANCH   5   6
ENDBRANCH   4   5
ENDBRANCH   3   4
ENDBRANCH   2   3
ENDBRANCH   1   2
BRANCH   1  36
ATOM     36  O   UNL     1      -0.840   0.290   3.619  1.00  0.00    -0.377 OA
BRANCH  36  37
ATOM     37  C   UNL     1       0.066   1.339   3.967  1.00  0.00     0.188 C 
BRANCH  37  38
ATOM     38  C   UNL     1       0.398   2.383   2.917  1.00  0.00     0.188 C 
BRANCH  38  39
ATOM     39  O   UNL     1      -0.737   3.211   2.685  1.00  0.00    -0.376 OA
BRANCH  39  40
ATOM     40  C   UNL     1      -0.718   3.873   1.422  1.00  0.00     0.202 C 
BRANCH  40  41
ATOM     41  C   UNL     1       0.432   4.877   1.285  1.00  0.00     0.261 C 
BRANCH  41  42
ATOM     42  O   UNL     1       0.296   5.873   2.319  1.00  0.00    -0.460 OA
BRANCH  42  43
ATOM     43  C   UNL     1       1.292   5.893   3.235  1.00  0.00     0.338 C 
ATOM     44  O   UNL     1       2.497   5.954   2.968  1.00  0.00    -0.246 OA
BRANCH  43  45
ATOM     45  C   UNL     1       0.765   5.577   4.589  1.00  0.00     0.060 A 
ATOM     46  C   UNL     1       1.650   5.351   5.655  1.00  0.00     0.016 A 
ATOM     47  C   UNL     1      -0.566   5.192   4.717  1.00  0.00     0.016 A 
ATOM     48  C   UNL     1       1.244   4.584   6.757  1.00  0.00     0.010 A 
ATOM     49  C   UNL     1      -0.918   4.338   5.743  1.00  0.00     0.010 A 
ATOM     50  C   UNL     1      -0.011   3.985   6.753  1.00  0.00    -0.014 A 
BRANCH  50  51
ATOM     51  C   UNL     1      -0.431   2.881   7.636  1.00  0.00     0.031 A 
ATOM     52  C   UNL     1      -1.747   2.972   8.335  1.00  0.00     0.074 A 
ATOM     53  C   UNL     1       0.187   1.674   7.525  1.00  0.00     0.049 A 
ATOM     54  N   UNL     1      -2.250   2.030   9.054  1.00  0.00    -0.248 NA
ATOM     55  C   UNL     1      -2.655   4.118   8.238  1.00  0.00     0.031 C 
ATOM     56  C   UNL     1      -0.356   0.346   7.835  1.00  0.00     0.029 A 
ATOM     57  N   UNL     1       1.471   1.372   7.098  1.00  0.00    -0.354 N 
ATOM     58  C   UNL     1      -3.602   2.253   9.178  1.00  0.00     0.074 A 
ATOM     59  C   UNL     1      -3.790   3.613   8.741  1.00  0.00     0.031 C 
ATOM     60  C   UNL     1       0.591  -0.598   7.725  1.00  0.00     0.029 A 
ATOM     61  C   UNL     1       1.841   0.111   7.605  1.00  0.00     0.049 A 
ATOM     62  H   UNL     1       2.034   1.947   6.531  1.00  0.00     0.167 HD
ATOM     63  C   UNL     1      -4.409   1.198   9.495  1.00  0.00     0.031 A 
ATOM     64  C   UNL     1       2.817   0.043   8.564  1.00  0.00     0.031 A 
ATOM     65  C   UNL     1      -3.634   0.021   9.927  1.00  0.00     0.049 A 
ATOM     66  C   UNL     1       2.213  -0.306   9.916  1.00  0.00     0.074 A 
ATOM     67  C   UNL     1      -3.583  -1.319   9.578  1.00  0.00     0.029 A 
ATOM     68  N   UNL     1      -2.560   0.224  10.793  1.00  0.00    -0.354 N 
ATOM     69  N   UNL     1       0.970  -0.042  10.241  1.00  0.00    -0.248 NA
ATOM     70  C   UNL     1       2.878  -1.124  10.930  1.00  0.00     0.031 C 
ATOM     71  C   UNL     1      -2.381  -1.867  10.124  1.00  0.00     0.029 A 
ATOM     72  C   UNL     1      -1.753  -0.885  10.876  1.00  0.00     0.049 A 
ATOM     73  H   UNL     1      -2.400   1.061  11.286  1.00  0.00     0.167 HD
ATOM     74  C   UNL     1       0.629  -0.744  11.359  1.00  0.00     0.074 A 
ATOM     75  C   UNL     1       1.875  -1.347  11.801  1.00  0.00     0.031 C 
ATOM     76  C   UNL     1      -0.646  -0.890  11.821  1.00  0.00     0.031 A 
BRANCH  63  77
ATOM     77  C   UNL     1      -5.911   1.166   9.284  1.00  0.00    -0.014 A 
ATOM     78  C   UNL     1      -6.657   0.072   9.767  1.00  0.00     0.009 A 
ATOM     79  C   UNL     1      -6.640   2.120   8.548  1.00  0.00     0.009 A 
ATOM     80  C   UNL     1      -8.038  -0.053   9.544  1.00  0.00     0.001 A 
ATOM     81  C   UNL     1      -8.028   2.022   8.355  1.00  0.00     0.001 A 
ATOM     82  C   UNL     1      -8.728   0.931   8.850  1.00  0.00     0.000 A 
ENDBRANCH  63  77
BRANCH  64  83
ATOM     83  C   UNL     1       3.949   0.953   8.196  1.00  0.00    -0.014 A 
ATOM     84  C   UNL     1       4.572   0.610   6.971  1.00  0.00     0.009 A 
ATOM     85  C   UNL     1       3.954   2.303   8.580  1.00  0.00     0.009 A 
ATOM     86  C   UNL     1       4.901   1.599   6.041  1.00  0.00     0.001 A 
ATOM     87  C   UNL     1       4.365   3.288   7.661  1.00  0.00     0.001 A 
ATOM     88  C   UNL     1       4.751   2.939   6.368  1.00  0.00     0.000 A 
ENDBRANCH  64  83
BRANCH  76  89
ATOM     89  C   UNL     1      -0.986  -0.964  13.290  1.00  0.00    -0.014 A 
ATOM     90  C   UNL     1      -0.062  -0.690  14.304  1.00  0.00     0.009 A 
ATOM     91  C   UNL     1      -2.345  -1.061  13.673  1.00  0.00     0.009 A 
ATOM     92  C   UNL     1      -0.471  -0.532  15.632  1.00  0.00     0.001 A 
ATOM     93  C   UNL     1      -2.762  -0.850  14.986  1.00  0.00     0.001 A 
ATOM     94  C   UNL     1      -1.820  -0.592  15.969  1.00  0.00     0.000 A 
ENDBRANCH  76  89
ENDBRANCH  50  51
ENDBRANCH  43  45
ENDBRANCH  42  43
ENDBRANCH  41  42
ENDBRANCH  40  41
ENDBRANCH  39  40
ENDBRANCH  38  39
ENDBRANCH  37  38
ENDBRANCH  36  37
ENDBRANCH   1  36
TORSDOF 24
