REMARK SMILES O=C(N/N=C/c1ccccc1O)C(=O)Nc1cccc(C(=O)OCCOCCOCCOCCOC(=O)c2ccc(-c3c4nc(c(-c5ccccc5)c5ccc([nH]5)c(-c5ccccc5)c5nc(c(-c6ccccc6)c6ccc3[nH]6)C=C5)C=C4)cc2)c1
REMARK SMILES IDX 27 1 26 2 25 3 24 4 23 5 21 6 22 7 20 8 16 9 17 10 86 11
REMARK SMILES IDX 18 12 19 13 15 14 13 15 14 16 2 18 1 19 3 20 4 22 5 23 6 24
REMARK SMILES IDX 7 25 11 26 8 27 10 28 9 29 12 30 28 32 29 33 30 34 31 35
REMARK SMILES IDX 32 36 33 37 34 38 35 39 36 40 37 41 38 42 39 43 85 44 40 45
REMARK SMILES IDX 84 46 41 47 42 48 43 49 78 50 44 51 83 52 77 53 79 54 45 55
REMARK SMILES IDX 82 56 76 57 75 58 46 60 68 61 53 62 67 63 54 64 57 65 66 66
REMARK SMILES IDX 80 67 55 68 56 69 65 71 81 72 58 73 47 74 48 75 52 76 49 77
REMARK SMILES IDX 51 78 50 79 69 80 70 81 74 82 71 83 73 84 72 85 59 86 60 87
REMARK SMILES IDX 64 88 61 89 63 90 62 91
REMARK H PARENT 15 17 3 21 12 31 79 59 57 70
REMARK Flexibility Score: inf
ROOT
ATOM      1  C   UNL     1       6.243   5.198  -1.608  1.00  0.00     0.188 C 
ENDROOT
BRANCH   1   2
ATOM      2  O   UNL     1       5.288   6.227  -1.828  1.00  0.00    -0.376 OA
BRANCH   2   3
ATOM      3  C   UNL     1       4.072   5.858  -2.458  1.00  0.00     0.202 C 
BRANCH   3   4
ATOM      4  C   UNL     1       3.217   4.724  -1.867  1.00  0.00     0.261 C 
BRANCH   4   5
ATOM      5  O   UNL     1       3.901   3.534  -1.449  1.00  0.00    -0.460 OA
BRANCH   5   6
ATOM      6  C   UNL     1       4.482   2.767  -2.393  1.00  0.00     0.338 C 
ATOM      7  O   UNL     1       4.489   2.969  -3.595  1.00  0.00    -0.246 OA
BRANCH   6   8
ATOM      8  C   UNL     1       5.161   1.618  -1.727  1.00  0.00     0.062 A 
ATOM      9  C   UNL     1       4.905  -0.567   0.520  1.00  0.00     0.042 A 
ATOM     10  C   UNL     1       5.712  -1.812  -0.570  1.00  0.00     0.026 A 
ATOM     11  C   UNL     1       4.741   1.164  -0.005  1.00  0.00     0.041 A 
ATOM     12  C   UNL     1       6.247  -1.315  -2.240  1.00  0.00     0.003 A 
ATOM     13  C   UNL     1       5.898   0.358  -2.840  1.00  0.00     0.016 A 
BRANCH   9  14
ATOM     14  N   UNL     1       3.952  -1.108   1.382  1.00  0.00    -0.318 N 
ATOM     15  C   UNL     1       2.578  -1.079   1.181  1.00  0.00     0.315 C 
ATOM     16  O   UNL     1       1.875  -1.778   1.914  1.00  0.00    -0.263 OA
ATOM     17  H   UNL     1       4.279  -1.546   2.200  1.00  0.00     0.170 HD
BRANCH  15  18
ATOM     18  C   UNL     1       1.871  -0.295   0.051  1.00  0.00     0.329 C 
ATOM     19  O   UNL     1       0.838   0.319   0.314  1.00  0.00    -0.262 OA
ATOM     20  N   UNL     1       2.300  -0.442  -1.278  1.00  0.00    -0.239 N 
ATOM     21  H   UNL     1       1.835  -1.029  -1.917  1.00  0.00     0.194 HD
BRANCH  20  22
ATOM     22  N   UNL     1       3.413   0.289  -1.630  1.00  0.00    -0.180 NA
ATOM     23  C   UNL     1       4.631  -0.328  -1.435  1.00  0.00     0.145 C 
BRANCH  23  24
ATOM     24  C   UNL     1       6.567   0.235  -0.741  1.00  0.00     0.036 A 
ATOM     25  C   UNL     1       7.378  -0.433   0.399  1.00  0.00     0.013 A 
ATOM     26  C   UNL     1       7.614   1.289  -1.169  1.00  0.00     0.124 A 
ATOM     27  C   UNL     1       8.719  -0.269   0.853  1.00  0.00     0.001 A 
ATOM     28  C   UNL     1       8.959   1.485  -0.663  1.00  0.00     0.047 A 
ATOM     29  C   UNL     1       9.520   0.687   0.305  1.00  0.00     0.004 A 
BRANCH  26  30
ATOM     30  O   UNL     1       7.415   2.250  -2.168  1.00  0.00    -0.507 OA
ATOM     31  H   UNL     1       6.597   2.290  -2.624  1.00  0.00     0.293 HD
ENDBRANCH  26  30
ENDBRANCH  23  24
ENDBRANCH  20  22
ENDBRANCH  15  18
ENDBRANCH   9  14
ENDBRANCH   6   8
ENDBRANCH   5   6
ENDBRANCH   4   5
ENDBRANCH   3   4
ENDBRANCH   2   3
ENDBRANCH   1   2
BRANCH   1  32
ATOM     32  C   UNL     1       6.196   4.640  -0.172  1.00  0.00     0.188 C 
BRANCH  32  33
ATOM     33  O   UNL     1       5.192   5.182   0.669  1.00  0.00    -0.377 OA
BRANCH  33  34
ATOM     34  C   UNL     1       5.210   6.577   0.950  1.00  0.00     0.188 C 
BRANCH  34  35
ATOM     35  C   UNL     1       6.366   7.507   0.499  1.00  0.00     0.188 C 
BRANCH  35  36
ATOM     36  O   UNL     1       7.578   6.856   0.157  1.00  0.00    -0.376 OA
BRANCH  36  37
ATOM     37  C   UNL     1       8.676   6.905   1.046  1.00  0.00     0.202 C 
BRANCH  37  38
ATOM     38  C   UNL     1       8.528   6.180   2.389  1.00  0.00     0.261 C 
BRANCH  38  39
ATOM     39  O   UNL     1       7.355   6.498   3.144  1.00  0.00    -0.460 OA
BRANCH  39  40
ATOM     40  C   UNL     1       7.254   7.760   3.614  1.00  0.00     0.338 C 
ATOM     41  O   UNL     1       8.055   8.665   3.479  1.00  0.00    -0.246 OA
BRANCH  40  42
ATOM     42  C   UNL     1       5.893   7.910   4.166  1.00  0.00     0.060 A 
ATOM     43  C   UNL     1       5.044   8.879   3.615  1.00  0.00     0.016 A 
ATOM     44  C   UNL     1       5.441   7.057   5.177  1.00  0.00     0.016 A 
ATOM     45  C   UNL     1       3.744   9.015   4.094  1.00  0.00     0.010 A 
ATOM     46  C   UNL     1       4.150   7.217   5.680  1.00  0.00     0.010 A 
ATOM     47  C   UNL     1       3.311   8.219   5.162  1.00  0.00    -0.014 A 
BRANCH  47  48
ATOM     48  C   UNL     1       2.080   8.598   5.887  1.00  0.00     0.031 A 
ATOM     49  C   UNL     1       2.223   9.492   7.087  1.00  0.00     0.074 A 
ATOM     50  C   UNL     1       0.868   8.186   5.483  1.00  0.00     0.049 A 
ATOM     51  N   UNL     1       1.304   9.960   7.890  1.00  0.00    -0.248 NA
ATOM     52  C   UNL     1       3.593   9.911   7.426  1.00  0.00     0.031 C 
ATOM     53  C   UNL     1       0.601   7.351   4.315  1.00  0.00     0.029 A 
ATOM     54  N   UNL     1      -0.370   8.418   6.027  1.00  0.00    -0.354 N 
ATOM     55  C   UNL     1       1.985  10.719   8.832  1.00  0.00     0.074 A 
ATOM     56  C   UNL     1       3.393  10.626   8.521  1.00  0.00     0.031 C 
ATOM     57  C   UNL     1      -0.723   7.128   4.236  1.00  0.00     0.029 A 
ATOM     58  C   UNL     1      -1.388   7.780   5.364  1.00  0.00     0.049 A 
ATOM     59  H   UNL     1      -0.514   8.987   6.817  1.00  0.00     0.167 HD
ATOM     60  C   UNL     1       1.482  11.431   9.867  1.00  0.00     0.031 A 
ATOM     61  C   UNL     1      -2.702   7.713   5.652  1.00  0.00     0.031 A 
ATOM     62  C   UNL     1       0.083  11.497  10.191  1.00  0.00     0.049 A 
ATOM     63  C   UNL     1      -3.232   8.454   6.852  1.00  0.00     0.074 A 
ATOM     64  C   UNL     1      -0.534  12.209  11.203  1.00  0.00     0.029 A 
ATOM     65  N   UNL     1      -0.914  10.808   9.517  1.00  0.00    -0.354 N 
ATOM     66  N   UNL     1      -2.589   9.208   7.711  1.00  0.00    -0.248 NA
ATOM     67  C   UNL     1      -4.675   8.343   7.113  1.00  0.00     0.031 C 
ATOM     68  C   UNL     1      -1.897  11.894  11.187  1.00  0.00     0.029 A 
ATOM     69  C   UNL     1      -2.139  11.046  10.117  1.00  0.00     0.049 A 
ATOM     70  H   UNL     1      -0.772  10.235   8.729  1.00  0.00     0.167 HD
ATOM     71  C   UNL     1      -3.549   9.681   8.599  1.00  0.00     0.074 A 
ATOM     72  C   UNL     1      -4.821   9.141   8.161  1.00  0.00     0.031 C 
ATOM     73  C   UNL     1      -3.394  10.491   9.676  1.00  0.00     0.031 A 
BRANCH  60  74
ATOM     74  C   UNL     1       2.468  12.141  10.752  1.00  0.00    -0.014 A 
ATOM     75  C   UNL     1       3.207  13.245  10.297  1.00  0.00     0.009 A 
ATOM     76  C   UNL     1       2.663  11.690  12.067  1.00  0.00     0.009 A 
ATOM     77  C   UNL     1       4.153  13.853  11.126  1.00  0.00     0.001 A 
ATOM     78  C   UNL     1       3.584  12.320  12.904  1.00  0.00     0.001 A 
ATOM     79  C   UNL     1       4.338  13.393  12.429  1.00  0.00     0.000 A 
ENDBRANCH  60  74
BRANCH  61  80
ATOM     80  C   UNL     1      -3.604   6.896   4.800  1.00  0.00    -0.014 A 
ATOM     81  C   UNL     1      -4.569   7.502   3.981  1.00  0.00     0.009 A 
ATOM     82  C   UNL     1      -3.501   5.495   4.801  1.00  0.00     0.009 A 
ATOM     83  C   UNL     1      -5.423   6.721   3.197  1.00  0.00     0.001 A 
ATOM     84  C   UNL     1      -4.335   4.720   3.994  1.00  0.00     0.001 A 
ATOM     85  C   UNL     1      -5.301   5.333   3.198  1.00  0.00     0.000 A 
ENDBRANCH  61  80
BRANCH  73  86
ATOM     86  C   UNL     1      -4.634  10.870  10.440  1.00  0.00    -0.014 A 
ATOM     87  C   UNL     1      -5.325   9.936  11.227  1.00  0.00     0.009 A 
ATOM     88  C   UNL     1      -5.090  12.198  10.406  1.00  0.00     0.009 A 
ATOM     89  C   UNL     1      -6.470  10.316  11.932  1.00  0.00     0.001 A 
ATOM     90  C   UNL     1      -6.214  12.582  11.139  1.00  0.00     0.001 A 
ATOM     91  C   UNL     1      -6.909  11.639  11.892  1.00  0.00     0.000 A 
ENDBRANCH  73  86
ENDBRANCH  47  48
ENDBRANCH  40  42
ENDBRANCH  39  40
ENDBRANCH  38  39
ENDBRANCH  37  38
ENDBRANCH  36  37
ENDBRANCH  35  36
ENDBRANCH  34  35
ENDBRANCH  33  34
ENDBRANCH  32  33
ENDBRANCH   1  32
TORSDOF 25
