REMARK SMILES O=C(OCCOCCOCCOCCOC(=O)c1ccc(-c2c3nc(c(-c4ccccc4)c4ccc([nH]4)c(-c4ccccc4)c4nc(c(-c5ccccc5)c5ccc2[nH]5)C=C4)C=C3)cc1)C1=Cc2cc(Cl)cc(-c3ccc(CO)cc3)c2O[C@@H]1C(F)(F)F
REMARK SMILES IDX 8 1 7 2 6 3 5 4 4 5 3 6 2 7 1 8 66 9 67 10 84 11 68 12 83 13
REMARK SMILES IDX 69 14 82 15 70 16 73 17 71 18 72 19 85 20 86 21 87 22 88 23
REMARK SMILES IDX 74 24 75 25 81 26 76 27 80 28 77 29 78 30 79 31 9 33 10 34
REMARK SMILES IDX 11 35 12 36 13 37 14 38 15 39 16 40 17 41 18 42 19 43 65 44
REMARK SMILES IDX 20 45 64 46 21 47 22 48 23 49 58 50 24 51 63 52 57 53 59 54
REMARK SMILES IDX 25 55 62 56 56 57 55 58 26 60 48 61 33 62 47 63 34 64 37 65
REMARK SMILES IDX 46 66 60 67 35 68 36 69 45 71 61 72 38 73 27 74 28 75 32 76
REMARK SMILES IDX 29 77 31 78 30 79 49 80 50 81 54 82 51 83 53 84 52 85 39 86
REMARK SMILES IDX 40 87 44 88 41 89 43 90 42 91
REMARK H PARENT 79 32 59 59 37 70
REMARK Flexibility Score: inf
ROOT
ATOM      1  C   UNL     1       1.575  -2.674  -0.762  1.00  0.00     0.188 C 
ENDROOT
BRANCH   1   2
ATOM      2  C   UNL     1       2.185  -1.688  -1.754  1.00  0.00     0.188 C 
BRANCH   2   3
ATOM      3  O   UNL     1       3.529  -1.105  -1.706  1.00  0.00    -0.376 OA
BRANCH   3   4
ATOM      4  C   UNL     1       4.264   0.146  -0.908  1.00  0.00     0.202 C 
BRANCH   4   5
ATOM      5  C   UNL     1       3.508   1.217   0.819  1.00  0.00     0.261 C 
BRANCH   5   6
ATOM      6  O   UNL     1       2.561   2.412   0.804  1.00  0.00    -0.460 OA
BRANCH   6   7
ATOM      7  C   UNL     1       2.755   3.198  -0.262  1.00  0.00     0.338 C 
ATOM      8  O   UNL     1       2.090   4.130  -0.639  1.00  0.00    -0.246 OA
BRANCH   7   9
ATOM      9  C   UNL     1       3.640   2.297  -0.980  1.00  0.00     0.087 C 
ATOM     10  C   UNL     1       5.012   2.285  -0.491  1.00  0.00     0.027 C 
ATOM     11  C   UNL     1       2.425   0.814  -0.870  1.00  0.00     0.316 C 
ATOM     12  C   UNL     1       5.718   0.974   0.510  1.00  0.00     0.019 A 
ATOM     13  O   UNL     1       3.108  -0.569   0.338  1.00  0.00    -0.475 OA
ATOM     14  C   UNL     1       7.023   1.132   0.900  1.00  0.00     0.032 A 
ATOM     15  C   UNL     1       4.794  -0.394   1.069  1.00  0.00     0.135 A 
ATOM     16  C   UNL     1       7.510   0.144   1.757  1.00  0.00     0.042 A 
ATOM     17  C   UNL     1       5.353  -1.269   2.008  1.00  0.00     0.026 A 
ATOM     18  Cl  UNL     1       9.173   0.253   2.231  1.00  0.00    -0.084 Cl
ATOM     19  C   UNL     1       6.730  -0.953   2.283  1.00  0.00     0.033 A 
BRANCH  11  20
ATOM     20  C   UNL     1       2.202   0.940  -2.577  1.00  0.00     0.430 C 
ATOM     21  F   UNL     1       1.377   0.097  -3.223  1.00  0.00    -0.167 F 
ATOM     22  F   UNL     1       1.620   2.164  -2.790  1.00  0.00    -0.167 F 
ATOM     23  F   UNL     1       3.352   0.988  -3.298  1.00  0.00    -0.167 F 
ENDBRANCH  11  20
BRANCH  17  24
ATOM     24  C   UNL     1       4.833  -2.433   2.728  1.00  0.00    -0.015 A 
ATOM     25  C   UNL     1       4.378  -2.407   4.057  1.00  0.00     0.009 A 
ATOM     26  C   UNL     1       5.004  -3.691   2.179  1.00  0.00     0.009 A 
ATOM     27  C   UNL     1       3.906  -3.575   4.704  1.00  0.00     0.007 A 
ATOM     28  C   UNL     1       4.391  -4.805   2.745  1.00  0.00     0.007 A 
ATOM     29  C   UNL     1       3.818  -4.776   4.006  1.00  0.00    -0.023 A 
BRANCH  29  30
ATOM     30  C   UNL     1       3.158  -6.024   4.533  1.00  0.00     0.191 C 
BRANCH  30  31
ATOM     31  O   UNL     1       4.056  -6.920   5.163  1.00  0.00    -0.392 OA
ATOM     32  H   UNL     1       4.715  -7.224   4.519  1.00  0.00     0.211 HD
ENDBRANCH  30  31
ENDBRANCH  29  30
ENDBRANCH  17  24
ENDBRANCH   7   9
ENDBRANCH   6   7
ENDBRANCH   5   6
ENDBRANCH   4   5
ENDBRANCH   3   4
ENDBRANCH   2   3
ENDBRANCH   1   2
BRANCH   1  33
ATOM     33  O   UNL     1       2.184  -3.937  -0.782  1.00  0.00    -0.377 OA
BRANCH  33  34
ATOM     34  C   UNL     1       3.510  -3.848  -0.316  1.00  0.00     0.188 C 
BRANCH  34  35
ATOM     35  C   UNL     1       4.604  -3.747  -1.379  1.00  0.00     0.188 C 
BRANCH  35  36
ATOM     36  O   UNL     1       4.109  -3.669  -2.695  1.00  0.00    -0.376 OA
BRANCH  36  37
ATOM     37  C   UNL     1       3.716  -4.865  -3.349  1.00  0.00     0.202 C 
BRANCH  37  38
ATOM     38  C   UNL     1       3.016  -6.007  -2.584  1.00  0.00     0.261 C 
BRANCH  38  39
ATOM     39  O   UNL     1       3.683  -6.528  -1.412  1.00  0.00    -0.460 OA
BRANCH  39  40
ATOM     40  C   UNL     1       4.962  -6.952  -1.519  1.00  0.00     0.338 C 
ATOM     41  O   UNL     1       5.625  -7.028  -2.536  1.00  0.00    -0.246 OA
BRANCH  40  42
ATOM     42  C   UNL     1       5.514  -7.114  -0.145  1.00  0.00     0.060 A 
ATOM     43  C   UNL     1       6.728  -6.489   0.193  1.00  0.00     0.016 A 
ATOM     44  C   UNL     1       4.820  -7.834   0.826  1.00  0.00     0.016 A 
ATOM     45  C   UNL     1       7.259  -6.595   1.493  1.00  0.00     0.010 A 
ATOM     46  C   UNL     1       5.346  -7.927   2.124  1.00  0.00     0.010 A 
ATOM     47  C   UNL     1       6.586  -7.333   2.473  1.00  0.00    -0.014 A 
BRANCH  47  48
ATOM     48  C   UNL     1       7.203  -7.671   3.798  1.00  0.00     0.031 A 
ATOM     49  C   UNL     1       7.508  -9.128   4.051  1.00  0.00     0.074 A 
ATOM     50  C   UNL     1       7.423  -6.787   4.798  1.00  0.00     0.049 A 
ATOM     51  N   UNL     1       7.971  -9.708   5.129  1.00  0.00    -0.248 NA
ATOM     52  C   UNL     1       7.239 -10.059   2.938  1.00  0.00     0.031 C 
ATOM     53  C   UNL     1       7.187  -5.346   4.756  1.00  0.00     0.029 A 
ATOM     54  N   UNL     1       7.823  -7.001   6.104  1.00  0.00    -0.354 N 
ATOM     55  C   UNL     1       8.078 -11.052   4.801  1.00  0.00     0.074 A 
ATOM     56  C   UNL     1       7.483 -11.228   3.499  1.00  0.00     0.031 C 
ATOM     57  C   UNL     1       7.329  -4.829   5.992  1.00  0.00     0.029 A 
ATOM     58  C   UNL     1       7.734  -5.887   6.912  1.00  0.00     0.049 A 
ATOM     59  H   UNL     1       8.143  -7.873   6.428  1.00  0.00     0.167 HD
ATOM     60  C   UNL     1       8.705 -12.048   5.467  1.00  0.00     0.031 A 
ATOM     61  C   UNL     1       7.962  -5.731   8.234  1.00  0.00     0.031 A 
ATOM     62  C   UNL     1       9.279 -11.909   6.771  1.00  0.00     0.049 A 
ATOM     63  C   UNL     1       8.534  -6.884   9.027  1.00  0.00     0.074 A 
ATOM     64  C   UNL     1       9.981 -12.843   7.509  1.00  0.00     0.029 A 
ATOM     65  N   UNL     1       9.196 -10.762   7.542  1.00  0.00    -0.354 N 
ATOM     66  N   UNL     1       8.786  -8.111   8.640  1.00  0.00    -0.248 NA
ATOM     67  C   UNL     1       8.927  -6.606  10.419  1.00  0.00     0.031 C 
ATOM     68  C   UNL     1      10.267 -12.282   8.757  1.00  0.00     0.029 A 
ATOM     69  C   UNL     1       9.812 -10.973   8.763  1.00  0.00     0.049 A 
ATOM     70  H   UNL     1       8.764  -9.922   7.264  1.00  0.00     0.167 HD
ATOM     71  C   UNL     1       9.433  -8.722   9.710  1.00  0.00     0.074 A 
ATOM     72  C   UNL     1       9.534  -7.732  10.760  1.00  0.00     0.031 C 
ATOM     73  C   UNL     1       9.921  -9.984   9.803  1.00  0.00     0.031 A 
BRANCH  60  74
ATOM     74  C   UNL     1       8.837 -13.355   4.738  1.00  0.00    -0.014 A 
ATOM     75  C   UNL     1       9.617 -13.440   3.570  1.00  0.00     0.009 A 
ATOM     76  C   UNL     1       8.172 -14.498   5.196  1.00  0.00     0.009 A 
ATOM     77  C   UNL     1       9.682 -14.627   2.844  1.00  0.00     0.001 A 
ATOM     78  C   UNL     1       8.271 -15.698   4.489  1.00  0.00     0.001 A 
ATOM     79  C   UNL     1       9.012 -15.757   3.308  1.00  0.00     0.000 A 
ENDBRANCH  60  74
BRANCH  61  80
ATOM     80  C   UNL     1       7.723  -4.424   8.919  1.00  0.00    -0.014 A 
ATOM     81  C   UNL     1       8.800  -3.644   9.377  1.00  0.00     0.009 A 
ATOM     82  C   UNL     1       6.418  -4.000   9.215  1.00  0.00     0.009 A 
ATOM     83  C   UNL     1       8.579  -2.508  10.162  1.00  0.00     0.001 A 
ATOM     84  C   UNL     1       6.199  -2.844   9.974  1.00  0.00     0.001 A 
ATOM     85  C   UNL     1       7.278  -2.108  10.460  1.00  0.00     0.000 A 
ENDBRANCH  61  80
BRANCH  73  86
ATOM     86  C   UNL     1      10.678 -10.354  11.050  1.00  0.00    -0.014 A 
ATOM     87  C   UNL     1      10.051 -10.453  12.301  1.00  0.00     0.009 A 
ATOM     88  C   UNL     1      12.050 -10.647  10.957  1.00  0.00     0.009 A 
ATOM     89  C   UNL     1      10.790 -10.788  13.438  1.00  0.00     0.001 A 
ATOM     90  C   UNL     1      12.777 -11.024  12.086  1.00  0.00     0.001 A 
ATOM     91  C   UNL     1      12.149 -11.079  13.329  1.00  0.00     0.000 A 
ENDBRANCH  73  86
ENDBRANCH  47  48
ENDBRANCH  40  42
ENDBRANCH  39  40
ENDBRANCH  38  39
ENDBRANCH  37  38
ENDBRANCH  36  37
ENDBRANCH  35  36
ENDBRANCH  34  35
ENDBRANCH  33  34
ENDBRANCH   1  33
TORSDOF 24
