REMARK SMILES CC1=C(CC(=O)OCCOCCOCCOCCOC(=O)c2ccc(-c3c4nc(c(-c5ccccc5)c5ccc([nH]5)c(-c5ccccc5)c5nc(c(-c6ccccc6)c6ccc3[nH]6)C=C5)C=C4)cc2)c2cc(F)ccc2/C1=C\c1cccc(OCc2ccccc2)c1
REMARK SMILES IDX 11 1 10 2 9 3 8 4 7 5 5 6 6 7 4 8 3 9 1 10 2 11 77 12 70 13
REMARK SMILES IDX 76 14 78 15 71 16 75 17 72 18 74 19 73 20 79 21 80 22 92 23
REMARK SMILES IDX 81 24 83 25 82 26 84 27 85 28 86 29 87 30 91 31 88 32 90 33
REMARK SMILES IDX 89 34 12 35 13 36 14 37 15 38 16 39 17 40 18 41 19 42 20 43
REMARK SMILES IDX 21 44 22 45 23 46 69 47 24 48 68 49 25 50 26 51 27 52 62 53
REMARK SMILES IDX 28 54 67 55 61 56 63 57 29 58 66 59 60 60 59 61 30 63 52 64
REMARK SMILES IDX 37 65 51 66 38 67 41 68 50 69 64 70 39 71 40 72 49 74 65 75
REMARK SMILES IDX 42 76 31 77 32 78 36 79 33 80 35 81 34 82 53 83 54 84 58 85
REMARK SMILES IDX 55 86 57 87 56 88 43 89 44 90 48 91 45 92 47 93 46 94
REMARK H PARENT 63 62 41 73
REMARK Flexibility Score: inf
ROOT
ATOM      1  C   UNL     1       0.438  -5.667   1.838  1.00  0.00     0.188 C 
ENDROOT
BRANCH   1   2
ATOM      2  O   UNL     1      -0.103  -5.742   3.140  1.00  0.00    -0.376 OA
BRANCH   2   3
ATOM      3  C   UNL     1       0.327  -4.807   4.108  1.00  0.00     0.202 C 
BRANCH   3   4
ATOM      4  C   UNL     1       0.376  -3.301   3.786  1.00  0.00     0.261 C 
BRANCH   4   5
ATOM      5  O   UNL     1       0.827  -2.908   2.473  1.00  0.00    -0.463 OA
BRANCH   5   6
ATOM      6  C   UNL     1       2.152  -2.726   2.270  1.00  0.00     0.310 C 
ATOM      7  O   UNL     1       2.998  -2.906   3.141  1.00  0.00    -0.252 OA
BRANCH   6   8
ATOM      8  C   UNL     1       2.530  -2.276   0.843  1.00  0.00     0.159 C 
BRANCH   8   9
ATOM      9  C   UNL     1       1.497  -2.142  -0.245  1.00  0.00    -0.025 C 
ATOM     10  C   UNL     1       0.623   0.202   0.210  1.00  0.00     0.045 C 
ATOM     11  C   UNL     1       0.670  -1.101  -0.516  1.00  0.00    -0.039 C 
ATOM     12  C   UNL     1      -0.179  -1.414  -1.684  1.00  0.00    -0.014 C 
ATOM     13  C   UNL     1       1.278  -3.154  -1.307  1.00  0.00    -0.011 A 
ATOM     14  C   UNL     1       0.230  -2.748  -2.157  1.00  0.00    -0.010 A 
ATOM     15  C   UNL     1      -1.131  -0.614  -2.201  1.00  0.00     0.017 C 
ATOM     16  C   UNL     1       1.903  -4.379  -1.513  1.00  0.00     0.048 A 
ATOM     17  C   UNL     1      -0.223  -3.573  -3.183  1.00  0.00     0.012 A 
ATOM     18  C   UNL     1       1.442  -5.196  -2.547  1.00  0.00     0.123 A 
ATOM     19  C   UNL     1       0.389  -4.809  -3.375  1.00  0.00     0.040 A 
ATOM     20  F   UNL     1       1.998  -6.401  -2.729  1.00  0.00    -0.207 F 
BRANCH  15  21
ATOM     21  C   UNL     1      -1.968  -0.922  -3.368  1.00  0.00    -0.021 A 
ATOM     22  C   UNL     1      -3.203  -1.559  -3.192  1.00  0.00     0.008 A 
ATOM     23  C   UNL     1      -1.507  -0.641  -4.664  1.00  0.00     0.054 A 
ATOM     24  C   UNL     1      -3.951  -1.951  -4.301  1.00  0.00     0.004 A 
ATOM     25  C   UNL     1      -2.269  -1.011  -5.775  1.00  0.00     0.120 A 
ATOM     26  C   UNL     1      -3.478  -1.688  -5.586  1.00  0.00     0.046 A 
BRANCH  25  27
ATOM     27  O   UNL     1      -1.984  -0.731  -7.084  1.00  0.00    -0.489 OA
BRANCH  27  28
ATOM     28  C   UNL     1      -0.931   0.192  -7.383  1.00  0.00     0.265 C 
BRANCH  28  29
ATOM     29  C   UNL     1      -1.202   1.647  -7.043  1.00  0.00    -0.011 A 
ATOM     30  C   UNL     1      -2.418   2.091  -6.504  1.00  0.00     0.007 A 
ATOM     31  C   UNL     1      -0.187   2.592  -7.261  1.00  0.00     0.007 A 
ATOM     32  C   UNL     1      -2.592   3.424  -6.127  1.00  0.00     0.000 A 
ATOM     33  C   UNL     1      -0.370   3.930  -6.907  1.00  0.00     0.000 A 
ATOM     34  C   UNL     1      -1.567   4.342  -6.325  1.00  0.00     0.000 A 
ENDBRANCH  28  29
ENDBRANCH  27  28
ENDBRANCH  25  27
ENDBRANCH  15  21
ENDBRANCH   8   9
ENDBRANCH   6   8
ENDBRANCH   5   6
ENDBRANCH   4   5
ENDBRANCH   3   4
ENDBRANCH   2   3
ENDBRANCH   1   2
BRANCH   1  35
ATOM     35  C   UNL     1      -0.478  -4.938   0.835  1.00  0.00     0.188 C 
BRANCH  35  36
ATOM     36  O   UNL     1      -1.884  -4.804   0.999  1.00  0.00    -0.377 OA
BRANCH  36  37
ATOM     37  C   UNL     1      -2.541  -5.617   1.945  1.00  0.00     0.188 C 
BRANCH  37  38
ATOM     38  C   UNL     1      -2.466  -7.133   1.718  1.00  0.00     0.188 C 
BRANCH  38  39
ATOM     39  O   UNL     1      -1.457  -7.535   0.798  1.00  0.00    -0.376 OA
BRANCH  39  40
ATOM     40  C   UNL     1      -1.903  -8.025  -0.462  1.00  0.00     0.202 C 
BRANCH  40  41
ATOM     41  C   UNL     1      -2.418  -6.975  -1.456  1.00  0.00     0.261 C 
BRANCH  41  42
ATOM     42  O   UNL     1      -3.516  -6.172  -1.009  1.00  0.00    -0.460 OA
BRANCH  42  43
ATOM     43  C   UNL     1      -4.676  -6.787  -0.707  1.00  0.00     0.338 C 
ATOM     44  O   UNL     1      -4.937  -7.974  -0.799  1.00  0.00    -0.246 OA
BRANCH  43  45
ATOM     45  C   UNL     1      -5.522  -5.776  -0.046  1.00  0.00     0.060 A 
ATOM     46  C   UNL     1      -5.734  -4.532  -0.649  1.00  0.00     0.016 A 
ATOM     47  C   UNL     1      -6.042  -6.051   1.225  1.00  0.00     0.016 A 
ATOM     48  C   UNL     1      -6.485  -3.565   0.015  1.00  0.00     0.010 A 
ATOM     49  C   UNL     1      -6.771  -5.073   1.901  1.00  0.00     0.010 A 
ATOM     50  C   UNL     1      -7.020  -3.836   1.286  1.00  0.00    -0.014 A 
BRANCH  50  51
ATOM     51  C   UNL     1      -8.053  -2.939   1.849  1.00  0.00     0.031 A 
ATOM     52  C   UNL     1      -7.760  -1.923   2.904  1.00  0.00     0.074 A 
ATOM     53  C   UNL     1      -9.305  -3.104   1.383  1.00  0.00     0.049 A 
ATOM     54  N   UNL     1      -8.569  -1.033   3.421  1.00  0.00    -0.248 NA
ATOM     55  C   UNL     1      -6.401  -1.902   3.461  1.00  0.00     0.031 C 
ATOM     56  C   UNL     1      -9.691  -4.095   0.375  1.00  0.00     0.029 A 
ATOM     57  N   UNL     1     -10.472  -2.455   1.682  1.00  0.00    -0.354 N 
ATOM     58  C   UNL     1      -7.820  -0.334   4.356  1.00  0.00     0.074 A 
ATOM     59  C   UNL     1      -6.498  -0.929   4.361  1.00  0.00     0.031 C 
ATOM     60  C   UNL     1     -11.001  -3.975   0.125  1.00  0.00     0.029 A 
ATOM     61  C   UNL     1     -11.549  -2.921   0.971  1.00  0.00     0.049 A 
ATOM     62  H   UNL     1     -10.533  -1.727   2.342  1.00  0.00     0.167 HD
ATOM     63  C   UNL     1      -8.209   0.712   5.125  1.00  0.00     0.031 A 
ATOM     64  C   UNL     1     -12.839  -2.541   0.986  1.00  0.00     0.031 A 
ATOM     65  C   UNL     1      -9.541   1.267   5.119  1.00  0.00     0.049 A 
ATOM     66  C   UNL     1     -13.248  -1.398   1.863  1.00  0.00     0.074 A 
ATOM     67  C   UNL     1     -10.014   2.370   5.811  1.00  0.00     0.029 A 
ATOM     68  N   UNL     1     -10.617   0.754   4.408  1.00  0.00    -0.354 N 
ATOM     69  N   UNL     1     -12.504  -0.675   2.666  1.00  0.00    -0.248 NA
ATOM     70  C   UNL     1     -14.660  -1.003   1.826  1.00  0.00     0.031 C 
ATOM     71  C   UNL     1     -11.388   2.474   5.584  1.00  0.00     0.029 A 
ATOM     72  C   UNL     1     -11.761   1.488   4.684  1.00  0.00     0.049 A 
ATOM     73  H   UNL     1     -10.575  -0.018   3.798  1.00  0.00     0.167 HD
ATOM     74  C   UNL     1     -13.354   0.270   3.222  1.00  0.00     0.074 A 
ATOM     75  C   UNL     1     -14.665   0.041   2.646  1.00  0.00     0.031 C 
ATOM     76  C   UNL     1     -13.069   1.237   4.128  1.00  0.00     0.031 A 
BRANCH  63  77
ATOM     77  C   UNL     1      -7.197   1.338   6.048  1.00  0.00    -0.014 A 
ATOM     78  C   UNL     1      -7.389   1.281   7.439  1.00  0.00     0.009 A 
ATOM     79  C   UNL     1      -6.124   2.092   5.547  1.00  0.00     0.009 A 
ATOM     80  C   UNL     1      -6.540   1.974   8.305  1.00  0.00     0.001 A 
ATOM     81  C   UNL     1      -5.259   2.761   6.417  1.00  0.00     0.001 A 
ATOM     82  C   UNL     1      -5.473   2.710   7.794  1.00  0.00     0.000 A 
ENDBRANCH  63  77
BRANCH  64  83
ATOM     83  C   UNL     1     -13.795  -3.237   0.088  1.00  0.00    -0.014 A 
ATOM     84  C   UNL     1     -14.134  -4.582   0.315  1.00  0.00     0.009 A 
ATOM     85  C   UNL     1     -14.274  -2.601  -1.065  1.00  0.00     0.009 A 
ATOM     86  C   UNL     1     -14.901  -5.286  -0.615  1.00  0.00     0.001 A 
ATOM     87  C   UNL     1     -15.068  -3.300  -1.978  1.00  0.00     0.001 A 
ATOM     88  C   UNL     1     -15.368  -4.644  -1.760  1.00  0.00     0.000 A 
ENDBRANCH  64  83
BRANCH  76  89
ATOM     89  C   UNL     1     -14.197   2.124   4.577  1.00  0.00    -0.014 A 
ATOM     90  C   UNL     1     -14.191   3.489   4.244  1.00  0.00     0.009 A 
ATOM     91  C   UNL     1     -15.215   1.635   5.410  1.00  0.00     0.009 A 
ATOM     92  C   UNL     1     -15.168   4.348   4.750  1.00  0.00     0.001 A 
ATOM     93  C   UNL     1     -16.210   2.489   5.888  1.00  0.00     0.001 A 
ATOM     94  C   UNL     1     -16.179   3.846   5.568  1.00  0.00     0.000 A 
ENDBRANCH  76  89
ENDBRANCH  50  51
ENDBRANCH  43  45
ENDBRANCH  42  43
ENDBRANCH  41  42
ENDBRANCH  40  41
ENDBRANCH  39  40
ENDBRANCH  38  39
ENDBRANCH  37  38
ENDBRANCH  36  37
ENDBRANCH  35  36
ENDBRANCH   1  35
TORSDOF 25
