REMARK SMILES CCc1ccc(OCC(=O)Nc2cc(C)c(O)c(C(=O)OCCOCCOCCOCCOC(=O)c3ccc(-c4c5nc(c(-c6ccccc6)c6ccc([nH]6)c(-c6ccccc6)c6nc(c(-c7ccccc7)c7ccc4[nH]7)C=C6)C=C5)cc3)c2)cc1
REMARK SMILES IDX 25 1 24 2 23 3 22 4 21 5 19 6 20 7 18 8 12 9 13 10 84 11
REMARK SMILES IDX 14 12 15 13 16 14 11 15 9 16 10 17 8 19 7 20 6 21 3 22 4 23
REMARK SMILES IDX 86 24 5 25 85 26 2 27 1 28 17 29 26 31 27 32 28 33 29 34
REMARK SMILES IDX 30 35 31 36 32 37 33 38 34 39 35 40 36 41 37 42 83 43 38 44
REMARK SMILES IDX 82 45 39 46 40 47 41 48 76 49 42 50 81 51 75 52 77 53 43 54
REMARK SMILES IDX 80 55 74 56 73 57 44 59 66 60 51 61 65 62 52 63 55 64 64 65
REMARK SMILES IDX 78 66 53 67 54 68 63 70 79 71 56 72 45 73 46 74 50 75 47 76
REMARK SMILES IDX 49 77 48 78 67 79 68 80 72 81 69 82 71 83 70 84 57 85 58 86
REMARK SMILES IDX 62 87 59 88 61 89 60 90
REMARK H PARENT 11 18 17 30 77 58 55 69
REMARK Flexibility Score: inf
ROOT
ATOM      1  C   UNL     1       6.458   4.275  -2.612  1.00  0.00     0.188 C 
ENDROOT
BRANCH   1   2
ATOM      2  O   UNL     1       7.051   3.699  -1.458  1.00  0.00    -0.376 OA
BRANCH   2   3
ATOM      3  C   UNL     1       7.452   4.500  -0.369  1.00  0.00     0.202 C 
BRANCH   3   4
ATOM      4  C   UNL     1       6.349   5.202   0.425  1.00  0.00     0.261 C 
BRANCH   4   5
ATOM      5  O   UNL     1       5.366   5.885  -0.358  1.00  0.00    -0.460 OA
BRANCH   5   6
ATOM      6  C   UNL     1       5.745   6.987  -1.043  1.00  0.00     0.342 C 
ATOM      7  O   UNL     1       6.855   7.490  -1.074  1.00  0.00    -0.246 OA
BRANCH   6   8
ATOM      8  C   UNL     1       4.648   7.358  -1.970  1.00  0.00     0.104 A 
ATOM      9  C   UNL     1       2.261   7.406  -2.428  1.00  0.00     0.042 A 
ATOM     10  C   UNL     1       2.553   7.769  -3.749  1.00  0.00     0.033 A 
ATOM     11  C   UNL     1       3.321   7.167  -1.568  1.00  0.00     0.045 A 
ATOM     12  C   UNL     1       3.881   7.947  -4.187  1.00  0.00    -0.006 A 
ATOM     13  C   UNL     1       4.132   8.362  -5.610  1.00  0.00     0.048 C 
ATOM     14  C   UNL     1       4.927   7.775  -3.272  1.00  0.00     0.133 A 
BRANCH   9  15
ATOM     15  N   UNL     1       0.911   7.269  -2.070  1.00  0.00    -0.323 N 
ATOM     16  C   UNL     1       0.268   7.204  -0.864  1.00  0.00     0.262 C 
ATOM     17  O   UNL     1      -0.962   7.056  -0.890  1.00  0.00    -0.271 OA
ATOM     18  H   UNL     1       0.304   7.207  -2.842  1.00  0.00     0.170 HD
BRANCH  16  19
ATOM     19  C   UNL     1       0.984   7.430   0.482  1.00  0.00     0.329 C 
BRANCH  19  20
ATOM     20  O   UNL     1       1.812   6.427   1.049  1.00  0.00    -0.484 OA
BRANCH  20  21
ATOM     21  C   UNL     1       1.315   5.159   1.093  1.00  0.00     0.120 A 
ATOM     22  C   UNL     1       0.497   2.482   1.168  1.00  0.00    -0.048 A 
ATOM     23  C   UNL     1       1.855   2.800   1.042  1.00  0.00     0.007 A 
ATOM     24  C   UNL     1      -0.439   3.516   1.273  1.00  0.00     0.007 A 
ATOM     25  C   UNL     1       2.259   4.134   1.007  1.00  0.00     0.047 A 
ATOM     26  C   UNL     1      -0.031   4.848   1.248  1.00  0.00     0.047 A 
BRANCH  22  27
ATOM     27  C   UNL     1       0.028   1.053   1.188  1.00  0.00     0.032 C 
ATOM     28  C   UNL     1       0.337   0.347  -0.116  1.00  0.00     0.009 C 
ENDBRANCH  22  27
ENDBRANCH  20  21
ENDBRANCH  19  20
ENDBRANCH  16  19
ENDBRANCH   9  15
BRANCH  14  29
ATOM     29  O   UNL     1       6.210   7.969  -3.710  1.00  0.00    -0.507 OA
ATOM     30  H   UNL     1       6.368   8.250  -4.590  1.00  0.00     0.293 HD
ENDBRANCH  14  29
ENDBRANCH   6   8
ENDBRANCH   5   6
ENDBRANCH   4   5
ENDBRANCH   3   4
ENDBRANCH   2   3
ENDBRANCH   1   2
BRANCH   1  31
ATOM     31  C   UNL     1       4.957   3.926  -2.775  1.00  0.00     0.188 C 
BRANCH  31  32
ATOM     32  O   UNL     1       4.426   2.648  -2.420  1.00  0.00    -0.377 OA
BRANCH  32  33
ATOM     33  C   UNL     1       5.163   1.842  -1.512  1.00  0.00     0.188 C 
BRANCH  33  34
ATOM     34  C   UNL     1       6.371   1.142  -2.170  1.00  0.00     0.188 C 
BRANCH  34  35
ATOM     35  O   UNL     1       6.657   1.631  -3.471  1.00  0.00    -0.376 OA
BRANCH  35  36
ATOM     36  C   UNL     1       6.086   0.980  -4.595  1.00  0.00     0.202 C 
BRANCH  36  37
ATOM     37  C   UNL     1       4.593   0.609  -4.631  1.00  0.00     0.261 C 
BRANCH  37  38
ATOM     38  O   UNL     1       4.055  -0.076  -3.490  1.00  0.00    -0.460 OA
BRANCH  38  39
ATOM     39  C   UNL     1       4.544  -1.290  -3.183  1.00  0.00     0.338 C 
ATOM     40  O   UNL     1       5.407  -1.923  -3.777  1.00  0.00    -0.246 OA
BRANCH  39  41
ATOM     41  C   UNL     1       3.958  -1.673  -1.887  1.00  0.00     0.060 A 
ATOM     42  C   UNL     1       4.765  -1.773  -0.744  1.00  0.00     0.016 A 
ATOM     43  C   UNL     1       2.592  -1.929  -1.809  1.00  0.00     0.016 A 
ATOM     44  C   UNL     1       4.209  -2.155   0.479  1.00  0.00     0.010 A 
ATOM     45  C   UNL     1       2.047  -2.339  -0.593  1.00  0.00     0.010 A 
ATOM     46  C   UNL     1       2.851  -2.480   0.555  1.00  0.00    -0.014 A 
BRANCH  46  47
ATOM     47  C   UNL     1       2.316  -3.204   1.738  1.00  0.00     0.031 A 
ATOM     48  C   UNL     1       1.963  -4.660   1.557  1.00  0.00     0.074 A 
ATOM     49  C   UNL     1       2.158  -2.620   2.942  1.00  0.00     0.049 A 
ATOM     50  N   UNL     1       1.433  -5.503   2.405  1.00  0.00    -0.248 NA
ATOM     51  C   UNL     1       2.221  -5.234   0.224  1.00  0.00     0.031 C 
ATOM     52  C   UNL     1       2.481  -1.233   3.272  1.00  0.00     0.029 A 
ATOM     53  N   UNL     1       1.680  -3.139   4.122  1.00  0.00    -0.354 N 
ATOM     54  C   UNL     1       1.265  -6.686   1.695  1.00  0.00     0.074 A 
ATOM     55  C   UNL     1       1.683  -6.435   0.336  1.00  0.00     0.031 C 
ATOM     56  C   UNL     1       2.202  -1.015   4.571  1.00  0.00     0.029 A 
ATOM     57  C   UNL     1       1.662  -2.238   5.160  1.00  0.00     0.049 A 
ATOM     58  H   UNL     1       1.379  -4.072   4.215  1.00  0.00     0.167 HD
ATOM     59  C   UNL     1       0.834  -7.890   2.133  1.00  0.00     0.031 A 
ATOM     60  C   UNL     1       1.255  -2.390   6.437  1.00  0.00     0.031 A 
ATOM     61  C   UNL     1       0.452  -8.160   3.490  1.00  0.00     0.049 A 
ATOM     62  C   UNL     1       0.740  -3.734   6.894  1.00  0.00     0.074 A 
ATOM     63  C   UNL     1       0.042  -9.357   4.047  1.00  0.00     0.029 A 
ATOM     64  N   UNL     1       0.439  -7.216   4.504  1.00  0.00    -0.354 N 
ATOM     65  N   UNL     1       0.631  -4.856   6.223  1.00  0.00    -0.248 NA
ATOM     66  C   UNL     1       0.313  -3.833   8.298  1.00  0.00     0.031 C 
ATOM     67  C   UNL     1      -0.273  -9.125   5.389  1.00  0.00     0.029 A 
ATOM     68  C   UNL     1       0.011  -7.801   5.682  1.00  0.00     0.049 A 
ATOM     69  H   UNL     1       0.697  -6.272   4.401  1.00  0.00     0.167 HD
ATOM     70  C   UNL     1       0.177  -5.803   7.137  1.00  0.00     0.074 A 
ATOM     71  C   UNL     1       0.042  -5.125   8.409  1.00  0.00     0.031 C 
ATOM     72  C   UNL     1      -0.098  -7.117   6.944  1.00  0.00     0.031 A 
BRANCH  59  73
ATOM     73  C   UNL     1       0.740  -8.995   1.118  1.00  0.00    -0.014 A 
ATOM     74  C   UNL     1       1.887  -9.551   0.529  1.00  0.00     0.009 A 
ATOM     75  C   UNL     1      -0.521  -9.482   0.741  1.00  0.00     0.009 A 
ATOM     76  C   UNL     1       1.771 -10.537  -0.453  1.00  0.00     0.001 A 
ATOM     77  C   UNL     1      -0.632 -10.494  -0.212  1.00  0.00     0.001 A 
ATOM     78  C   UNL     1       0.512 -11.011  -0.818  1.00  0.00     0.000 A 
ENDBRANCH  59  73
BRANCH  60  79
ATOM     79  C   UNL     1       1.329  -1.259   7.405  1.00  0.00    -0.014 A 
ATOM     80  C   UNL     1       2.204  -1.316   8.503  1.00  0.00     0.009 A 
ATOM     81  C   UNL     1       0.473  -0.154   7.285  1.00  0.00     0.009 A 
ATOM     82  C   UNL     1       2.187  -0.319   9.482  1.00  0.00     0.001 A 
ATOM     83  C   UNL     1       0.481   0.860   8.248  1.00  0.00     0.001 A 
ATOM     84  C   UNL     1       1.326   0.769   9.353  1.00  0.00     0.000 A 
ENDBRANCH  60  79
BRANCH  72  85
ATOM     85  C   UNL     1      -0.492  -7.928   8.149  1.00  0.00    -0.014 A 
ATOM     86  C   UNL     1      -1.717  -7.736   8.807  1.00  0.00     0.009 A 
ATOM     87  C   UNL     1       0.377  -8.929   8.615  1.00  0.00     0.009 A 
ATOM     88  C   UNL     1      -2.038  -8.492   9.937  1.00  0.00     0.001 A 
ATOM     89  C   UNL     1       0.036  -9.710   9.720  1.00  0.00     0.001 A 
ATOM     90  C   UNL     1      -1.164  -9.480  10.389  1.00  0.00     0.000 A 
ENDBRANCH  72  85
ENDBRANCH  46  47
ENDBRANCH  39  41
ENDBRANCH  38  39
ENDBRANCH  37  38
ENDBRANCH  36  37
ENDBRANCH  35  36
ENDBRANCH  34  35
ENDBRANCH  33  34
ENDBRANCH  32  33
ENDBRANCH  31  32
ENDBRANCH   1  31
TORSDOF 26
