REMARK SMILES C[C@H](C(=O)OCCOCCOCCOCCOC(=O)c1ccc(-c2c3nc(c(-c4ccccc4)c4ccc([nH]4)c(-c4ccccc4)c4nc(c(-c5ccccc5)c5ccc2[nH]5)C=C4)C=C3)cc1)[C@H](C)[NH+]1CC[NH+](CCO)CC1
REMARK SMILES IDX 9 1 8 2 7 3 6 4 5 5 3 6 4 7 2 8 1 9 68 10 69 11 70 12 71 13
REMARK SMILES IDX 78 14 72 16 77 17 73 18 74 20 75 21 76 22 10 24 11 25 12 26
REMARK SMILES IDX 13 27 14 28 15 29 16 30 17 31 18 32 19 33 20 34 21 35 67 36
REMARK SMILES IDX 22 37 66 38 23 39 24 40 25 41 60 42 26 43 65 44 59 45 61 46
REMARK SMILES IDX 27 47 64 48 58 49 57 50 28 52 50 53 35 54 49 55 36 56 39 57
REMARK SMILES IDX 48 58 62 59 37 60 38 61 47 63 63 64 40 65 29 66 30 67 34 68
REMARK SMILES IDX 31 69 33 70 32 71 51 72 52 73 56 74 53 75 55 76 54 77 41 78
REMARK SMILES IDX 42 79 46 80 43 81 45 82 44 83
REMARK H PARENT 70 15 73 19 76 23 61 51 39 62
REMARK Flexibility Score: inf
ROOT
ATOM      1  C   UNL     1       1.333   3.443  -0.135  1.00  0.00     0.188 C 
ENDROOT
BRANCH   1   2
ATOM      2  O   UNL     1       2.151   3.597   1.014  1.00  0.00    -0.376 OA
BRANCH   2   3
ATOM      3  C   UNL     1       2.456   2.450   1.802  1.00  0.00     0.202 C 
BRANCH   3   4
ATOM      4  C   UNL     1       1.311   1.583   2.365  1.00  0.00     0.261 C 
BRANCH   4   5
ATOM      5  O   UNL     1       0.361   1.193   1.361  1.00  0.00    -0.463 OA
BRANCH   5   6
ATOM      6  C   UNL     1      -0.951   1.239   1.718  1.00  0.00     0.314 C 
ATOM      7  O   UNL     1      -1.344   1.315   2.878  1.00  0.00    -0.252 OA
BRANCH   6   8
ATOM      8  C   UNL     1      -1.894   1.420   0.519  1.00  0.00     0.154 C 
ATOM      9  C   UNL     1      -1.966   2.930   0.251  1.00  0.00     0.026 C 
BRANCH   8  10
ATOM     10  C   UNL     1      -1.838   0.322  -0.622  1.00  0.00     0.195 C 
ATOM     11  C   UNL     1      -0.643  -0.649  -0.514  1.00  0.00     0.076 C 
BRANCH  10  12
ATOM     12  N   UNL     1      -2.023   0.510  -2.082  1.00  0.00    -0.323 N 
ATOM     13  C   UNL     1      -3.078  -0.346  -2.665  1.00  0.00     0.324 C 
ATOM     14  C   UNL     1      -2.100   1.816  -2.716  1.00  0.00     0.324 C 
ATOM     15  H   UNL     1      -1.071   0.223  -2.310  1.00  0.00     0.348 HD
ATOM     16  C   UNL     1      -4.497   0.263  -2.554  1.00  0.00     0.324 C 
ATOM     17  C   UNL     1      -3.481   2.497  -2.605  1.00  0.00     0.324 C 
ATOM     18  N   UNL     1      -4.636   1.667  -2.950  1.00  0.00    -0.324 N 
ATOM     19  H   UNL     1      -5.391   1.965  -2.332  1.00  0.00     0.348 HD
BRANCH  18  20
ATOM     20  C   UNL     1      -5.259   1.974  -4.234  1.00  0.00     0.291 C 
BRANCH  20  21
ATOM     21  C   UNL     1      -4.396   1.850  -5.500  1.00  0.00     0.217 C 
BRANCH  21  22
ATOM     22  O   UNL     1      -4.151   0.502  -5.878  1.00  0.00    -0.391 OA
ATOM     23  H   UNL     1      -3.662   0.052  -5.171  1.00  0.00     0.210 HD
ENDBRANCH  21  22
ENDBRANCH  20  21
ENDBRANCH  18  20
ENDBRANCH  10  12
ENDBRANCH   8  10
ENDBRANCH   6   8
ENDBRANCH   5   6
ENDBRANCH   4   5
ENDBRANCH   3   4
ENDBRANCH   2   3
ENDBRANCH   1   2
BRANCH   1  24
ATOM     24  C   UNL     1       1.923   2.825  -1.391  1.00  0.00     0.188 C 
BRANCH  24  25
ATOM     25  O   UNL     1       2.024   1.409  -1.360  1.00  0.00    -0.377 OA
BRANCH  25  26
ATOM     26  C   UNL     1       3.297   0.811  -1.158  1.00  0.00     0.188 C 
BRANCH  26  27
ATOM     27  C   UNL     1       4.532   1.580  -1.642  1.00  0.00     0.188 C 
BRANCH  27  28
ATOM     28  O   UNL     1       4.722   1.863  -3.027  1.00  0.00    -0.376 OA
BRANCH  28  29
ATOM     29  C   UNL     1       3.683   1.635  -3.966  1.00  0.00     0.202 C 
BRANCH  29  30
ATOM     30  C   UNL     1       3.648   0.242  -4.603  1.00  0.00     0.261 C 
BRANCH  30  31
ATOM     31  O   UNL     1       3.922  -0.830  -3.700  1.00  0.00    -0.460 OA
BRANCH  31  32
ATOM     32  C   UNL     1       5.233  -1.061  -3.471  1.00  0.00     0.338 C 
ATOM     33  O   UNL     1       6.201  -0.500  -3.963  1.00  0.00    -0.246 OA
BRANCH  32  34
ATOM     34  C   UNL     1       5.339  -2.094  -2.435  1.00  0.00     0.060 A 
ATOM     35  C   UNL     1       6.043  -1.816  -1.257  1.00  0.00     0.016 A 
ATOM     36  C   UNL     1       4.807  -3.362  -2.674  1.00  0.00     0.016 A 
ATOM     37  C   UNL     1       6.252  -2.825  -0.325  1.00  0.00     0.010 A 
ATOM     38  C   UNL     1       5.038  -4.379  -1.753  1.00  0.00     0.010 A 
ATOM     39  C   UNL     1       5.798  -4.120  -0.600  1.00  0.00    -0.014 A 
BRANCH  39  40
ATOM     40  C   UNL     1       6.310  -5.249   0.200  1.00  0.00     0.031 A 
ATOM     41  C   UNL     1       7.481  -6.021  -0.338  1.00  0.00     0.074 A 
ATOM     42  C   UNL     1       5.754  -5.562   1.381  1.00  0.00     0.049 A 
ATOM     43  N   UNL     1       8.068  -7.082   0.149  1.00  0.00    -0.248 NA
ATOM     44  C   UNL     1       8.067  -5.531  -1.598  1.00  0.00     0.031 C 
ATOM     45  C   UNL     1       4.655  -4.838   2.018  1.00  0.00     0.029 A 
ATOM     46  N   UNL     1       6.042  -6.580   2.250  1.00  0.00    -0.354 N 
ATOM     47  C   UNL     1       9.079  -7.395  -0.751  1.00  0.00     0.074 A 
ATOM     48  C   UNL     1       9.012  -6.430  -1.825  1.00  0.00     0.031 C 
ATOM     49  C   UNL     1       4.356  -5.443   3.180  1.00  0.00     0.029 A 
ATOM     50  C   UNL     1       5.212  -6.616   3.341  1.00  0.00     0.049 A 
ATOM     51  H   UNL     1       6.773  -7.223   2.105  1.00  0.00     0.167 HD
ATOM     52  C   UNL     1       9.983  -8.399  -0.685  1.00  0.00     0.031 A 
ATOM     53  C   UNL     1       5.141  -7.516   4.340  1.00  0.00     0.031 A 
ATOM     54  C   UNL     1      10.026  -9.364   0.380  1.00  0.00     0.049 A 
ATOM     55  C   UNL     1       6.098  -8.678   4.341  1.00  0.00     0.074 A 
ATOM     56  C   UNL     1      10.905 -10.417   0.556  1.00  0.00     0.029 A 
ATOM     57  N   UNL     1       9.139  -9.397   1.446  1.00  0.00    -0.354 N 
ATOM     58  N   UNL     1       7.066  -8.956   3.500  1.00  0.00    -0.248 NA
ATOM     59  C   UNL     1       5.956  -9.648   5.436  1.00  0.00     0.031 C 
ATOM     60  C   UNL     1      10.507 -11.128   1.692  1.00  0.00     0.029 A 
ATOM     61  C   UNL     1       9.428 -10.473   2.266  1.00  0.00     0.049 A 
ATOM     62  H   UNL     1       8.412  -8.750   1.597  1.00  0.00     0.167 HD
ATOM     63  C   UNL     1       7.669 -10.111   3.982  1.00  0.00     0.074 A 
ATOM     64  C   UNL     1       6.966 -10.472   5.197  1.00  0.00     0.031 C 
ATOM     65  C   UNL     1       8.713 -10.811   3.470  1.00  0.00     0.031 A 
BRANCH  52  66
ATOM     66  C   UNL     1      10.957  -8.532  -1.822  1.00  0.00    -0.014 A 
ATOM     67  C   UNL     1      11.979  -7.592  -2.032  1.00  0.00     0.009 A 
ATOM     68  C   UNL     1      10.861  -9.633  -2.689  1.00  0.00     0.009 A 
ATOM     69  C   UNL     1      12.860  -7.733  -3.107  1.00  0.00     0.001 A 
ATOM     70  C   UNL     1      11.763  -9.788  -3.743  1.00  0.00     0.001 A 
ATOM     71  C   UNL     1      12.755  -8.833  -3.957  1.00  0.00     0.000 A 
ENDBRANCH  52  66
BRANCH  53  72
ATOM     72  C   UNL     1       4.117  -7.368   5.408  1.00  0.00    -0.014 A 
ATOM     73  C   UNL     1       4.496  -7.088   6.729  1.00  0.00     0.009 A 
ATOM     74  C   UNL     1       2.753  -7.526   5.114  1.00  0.00     0.009 A 
ATOM     75  C   UNL     1       3.534  -6.997   7.738  1.00  0.00     0.001 A 
ATOM     76  C   UNL     1       1.791  -7.402   6.118  1.00  0.00     0.001 A 
ATOM     77  C   UNL     1       2.182  -7.149   7.431  1.00  0.00     0.000 A 
ENDBRANCH  53  72
BRANCH  65  78
ATOM     78  C   UNL     1       9.186 -12.007   4.249  1.00  0.00    -0.014 A 
ATOM     79  C   UNL     1       8.424 -13.183   4.327  1.00  0.00     0.009 A 
ATOM     80  C   UNL     1      10.442 -11.969   4.877  1.00  0.00     0.009 A 
ATOM     81  C   UNL     1       8.893 -14.281   5.050  1.00  0.00     0.001 A 
ATOM     82  C   UNL     1      10.924 -13.080   5.568  1.00  0.00     0.001 A 
ATOM     83  C   UNL     1      10.144 -14.231   5.664  1.00  0.00     0.000 A 
ENDBRANCH  65  78
ENDBRANCH  39  40
ENDBRANCH  32  34
ENDBRANCH  31  32
ENDBRANCH  30  31
ENDBRANCH  29  30
ENDBRANCH  28  29
ENDBRANCH  27  28
ENDBRANCH  26  27
ENDBRANCH  25  26
ENDBRANCH  24  25
ENDBRANCH   1  24
TORSDOF 25
