REMARK SMILES O=C(COc1ccccc1/C=N/NC(=O)C1CC1)NCCCCCCNC(=O)c1ccc(-c2c3nc(c(-c4ccc(S(=O)(=O)[O-])cc4)c4ccc([nH]4)c(-c4ccc(S(=O)(=O)[O-])cc4)c4nc(c(-c5ccc(S(=O)(=O)[O-])cc5)c5ccc2[nH]5)C=C4)C=C3)cc1
REMARK SMILES IDX 21 1 20 2 19 3 1 4 2 5 3 7 4 8 5 9 6 10 10 11 7 12 9 13 8 14
REMARK SMILES IDX 11 15 12 16 13 17 14 18 15 20 16 21 17 22 18 23 22 24 23 25
REMARK SMILES IDX 24 26 25 27 26 28 27 29 28 31 29 32 30 33 88 34 31 35 87 36
REMARK SMILES IDX 32 37 33 38 34 39 81 40 35 41 86 42 80 43 82 44 36 45 85 46
REMARK SMILES IDX 79 47 78 48 37 50 67 51 48 52 66 53 49 54 52 55 65 56 83 57
REMARK SMILES IDX 50 58 51 59 64 61 84 62 53 63 38 64 39 65 47 66 40 67 46 68
REMARK SMILES IDX 41 69 42 70 43 71 44 72 45 73 68 74 69 75 77 76 70 77 76 78
REMARK SMILES IDX 71 79 72 80 73 81 74 82 75 83 54 84 55 85 63 86 56 87 62 88
REMARK SMILES IDX 57 89 58 90 59 91 60 92 61 93
REMARK H PARENT 19 6 13 19 26 30 82 49 52 60
REMARK Flexibility Score: inf
ROOT
ATOM      1  C   UNL     1       3.927   2.992  -1.351  1.00  0.00     0.021 C 
ENDROOT
BRANCH   1   2
ATOM      2  C   UNL     1       3.593   1.541  -1.622  1.00  0.00     0.116 C 
BRANCH   2   3
ATOM      3  N   UNL     1       4.448   0.571  -0.984  1.00  0.00    -0.353 N 
ATOM      4  O   UNL     1       3.787   0.587   1.241  1.00  0.00    -0.271 OA
ATOM      5  C   UNL     1       4.116  -0.022   0.229  1.00  0.00     0.257 C 
ATOM      6  H   UNL     1       5.294   0.322  -1.421  1.00  0.00     0.163 HD
BRANCH   5   7
ATOM      7  C   UNL     1       4.231  -1.540   0.182  1.00  0.00     0.329 C 
BRANCH   7   8
ATOM      8  O   UNL     1       4.067  -1.901  -1.194  1.00  0.00    -0.483 OA
BRANCH   8   9
ATOM      9  C   UNL     1       3.075  -2.806  -1.433  1.00  0.00     0.128 A 
ATOM     10  C   UNL     1       3.484  -4.144  -1.496  1.00  0.00     0.047 A 
ATOM     11  C   UNL     1       1.814  -2.441  -1.919  1.00  0.00     0.037 A 
ATOM     12  C   UNL     1       2.662  -5.107  -2.080  1.00  0.00     0.004 A 
ATOM     13  C   UNL     1       1.013  -3.410  -2.541  1.00  0.00     0.013 A 
ATOM     14  C   UNL     1       1.438  -4.735  -2.627  1.00  0.00     0.001 A 
BRANCH  11  15
ATOM     15  C   UNL     1       1.198  -1.099  -1.895  1.00  0.00     0.145 C 
ATOM     16  N   UNL     1       0.995  -0.398  -0.819  1.00  0.00    -0.181 NA
BRANCH  16  17
ATOM     17  N   UNL     1       0.140   0.668  -1.031  1.00  0.00    -0.247 N 
ATOM     18  C   UNL     1      -0.031   1.753  -0.190  1.00  0.00     0.243 C 
ATOM     19  H   UNL     1      -0.396   0.654  -1.856  1.00  0.00     0.193 HD
ATOM     20  O   UNL     1      -0.919   2.575  -0.403  1.00  0.00    -0.273 OA
BRANCH  18  21
ATOM     21  C   UNL     1       0.930   1.942   0.920  1.00  0.00     0.080 C 
ATOM     22  C   UNL     1       0.824   3.103   1.883  1.00  0.00     0.014 C 
ATOM     23  C   UNL     1       0.546   1.704   2.353  1.00  0.00     0.014 C 
ENDBRANCH  18  21
ENDBRANCH  16  17
ENDBRANCH  11  15
ENDBRANCH   8   9
ENDBRANCH   7   8
ENDBRANCH   5   7
ENDBRANCH   2   3
ENDBRANCH   1   2
BRANCH   1  24
ATOM     24  C   UNL     1       5.294   3.396  -1.891  1.00  0.00     0.002 C 
BRANCH  24  25
ATOM     25  C   UNL     1       5.482   3.175  -3.397  1.00  0.00     0.002 C 
BRANCH  25  26
ATOM     26  C   UNL     1       4.496   3.924  -4.300  1.00  0.00     0.021 C 
BRANCH  26  27
ATOM     27  C   UNL     1       4.410   5.426  -4.042  1.00  0.00     0.116 C 
BRANCH  27  28
ATOM     28  N   UNL     1       5.724   6.054  -4.072  1.00  0.00    -0.352 N 
ATOM     29  C   UNL     1       6.218   7.014  -4.915  1.00  0.00     0.251 C 
ATOM     30  H   UNL     1       6.352   5.740  -3.383  1.00  0.00     0.163 HD
ATOM     31  O   UNL     1       7.423   7.243  -4.950  1.00  0.00    -0.269 OA
BRANCH  29  32
ATOM     32  C   UNL     1       5.293   7.766  -5.784  1.00  0.00     0.039 A 
ATOM     33  C   UNL     1       5.622   7.948  -7.129  1.00  0.00     0.014 A 
ATOM     34  C   UNL     1       4.110   8.299  -5.264  1.00  0.00     0.014 A 
ATOM     35  C   UNL     1       4.732   8.616  -7.970  1.00  0.00     0.010 A 
ATOM     36  C   UNL     1       3.196   8.909  -6.117  1.00  0.00     0.010 A 
ATOM     37  C   UNL     1       3.498   9.072  -7.477  1.00  0.00    -0.014 A 
BRANCH  37  38
ATOM     38  C   UNL     1       2.498   9.701  -8.373  1.00  0.00     0.031 A 
ATOM     39  C   UNL     1       2.112  11.141  -8.184  1.00  0.00     0.074 A 
ATOM     40  C   UNL     1       1.879   8.947  -9.302  1.00  0.00     0.049 A 
ATOM     41  N   UNL     1       1.208  11.841  -8.820  1.00  0.00    -0.248 NA
ATOM     42  C   UNL     1       2.816  11.883  -7.127  1.00  0.00     0.031 C 
ATOM     43  C   UNL     1       2.134   7.525  -9.543  1.00  0.00     0.029 A 
ATOM     44  N   UNL     1       0.896   9.267 -10.203  1.00  0.00    -0.354 N 
ATOM     45  C   UNL     1       1.226  13.101  -8.235  1.00  0.00     0.074 A 
ATOM     46  C   UNL     1       2.194  13.053  -7.160  1.00  0.00     0.031 C 
ATOM     47  C   UNL     1       1.333   7.098 -10.531  1.00  0.00     0.029 A 
ATOM     48  C   UNL     1       0.485   8.202 -10.968  1.00  0.00     0.049 A 
ATOM     49  H   UNL     1       0.521  10.173 -10.294  1.00  0.00     0.167 HD
ATOM     50  C   UNL     1       0.513  14.203  -8.572  1.00  0.00     0.031 A 
ATOM     51  C   UNL     1      -0.480   8.116 -11.904  1.00  0.00     0.031 A 
ATOM     52  C   UNL     1      -0.456  14.239  -9.635  1.00  0.00     0.049 A 
ATOM     53  C   UNL     1      -1.268   9.345 -12.257  1.00  0.00     0.074 A 
ATOM     54  C   UNL     1      -1.194  15.316 -10.092  1.00  0.00     0.029 A 
ATOM     55  N   UNL     1      -0.831  13.144 -10.402  1.00  0.00    -0.354 N 
ATOM     56  N   UNL     1      -1.184  10.550 -11.745  1.00  0.00    -0.248 NA
ATOM     57  C   UNL     1      -2.274   9.207 -13.318  1.00  0.00     0.031 C 
ATOM     58  C   UNL     1      -2.053  14.862 -11.100  1.00  0.00     0.029 A 
ATOM     59  C   UNL     1      -1.810  13.513 -11.310  1.00  0.00     0.049 A 
ATOM     60  H   UNL     1      -0.456  12.238 -10.313  1.00  0.00     0.167 HD
ATOM     61  C   UNL     1      -2.117  11.319 -12.430  1.00  0.00     0.074 A 
ATOM     62  C   UNL     1      -2.740  10.447 -13.406  1.00  0.00     0.031 C 
ATOM     63  C   UNL     1      -2.430  12.628 -12.264  1.00  0.00     0.031 A 
BRANCH  50  64
ATOM     64  C   UNL     1       0.754  15.452  -7.765  1.00  0.00    -0.014 A 
ATOM     65  C   UNL     1       1.976  16.145  -7.849  1.00  0.00     0.010 A 
ATOM     66  C   UNL     1      -0.251  15.942  -6.912  1.00  0.00     0.010 A 
ATOM     67  C   UNL     1       2.211  17.268  -7.052  1.00  0.00     0.020 A 
ATOM     68  C   UNL     1      -0.031  17.084  -6.135  1.00  0.00     0.020 A 
ATOM     69  C   UNL     1       1.208  17.725  -6.192  1.00  0.00     0.054 A 
BRANCH  69  70
ATOM     70  S   UNL     1       1.544  19.177  -5.159  1.00  0.00     0.124 S 
ATOM     71  O   UNL     1       2.434  18.623  -4.142  1.00  0.00    -0.237 OA
ATOM     72  O   UNL     1       2.167  20.105  -6.099  1.00  0.00    -0.237 OA
ATOM     73  O   UNL     1       0.223  19.575  -4.680  1.00  0.00    -0.744 OA
ENDBRANCH  69  70
ENDBRANCH  50  64
BRANCH  51  74
ATOM     74  C   UNL     1      -0.739   6.810 -12.566  1.00  0.00    -0.014 A 
ATOM     75  C   UNL     1      -0.336   6.586 -13.894  1.00  0.00     0.010 A 
ATOM     76  C   UNL     1      -1.339   5.759 -11.846  1.00  0.00     0.010 A 
ATOM     77  C   UNL     1      -0.526   5.335 -14.489  1.00  0.00     0.020 A 
ATOM     78  C   UNL     1      -1.508   4.501 -12.430  1.00  0.00     0.020 A 
ATOM     79  C   UNL     1      -1.103   4.298 -13.750  1.00  0.00     0.054 A 
BRANCH  79  80
ATOM     80  S   UNL     1      -1.256   2.658 -14.512  1.00  0.00     0.124 S 
ATOM     81  O   UNL     1      -2.369   2.854 -15.436  1.00  0.00    -0.237 OA
ATOM     82  O   UNL     1       0.055   2.473 -15.129  1.00  0.00    -0.237 OA
ATOM     83  O   UNL     1      -1.530   1.778 -13.378  1.00  0.00    -0.744 OA
ENDBRANCH  79  80
ENDBRANCH  51  74
BRANCH  63  84
ATOM     84  C   UNL     1      -3.491  13.203 -13.164  1.00  0.00    -0.014 A 
ATOM     85  C   UNL     1      -4.848  12.884 -12.979  1.00  0.00     0.010 A 
ATOM     86  C   UNL     1      -3.132  14.121 -14.167  1.00  0.00     0.010 A 
ATOM     87  C   UNL     1      -5.825  13.456 -13.798  1.00  0.00     0.020 A 
ATOM     88  C   UNL     1      -4.109  14.715 -14.970  1.00  0.00     0.020 A 
ATOM     89  C   UNL     1      -5.449  14.370 -14.788  1.00  0.00     0.054 A 
BRANCH  89  90
ATOM     90  S   UNL     1      -6.742  15.139 -15.802  1.00  0.00     0.124 S 
ATOM     91  O   UNL     1      -7.128  14.043 -16.685  1.00  0.00    -0.237 OA
ATOM     92  O   UNL     1      -7.740  15.528 -14.809  1.00  0.00    -0.237 OA
ATOM     93  O   UNL     1      -6.054  16.252 -16.453  1.00  0.00    -0.744 OA
ENDBRANCH  89  90
ENDBRANCH  63  84
ENDBRANCH  37  38
ENDBRANCH  29  32
ENDBRANCH  27  28
ENDBRANCH  26  27
ENDBRANCH  25  26
ENDBRANCH  24  25
ENDBRANCH   1  24
TORSDOF 21
