REMARK SMILES COc1cc(CC(=O)N[C@@H](CC(=O)NCCCCCCNC(=O)c2ccc(-c3c4nc(c(-c5ccc(S(=O)(=O)[O-])cc5)c5ccc([nH]5)c(-c5ccc(S(=O)(=O)[O-])cc5)c5nc(c(-c6ccc(S(=O)(=O)[O-])cc6)c6ccc3[nH]6)C=C5)C=C4)cc2)c2cccs2)ccc1C
REMARK SMILES IDX 16 1 15 2 14 3 12 4 13 5 11 7 10 8 9 9 7 10 8 11 6 13 5 14
REMARK SMILES IDX 3 15 4 16 91 17 90 18 92 19 89 20 2 21 1 22 84 23 85 24
REMARK SMILES IDX 88 25 86 26 87 27 17 28 18 29 19 30 20 31 21 32 22 33 23 35
REMARK SMILES IDX 24 36 25 37 83 38 26 39 82 40 27 41 28 42 29 43 76 44 30 45
REMARK SMILES IDX 81 46 75 47 77 48 31 49 80 50 74 51 73 52 32 54 62 55 43 56
REMARK SMILES IDX 61 57 44 58 47 59 60 60 78 61 45 62 46 63 59 65 79 66 48 67
REMARK SMILES IDX 33 68 34 69 42 70 35 71 41 72 36 73 37 74 38 75 39 76 40 77
REMARK SMILES IDX 63 78 64 79 72 80 65 81 71 82 66 83 67 84 68 85 69 86 70 87
REMARK SMILES IDX 49 88 50 89 58 90 51 91 57 92 52 93 53 94 54 95 55 96 56 97
REMARK H PARENT 14 6 9 12 21 34 77 53 47 64
REMARK Flexibility Score: inf
ROOT
ATOM      1  C   UNL     1       5.370   4.114   6.938  1.00  0.00     0.021 C 
ENDROOT
BRANCH   1   2
ATOM      2  C   UNL     1       3.930   4.246   6.438  1.00  0.00     0.116 C 
BRANCH   2   3
ATOM      3  N   UNL     1       3.813   5.210   5.362  1.00  0.00    -0.356 N 
ATOM      4  C   UNL     1       3.391   5.045   4.082  1.00  0.00     0.222 C 
ATOM      5  O   UNL     1       3.188   6.062   3.412  1.00  0.00    -0.275 OA
ATOM      6  H   UNL     1       4.081   6.128   5.596  1.00  0.00     0.163 HD
BRANCH   4   7
ATOM      7  C   UNL     1       3.121   3.675   3.488  1.00  0.00     0.130 C 
BRANCH   7   8
ATOM      8  C   UNL     1       4.303   2.765   3.116  1.00  0.00     0.131 C 
BRANCH   8   9
ATOM      9  N   UNL     1       4.896   2.111   4.275  1.00  0.00    -0.348 N 
ATOM     10  C   UNL     1       4.583   0.929   4.880  1.00  0.00     0.224 C 
ATOM     11  O   UNL     1       5.036   0.715   6.007  1.00  0.00    -0.275 OA
ATOM     12  H   UNL     1       5.643   2.601   4.689  1.00  0.00     0.164 HD
BRANCH  10  13
ATOM     13  C   UNL     1       3.770  -0.129   4.159  1.00  0.00     0.135 C 
BRANCH  13  14
ATOM     14  C   UNL     1       2.328   0.219   3.885  1.00  0.00    -0.035 A 
ATOM     15  C   UNL     1       0.538   0.579   2.260  1.00  0.00     0.122 A 
ATOM     16  C   UNL     1       1.851   0.208   2.563  1.00  0.00     0.051 A 
ATOM     17  C   UNL     1      -0.325   0.960   3.299  1.00  0.00    -0.009 A 
ATOM     18  C   UNL     1       0.134   0.913   4.627  1.00  0.00     0.007 A 
ATOM     19  C   UNL     1      -1.745   1.385   3.048  1.00  0.00     0.048 C 
ATOM     20  C   UNL     1       1.448   0.543   4.919  1.00  0.00     0.005 A 
BRANCH  15  21
ATOM     21  O   UNL     1       0.031   0.633   0.988  1.00  0.00    -0.496 OA
ATOM     22  C   UNL     1       0.764  -0.044  -0.027  1.00  0.00     0.278 C 
ENDBRANCH  15  21
ENDBRANCH  13  14
ENDBRANCH  10  13
ENDBRANCH   8   9
BRANCH   8  23
ATOM     23  C   UNL     1       5.426   3.365   2.296  1.00  0.00     0.027 A 
ATOM     24  C   UNL     1       5.804   4.673   2.053  1.00  0.00     0.017 A 
ATOM     25  S   UNL     1       6.492   2.277   1.469  1.00  0.00    -0.147 S 
ATOM     26  C   UNL     1       6.972   4.779   1.242  1.00  0.00     0.012 A 
ATOM     27  C   UNL     1       7.458   3.549   0.874  1.00  0.00     0.065 A 
ENDBRANCH   8  23
ENDBRANCH   7   8
ENDBRANCH   4   7
ENDBRANCH   2   3
ENDBRANCH   1   2
BRANCH   1  28
ATOM     28  C   UNL     1       5.842   5.204   7.906  1.00  0.00     0.002 C 
BRANCH  28  29
ATOM     29  C   UNL     1       4.971   5.447   9.147  1.00  0.00     0.002 C 
BRANCH  29  30
ATOM     30  C   UNL     1       4.491   4.200   9.891  1.00  0.00     0.021 C 
BRANCH  30  31
ATOM     31  C   UNL     1       5.611   3.388  10.530  1.00  0.00     0.116 C 
BRANCH  31  32
ATOM     32  N   UNL     1       5.589   3.448  11.985  1.00  0.00    -0.352 N 
ATOM     33  C   UNL     1       6.302   2.661  12.873  1.00  0.00     0.251 C 
ATOM     34  H   UNL     1       4.999   4.128  12.383  1.00  0.00     0.163 HD
ATOM     35  O   UNL     1       6.063   2.616  14.063  1.00  0.00    -0.269 OA
BRANCH  33  36
ATOM     36  C   UNL     1       7.482   1.966  12.320  1.00  0.00     0.039 A 
ATOM     37  C   UNL     1       8.736   2.488  12.655  1.00  0.00     0.014 A 
ATOM     38  C   UNL     1       7.331   1.033  11.297  1.00  0.00     0.014 A 
ATOM     39  C   UNL     1       9.832   2.187  11.854  1.00  0.00     0.010 A 
ATOM     40  C   UNL     1       8.401   0.803  10.454  1.00  0.00     0.010 A 
ATOM     41  C   UNL     1       9.636   1.414  10.707  1.00  0.00    -0.014 A 
BRANCH  41  42
ATOM     42  C   UNL     1      10.656   1.266   9.677  1.00  0.00     0.031 A 
ATOM     43  C   UNL     1      11.484   0.042   9.633  1.00  0.00     0.074 A 
ATOM     44  C   UNL     1      10.857   2.244   8.766  1.00  0.00     0.049 A 
ATOM     45  N   UNL     1      12.707   0.005   9.218  1.00  0.00    -0.248 NA
ATOM     46  C   UNL     1      10.999  -1.243  10.123  1.00  0.00     0.031 C 
ATOM     47  C   UNL     1      11.682   2.161   7.564  1.00  0.00     0.029 A 
ATOM     48  N   UNL     1      10.535   3.599   8.865  1.00  0.00    -0.354 N 
ATOM     49  C   UNL     1      13.063  -1.322   9.112  1.00  0.00     0.074 A 
ATOM     50  C   UNL     1      12.006  -2.050   9.777  1.00  0.00     0.031 C 
ATOM     51  C   UNL     1      12.055   3.403   7.218  1.00  0.00     0.029 A 
ATOM     52  C   UNL     1      11.586   4.303   8.260  1.00  0.00     0.049 A 
ATOM     53  H   UNL     1       9.728   3.984   9.277  1.00  0.00     0.167 HD
ATOM     54  C   UNL     1      14.126  -1.684   8.339  1.00  0.00     0.031 A 
ATOM     55  C   UNL     1      12.343   5.247   8.889  1.00  0.00     0.031 A 
ATOM     56  C   UNL     1      14.786  -0.523   7.748  1.00  0.00     0.049 A 
ATOM     57  C   UNL     1      13.821   4.928   8.857  1.00  0.00     0.074 A 
ATOM     58  C   UNL     1      14.700   0.054   6.491  1.00  0.00     0.029 A 
ATOM     59  N   UNL     1      15.456   0.386   8.557  1.00  0.00    -0.354 N 
ATOM     60  N   UNL     1      14.304   3.745   8.597  1.00  0.00    -0.248 NA
ATOM     61  C   UNL     1      14.867   5.900   9.165  1.00  0.00     0.031 C 
ATOM     62  C   UNL     1      15.271   1.348   6.563  1.00  0.00     0.029 A 
ATOM     63  C   UNL     1      15.727   1.545   7.854  1.00  0.00     0.049 A 
ATOM     64  H   UNL     1      15.702   0.228   9.497  1.00  0.00     0.167 HD
ATOM     65  C   UNL     1      15.671   3.772   8.697  1.00  0.00     0.074 A 
ATOM     66  C   UNL     1      15.977   5.147   9.047  1.00  0.00     0.031 C 
ATOM     67  C   UNL     1      16.428   2.655   8.486  1.00  0.00     0.031 A 
BRANCH  54  68
ATOM     68  C   UNL     1      14.358  -3.101   7.853  1.00  0.00    -0.014 A 
ATOM     69  C   UNL     1      15.006  -3.313   6.617  1.00  0.00     0.010 A 
ATOM     70  C   UNL     1      13.915  -4.257   8.523  1.00  0.00     0.010 A 
ATOM     71  C   UNL     1      15.092  -4.582   6.026  1.00  0.00     0.020 A 
ATOM     72  C   UNL     1      13.958  -5.529   7.928  1.00  0.00     0.020 A 
ATOM     73  C   UNL     1      14.532  -5.680   6.671  1.00  0.00     0.054 A 
BRANCH  73  74
ATOM     74  S   UNL     1      14.555  -7.293   5.845  1.00  0.00     0.124 S 
ATOM     75  O   UNL     1      13.883  -7.008   4.579  1.00  0.00    -0.237 OA
ATOM     76  O   UNL     1      15.983  -7.577   5.751  1.00  0.00    -0.237 OA
ATOM     77  O   UNL     1      13.807  -8.159   6.755  1.00  0.00    -0.744 OA
ENDBRANCH  73  74
ENDBRANCH  54  68
BRANCH  55  78
ATOM     78  C   UNL     1      11.660   5.952  10.007  1.00  0.00    -0.014 A 
ATOM     79  C   UNL     1      10.611   6.841   9.687  1.00  0.00     0.010 A 
ATOM     80  C   UNL     1      11.765   5.470  11.322  1.00  0.00     0.010 A 
ATOM     81  C   UNL     1       9.611   7.128  10.620  1.00  0.00     0.020 A 
ATOM     82  C   UNL     1      10.763   5.759  12.260  1.00  0.00     0.020 A 
ATOM     83  C   UNL     1       9.668   6.542  11.885  1.00  0.00     0.054 A 
BRANCH  83  84
ATOM     84  S   UNL     1       8.212   6.688  12.966  1.00  0.00     0.124 S 
ATOM     85  O   UNL     1       8.154   8.125  13.213  1.00  0.00    -0.237 OA
ATOM     86  O   UNL     1       7.144   6.152  12.123  1.00  0.00    -0.237 OA
ATOM     87  O   UNL     1       8.566   5.863  14.116  1.00  0.00    -0.744 OA
ENDBRANCH  83  84
ENDBRANCH  55  78
BRANCH  67  88
ATOM     88  C   UNL     1      17.910   2.505   8.746  1.00  0.00    -0.014 A 
ATOM     89  C   UNL     1      18.659   3.335   9.594  1.00  0.00     0.010 A 
ATOM     90  C   UNL     1      18.586   1.387   8.194  1.00  0.00     0.010 A 
ATOM     91  C   UNL     1      20.023   3.099   9.831  1.00  0.00     0.020 A 
ATOM     92  C   UNL     1      19.931   1.116   8.458  1.00  0.00     0.020 A 
ATOM     93  C   UNL     1      20.651   1.992   9.259  1.00  0.00     0.054 A 
BRANCH  93  94
ATOM     94  S   UNL     1      22.393   1.659   9.624  1.00  0.00     0.124 S 
ATOM     95  O   UNL     1      23.072   2.461   8.610  1.00  0.00    -0.237 OA
ATOM     96  O   UNL     1      22.537   2.134  10.998  1.00  0.00    -0.237 OA
ATOM     97  O   UNL     1      22.507   0.212   9.460  1.00  0.00    -0.744 OA
ENDBRANCH  93  94
ENDBRANCH  67  88
ENDBRANCH  41  42
ENDBRANCH  33  36
ENDBRANCH  31  32
ENDBRANCH  30  31
ENDBRANCH  29  30
ENDBRANCH  28  29
ENDBRANCH   1  28
TORSDOF 22
