REMARK SMILES O=C(CCc1cn(-c2ccc(Br)cc2)nc1-c1ccccc1)NCCCCCCNC(=O)c1ccc(-c2c3nc(c(-c4ccc(S(=O)(=O)[O-])cc4)c4ccc([nH]4)c(-c4ccc(S(=O)(=O)[O-])cc4)c4nc(c(-c5ccc(S(=O)(=O)[O-])cc5)c5ccc2[nH]5)C=C4)C=C3)cc1
REMARK SMILES IDX 26 1 25 2 24 3 23 4 1 5 2 6 3 8 4 9 5 10 6 11 16 12 7 13
REMARK SMILES IDX 15 14 17 15 18 16 22 17 19 18 21 19 20 20 8 21 9 22 14 23
REMARK SMILES IDX 10 24 13 25 11 26 12 27 27 28 28 29 29 30 30 31 31 32 32 34
REMARK SMILES IDX 33 35 34 36 92 37 35 38 91 39 36 40 37 41 38 42 85 43 39 44
REMARK SMILES IDX 90 45 84 46 86 47 40 48 89 49 83 50 82 51 41 53 71 54 52 55
REMARK SMILES IDX 70 56 53 57 56 58 69 59 87 60 54 61 55 62 68 64 88 65 57 66
REMARK SMILES IDX 42 67 43 68 51 69 44 70 50 71 45 72 46 73 47 74 48 75 49 76
REMARK SMILES IDX 72 77 73 78 81 79 74 80 80 81 75 82 76 83 77 84 78 85 79 86
REMARK SMILES IDX 58 87 59 88 67 89 60 90 66 91 61 92 62 93 63 94 64 95 65 96
REMARK H PARENT 23 7 30 33 86 52 56 63
REMARK Flexibility Score: inf
ROOT
ATOM      1  C   UNL     1       4.795  -3.967   0.164  1.00  0.00     0.002 C 
ENDROOT
BRANCH   1   2
ATOM      2  C   UNL     1       3.407  -3.722  -0.456  1.00  0.00     0.021 C 
BRANCH   2   3
ATOM      3  C   UNL     1       2.235  -2.642   0.172  1.00  0.00     0.116 C 
BRANCH   3   4
ATOM      4  N   UNL     1       2.025  -0.564   0.187  1.00  0.00    -0.356 N 
ATOM      5  O   UNL     1       0.909   1.030  -1.139  1.00  0.00    -0.275 OA
ATOM      6  C   UNL     1       1.926   0.657  -0.552  1.00  0.00     0.220 C 
ATOM      7  H   UNL     1       1.968  -0.308   1.136  1.00  0.00     0.163 HD
BRANCH   6   8
ATOM      8  C   UNL     1       3.129   1.623  -0.437  1.00  0.00     0.105 C 
BRANCH   8   9
ATOM      9  C   UNL     1       3.829   1.816   0.919  1.00  0.00     0.049 C 
BRANCH   9  10
ATOM     10  C   UNL     1       4.979   0.885   1.188  1.00  0.00    -0.001 A 
ATOM     11  C   UNL     1       6.215   1.128   1.760  1.00  0.00     0.119 A 
ATOM     12  C   UNL     1       4.995  -0.511   0.969  1.00  0.00     0.096 A 
ATOM     13  N   UNL     1       6.905  -0.069   1.755  1.00  0.00    -0.240 N 
ATOM     14  N   UNL     1       6.195  -1.046   1.159  1.00  0.00    -0.168 NA
BRANCH  12  15
ATOM     15  C   UNL     1       3.827  -1.283   0.630  1.00  0.00     0.002 A 
ATOM     16  C   UNL     1       2.588  -1.463   1.947  1.00  0.00     0.010 A 
ATOM     17  C   UNL     1       3.349  -1.356  -1.123  1.00  0.00     0.010 A 
ATOM     18  C   UNL     1       0.834  -1.666   1.492  1.00  0.00     0.001 A 
ATOM     19  C   UNL     1       1.603  -1.587  -1.558  1.00  0.00     0.001 A 
ATOM     20  C   UNL     1       0.343  -1.673  -0.246  1.00  0.00     0.000 A 
ENDBRANCH  12  15
BRANCH  13  21
ATOM     21  C   UNL     1       8.144  -0.394   2.357  1.00  0.00     0.065 A 
ATOM     22  C   UNL     1       8.552   0.229   3.541  1.00  0.00     0.029 A 
ATOM     23  C   UNL     1       8.914  -1.429   1.802  1.00  0.00     0.029 A 
ATOM     24  C   UNL     1       9.715  -0.213   4.181  1.00  0.00     0.018 A 
ATOM     25  C   UNL     1      10.099  -1.831   2.418  1.00  0.00     0.018 A 
ATOM     26  C   UNL     1      10.485  -1.231   3.614  1.00  0.00     0.018 A 
ATOM     27  Br  UNL     1      12.055  -1.820   4.488  1.00  0.00    -0.051 Br
ENDBRANCH  13  21
ENDBRANCH   9  10
ENDBRANCH   8   9
ENDBRANCH   6   8
ENDBRANCH   3   4
ENDBRANCH   2   3
ENDBRANCH   1   2
BRANCH   1  28
ATOM     28  C   UNL     1       4.984  -4.064   1.687  1.00  0.00     0.002 C 
BRANCH  28  29
ATOM     29  C   UNL     1       4.125  -5.035   2.495  1.00  0.00     0.021 C 
BRANCH  29  30
ATOM     30  C   UNL     1       4.303  -6.500   2.146  1.00  0.00     0.116 C 
BRANCH  30  31
ATOM     31  N   UNL     1       5.683  -6.967   2.296  1.00  0.00    -0.352 N 
ATOM     32  C   UNL     1       6.246  -8.136   1.816  1.00  0.00     0.251 C 
ATOM     33  H   UNL     1       6.286  -6.375   2.802  1.00  0.00     0.163 HD
ATOM     34  O   UNL     1       7.290  -8.579   2.280  1.00  0.00    -0.269 OA
BRANCH  32  35
ATOM     35  C   UNL     1       5.548  -8.835   0.726  1.00  0.00     0.039 A 
ATOM     36  C   UNL     1       5.312 -10.210   0.755  1.00  0.00     0.014 A 
ATOM     37  C   UNL     1       5.036  -8.043  -0.292  1.00  0.00     0.014 A 
ATOM     38  C   UNL     1       4.463 -10.760  -0.204  1.00  0.00     0.010 A 
ATOM     39  C   UNL     1       4.052  -8.544  -1.099  1.00  0.00     0.010 A 
ATOM     40  C   UNL     1       3.813  -9.913  -1.114  1.00  0.00    -0.014 A 
BRANCH  40  41
ATOM     41  C   UNL     1       2.830 -10.422  -2.062  1.00  0.00     0.031 A 
ATOM     42  C   UNL     1       1.700 -11.197  -1.481  1.00  0.00     0.074 A 
ATOM     43  C   UNL     1       2.799 -10.022  -3.351  1.00  0.00     0.049 A 
ATOM     44  N   UNL     1       1.457 -12.458  -1.614  1.00  0.00    -0.248 NA
ATOM     45  C   UNL     1       0.784 -10.510  -0.555  1.00  0.00     0.031 C 
ATOM     46  C   UNL     1       3.616  -8.995  -4.015  1.00  0.00     0.029 A 
ATOM     47  N   UNL     1       1.905 -10.354  -4.316  1.00  0.00    -0.354 N 
ATOM     48  C   UNL     1       0.246 -12.692  -0.967  1.00  0.00     0.074 A 
ATOM     49  C   UNL     1      -0.024 -11.508  -0.189  1.00  0.00     0.031 C 
ATOM     50  C   UNL     1       3.005  -8.601  -5.152  1.00  0.00     0.029 A 
ATOM     51  C   UNL     1       1.877  -9.479  -5.392  1.00  0.00     0.049 A 
ATOM     52  H   UNL     1       1.326 -11.148  -4.257  1.00  0.00     0.167 HD
ATOM     53  C   UNL     1      -0.556 -13.745  -1.298  1.00  0.00     0.031 A 
ATOM     54  C   UNL     1       0.956  -9.448  -6.385  1.00  0.00     0.031 A 
ATOM     55  C   UNL     1       0.122 -14.686  -2.154  1.00  0.00     0.049 A 
ATOM     56  C   UNL     1       0.320 -10.790  -6.418  1.00  0.00     0.074 A 
ATOM     57  C   UNL     1       1.280 -15.432  -2.049  1.00  0.00     0.029 A 
ATOM     58  N   UNL     1      -0.174 -14.643  -3.499  1.00  0.00    -0.354 N 
ATOM     59  N   UNL     1       0.973 -11.884  -6.706  1.00  0.00    -0.248 NA
ATOM     60  C   UNL     1      -0.911 -10.985  -5.667  1.00  0.00     0.031 C 
ATOM     61  C   UNL     1       1.884 -15.343  -3.338  1.00  0.00     0.029 A 
ATOM     62  C   UNL     1       1.023 -14.621  -4.169  1.00  0.00     0.049 A 
ATOM     63  H   UNL     1      -1.072 -14.630  -3.902  1.00  0.00     0.167 HD
ATOM     64  C   UNL     1       0.487 -12.838  -5.822  1.00  0.00     0.074 A 
ATOM     65  C   UNL     1      -0.739 -12.252  -5.277  1.00  0.00     0.031 C 
ATOM     66  C   UNL     1       1.258 -13.885  -5.397  1.00  0.00     0.031 A 
BRANCH  53  67
ATOM     67  C   UNL     1      -2.061 -13.740  -1.171  1.00  0.00    -0.014 A 
ATOM     68  C   UNL     1      -2.776 -14.921  -1.463  1.00  0.00     0.010 A 
ATOM     69  C   UNL     1      -2.813 -12.555  -1.042  1.00  0.00     0.010 A 
ATOM     70  C   UNL     1      -4.159 -14.899  -1.690  1.00  0.00     0.020 A 
ATOM     71  C   UNL     1      -4.198 -12.530  -1.219  1.00  0.00     0.020 A 
ATOM     72  C   UNL     1      -4.857 -13.697  -1.582  1.00  0.00     0.054 A 
BRANCH  72  73
ATOM     73  S   UNL     1      -6.618 -13.652  -1.995  1.00  0.00     0.124 S 
ATOM     74  O   UNL     1      -6.595 -13.912  -3.431  1.00  0.00    -0.237 OA
ATOM     75  O   UNL     1      -7.159 -14.725  -1.165  1.00  0.00    -0.237 OA
ATOM     76  O   UNL     1      -7.026 -12.304  -1.607  1.00  0.00    -0.744 OA
ENDBRANCH  72  73
ENDBRANCH  53  67
BRANCH  54  77
ATOM     77  C   UNL     1       0.387  -8.230  -7.016  1.00  0.00    -0.014 A 
ATOM     78  C   UNL     1      -0.406  -8.310  -8.174  1.00  0.00     0.010 A 
ATOM     79  C   UNL     1       0.414  -6.997  -6.327  1.00  0.00     0.010 A 
ATOM     80  C   UNL     1      -1.185  -7.215  -8.592  1.00  0.00     0.020 A 
ATOM     81  C   UNL     1      -0.349  -5.901  -6.743  1.00  0.00     0.020 A 
ATOM     82  C   UNL     1      -1.165  -6.023  -7.862  1.00  0.00     0.054 A 
BRANCH  82  83
ATOM     83  S   UNL     1      -2.303  -4.677  -8.306  1.00  0.00     0.124 S 
ATOM     84  O   UNL     1      -1.739  -4.195  -9.563  1.00  0.00    -0.237 OA
ATOM     85  O   UNL     1      -3.585  -5.367  -8.410  1.00  0.00    -0.237 OA
ATOM     86  O   UNL     1      -2.193  -3.749  -7.180  1.00  0.00    -0.744 OA
ENDBRANCH  82  83
ENDBRANCH  54  77
BRANCH  66  87
ATOM     87  C   UNL     1       2.583 -14.151  -6.082  1.00  0.00    -0.014 A 
ATOM     88  C   UNL     1       3.645 -13.225  -6.117  1.00  0.00     0.010 A 
ATOM     89  C   UNL     1       2.827 -15.458  -6.542  1.00  0.00     0.010 A 
ATOM     90  C   UNL     1       4.906 -13.593  -6.615  1.00  0.00     0.020 A 
ATOM     91  C   UNL     1       4.085 -15.836  -7.022  1.00  0.00     0.020 A 
ATOM     92  C   UNL     1       5.118 -14.900  -7.063  1.00  0.00     0.054 A 
BRANCH  92  93
ATOM     93  S   UNL     1       6.765 -15.389  -7.652  1.00  0.00     0.124 S 
ATOM     94  O   UNL     1       6.894 -14.635  -8.895  1.00  0.00    -0.237 OA
ATOM     95  O   UNL     1       7.641 -14.962  -6.563  1.00  0.00    -0.237 OA
ATOM     96  O   UNL     1       6.660 -16.838  -7.817  1.00  0.00    -0.744 OA
ENDBRANCH  92  93
ENDBRANCH  66  87
ENDBRANCH  40  41
ENDBRANCH  32  35
ENDBRANCH  30  31
ENDBRANCH  29  30
ENDBRANCH  28  29
ENDBRANCH   1  28
TORSDOF 20
