REMARK SMILES Cc1cc(C)n(CC(=O)N[C@@H]2C(=O)N3C(C(=O)NCCCCCCNC(=O)c4ccc(-c5c6nc(c(-c7ccc(S(=O)(=O)[O-])cc7)c7ccc([nH]7)c(-c7ccc(S(=O)(=O)[O-])cc7)c7nc(c(-c8ccc(S(=O)(=O)[O-])cc8)c8ccc5[nH]8)C=C7)C=C6)cc4)=C(CSc4nnc(C)s4)CS[C@H]23)n1
REMARK SMILES IDX 21 1 20 2 19 3 18 4 16 5 17 6 15 8 11 9 12 10 99 11 13 12
REMARK SMILES IDX 14 13 98 14 97 15 88 16 10 17 8 18 9 19 7 21 6 22 1 23 2 24
REMARK SMILES IDX 3 25 100 26 4 27 5 28 89 29 90 30 91 31 92 32 96 33 93 34
REMARK SMILES IDX 94 35 95 36 22 37 23 38 24 39 25 40 26 41 27 43 28 44 29 45
REMARK SMILES IDX 87 46 30 47 86 48 31 49 32 50 33 51 80 52 34 53 85 54 79 55
REMARK SMILES IDX 81 56 35 57 84 58 78 59 77 60 36 62 66 63 47 64 65 65 48 66
REMARK SMILES IDX 51 67 64 68 82 69 49 70 50 71 63 73 83 74 52 75 37 76 38 77
REMARK SMILES IDX 46 78 39 79 45 80 40 81 41 82 42 83 43 84 44 85 67 86 68 87
REMARK SMILES IDX 76 88 69 89 75 90 70 91 71 92 72 93 73 94 74 95 53 96 54 97
REMARK SMILES IDX 62 98 55 99 61 100 56 101 57 102 58 103 59 104 60 105
REMARK H PARENT 18 7 10 20 25 42 81 61 51 72
REMARK Flexibility Score: inf
ROOT
ATOM      1  C   UNL     1      -8.036   0.457  -4.883  1.00  0.00     0.002 C 
ENDROOT
BRANCH   1   2
ATOM      2  C   UNL     1      -7.006   1.215  -4.060  1.00  0.00     0.021 C 
BRANCH   2   3
ATOM      3  C   UNL     1      -7.347   1.483  -2.597  1.00  0.00     0.116 C 
BRANCH   3   4
ATOM      4  N   UNL     1      -6.492   0.742  -1.703  1.00  0.00    -0.351 N 
ATOM      5  C   UNL     1      -5.610   1.018  -0.724  1.00  0.00     0.268 C 
ATOM      6  O   UNL     1      -5.583   0.104   0.117  1.00  0.00    -0.268 OA
ATOM      7  H   UNL     1      -6.575  -0.228  -1.848  1.00  0.00     0.163 HD
BRANCH   5   8
ATOM      8  C   UNL     1      -4.747   2.269  -0.484  1.00  0.00     0.111 C 
ATOM      9  C   UNL     1      -2.911   2.308   2.492  1.00  0.00     0.205 C 
ATOM     10  C   UNL     1      -3.357   1.219   1.438  1.00  0.00     0.253 C 
ATOM     11  C   UNL     1      -3.491   3.273   1.438  1.00  0.00     0.181 C 
ATOM     12  O   UNL     1      -3.088   0.036   1.266  1.00  0.00    -0.272 OA
ATOM     13  N   UNL     1      -4.060   2.152   0.740  1.00  0.00    -0.290 N 
ATOM     14  S   UNL     1      -2.277   3.927   0.260  1.00  0.00    -0.129 SA
ATOM     15  C   UNL     1      -3.626   4.547  -0.705  1.00  0.00     0.106 C 
ATOM     16  C   UNL     1      -4.562   3.436  -1.200  1.00  0.00    -0.020 C 
BRANCH   9  17
ATOM     17  N   UNL     1      -1.460   2.518   2.793  1.00  0.00    -0.340 N 
ATOM     18  C   UNL     1      -0.856   3.657   3.284  1.00  0.00     0.242 C 
ATOM     19  O   UNL     1       0.378   3.697   3.296  1.00  0.00    -0.273 OA
ATOM     20  H   UNL     1      -0.867   1.752   2.621  1.00  0.00     0.164 HD
BRANCH  18  21
ATOM     21  C   UNL     1      -1.660   4.780   3.916  1.00  0.00     0.244 C 
BRANCH  21  22
ATOM     22  N   UNL     1      -2.303   5.748   3.031  1.00  0.00    -0.260 N 
ATOM     23  C   UNL     1      -5.407   7.055   1.894  1.00  0.00     0.069 C 
ATOM     24  C   UNL     1      -3.981   6.787   2.211  1.00  0.00     0.060 A 
ATOM     25  C   UNL     1      -2.844   7.274   1.540  1.00  0.00     0.048 A 
ATOM     26  N   UNL     1      -3.648   5.915   3.170  1.00  0.00    -0.178 NA
ATOM     27  C   UNL     1      -1.773   6.581   2.072  1.00  0.00     0.036 A 
ATOM     28  C   UNL     1      -0.355   6.588   1.622  1.00  0.00     0.066 C 
ENDBRANCH  21  22
ENDBRANCH  18  21
ENDBRANCH   9  17
BRANCH  16  29
ATOM     29  C   UNL     1      -5.184   4.029  -2.447  1.00  0.00     0.111 C 
BRANCH  29  30
ATOM     30  S   UNL     1      -4.794   3.402  -4.061  1.00  0.00    -0.089 SA
BRANCH  30  31
ATOM     31  C   UNL     1      -3.089   3.298  -4.231  1.00  0.00     0.174 A 
ATOM     32  N   UNL     1      -2.229   4.071  -3.620  1.00  0.00    -0.132 NA
ATOM     33  S   UNL     1      -2.397   2.120  -5.262  1.00  0.00    -0.091 S 
ATOM     34  N   UNL     1      -0.941   3.595  -3.779  1.00  0.00    -0.143 NA
ATOM     35  C   UNL     1      -0.905   2.496  -4.508  1.00  0.00     0.115 A 
ATOM     36  C   UNL     1       0.230   1.552  -4.636  1.00  0.00     0.081 C 
ENDBRANCH  30  31
ENDBRANCH  29  30
ENDBRANCH  16  29
ENDBRANCH   5   8
ENDBRANCH   3   4
ENDBRANCH   2   3
ENDBRANCH   1   2
BRANCH   1  37
ATOM     37  C   UNL     1      -9.419   1.120  -4.936  1.00  0.00     0.002 C 
BRANCH  37  38
ATOM     38  C   UNL     1      -9.473   2.597  -5.365  1.00  0.00     0.021 C 
BRANCH  38  39
ATOM     39  C   UNL     1      -8.948   2.852  -6.767  1.00  0.00     0.116 C 
BRANCH  39  40
ATOM     40  N   UNL     1      -9.673   2.097  -7.794  1.00  0.00    -0.352 N 
ATOM     41  C   UNL     1      -9.539   2.143  -9.171  1.00  0.00     0.251 C 
ATOM     42  H   UNL     1     -10.351   1.468  -7.456  1.00  0.00     0.163 HD
ATOM     43  O   UNL     1     -10.406   1.681  -9.902  1.00  0.00    -0.269 OA
BRANCH  41  44
ATOM     44  C   UNL     1      -8.320   2.748  -9.732  1.00  0.00     0.039 A 
ATOM     45  C   UNL     1      -8.306   3.505 -10.907  1.00  0.00     0.014 A 
ATOM     46  C   UNL     1      -7.154   2.552  -9.008  1.00  0.00     0.014 A 
ATOM     47  C   UNL     1      -7.100   4.081 -11.307  1.00  0.00     0.010 A 
ATOM     48  C   UNL     1      -6.080   3.351  -9.231  1.00  0.00     0.010 A 
ATOM     49  C   UNL     1      -5.990   3.984 -10.455  1.00  0.00    -0.014 A 
BRANCH  49  50
ATOM     50  C   UNL     1      -4.685   4.538 -10.766  1.00  0.00     0.031 A 
ATOM     51  C   UNL     1      -4.670   6.007 -10.944  1.00  0.00     0.074 A 
ATOM     52  C   UNL     1      -3.550   3.817 -10.606  1.00  0.00     0.049 A 
ATOM     53  N   UNL     1      -4.520   6.664 -12.043  1.00  0.00    -0.248 NA
ATOM     54  C   UNL     1      -5.019   6.844  -9.785  1.00  0.00     0.031 C 
ATOM     55  C   UNL     1      -3.379   2.451 -10.077  1.00  0.00     0.029 A 
ATOM     56  N   UNL     1      -2.267   4.219 -10.771  1.00  0.00    -0.354 N 
ATOM     57  C   UNL     1      -4.517   8.005 -11.680  1.00  0.00     0.074 A 
ATOM     58  C   UNL     1      -5.040   8.059 -10.337  1.00  0.00     0.031 C 
ATOM     59  C   UNL     1      -2.083   2.248  -9.741  1.00  0.00     0.029 A 
ATOM     60  C   UNL     1      -1.308   3.376 -10.220  1.00  0.00     0.049 A 
ATOM     61  H   UNL     1      -2.031   5.048 -11.247  1.00  0.00     0.167 HD
ATOM     62  C   UNL     1      -3.836   8.938 -12.403  1.00  0.00     0.031 A 
ATOM     63  C   UNL     1       0.029   3.604 -10.162  1.00  0.00     0.031 A 
ATOM     64  C   UNL     1      -3.401   8.412 -13.674  1.00  0.00     0.049 A 
ATOM     65  C   UNL     1       0.329   4.652 -11.165  1.00  0.00     0.074 A 
ATOM     66  C   UNL     1      -4.042   7.880 -14.776  1.00  0.00     0.029 A 
ATOM     67  N   UNL     1      -2.096   7.979 -13.755  1.00  0.00    -0.354 N 
ATOM     68  N   UNL     1       0.177   4.469 -12.447  1.00  0.00    -0.248 NA
ATOM     69  C   UNL     1       0.314   6.038 -10.725  1.00  0.00     0.031 C 
ATOM     70  C   UNL     1      -3.235   6.770 -15.168  1.00  0.00     0.029 A 
ATOM     71  C   UNL     1      -2.111   6.736 -14.340  1.00  0.00     0.049 A 
ATOM     72  H   UNL     1      -1.300   8.470 -13.450  1.00  0.00     0.167 HD
ATOM     73  C   UNL     1      -0.376   5.653 -12.912  1.00  0.00     0.074 A 
ATOM     74  C   UNL     1      -0.188   6.612 -11.823  1.00  0.00     0.031 C 
ATOM     75  C   UNL     1      -1.184   5.671 -14.014  1.00  0.00     0.031 A 
BRANCH  62  76
ATOM     76  C   UNL     1      -3.220  10.173 -11.798  1.00  0.00    -0.014 A 
ATOM     77  C   UNL     1      -2.645  11.135 -12.650  1.00  0.00     0.010 A 
ATOM     78  C   UNL     1      -2.952  10.296 -10.418  1.00  0.00     0.010 A 
ATOM     79  C   UNL     1      -1.797  12.132 -12.151  1.00  0.00     0.020 A 
ATOM     80  C   UNL     1      -2.146  11.312  -9.905  1.00  0.00     0.020 A 
ATOM     81  C   UNL     1      -1.544  12.204 -10.780  1.00  0.00     0.054 A 
BRANCH  81  82
ATOM     82  S   UNL     1      -0.360  13.422 -10.158  1.00  0.00     0.124 S 
ATOM     83  O   UNL     1       0.890  12.951 -10.744  1.00  0.00    -0.237 OA
ATOM     84  O   UNL     1      -0.888  14.670 -10.703  1.00  0.00    -0.237 OA
ATOM     85  O   UNL     1      -0.464  13.289  -8.707  1.00  0.00    -0.744 OA
ENDBRANCH  81  82
ENDBRANCH  62  76
BRANCH  63  86
ATOM     86  C   UNL     1       0.913   3.373  -8.998  1.00  0.00    -0.014 A 
ATOM     87  C   UNL     1       2.271   3.038  -9.133  1.00  0.00     0.010 A 
ATOM     88  C   UNL     1       0.458   3.789  -7.731  1.00  0.00     0.010 A 
ATOM     89  C   UNL     1       3.139   3.085  -8.025  1.00  0.00     0.020 A 
ATOM     90  C   UNL     1       1.331   3.894  -6.643  1.00  0.00     0.020 A 
ATOM     91  C   UNL     1       2.662   3.517  -6.785  1.00  0.00     0.054 A 
BRANCH  91  92
ATOM     92  S   UNL     1       3.772   3.530  -5.343  1.00  0.00     0.124 S 
ATOM     93  O   UNL     1       4.381   2.204  -5.407  1.00  0.00    -0.237 OA
ATOM     94  O   UNL     1       4.656   4.652  -5.636  1.00  0.00    -0.237 OA
ATOM     95  O   UNL     1       2.866   3.726  -4.214  1.00  0.00    -0.744 OA
ENDBRANCH  91  92
ENDBRANCH  63  86
BRANCH  75  96
ATOM     96  C   UNL     1      -1.283   4.407 -14.843  1.00  0.00    -0.014 A 
ATOM     97  C   UNL     1      -1.818   3.191 -14.366  1.00  0.00     0.010 A 
ATOM     98  C   UNL     1      -0.947   4.495 -16.203  1.00  0.00     0.010 A 
ATOM     99  C   UNL     1      -1.983   2.090 -15.223  1.00  0.00     0.020 A 
ATOM    100  C   UNL     1      -1.122   3.409 -17.064  1.00  0.00     0.020 A 
ATOM    101  C   UNL     1      -1.630   2.208 -16.570  1.00  0.00     0.054 A 
BRANCH 101 102
ATOM    102  S   UNL     1      -1.868   0.795 -17.687  1.00  0.00     0.124 S 
ATOM    103  O   UNL     1      -0.884  -0.167 -17.198  1.00  0.00    -0.237 OA
ATOM    104  O   UNL     1      -3.266   0.435 -17.463  1.00  0.00    -0.237 OA
ATOM    105  O   UNL     1      -1.585   1.348 -19.012  1.00  0.00    -0.744 OA
ENDBRANCH 101 102
ENDBRANCH  75  96
ENDBRANCH  49  50
ENDBRANCH  41  44
ENDBRANCH  39  40
ENDBRANCH  38  39
ENDBRANCH  37  38
ENDBRANCH   1  37
TORSDOF 22
