REMARK SMILES Cc1cccc(NS(=O)(=O)Cc2ccc(C(=O)NCCCCCCNC(=O)c3ccc(-c4c5nc(c(-c6ccc(S(=O)(=O)[O-])cc6)c6ccc([nH]6)c(-c6ccc(S(=O)(=O)[O-])cc6)c6nc(c(-c7ccc(S(=O)(=O)[O-])cc7)c7ccc4[nH]7)C=C6)C=C5)cc3)cc2)n1
REMARK SMILES IDX 21 1 20 2 19 3 18 4 16 5 17 6 15 8 12 9 13 10 89 11 14 12
REMARK SMILES IDX 88 13 11 14 8 15 9 16 10 17 7 18 6 20 1 21 2 22 3 23 90 24
REMARK SMILES IDX 4 25 5 26 22 27 23 28 24 29 25 30 26 31 27 33 28 34 29 35
REMARK SMILES IDX 87 36 30 37 86 38 31 39 32 40 33 41 80 42 34 43 85 44 79 45
REMARK SMILES IDX 81 46 35 47 84 48 78 49 77 50 36 52 66 53 47 54 65 55 48 56
REMARK SMILES IDX 51 57 64 58 82 59 49 60 50 61 63 63 83 64 52 65 37 66 38 67
REMARK SMILES IDX 46 68 39 69 45 70 40 71 41 72 42 73 43 74 44 75 67 76 68 77
REMARK SMILES IDX 76 78 69 79 75 80 70 81 71 82 72 83 73 84 74 85 53 86 54 87
REMARK SMILES IDX 62 88 55 89 61 90 56 91 57 92 58 93 59 94 60 95
REMARK H PARENT 18 7 7 19 25 32 81 51 51 62
REMARK Flexibility Score: inf
ROOT
ATOM      1  C   UNL     1       0.561   2.016   8.667  1.00  0.00     0.002 C 
ENDROOT
BRANCH   1   2
ATOM      2  C   UNL     1       0.601   2.629   7.263  1.00  0.00     0.021 C 
BRANCH   2   3
ATOM      3  C   UNL     1       1.871   2.263   6.497  1.00  0.00     0.116 C 
BRANCH   3   4
ATOM      4  N   UNL     1       1.756   0.907   6.004  1.00  0.00    -0.352 N 
ATOM      5  C   UNL     1       1.511   0.461   4.736  1.00  0.00     0.251 C 
ATOM      6  O   UNL     1       1.416  -0.746   4.523  1.00  0.00    -0.269 OA
ATOM      7  H   UNL     1       1.871   0.202   6.681  1.00  0.00     0.163 HD
BRANCH   5   8
ATOM      8  C   UNL     1       1.438   1.407   3.601  1.00  0.00     0.039 A 
ATOM      9  C   UNL     1       1.288   3.001   1.299  1.00  0.00    -0.031 A 
ATOM     10  C   UNL     1       2.142   1.889   1.351  1.00  0.00     0.005 A 
ATOM     11  C   UNL     1       0.592   3.370   2.455  1.00  0.00     0.005 A 
ATOM     12  C   UNL     1       2.194   1.079   2.478  1.00  0.00     0.014 A 
ATOM     13  C   UNL     1       0.643   2.559   3.592  1.00  0.00     0.014 A 
BRANCH   9  14
ATOM     14  C   UNL     1       1.138   3.727  -0.013  1.00  0.00     0.195 C 
BRANCH  14  15
ATOM     15  S   UNL     1      -0.572   3.770  -0.599  1.00  0.00     0.238 S 
ATOM     16  O   UNL     1      -0.577   3.832  -2.046  1.00  0.00    -0.206 OA
ATOM     17  O   UNL     1      -1.256   4.815   0.147  1.00  0.00    -0.206 OA
BRANCH  15  18
ATOM     18  N   UNL     1      -1.335   2.397  -0.116  1.00  0.00    -0.267 N 
ATOM     19  H   UNL     1      -2.138   2.512   0.442  1.00  0.00     0.181 HD
BRANCH  18  20
ATOM     20  C   UNL     1      -0.960   1.079  -0.417  1.00  0.00     0.139 A 
ATOM     21  C   UNL     1       2.182  -0.712  -1.079  1.00  0.00     0.067 C 
ATOM     22  C   UNL     1       0.733  -0.447  -0.783  1.00  0.00     0.040 A 
ATOM     23  C   UNL     1      -0.070  -1.504  -0.362  1.00  0.00     0.023 A 
ATOM     24  N   UNL     1       0.299   0.843  -0.823  1.00  0.00    -0.235 NA
ATOM     25  C   UNL     1      -1.383  -1.241  -0.002  1.00  0.00     0.006 A 
ATOM     26  C   UNL     1      -1.835   0.072  -0.026  1.00  0.00     0.048 A 
ENDBRANCH  18  20
ENDBRANCH  15  18
ENDBRANCH  14  15
ENDBRANCH   9  14
ENDBRANCH   5   8
ENDBRANCH   3   4
ENDBRANCH   2   3
ENDBRANCH   1   2
BRANCH   1  27
ATOM     27  C   UNL     1       1.700   2.476   9.585  1.00  0.00     0.002 C 
BRANCH  27  28
ATOM     28  C   UNL     1       1.840   3.996   9.703  1.00  0.00     0.021 C 
BRANCH  28  29
ATOM     29  C   UNL     1       0.594   4.685  10.248  1.00  0.00     0.116 C 
BRANCH  29  30
ATOM     30  N   UNL     1       0.307   4.248  11.606  1.00  0.00    -0.352 N 
ATOM     31  C   UNL     1       0.224   5.001  12.750  1.00  0.00     0.251 C 
ATOM     32  H   UNL     1       0.150   3.283  11.719  1.00  0.00     0.163 HD
ATOM     33  O   UNL     1       0.262   4.460  13.849  1.00  0.00    -0.269 OA
BRANCH  31  34
ATOM     34  C   UNL     1       0.095   6.467  12.637  1.00  0.00     0.039 A 
ATOM     35  C   UNL     1       0.871   7.285  13.460  1.00  0.00     0.014 A 
ATOM     36  C   UNL     1      -0.797   7.027  11.716  1.00  0.00     0.014 A 
ATOM     37  C   UNL     1       0.788   8.671  13.323  1.00  0.00     0.010 A 
ATOM     38  C   UNL     1      -0.823   8.404  11.531  1.00  0.00     0.010 A 
ATOM     39  C   UNL     1      -0.036   9.240  12.337  1.00  0.00    -0.014 A 
BRANCH  39  40
ATOM     40  C   UNL     1      -0.085  10.708  12.127  1.00  0.00     0.031 A 
ATOM     41  C   UNL     1      -1.365  11.462  12.362  1.00  0.00     0.074 A 
ATOM     42  C   UNL     1       1.006  11.347  11.662  1.00  0.00     0.049 A 
ATOM     43  N   UNL     1      -1.619  12.732  12.176  1.00  0.00    -0.248 NA
ATOM     44  C   UNL     1      -2.518  10.684  12.845  1.00  0.00     0.031 C 
ATOM     45  C   UNL     1       2.293  10.716  11.360  1.00  0.00     0.029 A 
ATOM     46  N   UNL     1       1.206  12.669  11.356  1.00  0.00    -0.354 N 
ATOM     47  C   UNL     1      -2.958  12.902  12.504  1.00  0.00     0.074 A 
ATOM     48  C   UNL     1      -3.478  11.598  12.852  1.00  0.00     0.031 C 
ATOM     49  C   UNL     1       3.155  11.654  10.938  1.00  0.00     0.029 A 
ATOM     50  C   UNL     1       2.472  12.943  10.894  1.00  0.00     0.049 A 
ATOM     51  H   UNL     1       0.509  13.357  11.456  1.00  0.00     0.167 HD
ATOM     52  C   UNL     1      -3.685  14.045  12.532  1.00  0.00     0.031 A 
ATOM     53  C   UNL     1       3.020  14.100  10.473  1.00  0.00     0.031 A 
ATOM     54  C   UNL     1      -3.159  15.340  12.188  1.00  0.00     0.049 A 
ATOM     55  C   UNL     1       2.186  15.351  10.493  1.00  0.00     0.074 A 
ATOM     56  C   UNL     1      -3.798  16.567  12.234  1.00  0.00     0.029 A 
ATOM     57  N   UNL     1      -1.872  15.576  11.728  1.00  0.00    -0.354 N 
ATOM     58  N   UNL     1       0.939  15.504  10.872  1.00  0.00    -0.248 NA
ATOM     59  C   UNL     1       2.836  16.587  10.039  1.00  0.00     0.031 C 
ATOM     60  C   UNL     1      -2.916  17.536  11.746  1.00  0.00     0.029 A 
ATOM     61  C   UNL     1      -1.705  16.924  11.459  1.00  0.00     0.049 A 
ATOM     62  H   UNL     1      -1.179  14.886  11.610  1.00  0.00     0.167 HD
ATOM     63  C   UNL     1       0.664  16.860  10.727  1.00  0.00     0.074 A 
ATOM     64  C   UNL     1       1.879  17.483  10.243  1.00  0.00     0.031 C 
ATOM     65  C   UNL     1      -0.490  17.528  10.973  1.00  0.00     0.031 A 
BRANCH  52  66
ATOM     66  C   UNL     1      -5.133  13.943  12.939  1.00  0.00    -0.014 A 
ATOM     67  C   UNL     1      -5.497  13.627  14.261  1.00  0.00     0.010 A 
ATOM     68  C   UNL     1      -6.144  14.208  11.998  1.00  0.00     0.010 A 
ATOM     69  C   UNL     1      -6.844  13.537  14.623  1.00  0.00     0.020 A 
ATOM     70  C   UNL     1      -7.492  14.150  12.363  1.00  0.00     0.020 A 
ATOM     71  C   UNL     1      -7.833  13.798  13.671  1.00  0.00     0.054 A 
BRANCH  71  72
ATOM     72  S   UNL     1      -9.572  13.699  14.177  1.00  0.00     0.124 S 
ATOM     73  O   UNL     1      -9.756  12.259  14.340  1.00  0.00    -0.237 OA
ATOM     74  O   UNL     1      -9.591  14.478  15.412  1.00  0.00    -0.237 OA
ATOM     75  O   UNL     1     -10.295  14.295  13.056  1.00  0.00    -0.744 OA
ENDBRANCH  71  72
ENDBRANCH  52  66
BRANCH  53  76
ATOM     76  C   UNL     1       4.433  14.125  10.006  1.00  0.00    -0.014 A 
ATOM     77  C   UNL     1       5.425  14.774  10.763  1.00  0.00     0.010 A 
ATOM     78  C   UNL     1       4.798  13.487   8.806  1.00  0.00     0.010 A 
ATOM     79  C   UNL     1       6.751  14.799  10.320  1.00  0.00     0.020 A 
ATOM     80  C   UNL     1       6.128  13.483   8.376  1.00  0.00     0.020 A 
ATOM     81  C   UNL     1       7.094  14.150   9.131  1.00  0.00     0.054 A 
BRANCH  81  82
ATOM     82  S   UNL     1       8.830  14.152   8.603  1.00  0.00     0.124 S 
ATOM     83  O   UNL     1       9.014  15.533   8.168  1.00  0.00    -0.237 OA
ATOM     84  O   UNL     1       9.531  13.774   9.828  1.00  0.00    -0.237 OA
ATOM     85  O   UNL     1       8.865  13.150   7.540  1.00  0.00    -0.744 OA
ENDBRANCH  81  82
ENDBRANCH  53  76
BRANCH  65  86
ATOM     86  C   UNL     1      -0.487  19.018  10.753  1.00  0.00    -0.014 A 
ATOM     87  C   UNL     1      -0.441  19.566   9.459  1.00  0.00     0.010 A 
ATOM     88  C   UNL     1      -0.585  19.881  11.860  1.00  0.00     0.010 A 
ATOM     89  C   UNL     1      -0.459  20.952   9.279  1.00  0.00     0.020 A 
ATOM     90  C   UNL     1      -0.635  21.265  11.682  1.00  0.00     0.020 A 
ATOM     91  C   UNL     1      -0.557  21.793  10.392  1.00  0.00     0.054 A 
BRANCH  91  92
ATOM     92  S   UNL     1      -0.621  23.585  10.127  1.00  0.00     0.124 S 
ATOM     93  O   UNL     1       0.754  23.885   9.739  1.00  0.00    -0.237 OA
ATOM     94  O   UNL     1      -1.617  23.717   9.066  1.00  0.00    -0.237 OA
ATOM     95  O   UNL     1      -1.031  24.114  11.427  1.00  0.00    -0.744 OA
ENDBRANCH  91  92
ENDBRANCH  65  86
ENDBRANCH  39  40
ENDBRANCH  31  34
ENDBRANCH  29  30
ENDBRANCH  28  29
ENDBRANCH  27  28
ENDBRANCH   1  27
TORSDOF 20
