REMARK SMILES CS(=O)(=O)c1ccc(/C=C(/C(=O)NCCCCCCNC(=O)c2ccc(-c3c4nc(c(-c5ccc(S(=O)(=O)[O-])cc5)c5ccc([nH]5)c(-c5ccc(S(=O)(=O)[O-])cc5)c5nc(c(-c6ccc(S(=O)(=O)[O-])cc6)c6ccc3[nH]6)C=C5)C=C4)cc2)c2ccc(-c3ccc(S(C)(=O)=O)cc3)cc2)cc1
REMARK SMILES IDX 16 1 15 2 14 3 13 4 11 5 12 6 10 8 9 9 8 10 5 11 6 12 100 13
REMARK SMILES IDX 7 14 99 15 2 16 1 17 3 18 4 19 83 20 84 21 98 22 85 23 97 24
REMARK SMILES IDX 86 25 87 26 88 27 96 28 89 29 95 30 90 31 91 32 92 33 93 34
REMARK SMILES IDX 94 35 17 36 18 37 19 38 20 39 21 40 22 42 23 43 24 44 82 45
REMARK SMILES IDX 25 46 81 47 26 48 27 49 28 50 75 51 29 52 80 53 74 54 76 55
REMARK SMILES IDX 30 56 79 57 73 58 72 59 31 61 61 62 42 63 60 64 43 65 46 66
REMARK SMILES IDX 59 67 77 68 44 69 45 70 58 72 78 73 47 74 32 75 33 76 41 77
REMARK SMILES IDX 34 78 40 79 35 80 36 81 37 82 38 83 39 84 62 85 63 86 71 87
REMARK SMILES IDX 64 88 70 89 65 90 66 91 67 92 68 93 69 94 48 95 49 96 57 97
REMARK SMILES IDX 50 98 56 99 51 100 52 101 53 102 54 103 55 104
REMARK H PARENT 13 7 20 41 76 60 46 71
REMARK Flexibility Score: inf
ROOT
ATOM      1  C   UNL     1       3.061  -8.281   8.111  1.00  0.00     0.002 C 
ENDROOT
BRANCH   1   2
ATOM      2  C   UNL     1       2.767  -7.030   7.267  1.00  0.00     0.021 C 
BRANCH   2   3
ATOM      3  C   UNL     1       3.453  -7.039   5.898  1.00  0.00     0.116 C 
BRANCH   3   4
ATOM      4  N   UNL     1       2.829  -8.033   5.047  1.00  0.00    -0.352 N 
ATOM      5  C   UNL     1       1.932  -7.986   4.031  1.00  0.00     0.251 C 
ATOM      6  O   UNL     1       1.553  -9.079   3.600  1.00  0.00    -0.269 OA
ATOM      7  H   UNL     1       3.123  -8.950   5.253  1.00  0.00     0.163 HD
BRANCH   5   8
ATOM      8  C   UNL     1       1.471  -6.706   3.368  1.00  0.00     0.047 C 
ATOM      9  C   UNL     1       1.331  -5.537   4.034  1.00  0.00     0.022 C 
BRANCH   9  10
ATOM     10  C   UNL     1       1.008  -4.189   3.509  1.00  0.00    -0.025 A 
ATOM     11  C   UNL     1       0.611  -1.594   2.506  1.00  0.00     0.067 A 
ATOM     12  C   UNL     1      -0.225  -2.633   2.098  1.00  0.00     0.021 A 
ATOM     13  C   UNL     1       1.606  -1.819   3.457  1.00  0.00     0.021 A 
ATOM     14  C   UNL     1      -0.035  -3.920   2.615  1.00  0.00     0.009 A 
ATOM     15  C   UNL     1       1.802  -3.115   3.949  1.00  0.00     0.009 A 
BRANCH  11  16
ATOM     16  S   UNL     1       0.370   0.036   1.839  1.00  0.00     0.175 S 
ATOM     17  C   UNL     1       1.167  -0.042   0.256  1.00  0.00     0.163 C 
ATOM     18  O   UNL     1       1.106   0.969   2.663  1.00  0.00    -0.224 OA
ATOM     19  O   UNL     1      -1.058   0.201   1.615  1.00  0.00    -0.224 OA
ENDBRANCH  11  16
ENDBRANCH   9  10
BRANCH   8  20
ATOM     20  C   UNL     1       0.976  -6.834   1.974  1.00  0.00    -0.013 A 
ATOM     21  C   UNL     1      -0.215  -7.543   1.766  1.00  0.00     0.009 A 
ATOM     22  C   UNL     1       1.584  -6.202   0.886  1.00  0.00     0.009 A 
ATOM     23  C   UNL     1      -0.823  -7.565   0.514  1.00  0.00     0.009 A 
ATOM     24  C   UNL     1       0.958  -6.210  -0.370  1.00  0.00     0.009 A 
ATOM     25  C   UNL     1      -0.274  -6.861  -0.568  1.00  0.00    -0.018 A 
BRANCH  25  26
ATOM     26  C   UNL     1      -1.015  -6.768  -1.838  1.00  0.00    -0.018 A 
ATOM     27  C   UNL     1      -2.392  -6.464  -1.829  1.00  0.00     0.010 A 
ATOM     28  C   UNL     1      -0.390  -6.959  -3.081  1.00  0.00     0.010 A 
ATOM     29  C   UNL     1      -3.125  -6.370  -3.012  1.00  0.00     0.021 A 
ATOM     30  C   UNL     1      -1.116  -6.867  -4.274  1.00  0.00     0.021 A 
ATOM     31  C   UNL     1      -2.482  -6.586  -4.229  1.00  0.00     0.067 A 
BRANCH  31  32
ATOM     32  S   UNL     1      -3.428  -6.476  -5.727  1.00  0.00     0.175 S 
ATOM     33  C   UNL     1      -4.491  -7.895  -5.650  1.00  0.00     0.163 C 
ATOM     34  O   UNL     1      -4.250  -5.285  -5.628  1.00  0.00    -0.224 OA
ATOM     35  O   UNL     1      -2.521  -6.666  -6.842  1.00  0.00    -0.224 OA
ENDBRANCH  31  32
ENDBRANCH  25  26
ENDBRANCH   8  20
ENDBRANCH   5   8
ENDBRANCH   3   4
ENDBRANCH   2   3
ENDBRANCH   1   2
BRANCH   1  36
ATOM     36  C   UNL     1       4.539  -8.502   8.451  1.00  0.00     0.002 C 
BRANCH  36  37
ATOM     37  C   UNL     1       5.235  -7.313   9.119  1.00  0.00     0.021 C 
BRANCH  37  38
ATOM     38  C   UNL     1       4.617  -6.878  10.444  1.00  0.00     0.116 C 
BRANCH  38  39
ATOM     39  N   UNL     1       4.753  -7.902  11.465  1.00  0.00    -0.352 N 
ATOM     40  C   UNL     1       5.239  -7.794  12.743  1.00  0.00     0.251 C 
ATOM     41  H   UNL     1       4.454  -8.802  11.202  1.00  0.00     0.163 HD
ATOM     42  O   UNL     1       5.476  -8.810  13.390  1.00  0.00    -0.269 OA
BRANCH  40  43
ATOM     43  C   UNL     1       5.488  -6.462  13.339  1.00  0.00     0.039 A 
ATOM     44  C   UNL     1       6.648  -6.270  14.094  1.00  0.00     0.014 A 
ATOM     45  C   UNL     1       4.565  -5.420  13.198  1.00  0.00     0.014 A 
ATOM     46  C   UNL     1       6.897  -5.028  14.683  1.00  0.00     0.010 A 
ATOM     47  C   UNL     1       4.844  -4.164  13.735  1.00  0.00     0.010 A 
ATOM     48  C   UNL     1       6.003  -3.961  14.498  1.00  0.00    -0.014 A 
BRANCH  48  49
ATOM     49  C   UNL     1       6.255  -2.641  15.129  1.00  0.00     0.031 A 
ATOM     50  C   UNL     1       5.348  -2.138  16.220  1.00  0.00     0.074 A 
ATOM     51  C   UNL     1       7.281  -1.881  14.699  1.00  0.00     0.049 A 
ATOM     52  N   UNL     1       5.407  -1.014  16.888  1.00  0.00    -0.248 NA
ATOM     53  C   UNL     1       4.216  -3.000  16.595  1.00  0.00     0.031 C 
ATOM     54  C   UNL     1       8.204  -2.235  13.619  1.00  0.00     0.029 A 
ATOM     55  N   UNL     1       7.719  -0.651  15.122  1.00  0.00    -0.354 N 
ATOM     56  C   UNL     1       4.313  -1.026  17.747  1.00  0.00     0.074 A 
ATOM     57  C   UNL     1       3.584  -2.247  17.483  1.00  0.00     0.031 C 
ATOM     58  C   UNL     1       9.116  -1.257  13.483  1.00  0.00     0.029 A 
ATOM     59  C   UNL     1       8.828  -0.199  14.447  1.00  0.00     0.049 A 
ATOM     60  H   UNL     1       7.280  -0.141  15.840  1.00  0.00     0.167 HD
ATOM     61  C   UNL     1       3.958  -0.114  18.684  1.00  0.00     0.031 A 
ATOM     62  C   UNL     1       9.538   0.935  14.593  1.00  0.00     0.031 A 
ATOM     63  C   UNL     1       4.692   1.092  18.958  1.00  0.00     0.049 A 
ATOM     64  C   UNL     1       9.143   1.917  15.661  1.00  0.00     0.074 A 
ATOM     65  C   UNL     1       4.443   2.054  19.922  1.00  0.00     0.029 A 
ATOM     66  N   UNL     1       5.824   1.500  18.269  1.00  0.00    -0.354 N 
ATOM     67  N   UNL     1       8.139   1.859  16.503  1.00  0.00    -0.248 NA
ATOM     68  C   UNL     1       9.991   3.108  15.809  1.00  0.00     0.031 C 
ATOM     69  C   UNL     1       5.406   3.062  19.793  1.00  0.00     0.029 A 
ATOM     70  C   UNL     1       6.280   2.705  18.779  1.00  0.00     0.049 A 
ATOM     71  H   UNL     1       6.243   1.007  17.527  1.00  0.00     0.167 HD
ATOM     72  C   UNL     1       8.248   2.995  17.298  1.00  0.00     0.074 A 
ATOM     73  C   UNL     1       9.424   3.711  16.846  1.00  0.00     0.031 C 
ATOM     74  C   UNL     1       7.447   3.408  18.311  1.00  0.00     0.031 A 
BRANCH  61  75
ATOM     75  C   UNL     1       2.711  -0.395  19.480  1.00  0.00    -0.014 A 
ATOM     76  C   UNL     1       2.682  -1.420  20.444  1.00  0.00     0.010 A 
ATOM     77  C   UNL     1       1.558   0.385  19.276  1.00  0.00     0.010 A 
ATOM     78  C   UNL     1       1.509  -1.693  21.152  1.00  0.00     0.020 A 
ATOM     79  C   UNL     1       0.390   0.132  20.002  1.00  0.00     0.020 A 
ATOM     80  C   UNL     1       0.367  -0.919  20.921  1.00  0.00     0.054 A 
BRANCH  80  81
ATOM     81  S   UNL     1      -1.142  -1.289  21.857  1.00  0.00     0.124 S 
ATOM     82  O   UNL     1      -1.630  -2.486  21.177  1.00  0.00    -0.237 OA
ATOM     83  O   UNL     1      -0.638  -1.499  23.212  1.00  0.00    -0.237 OA
ATOM     84  O   UNL     1      -1.961  -0.093  21.680  1.00  0.00    -0.744 OA
ENDBRANCH  80  81
ENDBRANCH  61  75
BRANCH  62  85
ATOM     85  C   UNL     1      10.722   1.184  13.728  1.00  0.00    -0.014 A 
ATOM     86  C   UNL     1      12.022   1.068  14.250  1.00  0.00     0.010 A 
ATOM     87  C   UNL     1      10.554   1.518  12.372  1.00  0.00     0.010 A 
ATOM     88  C   UNL     1      13.134   1.297  13.435  1.00  0.00     0.020 A 
ATOM     89  C   UNL     1      11.664   1.725  11.549  1.00  0.00     0.020 A 
ATOM     90  C   UNL     1      12.948   1.623  12.089  1.00  0.00     0.054 A 
BRANCH  90  91
ATOM     91  S   UNL     1      14.405   1.856  11.033  1.00  0.00     0.124 S 
ATOM     92  O   UNL     1      14.850   3.191  11.419  1.00  0.00    -0.237 OA
ATOM     93  O   UNL     1      15.274   0.755  11.441  1.00  0.00    -0.237 OA
ATOM     94  O   UNL     1      13.865   1.741   9.680  1.00  0.00    -0.744 OA
ENDBRANCH  90  91
ENDBRANCH  62  85
BRANCH  74  95
ATOM     95  C   UNL     1       7.837   4.679  19.015  1.00  0.00    -0.014 A 
ATOM     96  C   UNL     1       7.668   5.932  18.400  1.00  0.00     0.010 A 
ATOM     97  C   UNL     1       8.361   4.618  20.319  1.00  0.00     0.010 A 
ATOM     98  C   UNL     1       8.061   7.099  19.059  1.00  0.00     0.020 A 
ATOM     99  C   UNL     1       8.732   5.785  20.991  1.00  0.00     0.020 A 
ATOM    100  C   UNL     1       8.599   7.017  20.348  1.00  0.00     0.054 A 
BRANCH 100 101
ATOM    101  S   UNL     1       9.091   8.545  21.192  1.00  0.00     0.124 S 
ATOM    102  O   UNL     1      10.376   8.838  20.562  1.00  0.00    -0.237 OA
ATOM    103  O   UNL     1       8.005   9.464  20.861  1.00  0.00    -0.237 OA
ATOM    104  O   UNL     1       9.161   8.154  22.599  1.00  0.00    -0.744 OA
ENDBRANCH 100 101
ENDBRANCH  74  95
ENDBRANCH  48  49
ENDBRANCH  40  43
ENDBRANCH  38  39
ENDBRANCH  37  38
ENDBRANCH  36  37
ENDBRANCH   1  36
TORSDOF 21
