REMARK SMILES Cc1ccccc1[C@@H]1[NH2+][C@@H](C(=O)NCCCCCCNC(=O)c2ccc(-c3c4nc(c(-c5ccc(S(=O)(=O)[O-])cc5)c5ccc([nH]5)c(-c5ccc(S(=O)(=O)[O-])cc5)c5nc(c(-c6ccc(S(=O)(=O)[O-])cc6)c6ccc3[nH]6)C=C5)C=C4)cc2)CC2=c3ccccc3=N[C@H]21
REMARK SMILES IDX 17 1 16 2 15 3 14 4 13 5 11 6 12 7 10 9 8 10 9 11 92 12
REMARK SMILES IDX 84 15 91 16 83 17 85 18 90 19 86 20 89 21 87 22 88 23 7 24
REMARK SMILES IDX 1 25 2 26 3 27 4 28 6 29 5 30 18 31 19 32 20 33 21 34 22 36
REMARK SMILES IDX 23 37 24 38 82 39 25 40 81 41 26 42 27 43 28 44 75 45 29 46
REMARK SMILES IDX 80 47 74 48 76 49 30 50 79 51 73 52 72 53 31 55 61 56 42 57
REMARK SMILES IDX 60 58 43 59 46 60 59 61 77 62 44 63 45 64 58 66 78 67 47 68
REMARK SMILES IDX 32 69 33 70 41 71 34 72 40 73 35 74 36 75 37 76 38 77 39 78
REMARK SMILES IDX 62 79 63 80 71 81 64 82 70 83 65 84 66 85 67 86 68 87 69 88
REMARK SMILES IDX 48 89 49 90 57 91 50 92 56 93 51 94 52 95 53 96 54 97 55 98
REMARK H PARENT 13 8 9 13 9 14 20 35 76 54 46 65
REMARK Flexibility Score: inf
ROOT
ATOM      1  C   UNL     1      -6.000   7.970  -0.714  1.00  0.00     0.002 C 
ENDROOT
BRANCH   1   2
ATOM      2  C   UNL     1      -4.488   7.903  -1.007  1.00  0.00     0.002 C 
BRANCH   2   3
ATOM      3  C   UNL     1      -3.625   6.960  -0.153  1.00  0.00     0.021 C 
BRANCH   3   4
ATOM      4  C   UNL     1      -4.103   5.511  -0.056  1.00  0.00     0.116 C 
BRANCH   4   5
ATOM      5  N   UNL     1      -3.588   4.585  -1.053  1.00  0.00    -0.351 N 
ATOM      6  C   UNL     1      -2.473   3.792  -1.054  1.00  0.00     0.278 C 
ATOM      7  O   UNL     1      -2.563   2.727  -1.684  1.00  0.00    -0.268 OA
ATOM      8  H   UNL     1      -4.136   4.518  -1.868  1.00  0.00     0.163 HD
BRANCH   6   9
ATOM      9  C   UNL     1      -1.092   4.260  -0.499  1.00  0.00     0.277 C 
ATOM     10  C   UNL     1       0.621   2.491   0.285  1.00  0.00     0.243 C 
ATOM     11  N   UNL     1      -0.048   3.230  -0.819  1.00  0.00    -0.327 N 
ATOM     12  C   UNL     1       0.560   3.087   1.726  1.00  0.00     0.196 C 
ATOM     13  H   UNL     1      -0.493   2.533  -1.415  1.00  0.00     0.347 HD
ATOM     14  H   UNL     1       0.708   3.779  -1.229  1.00  0.00     0.347 HD
ATOM     15  C   UNL     1      -0.756   3.765   1.908  1.00  0.00    -0.024 C 
ATOM     16  N   UNL     1       0.592   2.033   2.789  1.00  0.00    -0.270 NA
ATOM     17  C   UNL     1      -1.042   4.827   0.920  1.00  0.00     0.109 C 
ATOM     18  C   UNL     1      -1.461   3.228   2.892  1.00  0.00     0.002 A 
ATOM     19  C   UNL     1      -0.536   2.205   3.409  1.00  0.00     0.066 A 
ATOM     20  C   UNL     1      -2.773   3.395   3.419  1.00  0.00     0.010 A 
ATOM     21  C   UNL     1      -0.993   1.459   4.601  1.00  0.00     0.028 A 
ATOM     22  C   UNL     1      -3.148   2.633   4.460  1.00  0.00     0.001 A 
ATOM     23  C   UNL     1      -2.230   1.688   5.076  1.00  0.00     0.002 A 
BRANCH  10  24
ATOM     24  C   UNL     1       2.090   2.212  -0.081  1.00  0.00     0.015 A 
ATOM     25  C   UNL     1       2.719   4.701  -0.361  1.00  0.00     0.045 C 
ATOM     26  C   UNL     1       3.041   3.230  -0.345  1.00  0.00    -0.042 A 
ATOM     27  C   UNL     1       4.393   2.879  -0.530  1.00  0.00     0.004 A 
ATOM     28  C   UNL     1       4.806   1.550  -0.503  1.00  0.00     0.000 A 
ATOM     29  C   UNL     1       2.531   0.872  -0.077  1.00  0.00     0.010 A 
ATOM     30  C   UNL     1       3.873   0.544  -0.290  1.00  0.00     0.001 A 
ENDBRANCH  10  24
ENDBRANCH   6   9
ENDBRANCH   4   5
ENDBRANCH   3   4
ENDBRANCH   2   3
ENDBRANCH   1   2
BRANCH   1  31
ATOM     31  C   UNL     1      -6.431   8.092   0.750  1.00  0.00     0.021 C 
BRANCH  31  32
ATOM     32  C   UNL     1      -6.028   9.394   1.430  1.00  0.00     0.116 C 
BRANCH  32  33
ATOM     33  N   UNL     1      -7.094  10.381   1.544  1.00  0.00    -0.352 N 
ATOM     34  C   UNL     1      -7.112  11.341   2.559  1.00  0.00     0.251 C 
ATOM     35  H   UNL     1      -7.824  10.371   0.884  1.00  0.00     0.163 HD
ATOM     36  O   UNL     1      -8.054  11.555   3.289  1.00  0.00    -0.269 OA
BRANCH  34  37
ATOM     37  C   UNL     1      -5.871  12.145   2.657  1.00  0.00     0.039 A 
ATOM     38  C   UNL     1      -5.832  13.418   2.081  1.00  0.00     0.014 A 
ATOM     39  C   UNL     1      -4.708  11.508   3.079  1.00  0.00     0.014 A 
ATOM     40  C   UNL     1      -4.596  13.984   1.769  1.00  0.00     0.010 A 
ATOM     41  C   UNL     1      -3.496  12.017   2.672  1.00  0.00     0.010 A 
ATOM     42  C   UNL     1      -3.439  13.235   1.981  1.00  0.00    -0.014 A 
BRANCH  42  43
ATOM     43  C   UNL     1      -2.116  13.581   1.476  1.00  0.00     0.031 A 
ATOM     44  C   UNL     1      -1.062  14.024   2.414  1.00  0.00     0.074 A 
ATOM     45  C   UNL     1      -1.795  13.309   0.191  1.00  0.00     0.049 A 
ATOM     46  N   UNL     1       0.040  14.593   2.057  1.00  0.00    -0.248 NA
ATOM     47  C   UNL     1      -1.192  13.891   3.861  1.00  0.00     0.031 C 
ATOM     48  C   UNL     1      -0.453  13.205  -0.375  1.00  0.00     0.029 A 
ATOM     49  N   UNL     1      -2.629  13.276  -0.927  1.00  0.00    -0.354 N 
ATOM     50  C   UNL     1       0.878  14.590   3.148  1.00  0.00     0.074 A 
ATOM     51  C   UNL     1       0.033  14.238   4.265  1.00  0.00     0.031 C 
ATOM     52  C   UNL     1      -0.527  13.432  -1.695  1.00  0.00     0.029 A 
ATOM     53  C   UNL     1      -1.889  13.848  -1.979  1.00  0.00     0.049 A 
ATOM     54  H   UNL     1      -3.547  12.924  -0.971  1.00  0.00     0.167 HD
ATOM     55  C   UNL     1       2.220  14.750   2.962  1.00  0.00     0.031 A 
ATOM     56  C   UNL     1      -2.249  15.008  -2.608  1.00  0.00     0.031 A 
ATOM     57  C   UNL     1       2.548  15.058   1.567  1.00  0.00     0.049 A 
ATOM     58  C   UNL     1      -1.208  16.111  -2.491  1.00  0.00     0.074 A 
ATOM     59  C   UNL     1       3.148  14.370   0.525  1.00  0.00     0.029 A 
ATOM     60  N   UNL     1       1.996  16.195   1.000  1.00  0.00    -0.354 N 
ATOM     61  N   UNL     1      -0.068  15.986  -1.869  1.00  0.00    -0.248 NA
ATOM     62  C   UNL     1      -1.414  17.476  -2.981  1.00  0.00     0.031 C 
ATOM     63  C   UNL     1       2.943  15.113  -0.676  1.00  0.00     0.029 A 
ATOM     64  C   UNL     1       2.233  16.255  -0.357  1.00  0.00     0.049 A 
ATOM     65  H   UNL     1       1.495  16.876   1.504  1.00  0.00     0.167 HD
ATOM     66  C   UNL     1       0.560  17.201  -1.798  1.00  0.00     0.074 A 
ATOM     67  C   UNL     1      -0.311  18.102  -2.530  1.00  0.00     0.031 C 
ATOM     68  C   UNL     1       1.715  17.393  -1.098  1.00  0.00     0.031 A 
BRANCH  55  69
ATOM     69  C   UNL     1       3.268  14.414   4.005  1.00  0.00    -0.014 A 
ATOM     70  C   UNL     1       4.590  14.134   3.602  1.00  0.00     0.010 A 
ATOM     71  C   UNL     1       3.015  14.307   5.386  1.00  0.00     0.010 A 
ATOM     72  C   UNL     1       5.567  13.678   4.502  1.00  0.00     0.020 A 
ATOM     73  C   UNL     1       3.968  13.823   6.294  1.00  0.00     0.020 A 
ATOM     74  C   UNL     1       5.239  13.496   5.842  1.00  0.00     0.054 A 
BRANCH  74  75
ATOM     75  S   UNL     1       6.479  12.827   6.979  1.00  0.00     0.124 S 
ATOM     76  O   UNL     1       6.817  11.549   6.359  1.00  0.00    -0.237 OA
ATOM     77  O   UNL     1       7.525  13.845   6.938  1.00  0.00    -0.237 OA
ATOM     78  O   UNL     1       5.764  12.724   8.250  1.00  0.00    -0.744 OA
ENDBRANCH  74  75
ENDBRANCH  55  69
BRANCH  56  79
ATOM     79  C   UNL     1      -3.727  15.211  -2.671  1.00  0.00    -0.014 A 
ATOM     80  C   UNL     1      -4.458  14.321  -3.490  1.00  0.00     0.010 A 
ATOM     81  C   UNL     1      -4.394  15.880  -1.630  1.00  0.00     0.010 A 
ATOM     82  C   UNL     1      -5.756  13.941  -3.141  1.00  0.00     0.020 A 
ATOM     83  C   UNL     1      -5.703  15.509  -1.289  1.00  0.00     0.020 A 
ATOM     84  C   UNL     1      -6.336  14.478  -1.992  1.00  0.00     0.054 A 
BRANCH  84  85
ATOM     85  S   UNL     1      -7.829  13.678  -1.323  1.00  0.00     0.124 S 
ATOM     86  O   UNL     1      -8.712  13.636  -2.483  1.00  0.00    -0.237 OA
ATOM     87  O   UNL     1      -7.311  12.382  -0.874  1.00  0.00    -0.237 OA
ATOM     88  O   UNL     1      -8.237  14.581  -0.252  1.00  0.00    -0.744 OA
ENDBRANCH  84  85
ENDBRANCH  56  79
BRANCH  68  89
ATOM     89  C   UNL     1       2.438  18.710  -1.004  1.00  0.00    -0.014 A 
ATOM     90  C   UNL     1       2.632  19.546  -2.116  1.00  0.00     0.010 A 
ATOM     91  C   UNL     1       3.072  19.081   0.204  1.00  0.00     0.010 A 
ATOM     92  C   UNL     1       3.382  20.727  -2.008  1.00  0.00     0.020 A 
ATOM     93  C   UNL     1       3.836  20.244   0.317  1.00  0.00     0.020 A 
ATOM     94  C   UNL     1       3.973  21.072  -0.790  1.00  0.00     0.054 A 
BRANCH  94  95
ATOM     95  S   UNL     1       4.967  22.581  -0.678  1.00  0.00     0.124 S 
ATOM     96  O   UNL     1       5.775  22.523  -1.894  1.00  0.00    -0.237 OA
ATOM     97  O   UNL     1       3.938  23.618  -0.659  1.00  0.00    -0.237 OA
ATOM     98  O   UNL     1       5.712  22.418   0.567  1.00  0.00    -0.744 OA
ENDBRANCH  94  95
ENDBRANCH  68  89
ENDBRANCH  42  43
ENDBRANCH  34  37
ENDBRANCH  32  33
ENDBRANCH  31  32
ENDBRANCH   1  31
TORSDOF 17
