REMARK SMILES C[C@H](c1cccc(-c2cc(C(=O)NCCCCCCNC(=O)c3ccc(-c4c5nc(c(-c6ccc(S(=O)(=O)[O-])cc6)c6ccc([nH]6)c(-c6ccc(S(=O)(=O)[O-])cc6)c6nc(c(-c7ccc(S(=O)(=O)[O-])cc7)c7ccc4[nH]7)C=C6)C=C5)cc3)cc(S(=O)(=O)N3CCOCC3)c2)c1)[NH+](C)C
REMARK SMILES IDX 16 1 15 2 14 3 13 4 11 5 12 6 10 8 8 9 9 10 94 11 84 12
REMARK SMILES IDX 83 13 7 14 3 15 4 16 95 17 5 18 6 19 2 20 1 21 96 22 97 23
REMARK SMILES IDX 98 24 85 26 86 27 87 28 88 29 89 30 93 31 90 32 92 33 91 34
REMARK SMILES IDX 17 35 18 36 19 37 20 38 21 39 22 41 23 42 24 43 82 44 25 45
REMARK SMILES IDX 81 46 26 47 27 48 28 49 75 50 29 51 80 52 74 53 76 54 30 55
REMARK SMILES IDX 79 56 73 57 72 58 31 60 61 61 42 62 60 63 43 64 46 65 59 66
REMARK SMILES IDX 77 67 44 68 45 69 58 71 78 72 47 73 32 74 33 75 41 76 34 77
REMARK SMILES IDX 40 78 35 79 36 80 37 81 38 82 39 83 62 84 63 85 71 86 64 87
REMARK SMILES IDX 70 88 65 89 66 90 67 91 68 92 69 93 48 94 49 95 57 96 50 97
REMARK SMILES IDX 56 98 51 99 52 100 53 101 54 102 55 103
REMARK H PARENT 13 7 96 25 20 40 76 59 46 70
REMARK Flexibility Score: inf
ROOT
ATOM      1  C   UNL     1       2.880   5.816   9.678  1.00  0.00     0.002 C 
ENDROOT
BRANCH   1   2
ATOM      2  C   UNL     1       3.298   4.696   8.731  1.00  0.00     0.021 C 
BRANCH   2   3
ATOM      3  C   UNL     1       2.182   3.932   8.033  1.00  0.00     0.116 C 
BRANCH   3   4
ATOM      4  N   UNL     1       1.295   4.737   7.206  1.00  0.00    -0.352 N 
ATOM      5  C   UNL     1       0.645   4.411   6.032  1.00  0.00     0.251 C 
ATOM      6  O   UNL     1      -0.064   5.246   5.475  1.00  0.00    -0.269 OA
ATOM      7  H   UNL     1       1.134   5.652   7.533  1.00  0.00     0.163 HD
BRANCH   5   8
ATOM      8  C   UNL     1       0.845   3.082   5.395  1.00  0.00     0.041 A 
ATOM      9  C   UNL     1       1.291   1.796   3.368  1.00  0.00    -0.016 A 
ATOM     10  C   UNL     1       0.942   3.003   3.991  1.00  0.00     0.022 A 
ATOM     11  C   UNL     1       1.622   0.711   4.197  1.00  0.00     0.030 A 
ATOM     12  C   UNL     1       1.487   0.775   5.575  1.00  0.00     0.084 A 
ATOM     13  C   UNL     1       0.995   1.929   6.166  1.00  0.00     0.035 A 
BRANCH   9  14
ATOM     14  C   UNL     1       1.346   1.603   1.907  1.00  0.00    -0.018 A 
ATOM     15  C   UNL     1       0.848   0.135  -0.025  1.00  0.00     0.010 A 
ATOM     16  C   UNL     1       1.517   1.045  -0.853  1.00  0.00     0.010 A 
ATOM     17  C   UNL     1       0.775   0.440   1.343  1.00  0.00     0.018 A 
ATOM     18  C   UNL     1       2.091   2.205  -0.323  1.00  0.00     0.001 A 
ATOM     19  C   UNL     1       2.004   2.485   1.045  1.00  0.00     0.009 A 
BRANCH  15  20
ATOM     20  C   UNL     1       0.294  -1.177  -0.590  1.00  0.00     0.211 C 
ATOM     21  C   UNL     1       0.942  -2.386   0.110  1.00  0.00     0.081 C 
BRANCH  20  22
ATOM     22  N   UNL     1      -1.186  -1.220  -0.696  1.00  0.00    -0.334 N 
ATOM     23  C   UNL     1      -1.640  -2.381  -1.466  1.00  0.00     0.333 C 
ATOM     24  C   UNL     1      -1.912  -1.173   0.574  1.00  0.00     0.333 C 
ATOM     25  H   UNL     1      -1.413  -0.354  -1.185  1.00  0.00     0.348 HD
ENDBRANCH  20  22
ENDBRANCH  15  20
ENDBRANCH   9  14
BRANCH  12  26
ATOM     26  S   UNL     1       2.082  -0.508   6.650  1.00  0.00     0.243 S 
ATOM     27  O   UNL     1       3.276   0.032   7.260  1.00  0.00    -0.207 OA
ATOM     28  O   UNL     1       0.939  -0.925   7.432  1.00  0.00    -0.207 OA
BRANCH  26  29
ATOM     29  N   UNL     1       2.522  -1.760   5.641  1.00  0.00    -0.193 NA
ATOM     30  C   UNL     1       3.878  -1.893   5.072  1.00  0.00     0.131 C 
ATOM     31  C   UNL     1       1.587  -2.844   5.300  1.00  0.00     0.131 C 
ATOM     32  C   UNL     1       3.816  -2.251   3.578  1.00  0.00     0.177 C 
ATOM     33  C   UNL     1       1.594  -3.062   3.789  1.00  0.00     0.177 C 
ATOM     34  O   UNL     1       2.915  -3.333   3.300  1.00  0.00    -0.379 OA
ENDBRANCH  26  29
ENDBRANCH  12  26
ENDBRANCH   5   8
ENDBRANCH   3   4
ENDBRANCH   2   3
ENDBRANCH   1   2
BRANCH   1  35
ATOM     35  C   UNL     1       1.812   5.481  10.721  1.00  0.00     0.002 C 
BRANCH  35  36
ATOM     36  C   UNL     1       2.067   4.269  11.621  1.00  0.00     0.021 C 
BRANCH  36  37
ATOM     37  C   UNL     1       3.422   4.200  12.319  1.00  0.00     0.116 C 
BRANCH  37  38
ATOM     38  N   UNL     1       3.722   5.377  13.114  1.00  0.00    -0.352 N 
ATOM     39  C   UNL     1       4.201   5.482  14.397  1.00  0.00     0.251 C 
ATOM     40  H   UNL     1       3.556   6.236  12.662  1.00  0.00     0.163 HD
ATOM     41  O   UNL     1       4.299   6.595  14.910  1.00  0.00    -0.269 OA
BRANCH  39  42
ATOM     42  C   UNL     1       4.565   4.278  15.180  1.00  0.00     0.039 A 
ATOM     43  C   UNL     1       4.174   4.220  16.522  1.00  0.00     0.014 A 
ATOM     44  C   UNL     1       5.306   3.228  14.629  1.00  0.00     0.014 A 
ATOM     45  C   UNL     1       4.467   3.088  17.288  1.00  0.00     0.010 A 
ATOM     46  C   UNL     1       5.548   2.074  15.378  1.00  0.00     0.010 A 
ATOM     47  C   UNL     1       5.128   1.991  16.714  1.00  0.00    -0.014 A 
BRANCH  47  48
ATOM     48  C   UNL     1       5.355   0.749  17.499  1.00  0.00     0.031 A 
ATOM     49  C   UNL     1       6.746   0.317  17.876  1.00  0.00     0.074 A 
ATOM     50  C   UNL     1       4.300  -0.018  17.838  1.00  0.00     0.049 A 
ATOM     51  N   UNL     1       7.125  -0.733  18.559  1.00  0.00    -0.248 NA
ATOM     52  C   UNL     1       7.856   1.163  17.409  1.00  0.00     0.031 C 
ATOM     53  C   UNL     1       2.905   0.259  17.489  1.00  0.00     0.029 A 
ATOM     54  N   UNL     1       4.237  -1.190  18.551  1.00  0.00    -0.354 N 
ATOM     55  C   UNL     1       8.513  -0.684  18.594  1.00  0.00     0.074 A 
ATOM     56  C   UNL     1       8.911   0.479  17.830  1.00  0.00     0.031 C 
ATOM     57  C   UNL     1       2.122  -0.701  18.009  1.00  0.00     0.029 A 
ATOM     58  C   UNL     1       2.959  -1.673  18.705  1.00  0.00     0.049 A 
ATOM     59  H   UNL     1       5.032  -1.641  18.918  1.00  0.00     0.167 HD
ATOM     60  C   UNL     1       9.379  -1.522  19.216  1.00  0.00     0.031 A 
ATOM     61  C   UNL     1       2.508  -2.773  19.337  1.00  0.00     0.031 A 
ATOM     62  C   UNL     1       8.985  -2.674  19.985  1.00  0.00     0.049 A 
ATOM     63  C   UNL     1       3.484  -3.674  20.039  1.00  0.00     0.074 A 
ATOM     64  C   UNL     1       9.785  -3.544  20.705  1.00  0.00     0.029 A 
ATOM     65  N   UNL     1       7.680  -3.120  20.131  1.00  0.00    -0.354 N 
ATOM     66  N   UNL     1       4.788  -3.568  20.122  1.00  0.00    -0.248 NA
ATOM     67  C   UNL     1       2.924  -4.834  20.745  1.00  0.00     0.031 C 
ATOM     68  C   UNL     1       8.968  -4.539  21.254  1.00  0.00     0.029 A 
ATOM     69  C   UNL     1       7.654  -4.264  20.912  1.00  0.00     0.049 A 
ATOM     70  H   UNL     1       6.888  -2.687  19.737  1.00  0.00     0.167 HD
ATOM     71  C   UNL     1       5.205  -4.640  20.902  1.00  0.00     0.074 A 
ATOM     72  C   UNL     1       4.012  -5.370  21.282  1.00  0.00     0.031 C 
ATOM     73  C   UNL     1       6.462  -4.990  21.269  1.00  0.00     0.031 A 
BRANCH  60  74
ATOM     74  C   UNL     1      10.848  -1.220  19.084  1.00  0.00    -0.014 A 
ATOM     75  C   UNL     1      11.427  -0.129  19.758  1.00  0.00     0.010 A 
ATOM     76  C   UNL     1      11.667  -2.054  18.302  1.00  0.00     0.010 A 
ATOM     77  C   UNL     1      12.789   0.148  19.616  1.00  0.00     0.020 A 
ATOM     78  C   UNL     1      13.035  -1.794  18.176  1.00  0.00     0.020 A 
ATOM     79  C   UNL     1      13.583  -0.682  18.819  1.00  0.00     0.054 A 
BRANCH  79  80
ATOM     80  S   UNL     1      15.351  -0.308  18.658  1.00  0.00     0.124 S 
ATOM     81  O   UNL     1      15.336   0.818  17.727  1.00  0.00    -0.237 OA
ATOM     82  O   UNL     1      15.739   0.018  20.029  1.00  0.00    -0.237 OA
ATOM     83  O   UNL     1      15.920  -1.545  18.131  1.00  0.00    -0.744 OA
ENDBRANCH  79  80
ENDBRANCH  60  74
BRANCH  61  84
ATOM     84  C   UNL     1       1.050  -3.069  19.352  1.00  0.00    -0.014 A 
ATOM     85  C   UNL     1       0.297  -2.868  20.521  1.00  0.00     0.010 A 
ATOM     86  C   UNL     1       0.406  -3.529  18.190  1.00  0.00     0.010 A 
ATOM     87  C   UNL     1      -1.075  -3.133  20.532  1.00  0.00     0.020 A 
ATOM     88  C   UNL     1      -0.970  -3.775  18.191  1.00  0.00     0.020 A 
ATOM     89  C   UNL     1      -1.700  -3.584  19.366  1.00  0.00     0.054 A 
BRANCH  89  90
ATOM     90  S   UNL     1      -3.494  -3.861  19.381  1.00  0.00     0.124 S 
ATOM     91  O   UNL     1      -3.596  -5.150  20.058  1.00  0.00    -0.237 OA
ATOM     92  O   UNL     1      -3.988  -2.710  20.133  1.00  0.00    -0.237 OA
ATOM     93  O   UNL     1      -3.848  -3.866  17.964  1.00  0.00    -0.744 OA
ENDBRANCH  89  90
ENDBRANCH  61  84
BRANCH  73  94
ATOM     94  C   UNL     1       6.606  -6.211  22.135  1.00  0.00    -0.014 A 
ATOM     95  C   UNL     1       6.430  -7.501  21.602  1.00  0.00     0.010 A 
ATOM     96  C   UNL     1       6.936  -6.069  23.494  1.00  0.00     0.010 A 
ATOM     97  C   UNL     1       6.542  -8.626  22.424  1.00  0.00     0.020 A 
ATOM     98  C   UNL     1       7.071  -7.193  24.314  1.00  0.00     0.020 A 
ATOM     99  C   UNL     1       6.854  -8.464  23.777  1.00  0.00     0.054 A 
BRANCH  99 100
ATOM    100  S   UNL     1       7.010  -9.937  24.824  1.00  0.00     0.124 S 
ATOM    101  O   UNL     1       5.613 -10.271  25.086  1.00  0.00    -0.237 OA
ATOM    102  O   UNL     1       7.729 -10.873  23.963  1.00  0.00    -0.237 OA
ATOM    103  O   UNL     1       7.765  -9.459  25.980  1.00  0.00    -0.744 OA
ENDBRANCH  99 100
ENDBRANCH  73  94
ENDBRANCH  47  48
ENDBRANCH  39  42
ENDBRANCH  37  38
ENDBRANCH  36  37
ENDBRANCH  35  36
ENDBRANCH   1  35
TORSDOF 21
