REMARK SMILES Cc1ccc([C@@H](C)Nc2ccc(N)cc2C(=O)NCCCCCCNC(=O)c2ccc(-c3c4nc(c(-c5ccc(S(=O)(=O)[O-])cc5)c5ccc([nH]5)c(-c5ccc(S(=O)(=O)[O-])cc5)c5nc(c(-c6ccc(S(=O)(=O)[O-])cc6)c6ccc3[nH]6)C=C5)C=C4)cc2)cc1F
REMARK SMILES IDX 21 1 20 2 19 3 18 4 16 5 17 6 15 8 9 9 10 10 11 11 14 12
REMARK SMILES IDX 12 13 8 14 6 16 7 17 5 18 1 19 2 20 3 21 89 22 4 23 88 24
REMARK SMILES IDX 90 25 13 26 22 29 23 30 24 31 25 32 26 33 27 35 28 36 29 37
REMARK SMILES IDX 87 38 30 39 86 40 31 41 32 42 33 43 80 44 34 45 85 46 79 47
REMARK SMILES IDX 81 48 35 49 84 50 78 51 77 52 36 54 66 55 47 56 65 57 48 58
REMARK SMILES IDX 51 59 64 60 82 61 49 62 50 63 63 65 83 66 52 67 37 68 38 69
REMARK SMILES IDX 46 70 39 71 45 72 40 73 41 74 42 75 43 76 44 77 67 78 68 79
REMARK SMILES IDX 76 80 69 81 75 82 70 83 71 84 72 85 73 86 74 87 53 88 54 89
REMARK SMILES IDX 62 90 55 91 61 92 56 93 57 94 58 95 59 96 60 97
REMARK H PARENT 18 7 8 15 13 27 13 28 25 34 81 53 51 64
REMARK Flexibility Score: inf
ROOT
ATOM      1  C   UNL     1      -1.409   0.578  -0.769  1.00  0.00     0.002 C 
ENDROOT
BRANCH   1   2
ATOM      2  C   UNL     1      -0.538  -1.116   0.303  1.00  0.00     0.021 C 
BRANCH   2   3
ATOM      3  C   UNL     1      -0.764  -2.835   0.433  1.00  0.00     0.116 C 
BRANCH   3   4
ATOM      4  N   UNL     1      -0.951  -3.675  -0.746  1.00  0.00    -0.352 N 
ATOM      5  C   UNL     1      -1.947  -4.566  -1.061  1.00  0.00     0.253 C 
ATOM      6  O   UNL     1      -1.988  -5.056  -2.189  1.00  0.00    -0.269 OA
ATOM      7  H   UNL     1      -0.245  -3.590  -1.427  1.00  0.00     0.163 HD
BRANCH   5   8
ATOM      8  C   UNL     1      -2.861  -5.060  -0.010  1.00  0.00     0.065 A 
ATOM      9  C   UNL     1      -3.479  -4.255   0.952  1.00  0.00     0.048 A 
ATOM     10  C   UNL     1      -3.755  -4.908   2.170  1.00  0.00     0.028 A 
ATOM     11  C   UNL     1      -3.584  -6.295   2.345  1.00  0.00     0.027 A 
ATOM     12  C   UNL     1      -2.839  -6.470   0.105  1.00  0.00     0.041 A 
ATOM     13  C   UNL     1      -3.234  -7.105   1.273  1.00  0.00     0.032 A 
BRANCH   9  14
ATOM     14  N   UNL     1      -3.816  -2.914   0.846  1.00  0.00    -0.378 N 
ATOM     15  H   UNL     1      -4.109  -2.509   1.694  1.00  0.00     0.161 HD
BRANCH  14  16
ATOM     16  C   UNL     1      -3.819  -1.978  -0.296  1.00  0.00     0.106 C 
ATOM     17  C   UNL     1      -4.456  -2.536  -1.561  1.00  0.00     0.036 C 
BRANCH  16  18
ATOM     18  C   UNL     1      -2.518  -1.175  -0.369  1.00  0.00    -0.023 A 
ATOM     19  C   UNL     1       1.842   1.482   0.063  1.00  0.00     0.047 C 
ATOM     20  C   UNL     1       0.614   0.643  -0.062  1.00  0.00    -0.015 A 
ATOM     21  C   UNL     1      -0.665   0.819   1.192  1.00  0.00     0.007 A 
ATOM     22  C   UNL     1       0.308  -0.413  -1.496  1.00  0.00     0.126 A 
ATOM     23  C   UNL     1      -2.208  -0.105   1.053  1.00  0.00     0.006 A 
ATOM     24  C   UNL     1      -1.254  -1.321  -1.656  1.00  0.00     0.045 A 
ATOM     25  F   UNL     1       1.263  -0.567  -2.422  1.00  0.00    -0.207 F 
ENDBRANCH  16  18
ENDBRANCH  14  16
ENDBRANCH   9  14
BRANCH  13  26
ATOM     26  N   UNL     1      -3.078  -8.474   1.417  1.00  0.00    -0.399 N 
ATOM     27  H   UNL     1      -3.362  -8.917   2.250  1.00  0.00     0.156 HD
ATOM     28  H   UNL     1      -2.684  -9.005   0.687  1.00  0.00     0.156 HD
ENDBRANCH  13  26
ENDBRANCH   5   8
ENDBRANCH   3   4
ENDBRANCH   2   3
ENDBRANCH   1   2
BRANCH   1  29
ATOM     29  C   UNL     1      -2.865   1.454  -0.844  1.00  0.00     0.002 C 
BRANCH  29  30
ATOM     30  C   UNL     1      -3.314   2.521   0.175  1.00  0.00     0.021 C 
BRANCH  30  31
ATOM     31  C   UNL     1      -2.354   3.594   0.688  1.00  0.00     0.116 C 
BRANCH  31  32
ATOM     32  N   UNL     1      -1.675   4.409  -0.302  1.00  0.00    -0.352 N 
ATOM     33  C   UNL     1      -1.021   5.598  -0.036  1.00  0.00     0.251 C 
ATOM     34  H   UNL     1      -1.681   4.092  -1.234  1.00  0.00     0.163 HD
ATOM     35  O   UNL     1      -0.557   6.298  -0.928  1.00  0.00    -0.269 OA
BRANCH  33  36
ATOM     36  C   UNL     1      -0.911   6.017   1.380  1.00  0.00     0.039 A 
ATOM     37  C   UNL     1      -1.626   7.128   1.830  1.00  0.00     0.014 A 
ATOM     38  C   UNL     1      -0.173   5.234   2.272  1.00  0.00     0.014 A 
ATOM     39  C   UNL     1      -1.626   7.433   3.194  1.00  0.00     0.010 A 
ATOM     40  C   UNL     1      -0.233   5.502   3.638  1.00  0.00     0.010 A 
ATOM     41  C   UNL     1      -0.947   6.613   4.113  1.00  0.00    -0.014 A 
BRANCH  41  42
ATOM     42  C   UNL     1      -0.952   6.944   5.564  1.00  0.00     0.031 A 
ATOM     43  C   UNL     1       0.332   7.328   6.251  1.00  0.00     0.074 A 
ATOM     44  C   UNL     1      -2.107   6.910   6.260  1.00  0.00     0.049 A 
ATOM     45  N   UNL     1       0.523   7.709   7.488  1.00  0.00    -0.248 NA
ATOM     46  C   UNL     1       1.566   7.257   5.451  1.00  0.00     0.031 C 
ATOM     47  C   UNL     1      -3.411   6.521   5.716  1.00  0.00     0.029 A 
ATOM     48  N   UNL     1      -2.378   7.225   7.569  1.00  0.00    -0.354 N 
ATOM     49  C   UNL     1       1.892   7.923   7.611  1.00  0.00     0.074 A 
ATOM     50  C   UNL     1       2.492   7.561   6.347  1.00  0.00     0.031 C 
ATOM     51  C   UNL     1      -4.347   6.668   6.667  1.00  0.00     0.029 A 
ATOM     52  C   UNL     1      -3.710   7.119   7.901  1.00  0.00     0.049 A 
ATOM     53  H   UNL     1      -1.684   7.500   8.211  1.00  0.00     0.167 HD
ATOM     54  C   UNL     1       2.585   8.402   8.671  1.00  0.00     0.031 A 
ATOM     55  C   UNL     1      -4.347   7.359   9.065  1.00  0.00     0.031 A 
ATOM     56  C   UNL     1       1.982   8.756   9.928  1.00  0.00     0.049 A 
ATOM     57  C   UNL     1      -3.548   7.855  10.241  1.00  0.00     0.074 A 
ATOM     58  C   UNL     1       2.587   9.289  11.052  1.00  0.00     0.029 A 
ATOM     59  N   UNL     1       0.637   8.603  10.232  1.00  0.00    -0.354 N 
ATOM     60  N   UNL     1      -2.265   8.123  10.312  1.00  0.00    -0.248 NA
ATOM     61  C   UNL     1      -4.284   8.094  11.490  1.00  0.00     0.031 C 
ATOM     62  C   UNL     1       1.624   9.385  12.060  1.00  0.00     0.029 A 
ATOM     63  C   UNL     1       0.401   8.995  11.538  1.00  0.00     0.049 A 
ATOM     64  H   UNL     1      -0.048   8.267   9.610  1.00  0.00     0.167 HD
ATOM     65  C   UNL     1      -2.047   8.589  11.605  1.00  0.00     0.074 A 
ATOM     66  C   UNL     1      -3.333   8.589  12.270  1.00  0.00     0.031 C 
ATOM     67  C   UNL     1      -0.887   8.982  12.188  1.00  0.00     0.031 A 
BRANCH  54  68
ATOM     68  C   UNL     1       4.078   8.555   8.519  1.00  0.00    -0.014 A 
ATOM     69  C   UNL     1       4.633   9.501   7.636  1.00  0.00     0.010 A 
ATOM     70  C   UNL     1       4.942   7.766   9.301  1.00  0.00     0.010 A 
ATOM     71  C   UNL     1       6.019   9.625   7.508  1.00  0.00     0.020 A 
ATOM     72  C   UNL     1       6.329   7.912   9.202  1.00  0.00     0.020 A 
ATOM     73  C   UNL     1       6.858   8.831   8.294  1.00  0.00     0.054 A 
BRANCH  73  74
ATOM     74  S   UNL     1       8.652   9.038   8.128  1.00  0.00     0.124 S 
ATOM     75  O   UNL     1       8.895   8.505   6.790  1.00  0.00    -0.237 OA
ATOM     76  O   UNL     1       8.819  10.482   8.270  1.00  0.00    -0.237 OA
ATOM     77  O   UNL     1       9.197   8.239   9.223  1.00  0.00    -0.744 OA
ENDBRANCH  73  74
ENDBRANCH  54  68
BRANCH  55  78
ATOM     78  C   UNL     1      -5.818   7.137   9.175  1.00  0.00    -0.014 A 
ATOM     79  C   UNL     1      -6.700   8.212   9.387  1.00  0.00     0.010 A 
ATOM     80  C   UNL     1      -6.345   5.837   9.070  1.00  0.00     0.010 A 
ATOM     81  C   UNL     1      -8.076   7.988   9.512  1.00  0.00     0.020 A 
ATOM     82  C   UNL     1      -7.722   5.612   9.158  1.00  0.00     0.020 A 
ATOM     83  C   UNL     1      -8.578   6.689   9.390  1.00  0.00     0.054 A 
BRANCH  83  84
ATOM     84  S   UNL     1     -10.370   6.428   9.506  1.00  0.00     0.124 S 
ATOM     85  O   UNL     1     -10.629   6.707  10.915  1.00  0.00    -0.237 OA
ATOM     86  O   UNL     1     -10.890   7.410   8.558  1.00  0.00    -0.237 OA
ATOM     87  O   UNL     1     -10.539   5.033   9.102  1.00  0.00    -0.744 OA
ENDBRANCH  83  84
ENDBRANCH  55  78
BRANCH  67  88
ATOM     88  C   UNL     1      -0.957   9.476  13.611  1.00  0.00    -0.014 A 
ATOM     89  C   UNL     1      -1.252   8.608  14.677  1.00  0.00     0.010 A 
ATOM     90  C   UNL     1      -0.670  10.826  13.887  1.00  0.00     0.010 A 
ATOM     91  C   UNL     1      -1.299   9.090  15.988  1.00  0.00     0.020 A 
ATOM     92  C   UNL     1      -0.676  11.303  15.200  1.00  0.00     0.020 A 
ATOM     93  C   UNL     1      -1.007  10.434  16.241  1.00  0.00     0.054 A 
BRANCH  93  94
ATOM     94  S   UNL     1      -1.036  11.022  17.955  1.00  0.00     0.124 S 
ATOM     95  O   UNL     1      -2.461  10.976  18.269  1.00  0.00    -0.237 OA
ATOM     96  O   UNL     1      -0.208  10.035  18.643  1.00  0.00    -0.237 OA
ATOM     97  O   UNL     1      -0.460  12.362  17.873  1.00  0.00    -0.744 OA
ENDBRANCH  93  94
ENDBRANCH  67  88
ENDBRANCH  41  42
ENDBRANCH  33  36
ENDBRANCH  31  32
ENDBRANCH  30  31
ENDBRANCH  29  30
ENDBRANCH   1  29
TORSDOF 20
