REMARK SMILES Cc1ccc(C[C@H](C(=O)NCCCCCCNC(=O)c2ccc(-c3c4nc(c(-c5ccc(S(=O)(=O)[O-])cc5)c5ccc([nH]5)c(-c5ccc(S(=O)(=O)[O-])cc5)c5nc(c(-c6ccc(S(=O)(=O)[O-])cc6)c6ccc3[nH]6)C=C5)C=C4)cc2)[C@@H]2CCCC[C@@H]2O)cc1
REMARK SMILES IDX 14 1 13 2 12 3 11 4 10 5 8 6 9 7 7 9 6 10 5 11 1 12 2 13
REMARK SMILES IDX 3 14 88 15 4 16 87 17 80 18 81 19 85 20 82 21 84 22 83 23
REMARK SMILES IDX 86 24 15 26 16 27 17 28 18 29 19 31 20 32 21 33 79 34 22 35
REMARK SMILES IDX 78 36 23 37 24 38 25 39 72 40 26 41 77 42 71 43 73 44 27 45
REMARK SMILES IDX 76 46 70 47 69 48 28 50 58 51 39 52 57 53 40 54 43 55 56 56
REMARK SMILES IDX 74 57 41 58 42 59 55 61 75 62 44 63 29 64 30 65 38 66 31 67
REMARK SMILES IDX 37 68 32 69 33 70 34 71 35 72 36 73 59 74 60 75 68 76 61 77
REMARK SMILES IDX 67 78 62 79 63 80 64 81 65 82 66 83 45 84 46 85 54 86 47 87
REMARK SMILES IDX 53 88 48 89 49 90 50 91 51 92 52 93
REMARK H PARENT 10 8 86 25 17 30 73 49 43 60
REMARK Flexibility Score: inf
ROOT
ATOM      1  C   UNL     1      -3.387   0.222   5.776  1.00  0.00     0.002 C 
ENDROOT
BRANCH   1   2
ATOM      2  C   UNL     1      -4.410  -0.918   5.887  1.00  0.00     0.002 C 
BRANCH   2   3
ATOM      3  C   UNL     1      -4.903  -1.655   4.591  1.00  0.00     0.021 C 
BRANCH   3   4
ATOM      4  C   UNL     1      -5.052  -0.901   3.254  1.00  0.00     0.116 C 
BRANCH   4   5
ATOM      5  N   UNL     1      -4.349  -1.449   2.104  1.00  0.00    -0.356 N 
ATOM      6  C   UNL     1      -4.495  -1.248   0.760  1.00  0.00     0.223 C 
ATOM      7  O   UNL     1      -3.631  -1.817   0.070  1.00  0.00    -0.275 OA
ATOM      8  H   UNL     1      -3.633  -2.083   2.338  1.00  0.00     0.163 HD
BRANCH   6   9
ATOM      9  C   UNL     1      -5.681  -0.484   0.045  1.00  0.00     0.088 C 
BRANCH   9  10
ATOM     10  C   UNL     1      -5.856   1.004   0.473  1.00  0.00     0.049 C 
BRANCH  10  11
ATOM     11  C   UNL     1      -6.685   1.236   1.711  1.00  0.00    -0.047 A 
ATOM     12  C   UNL     1      -8.151   0.573   5.626  1.00  0.00     0.044 C 
ATOM     13  C   UNL     1      -7.772   0.999   4.248  1.00  0.00    -0.051 A 
ATOM     14  C   UNL     1      -8.449   0.455   3.157  1.00  0.00     0.004 A 
ATOM     15  C   UNL     1      -6.706   1.879   4.033  1.00  0.00     0.004 A 
ATOM     16  C   UNL     1      -7.915   0.587   1.882  1.00  0.00     0.004 A 
ATOM     17  C   UNL     1      -6.169   2.013   2.755  1.00  0.00     0.004 A 
ENDBRANCH  10  11
ENDBRANCH   9  10
BRANCH   9  18
ATOM     18  C   UNL     1      -5.454  -0.593  -1.542  1.00  0.00     0.030 C 
ATOM     19  C   UNL     1      -5.978   0.547  -2.448  1.00  0.00     0.007 C 
ATOM     20  C   UNL     1      -5.959  -1.935  -2.145  1.00  0.00     0.118 C 
ATOM     21  C   UNL     1      -7.494   0.540  -2.617  1.00  0.00     0.001 C 
ATOM     22  C   UNL     1      -7.476  -1.963  -2.370  1.00  0.00     0.032 C 
ATOM     23  C   UNL     1      -7.963  -0.784  -3.205  1.00  0.00     0.003 C 
BRANCH  20  24
ATOM     24  O   UNL     1      -5.607  -3.057  -1.351  1.00  0.00    -0.393 OA
ATOM     25  H   UNL     1      -6.054  -2.999  -0.492  1.00  0.00     0.210 HD
ENDBRANCH  20  24
ENDBRANCH   9  18
ENDBRANCH   6   9
ENDBRANCH   4   5
ENDBRANCH   3   4
ENDBRANCH   2   3
ENDBRANCH   1   2
BRANCH   1  26
ATOM     26  C   UNL     1      -3.485   1.534   6.618  1.00  0.00     0.021 C 
BRANCH  26  27
ATOM     27  C   UNL     1      -4.750   1.983   7.348  1.00  0.00     0.116 C 
BRANCH  27  28
ATOM     28  N   UNL     1      -4.750   1.853   8.794  1.00  0.00    -0.352 N 
ATOM     29  C   UNL     1      -5.577   2.696   9.546  1.00  0.00     0.251 C 
ATOM     30  H   UNL     1      -4.180   1.185   9.237  1.00  0.00     0.163 HD
ATOM     31  O   UNL     1      -5.522   3.907   9.564  1.00  0.00    -0.269 OA
BRANCH  29  32
ATOM     32  C   UNL     1      -6.840   2.024   9.925  1.00  0.00     0.039 A 
ATOM     33  C   UNL     1      -7.096   1.398  11.145  1.00  0.00     0.014 A 
ATOM     34  C   UNL     1      -7.731   1.916   8.860  1.00  0.00     0.014 A 
ATOM     35  C   UNL     1      -8.170   0.504  11.233  1.00  0.00     0.010 A 
ATOM     36  C   UNL     1      -8.752   1.005   8.934  1.00  0.00     0.010 A 
ATOM     37  C   UNL     1      -8.928   0.249  10.090  1.00  0.00    -0.014 A 
BRANCH  37  38
ATOM     38  C   UNL     1      -9.879  -0.838   9.907  1.00  0.00     0.031 A 
ATOM     39  C   UNL     1     -11.330  -0.560   9.969  1.00  0.00     0.074 A 
ATOM     40  C   UNL     1      -9.402  -1.997   9.395  1.00  0.00     0.049 A 
ATOM     41  N   UNL     1     -12.243  -1.452  10.146  1.00  0.00    -0.248 NA
ATOM     42  C   UNL     1     -11.869   0.793   9.848  1.00  0.00     0.031 C 
ATOM     43  C   UNL     1     -10.166  -3.084   8.789  1.00  0.00     0.029 A 
ATOM     44  N   UNL     1      -8.105  -2.517   9.469  1.00  0.00    -0.354 N 
ATOM     45  C   UNL     1     -13.453  -0.866   9.831  1.00  0.00     0.074 A 
ATOM     46  C   UNL     1     -13.181   0.550   9.777  1.00  0.00     0.031 C 
ATOM     47  C   UNL     1      -9.432  -4.210   8.859  1.00  0.00     0.029 A 
ATOM     48  C   UNL     1      -8.261  -3.897   9.666  1.00  0.00     0.049 A 
ATOM     49  H   UNL     1      -7.260  -2.018   9.397  1.00  0.00     0.167 HD
ATOM     50  C   UNL     1     -14.508  -1.656   9.475  1.00  0.00     0.031 A 
ATOM     51  C   UNL     1      -7.948  -4.513  10.848  1.00  0.00     0.031 A 
ATOM     52  C   UNL     1     -14.156  -3.072   9.591  1.00  0.00     0.049 A 
ATOM     53  C   UNL     1      -9.157  -5.149  11.509  1.00  0.00     0.074 A 
ATOM     54  C   UNL     1     -13.788  -4.020   8.651  1.00  0.00     0.029 A 
ATOM     55  N   UNL     1     -13.819  -3.595  10.835  1.00  0.00    -0.354 N 
ATOM     56  N   UNL     1     -10.390  -4.824  11.232  1.00  0.00    -0.248 NA
ATOM     57  C   UNL     1      -9.077  -6.188  12.532  1.00  0.00     0.031 C 
ATOM     58  C   UNL     1     -13.107  -5.064   9.333  1.00  0.00     0.029 A 
ATOM     59  C   UNL     1     -13.105  -4.770  10.686  1.00  0.00     0.049 A 
ATOM     60  H   UNL     1     -14.056  -3.188  11.699  1.00  0.00     0.167 HD
ATOM     61  C   UNL     1     -11.251  -5.590  11.971  1.00  0.00     0.074 A 
ATOM     62  C   UNL     1     -10.379  -6.426  12.777  1.00  0.00     0.031 C 
ATOM     63  C   UNL     1     -12.607  -5.483  11.855  1.00  0.00     0.031 A 
BRANCH  50  64
ATOM     64  C   UNL     1     -15.736  -1.169   8.722  1.00  0.00    -0.014 A 
ATOM     65  C   UNL     1     -16.505  -2.094   7.982  1.00  0.00     0.010 A 
ATOM     66  C   UNL     1     -16.157   0.173   8.644  1.00  0.00     0.010 A 
ATOM     67  C   UNL     1     -17.559  -1.695   7.143  1.00  0.00     0.020 A 
ATOM     68  C   UNL     1     -17.192   0.592   7.791  1.00  0.00     0.020 A 
ATOM     69  C   UNL     1     -17.880  -0.346   7.032  1.00  0.00     0.054 A 
BRANCH  69  70
ATOM     70  S   UNL     1     -19.200   0.162   5.899  1.00  0.00     0.124 S 
ATOM     71  O   UNL     1     -18.707  -0.314   4.609  1.00  0.00    -0.237 OA
ATOM     72  O   UNL     1     -20.361  -0.545   6.431  1.00  0.00    -0.237 OA
ATOM     73  O   UNL     1     -19.241   1.617   6.043  1.00  0.00    -0.744 OA
ENDBRANCH  69  70
ENDBRANCH  50  64
BRANCH  51  74
ATOM     74  C   UNL     1      -6.799  -3.899  11.577  1.00  0.00    -0.014 A 
ATOM     75  C   UNL     1      -5.519  -4.051  11.003  1.00  0.00     0.010 A 
ATOM     76  C   UNL     1      -7.009  -2.856  12.498  1.00  0.00     0.010 A 
ATOM     77  C   UNL     1      -4.538  -3.075  11.186  1.00  0.00     0.020 A 
ATOM     78  C   UNL     1      -6.019  -1.879  12.693  1.00  0.00     0.020 A 
ATOM     79  C   UNL     1      -4.825  -1.959  11.972  1.00  0.00     0.054 A 
BRANCH  79  80
ATOM     80  S   UNL     1      -3.737  -0.513  11.797  1.00  0.00     0.124 S 
ATOM     81  O   UNL     1      -2.448  -1.028  12.241  1.00  0.00    -0.237 OA
ATOM     82  O   UNL     1      -3.859  -0.241  10.362  1.00  0.00    -0.237 OA
ATOM     83  O   UNL     1      -4.350   0.487  12.664  1.00  0.00    -0.744 OA
ENDBRANCH  79  80
ENDBRANCH  51  74
BRANCH  63  84
ATOM     84  C   UNL     1     -13.619  -6.112  12.780  1.00  0.00    -0.014 A 
ATOM     85  C   UNL     1     -13.350  -6.463  14.111  1.00  0.00     0.010 A 
ATOM     86  C   UNL     1     -14.960  -6.233  12.340  1.00  0.00     0.010 A 
ATOM     87  C   UNL     1     -14.355  -6.976  14.942  1.00  0.00     0.020 A 
ATOM     88  C   UNL     1     -15.979  -6.694  13.175  1.00  0.00     0.020 A 
ATOM     89  C   UNL     1     -15.662  -7.092  14.466  1.00  0.00     0.054 A 
BRANCH  89  90
ATOM     90  S   UNL     1     -16.960  -7.709  15.565  1.00  0.00     0.124 S 
ATOM     91  O   UNL     1     -16.812  -9.155  15.419  1.00  0.00    -0.237 OA
ATOM     92  O   UNL     1     -16.571  -7.168  16.866  1.00  0.00    -0.237 OA
ATOM     93  O   UNL     1     -18.184  -7.143  15.004  1.00  0.00    -0.744 OA
ENDBRANCH  89  90
ENDBRANCH  63  84
ENDBRANCH  37  38
ENDBRANCH  29  32
ENDBRANCH  27  28
ENDBRANCH  26  27
ENDBRANCH   1  26
TORSDOF 20
