REMARK SMILES O=C(NCCCCCCNC(=O)[C@@H]1CS[C@@H](c2cc(Br)ccc2O)[NH2+]1)c1ccc(-c2c3nc(c(-c4ccc(S(=O)(=O)[O-])cc4)c4ccc([nH]4)c(-c4ccc(S(=O)(=O)[O-])cc4)c4nc(c(-c5ccc(S(=O)(=O)[O-])cc5)c5ccc2[nH]5)C=C4)C=C3)cc1
REMARK SMILES IDX 6 1 5 2 4 3 3 4 1 5 2 6 26 8 27 9 85 10 28 11 84 12 29 13
REMARK SMILES IDX 30 14 31 15 78 16 32 17 83 18 77 19 79 20 33 21 82 22 76 23
REMARK SMILES IDX 75 24 34 26 64 27 45 28 63 29 46 30 49 31 62 32 80 33 47 34
REMARK SMILES IDX 48 35 61 37 81 38 50 39 35 40 36 41 44 42 37 43 43 44 38 45
REMARK SMILES IDX 39 46 40 47 41 48 42 49 65 50 66 51 74 52 67 53 73 54 68 55
REMARK SMILES IDX 69 56 70 57 71 58 72 59 51 60 52 61 60 62 53 63 59 64 54 65
REMARK SMILES IDX 55 66 56 67 57 68 58 69 7 70 8 71 9 72 10 73 11 74 12 76
REMARK SMILES IDX 13 77 14 78 25 79 15 80 16 81 17 84 18 85 23 86 19 87 22 88
REMARK SMILES IDX 20 89 21 90 24 91
REMARK H PARENT 3 7 79 25 49 36 10 75 25 82 25 83 24 92
REMARK Flexibility Score: inf
ROOT
ATOM      1  C   UNL     1      10.618 -12.054  -3.451  1.00  0.00     0.002 C 
ENDROOT
BRANCH   1   2
ATOM      2  C   UNL     1      10.599 -12.551  -2.006  1.00  0.00     0.021 C 
BRANCH   2   3
ATOM      3  C   UNL     1       9.529 -13.583  -1.670  1.00  0.00     0.116 C 
BRANCH   3   4
ATOM      4  N   UNL     1       9.698 -14.842  -2.377  1.00  0.00    -0.352 N 
ATOM      5  O   UNL     1       9.994 -17.064  -2.626  1.00  0.00    -0.269 OA
ATOM      6  C   UNL     1       9.732 -16.124  -1.879  1.00  0.00     0.251 C 
ATOM      7  H   UNL     1       9.805 -14.766  -3.352  1.00  0.00     0.163 HD
BRANCH   6   8
ATOM      8  C   UNL     1       9.492 -16.370  -0.438  1.00  0.00     0.039 A 
ATOM      9  C   UNL     1       8.439 -15.745   0.234  1.00  0.00     0.014 A 
ATOM     10  C   UNL     1      10.345 -17.234   0.255  1.00  0.00     0.014 A 
ATOM     11  C   UNL     1       8.341 -15.855   1.619  1.00  0.00     0.010 A 
ATOM     12  C   UNL     1      10.193 -17.408   1.635  1.00  0.00     0.010 A 
ATOM     13  C   UNL     1       9.219 -16.683   2.338  1.00  0.00    -0.014 A 
BRANCH  13  14
ATOM     14  C   UNL     1       9.083 -16.782   3.816  1.00  0.00     0.031 A 
ATOM     15  C   UNL     1      10.170 -16.284   4.733  1.00  0.00     0.074 A 
ATOM     16  C   UNL     1       7.946 -17.286   4.336  1.00  0.00     0.049 A 
ATOM     17  N   UNL     1      10.180 -16.228   6.042  1.00  0.00    -0.248 NA
ATOM     18  C   UNL     1      11.406 -15.789   4.106  1.00  0.00     0.031 C 
ATOM     19  C   UNL     1       6.823 -17.812   3.556  1.00  0.00     0.029 A 
ATOM     20  N   UNL     1       7.533 -17.411   5.638  1.00  0.00    -0.354 N 
ATOM     21  C   UNL     1      11.425 -15.722   6.396  1.00  0.00     0.074 A 
ATOM     22  C   UNL     1      12.153 -15.502   5.164  1.00  0.00     0.031 C 
ATOM     23  C   UNL     1       5.827 -18.147   4.390  1.00  0.00     0.029 A 
ATOM     24  C   UNL     1       6.258 -17.910   5.764  1.00  0.00     0.049 A 
ATOM     25  H   UNL     1       8.095 -17.167   6.409  1.00  0.00     0.167 HD
ATOM     26  C   UNL     1      11.918 -15.459   7.631  1.00  0.00     0.031 A 
ATOM     27  C   UNL     1       5.513 -18.149   6.859  1.00  0.00     0.031 A 
ATOM     28  C   UNL     1      11.191 -15.666   8.857  1.00  0.00     0.049 A 
ATOM     29  C   UNL     1       6.079 -17.842   8.215  1.00  0.00     0.074 A 
ATOM     30  C   UNL     1      11.595 -15.395  10.154  1.00  0.00     0.029 A 
ATOM     31  N   UNL     1       9.913 -16.195   8.941  1.00  0.00    -0.354 N 
ATOM     32  N   UNL     1       7.246 -17.329   8.522  1.00  0.00    -0.248 NA
ATOM     33  C   UNL     1       5.223 -18.140   9.371  1.00  0.00     0.031 C 
ATOM     34  C   UNL     1      10.575 -15.797  11.024  1.00  0.00     0.029 A 
ATOM     35  C   UNL     1       9.518 -16.273  10.266  1.00  0.00     0.049 A 
ATOM     36  H   UNL     1       9.366 -16.474   8.171  1.00  0.00     0.167 HD
ATOM     37  C   UNL     1       7.257 -17.224   9.908  1.00  0.00     0.074 A 
ATOM     38  C   UNL     1       5.975 -17.711  10.376  1.00  0.00     0.031 C 
ATOM     39  C   UNL     1       8.241 -16.762  10.718  1.00  0.00     0.031 A 
BRANCH  26  40
ATOM     40  C   UNL     1      13.329 -14.938   7.721  1.00  0.00    -0.014 A 
ATOM     41  C   UNL     1      13.644 -13.618   7.352  1.00  0.00     0.010 A 
ATOM     42  C   UNL     1      14.347 -15.771   8.221  1.00  0.00     0.010 A 
ATOM     43  C   UNL     1      14.960 -13.155   7.440  1.00  0.00     0.020 A 
ATOM     44  C   UNL     1      15.660 -15.304   8.332  1.00  0.00     0.020 A 
ATOM     45  C   UNL     1      15.962 -14.004   7.922  1.00  0.00     0.054 A 
BRANCH  45  46
ATOM     46  S   UNL     1      17.660 -13.377   8.032  1.00  0.00     0.124 S 
ATOM     47  O   UNL     1      18.082 -13.410   6.634  1.00  0.00    -0.237 OA
ATOM     48  O   UNL     1      17.475 -12.043   8.599  1.00  0.00    -0.237 OA
ATOM     49  O   UNL     1      18.328 -14.336   8.909  1.00  0.00    -0.744 OA
ENDBRANCH  45  46
ENDBRANCH  26  40
BRANCH  27  50
ATOM     50  C   UNL     1       4.138 -18.696   6.708  1.00  0.00    -0.014 A 
ATOM     51  C   UNL     1       3.018 -17.886   6.958  1.00  0.00     0.010 A 
ATOM     52  C   UNL     1       3.946 -20.023   6.283  1.00  0.00     0.010 A 
ATOM     53  C   UNL     1       1.727 -18.396   6.795  1.00  0.00     0.020 A 
ATOM     54  C   UNL     1       2.657 -20.529   6.094  1.00  0.00     0.020 A 
ATOM     55  C   UNL     1       1.555 -19.714   6.362  1.00  0.00     0.054 A 
BRANCH  55  56
ATOM     56  S   UNL     1      -0.127 -20.339   6.093  1.00  0.00     0.124 S 
ATOM     57  O   UNL     1      -0.570 -20.608   7.457  1.00  0.00    -0.237 OA
ATOM     58  O   UNL     1      -0.780 -19.216   5.425  1.00  0.00    -0.237 OA
ATOM     59  O   UNL     1       0.078 -21.517   5.255  1.00  0.00    -0.744 OA
ENDBRANCH  55  56
ENDBRANCH  27  50
BRANCH  39  60
ATOM     60  C   UNL     1       7.952 -16.730  12.194  1.00  0.00    -0.014 A 
ATOM     61  C   UNL     1       7.922 -17.910  12.958  1.00  0.00     0.010 A 
ATOM     62  C   UNL     1       7.731 -15.494  12.829  1.00  0.00     0.010 A 
ATOM     63  C   UNL     1       7.635 -17.858  14.324  1.00  0.00     0.020 A 
ATOM     64  C   UNL     1       7.467 -15.437  14.199  1.00  0.00     0.020 A 
ATOM     65  C   UNL     1       7.402 -16.622  14.935  1.00  0.00     0.054 A 
BRANCH  65  66
ATOM     66  S   UNL     1       7.052 -16.573  16.714  1.00  0.00     0.124 S 
ATOM     67  O   UNL     1       5.651 -16.982  16.758  1.00  0.00    -0.237 OA
ATOM     68  O   UNL     1       8.006 -17.536  17.259  1.00  0.00    -0.237 OA
ATOM     69  O   UNL     1       7.308 -15.181  17.077  1.00  0.00    -0.744 OA
ENDBRANCH  65  66
ENDBRANCH  39  60
ENDBRANCH  13  14
ENDBRANCH   6   8
ENDBRANCH   3   4
ENDBRANCH   2   3
ENDBRANCH   1   2
BRANCH   1  70
ATOM     70  C   UNL     1       9.294 -11.518  -4.003  1.00  0.00     0.002 C 
BRANCH  70  71
ATOM     71  C   UNL     1       8.575 -10.462  -3.159  1.00  0.00     0.021 C 
BRANCH  71  72
ATOM     72  C   UNL     1       9.390  -9.229  -2.779  1.00  0.00     0.116 C 
BRANCH  72  73
ATOM     73  N   UNL     1       9.872  -8.494  -3.933  1.00  0.00    -0.351 N 
ATOM     74  C   UNL     1       9.828  -7.160  -4.217  1.00  0.00     0.279 C 
ATOM     75  H   UNL     1      10.302  -9.048  -4.625  1.00  0.00     0.163 HD
ATOM     76  O   UNL     1      10.409  -6.795  -5.245  1.00  0.00    -0.268 OA
BRANCH  74  77
ATOM     77  C   UNL     1       8.984  -6.171  -3.375  1.00  0.00     0.283 C 
ATOM     78  C   UNL     1       9.342  -4.709  -3.670  1.00  0.00     0.151 C 
ATOM     79  N   UNL     1       9.128  -6.357  -1.914  1.00  0.00    -0.320 N 
ATOM     80  S   UNL     1      10.579  -4.248  -2.413  1.00  0.00    -0.087 SA
ATOM     81  C   UNL     1      10.447  -5.837  -1.542  1.00  0.00     0.278 C 
ATOM     82  H   UNL     1       9.063  -7.347  -1.679  1.00  0.00     0.348 HD
ATOM     83  H   UNL     1       8.388  -5.866  -1.411  1.00  0.00     0.348 HD
BRANCH  81  84
ATOM     84  C   UNL     1      10.594  -5.809  -0.034  1.00  0.00     0.063 A 
ATOM     85  C   UNL     1      10.207  -4.706   0.751  1.00  0.00     0.030 A 
ATOM     86  C   UNL     1      11.048  -6.958   0.642  1.00  0.00     0.125 A 
ATOM     87  C   UNL     1      10.298  -4.754   2.145  1.00  0.00     0.018 A 
ATOM     88  C   UNL     1      11.129  -7.009   2.035  1.00  0.00     0.048 A 
ATOM     89  Br  UNL     1       9.785  -3.249   3.169  1.00  0.00    -0.051 Br
ATOM     90  C   UNL     1      10.755  -5.900   2.790  1.00  0.00     0.019 A 
BRANCH  86  91
ATOM     91  O   UNL     1      11.409  -8.060  -0.085  1.00  0.00    -0.507 OA
ATOM     92  H   UNL     1      11.360  -8.041  -1.021  1.00  0.00     0.293 HD
ENDBRANCH  86  91
ENDBRANCH  81  84
ENDBRANCH  74  77
ENDBRANCH  72  73
ENDBRANCH  71  72
ENDBRANCH  70  71
ENDBRANCH   1  70
TORSDOF 18
