REMARK SMILES Cc1cc(O[C@@H](C)C(=O)NCCC(=O)NCCCCCCNC(=O)c2ccc(-c3c4nc(c(-c5ccc(S(=O)(=O)[O-])cc5)c5ccc([nH]5)c(-c5ccc(S(=O)(=O)[O-])cc5)c5nc(c(-c6ccc(S(=O)(=O)[O-])cc6)c6ccc3[nH]6)C=C5)C=C4)cc2)c2c3c(c(=O)oc2c1)CCCC3
REMARK SMILES IDX 17 1 16 2 15 3 13 4 14 5 12 7 11 8 10 9 8 10 9 11 6 13 7 14
REMARK SMILES IDX 5 15 4 16 1 17 2 18 3 19 92 20 91 21 85 22 90 23 86 24 88 25
REMARK SMILES IDX 87 26 96 27 89 28 93 29 95 30 94 31 18 32 19 33 20 34 21 35
REMARK SMILES IDX 22 36 23 37 24 39 25 40 26 41 84 42 27 43 83 44 28 45 29 46
REMARK SMILES IDX 30 47 77 48 31 49 82 50 76 51 78 52 32 53 81 54 75 55 74 56
REMARK SMILES IDX 33 58 63 59 44 60 62 61 45 62 48 63 61 64 79 65 46 66 47 67
REMARK SMILES IDX 60 69 80 70 49 71 34 72 35 73 43 74 36 75 42 76 37 77 38 78
REMARK SMILES IDX 39 79 40 80 41 81 64 82 65 83 73 84 66 85 72 86 67 87 68 88
REMARK SMILES IDX 69 89 70 90 71 91 50 92 51 93 59 94 52 95 58 96 53 97 54 98
REMARK SMILES IDX 55 99 56 100 57 101
REMARK H PARENT 15 6 10 12 22 38 78 57 48 68
REMARK Flexibility Score: inf
ROOT
ATOM      1  C   UNL     1       5.777   2.440  -0.859  1.00  0.00     0.021 C 
ENDROOT
BRANCH   1   2
ATOM      2  C   UNL     1       5.244   1.794  -2.136  1.00  0.00     0.116 C 
BRANCH   2   3
ATOM      3  N   UNL     1       4.806   0.449  -1.851  1.00  0.00    -0.356 N 
ATOM      4  C   UNL     1       3.551   0.047  -1.519  1.00  0.00     0.221 C 
ATOM      5  O   UNL     1       3.376  -1.098  -1.102  1.00  0.00    -0.275 OA
ATOM      6  H   UNL     1       5.492  -0.256  -1.903  1.00  0.00     0.163 HD
BRANCH   4   7
ATOM      7  C   UNL     1       2.399   1.012  -1.679  1.00  0.00     0.121 C 
BRANCH   7   8
ATOM      8  C   UNL     1       2.241   1.971  -0.501  1.00  0.00     0.126 C 
BRANCH   8   9
ATOM      9  N   UNL     1       2.590   3.338  -0.845  1.00  0.00    -0.352 N 
ATOM     10  C   UNL     1       1.983   4.314  -1.561  1.00  0.00     0.260 C 
ATOM     11  O   UNL     1       2.746   5.217  -1.933  1.00  0.00    -0.271 OA
ATOM     12  H   UNL     1       3.459   3.617  -0.476  1.00  0.00     0.163 HD
BRANCH  10  13
ATOM     13  C   UNL     1       0.451   4.449  -1.799  1.00  0.00     0.258 C 
ATOM     14  C   UNL     1      -0.253   4.887  -0.515  1.00  0.00     0.064 C 
BRANCH  13  15
ATOM     15  O   UNL     1      -0.351   3.693  -2.686  1.00  0.00    -0.480 OA
BRANCH  15  16
ATOM     16  C   UNL     1      -0.657   2.377  -2.583  1.00  0.00     0.132 A 
ATOM     17  C   UNL     1      -0.875  -0.307   0.104  1.00  0.00     0.044 C 
ATOM     18  C   UNL     1      -0.997   0.366  -1.233  1.00  0.00    -0.044 A 
ATOM     19  C   UNL     1      -0.857   1.755  -1.344  1.00  0.00     0.050 A 
ATOM     20  C   UNL     1      -1.063  -0.388  -2.398  1.00  0.00     0.051 A 
ATOM     21  C   UNL     1      -1.021   0.256  -3.636  1.00  0.00     0.142 A 
ATOM     22  C   UNL     1      -0.828   1.636  -3.778  1.00  0.00     0.063 A 
ATOM     23  O   UNL     1      -1.173  -0.599  -4.740  1.00  0.00    -0.422 OA
ATOM     24  C   UNL     1      -0.839   2.180  -5.166  1.00  0.00    -0.023 A 
ATOM     25  C   UNL     1      -1.284  -0.109  -6.024  1.00  0.00     0.339 A 
ATOM     26  C   UNL     1      -1.075   1.348  -6.203  1.00  0.00     0.042 A 
ATOM     27  C   UNL     1      -0.648   3.665  -5.409  1.00  0.00     0.037 C 
ATOM     28  O   UNL     1      -1.537  -0.854  -6.964  1.00  0.00    -0.246 OA
ATOM     29  C   UNL     1      -1.162   1.803  -7.640  1.00  0.00     0.043 C 
ATOM     30  C   UNL     1      -1.061   4.154  -6.800  1.00  0.00     0.005 C 
ATOM     31  C   UNL     1      -0.601   3.199  -7.884  1.00  0.00     0.005 C 
ENDBRANCH  15  16
ENDBRANCH  13  15
ENDBRANCH  10  13
ENDBRANCH   8   9
ENDBRANCH   7   8
ENDBRANCH   4   7
ENDBRANCH   2   3
ENDBRANCH   1   2
BRANCH   1  32
ATOM     32  C   UNL     1       7.185   1.984  -0.474  1.00  0.00     0.002 C 
BRANCH  32  33
ATOM     33  C   UNL     1       8.241   2.209  -1.558  1.00  0.00     0.002 C 
BRANCH  33  34
ATOM     34  C   UNL     1       8.217   3.603  -2.186  1.00  0.00     0.021 C 
BRANCH  34  35
ATOM     35  C   UNL     1       8.309   4.736  -1.173  1.00  0.00     0.116 C 
BRANCH  35  36
ATOM     36  N   UNL     1       9.567   4.701  -0.446  1.00  0.00    -0.352 N 
ATOM     37  C   UNL     1      10.581   5.626  -0.472  1.00  0.00     0.251 C 
ATOM     38  H   UNL     1       9.709   3.920   0.136  1.00  0.00     0.163 HD
ATOM     39  O   UNL     1      11.683   5.369  -0.000  1.00  0.00    -0.269 OA
BRANCH  37  40
ATOM     40  C   UNL     1      10.308   6.928  -1.105  1.00  0.00     0.039 A 
ATOM     41  C   UNL     1       9.161   7.639  -0.741  1.00  0.00     0.014 A 
ATOM     42  C   UNL     1      11.147   7.389  -2.119  1.00  0.00     0.014 A 
ATOM     43  C   UNL     1       8.773   8.737  -1.493  1.00  0.00     0.010 A 
ATOM     44  C   UNL     1      10.802   8.550  -2.812  1.00  0.00     0.010 A 
ATOM     45  C   UNL     1       9.598   9.215  -2.524  1.00  0.00    -0.014 A 
BRANCH  45  46
ATOM     46  C   UNL     1       9.212  10.443  -3.259  1.00  0.00     0.031 A 
ATOM     47  C   UNL     1       8.913  10.399  -4.731  1.00  0.00     0.074 A 
ATOM     48  C   UNL     1       9.114  11.599  -2.573  1.00  0.00     0.049 A 
ATOM     49  N   UNL     1       8.633  11.390  -5.536  1.00  0.00    -0.248 NA
ATOM     50  C   UNL     1       8.927   9.080  -5.387  1.00  0.00     0.031 C 
ATOM     51  C   UNL     1       9.345  11.740  -1.132  1.00  0.00     0.029 A 
ATOM     52  N   UNL     1       8.783  12.865  -2.980  1.00  0.00    -0.354 N 
ATOM     53  C   UNL     1       8.448  10.822  -6.791  1.00  0.00     0.074 A 
ATOM     54  C   UNL     1       8.675   9.400  -6.650  1.00  0.00     0.031 C 
ATOM     55  C   UNL     1       9.106  13.007  -0.771  1.00  0.00     0.029 A 
ATOM     56  C   UNL     1       8.797  13.789  -1.962  1.00  0.00     0.049 A 
ATOM     57  H   UNL     1       8.556  13.091  -3.912  1.00  0.00     0.167 HD
ATOM     58  C   UNL     1       8.107  11.437  -7.947  1.00  0.00     0.031 A 
ATOM     59  C   UNL     1       8.620  15.125  -1.980  1.00  0.00     0.031 A 
ATOM     60  C   UNL     1       7.876  12.854  -8.060  1.00  0.00     0.049 A 
ATOM     61  C   UNL     1       8.324  15.794  -3.290  1.00  0.00     0.074 A 
ATOM     62  C   UNL     1       7.526  13.574  -9.189  1.00  0.00     0.029 A 
ATOM     63  N   UNL     1       7.958  13.763  -7.015  1.00  0.00    -0.354 N 
ATOM     64  N   UNL     1       8.167  15.243  -4.469  1.00  0.00    -0.248 NA
ATOM     65  C   UNL     1       8.187  17.256  -3.281  1.00  0.00     0.031 C 
ATOM     66  C   UNL     1       7.465  14.924  -8.842  1.00  0.00     0.029 A 
ATOM     67  C   UNL     1       7.696  15.040  -7.480  1.00  0.00     0.049 A 
ATOM     68  H   UNL     1       8.172  13.534  -6.082  1.00  0.00     0.167 HD
ATOM     69  C   UNL     1       7.903  16.288  -5.344  1.00  0.00     0.074 A 
ATOM     70  C   UNL     1       7.902  17.504  -4.555  1.00  0.00     0.031 C 
ATOM     71  C   UNL     1       7.690  16.241  -6.680  1.00  0.00     0.031 A 
BRANCH  58  72
ATOM     72  C   UNL     1       7.950  10.607  -9.195  1.00  0.00    -0.014 A 
ATOM     73  C   UNL     1       8.838  10.791 -10.273  1.00  0.00     0.010 A 
ATOM     74  C   UNL     1       6.834   9.769  -9.366  1.00  0.00     0.010 A 
ATOM     75  C   UNL     1       8.588  10.192 -11.511  1.00  0.00     0.020 A 
ATOM     76  C   UNL     1       6.596   9.145 -10.595  1.00  0.00     0.020 A 
ATOM     77  C   UNL     1       7.459   9.384 -11.668  1.00  0.00     0.054 A 
BRANCH  77  78
ATOM     78  S   UNL     1       7.118   8.665 -13.299  1.00  0.00     0.124 S 
ATOM     79  O   UNL     1       6.670   9.826 -14.061  1.00  0.00    -0.237 OA
ATOM     80  O   UNL     1       8.417   8.118 -13.683  1.00  0.00    -0.237 OA
ATOM     81  O   UNL     1       6.089   7.664 -13.022  1.00  0.00    -0.744 OA
ENDBRANCH  77  78
ENDBRANCH  58  72
BRANCH  59  82
ATOM     82  C   UNL     1       8.738  15.884  -0.705  1.00  0.00    -0.014 A 
ATOM     83  C   UNL     1       9.972  15.937  -0.025  1.00  0.00     0.010 A 
ATOM     84  C   UNL     1       7.605  16.455  -0.104  1.00  0.00     0.010 A 
ATOM     85  C   UNL     1      10.055  16.477   1.259  1.00  0.00     0.020 A 
ATOM     86  C   UNL     1       7.691  17.030   1.169  1.00  0.00     0.020 A 
ATOM     87  C   UNL     1       8.908  17.006   1.855  1.00  0.00     0.054 A 
BRANCH  87  88
ATOM     88  S   UNL     1       9.024  17.641   3.550  1.00  0.00     0.124 S 
ATOM     89  O   UNL     1       9.064  16.407   4.330  1.00  0.00    -0.237 OA
ATOM     90  O   UNL     1      10.268  18.407   3.520  1.00  0.00    -0.237 OA
ATOM     91  O   UNL     1       7.809  18.437   3.700  1.00  0.00    -0.744 OA
ENDBRANCH  87  88
ENDBRANCH  59  82
BRANCH  71  92
ATOM     92  C   UNL     1       7.434  17.532  -7.410  1.00  0.00    -0.014 A 
ATOM     93  C   UNL     1       6.171  17.767  -7.985  1.00  0.00     0.010 A 
ATOM     94  C   UNL     1       8.492  18.414  -7.688  1.00  0.00     0.010 A 
ATOM     95  C   UNL     1       5.986  18.824  -8.877  1.00  0.00     0.020 A 
ATOM     96  C   UNL     1       8.303  19.491  -8.558  1.00  0.00     0.020 A 
ATOM     97  C   UNL     1       7.060  19.667  -9.174  1.00  0.00     0.054 A 
BRANCH  97  98
ATOM     98  S   UNL     1       6.826  20.974 -10.409  1.00  0.00     0.124 S 
ATOM     99  O   UNL     1       6.784  20.214 -11.655  1.00  0.00    -0.237 OA
ATOM    100  O   UNL     1       5.562  21.579  -9.997  1.00  0.00    -0.237 OA
ATOM    101  O   UNL     1       8.001  21.825 -10.236  1.00  0.00    -0.744 OA
ENDBRANCH  97  98
ENDBRANCH  71  92
ENDBRANCH  45  46
ENDBRANCH  37  40
ENDBRANCH  35  36
ENDBRANCH  34  35
ENDBRANCH  33  34
ENDBRANCH  32  33
ENDBRANCH   1  32
TORSDOF 21
