REMARK SMILES O=C(NCCCCCCNC(=O)[C@H]1C[NH2+]CCN1c1ncc(C(F)(F)F)cc1Cl)c1ccc(-c2c3nc(c(-c4ccc(S(=O)(=O)[O-])cc4)c4ccc([nH]4)c(-c4ccc(S(=O)(=O)[O-])cc4)c4nc(c(-c5ccc(S(=O)(=O)[O-])cc5)c5ccc2[nH]5)C=C4)C=C3)cc1
REMARK SMILES IDX 6 1 5 2 4 3 3 4 1 5 2 6 30 8 31 9 89 10 32 11 88 12 33 13
REMARK SMILES IDX 34 14 35 15 82 16 36 17 87 18 81 19 83 20 37 21 86 22 80 23
REMARK SMILES IDX 79 24 38 26 68 27 49 28 67 29 50 30 53 31 66 32 84 33 51 34
REMARK SMILES IDX 52 35 65 37 85 38 54 39 39 40 40 41 48 42 41 43 47 44 42 45
REMARK SMILES IDX 43 46 44 47 45 48 46 49 69 50 70 51 78 52 71 53 77 54 72 55
REMARK SMILES IDX 73 56 74 57 75 58 76 59 55 60 56 61 64 62 57 63 63 64 58 65
REMARK SMILES IDX 59 66 60 67 61 68 62 69 7 70 8 71 9 72 10 73 11 74 12 76
REMARK SMILES IDX 13 77 14 78 18 79 15 80 17 81 16 82 19 85 20 86 28 87 21 88
REMARK SMILES IDX 27 89 29 90 22 91 23 92 24 93 25 94 26 95
REMARK H PARENT 3 7 83 25 53 36 10 75 15 83 15 84
REMARK Flexibility Score: inf
ROOT
ATOM      1  C   UNL     1      11.440 -10.856   6.396  1.00  0.00     0.002 C 
ENDROOT
BRANCH   1   2
ATOM      2  C   UNL     1      11.290 -12.176   5.638  1.00  0.00     0.021 C 
BRANCH   2   3
ATOM      3  C   UNL     1      12.587 -12.691   5.027  1.00  0.00     0.116 C 
BRANCH   3   4
ATOM      4  N   UNL     1      13.566 -13.018   6.053  1.00  0.00    -0.352 N 
ATOM      5  O   UNL     1      14.707 -14.396   7.430  1.00  0.00    -0.269 OA
ATOM      6  C   UNL     1      14.094 -14.243   6.377  1.00  0.00     0.251 C 
ATOM      7  H   UNL     1      13.894 -12.259   6.587  1.00  0.00     0.163 HD
BRANCH   6   8
ATOM      8  C   UNL     1      13.909 -15.374   5.447  1.00  0.00     0.039 A 
ATOM      9  C   UNL     1      14.120 -15.194   4.077  1.00  0.00     0.014 A 
ATOM     10  C   UNL     1      13.525 -16.621   5.945  1.00  0.00     0.014 A 
ATOM     11  C   UNL     1      13.825 -16.222   3.192  1.00  0.00     0.010 A 
ATOM     12  C   UNL     1      13.314 -17.681   5.059  1.00  0.00     0.010 A 
ATOM     13  C   UNL     1      13.442 -17.483   3.675  1.00  0.00    -0.014 A 
BRANCH  13  14
ATOM     14  C   UNL     1      13.255 -18.602   2.718  1.00  0.00     0.031 A 
ATOM     15  C   UNL     1      11.914 -19.255   2.536  1.00  0.00     0.074 A 
ATOM     16  C   UNL     1      14.319 -19.019   2.004  1.00  0.00     0.049 A 
ATOM     17  N   UNL     1      11.586 -20.248   1.749  1.00  0.00    -0.248 NA
ATOM     18  C   UNL     1      10.799 -18.733   3.342  1.00  0.00     0.031 C 
ATOM     19  C   UNL     1      15.670 -18.458   2.099  1.00  0.00     0.029 A 
ATOM     20  N   UNL     1      14.434 -19.998   1.052  1.00  0.00    -0.354 N 
ATOM     21  C   UNL     1      10.236 -20.486   1.978  1.00  0.00     0.074 A 
ATOM     22  C   UNL     1       9.811 -19.548   2.996  1.00  0.00     0.031 C 
ATOM     23  C   UNL     1      16.466 -19.072   1.212  1.00  0.00     0.029 A 
ATOM     24  C   UNL     1      15.704 -20.117   0.539  1.00  0.00     0.049 A 
ATOM     25  H   UNL     1      13.680 -20.561   0.762  1.00  0.00     0.167 HD
ATOM     26  C   UNL     1       9.427 -21.402   1.390  1.00  0.00     0.031 A 
ATOM     27  C   UNL     1      16.212 -20.986  -0.354  1.00  0.00     0.031 A 
ATOM     28  C   UNL     1       9.866 -22.337   0.386  1.00  0.00     0.049 A 
ATOM     29  C   UNL     1      15.306 -22.019  -0.955  1.00  0.00     0.074 A 
ATOM     30  C   UNL     1       9.119 -23.287  -0.290  1.00  0.00     0.029 A 
ATOM     31  N   UNL     1      11.168 -22.449  -0.081  1.00  0.00    -0.354 N 
ATOM     32  N   UNL     1      14.024 -22.208  -0.749  1.00  0.00    -0.248 NA
ATOM     33  C   UNL     1      15.911 -22.955  -1.910  1.00  0.00     0.031 C 
ATOM     34  C   UNL     1       9.981 -24.012  -1.119  1.00  0.00     0.029 A 
ATOM     35  C   UNL     1      11.252 -23.470  -1.014  1.00  0.00     0.049 A 
ATOM     36  H   UNL     1      11.922 -21.886   0.208  1.00  0.00     0.167 HD
ATOM     37  C   UNL     1      13.663 -23.271  -1.568  1.00  0.00     0.074 A 
ATOM     38  C   UNL     1      14.859 -23.671  -2.283  1.00  0.00     0.031 C 
ATOM     39  C   UNL     1      12.451 -23.860  -1.714  1.00  0.00     0.031 A 
BRANCH  26  40
ATOM     40  C   UNL     1       7.991 -21.462   1.845  1.00  0.00    -0.014 A 
ATOM     41  C   UNL     1       7.080 -20.434   1.538  1.00  0.00     0.010 A 
ATOM     42  C   UNL     1       7.533 -22.586   2.558  1.00  0.00     0.010 A 
ATOM     43  C   UNL     1       5.753 -20.509   1.972  1.00  0.00     0.020 A 
ATOM     44  C   UNL     1       6.199 -22.679   2.968  1.00  0.00     0.020 A 
ATOM     45  C   UNL     1       5.322 -21.630   2.689  1.00  0.00     0.054 A 
BRANCH  45  46
ATOM     46  S   UNL     1       3.593 -21.703   3.231  1.00  0.00     0.124 S 
ATOM     47  O   UNL     1       3.570 -20.703   4.296  1.00  0.00    -0.237 OA
ATOM     48  O   UNL     1       2.861 -21.344   2.019  1.00  0.00    -0.237 OA
ATOM     49  O   UNL     1       3.424 -23.085   3.671  1.00  0.00    -0.744 OA
ENDBRANCH  45  46
ENDBRANCH  26  40
BRANCH  27  50
ATOM     50  C   UNL     1      17.654 -20.914  -0.710  1.00  0.00    -0.014 A 
ATOM     51  C   UNL     1      18.057 -20.491  -1.988  1.00  0.00     0.010 A 
ATOM     52  C   UNL     1      18.637 -21.232   0.247  1.00  0.00     0.010 A 
ATOM     53  C   UNL     1      19.415 -20.397  -2.306  1.00  0.00     0.020 A 
ATOM     54  C   UNL     1      19.994 -21.109  -0.056  1.00  0.00     0.020 A 
ATOM     55  C   UNL     1      20.375 -20.702  -1.336  1.00  0.00     0.054 A 
BRANCH  55  56
ATOM     56  S   UNL     1      22.130 -20.515  -1.754  1.00  0.00     0.124 S 
ATOM     57  O   UNL     1      22.350 -21.646  -2.649  1.00  0.00    -0.237 OA
ATOM     58  O   UNL     1      22.165 -19.195  -2.379  1.00  0.00    -0.237 OA
ATOM     59  O   UNL     1      22.801 -20.600  -0.458  1.00  0.00    -0.744 OA
ENDBRANCH  55  56
ENDBRANCH  27  50
BRANCH  39  60
ATOM     60  C   UNL     1      12.347 -24.980  -2.715  1.00  0.00    -0.014 A 
ATOM     61  C   UNL     1      12.928 -26.237  -2.471  1.00  0.00     0.010 A 
ATOM     62  C   UNL     1      11.615 -24.781  -3.900  1.00  0.00     0.010 A 
ATOM     63  C   UNL     1      12.804 -27.265  -3.409  1.00  0.00     0.020 A 
ATOM     64  C   UNL     1      11.463 -25.815  -4.826  1.00  0.00     0.020 A 
ATOM     65  C   UNL     1      12.071 -27.048  -4.580  1.00  0.00     0.054 A 
BRANCH  65  66
ATOM     66  S   UNL     1      11.887 -28.413  -5.760  1.00  0.00     0.124 S 
ATOM     67  O   UNL     1      13.222 -28.488  -6.348  1.00  0.00    -0.237 OA
ATOM     68  O   UNL     1      11.515 -29.532  -4.899  1.00  0.00    -0.237 OA
ATOM     69  O   UNL     1      10.834 -27.951  -6.662  1.00  0.00    -0.744 OA
ENDBRANCH  65  66
ENDBRANCH  39  60
ENDBRANCH  13  14
ENDBRANCH   6   8
ENDBRANCH   3   4
ENDBRANCH   2   3
ENDBRANCH   1   2
BRANCH   1  70
ATOM     70  C   UNL     1      12.004  -9.703   5.561  1.00  0.00     0.002 C 
BRANCH  70  71
ATOM     71  C   UNL     1      11.255  -9.435   4.249  1.00  0.00     0.021 C 
BRANCH  71  72
ATOM     72  C   UNL     1       9.808  -8.980   4.451  1.00  0.00     0.116 C 
BRANCH  72  73
ATOM     73  N   UNL     1       9.751  -7.590   4.840  1.00  0.00    -0.354 N 
ATOM     74  C   UNL     1       9.476  -6.467   4.126  1.00  0.00     0.248 C 
ATOM     75  H   UNL     1       9.945  -7.428   5.791  1.00  0.00     0.163 HD
ATOM     76  O   UNL     1       9.588  -5.414   4.771  1.00  0.00    -0.272 OA
BRANCH  74  77
ATOM     77  C   UNL     1       8.945  -6.453   2.657  1.00  0.00     0.228 C 
ATOM     78  C   UNL     1       9.178  -5.013   2.086  1.00  0.00     0.296 C 
ATOM     79  N   UNL     1       9.576  -7.428   1.740  1.00  0.00    -0.333 N 
ATOM     80  N   UNL     1      10.593  -4.696   1.754  1.00  0.00    -0.343 N 
ATOM     81  C   UNL     1      10.963  -7.178   1.353  1.00  0.00     0.180 C 
ATOM     82  C   UNL     1      11.124  -5.729   0.840  1.00  0.00     0.282 C 
ATOM     83  H   UNL     1      11.148  -4.681   2.610  1.00  0.00     0.346 HD
ATOM     84  H   UNL     1      10.641  -3.783   1.302  1.00  0.00     0.346 HD
BRANCH  79  85
ATOM     85  C   UNL     1       8.874  -8.421   1.091  1.00  0.00     0.148 A 
ATOM     86  N   UNL     1       9.375  -9.676   1.236  1.00  0.00    -0.237 NA
ATOM     87  C   UNL     1       7.678  -8.235   0.376  1.00  0.00     0.084 A 
ATOM     88  C   UNL     1       8.649 -10.739   0.802  1.00  0.00     0.126 A 
ATOM     89  C   UNL     1       6.964  -9.344  -0.092  1.00  0.00     0.039 A 
ATOM     90  Cl  UNL     1       7.029  -6.691  -0.040  1.00  0.00    -0.080 Cl
ATOM     91  C   UNL     1       7.434 -10.632   0.152  1.00  0.00     0.075 A 
BRANCH  91  92
ATOM     92  C   UNL     1       6.658 -11.857  -0.223  1.00  0.00     0.417 C 
ATOM     93  F   UNL     1       7.424 -12.802  -0.827  1.00  0.00    -0.166 F 
ATOM     94  F   UNL     1       6.096 -12.453   0.862  1.00  0.00    -0.166 F 
ATOM     95  F   UNL     1       5.633 -11.596  -1.080  1.00  0.00    -0.166 F 
ENDBRANCH  91  92
ENDBRANCH  79  85
ENDBRANCH  74  77
ENDBRANCH  72  73
ENDBRANCH  71  72
ENDBRANCH  70  71
ENDBRANCH   1  70
TORSDOF 18
