REMARK SMILES O=C(NCCCCCCNC(=O)c1sccc1S(=O)(=O)NC[C@H](O)c1ccccc1)c1ccc(-c2c3nc(c(-c4ccc(S(=O)(=O)[O-])cc4)c4ccc([nH]4)c(-c4ccc(S(=O)(=O)[O-])cc4)c4nc(c(-c5ccc(S(=O)(=O)[O-])cc5)c5ccc2[nH]5)C=C4)C=C3)cc1
REMARK SMILES IDX 7 1 6 2 5 3 4 4 3 5 1 6 2 7 31 9 32 10 90 11 33 12 89 13
REMARK SMILES IDX 34 14 35 15 36 16 83 17 37 18 88 19 82 20 84 21 38 22 87 23
REMARK SMILES IDX 81 24 80 25 39 27 69 28 50 29 68 30 51 31 54 32 67 33 85 34
REMARK SMILES IDX 52 35 53 36 66 38 86 39 55 40 40 41 41 42 49 43 42 44 48 45
REMARK SMILES IDX 43 46 44 47 45 48 46 49 47 50 70 51 71 52 79 53 72 54 78 55
REMARK SMILES IDX 73 56 74 57 75 58 76 59 77 60 56 61 57 62 65 63 58 64 64 65
REMARK SMILES IDX 59 66 60 67 61 68 62 69 63 70 8 71 9 72 10 73 11 74 12 76
REMARK SMILES IDX 13 77 14 78 17 79 15 80 16 81 18 82 19 83 20 84 21 85 22 87
REMARK SMILES IDX 23 88 25 89 26 90 30 91 27 92 29 93 28 94 24 95
REMARK H PARENT 3 8 84 26 54 37 10 75 21 86 24 96
REMARK Flexibility Score: inf
ROOT
ATOM      1  C   UNL     1       6.479  -9.992   0.527  1.00  0.00     0.002 C 
ENDROOT
BRANCH   1   2
ATOM      2  C   UNL     1       7.827 -10.197  -0.170  1.00  0.00     0.002 C 
BRANCH   2   3
ATOM      3  C   UNL     1       9.045  -9.609   0.541  1.00  0.00     0.021 C 
BRANCH   3   4
ATOM      4  C   UNL     1       9.185  -9.973   2.012  1.00  0.00     0.116 C 
BRANCH   4   5
ATOM      5  N   UNL     1       9.339 -11.399   2.242  1.00  0.00    -0.352 N 
ATOM      6  O   UNL     1      10.294 -13.268   3.076  1.00  0.00    -0.269 OA
ATOM      7  C   UNL     1      10.228 -12.043   3.072  1.00  0.00     0.251 C 
ATOM      8  H   UNL     1       8.727 -11.982   1.738  1.00  0.00     0.163 HD
BRANCH   7   9
ATOM      9  C   UNL     1      11.130 -11.242   3.930  1.00  0.00     0.039 A 
ATOM     10  C   UNL     1      10.640 -10.160   4.665  1.00  0.00     0.014 A 
ATOM     11  C   UNL     1      12.491 -11.559   3.972  1.00  0.00     0.014 A 
ATOM     12  C   UNL     1      11.527  -9.306   5.310  1.00  0.00     0.010 A 
ATOM     13  C   UNL     1      13.370 -10.752   4.701  1.00  0.00     0.010 A 
ATOM     14  C   UNL     1      12.901  -9.598   5.348  1.00  0.00    -0.014 A 
BRANCH  14  15
ATOM     15  C   UNL     1      13.810  -8.713   6.120  1.00  0.00     0.031 A 
ATOM     16  C   UNL     1      14.903  -7.929   5.444  1.00  0.00     0.074 A 
ATOM     17  C   UNL     1      13.616  -8.593   7.448  1.00  0.00     0.049 A 
ATOM     18  N   UNL     1      15.752  -7.082   5.970  1.00  0.00    -0.248 NA
ATOM     19  C   UNL     1      15.074  -8.124   3.996  1.00  0.00     0.031 C 
ATOM     20  C   UNL     1      12.588  -9.304   8.216  1.00  0.00     0.029 A 
ATOM     21  N   UNL     1      14.248  -7.816   8.384  1.00  0.00    -0.354 N 
ATOM     22  C   UNL     1      16.570  -6.660   4.928  1.00  0.00     0.074 A 
ATOM     23  C   UNL     1      16.131  -7.364   3.741  1.00  0.00     0.031 C 
ATOM     24  C   UNL     1      12.620  -8.884   9.488  1.00  0.00     0.029 A 
ATOM     25  C   UNL     1      13.711  -7.930   9.644  1.00  0.00     0.049 A 
ATOM     26  H   UNL     1      15.012  -7.233   8.174  1.00  0.00     0.167 HD
ATOM     27  C   UNL     1      17.591  -5.768   4.957  1.00  0.00     0.031 A 
ATOM     28  C   UNL     1      14.062  -7.344  10.804  1.00  0.00     0.031 A 
ATOM     29  C   UNL     1      18.023  -5.074   6.144  1.00  0.00     0.049 A 
ATOM     30  C   UNL     1      15.216  -6.386  10.814  1.00  0.00     0.074 A 
ATOM     31  C   UNL     1      19.026  -4.127   6.270  1.00  0.00     0.029 A 
ATOM     32  N   UNL     1      17.485  -5.254   7.410  1.00  0.00    -0.354 N 
ATOM     33  N   UNL     1      15.955  -5.977   9.810  1.00  0.00    -0.248 NA
ATOM     34  C   UNL     1      15.583  -5.809  12.113  1.00  0.00     0.031 C 
ATOM     35  C   UNL     1      19.132  -3.777   7.621  1.00  0.00     0.029 A 
ATOM     36  C   UNL     1      18.153  -4.458   8.328  1.00  0.00     0.049 A 
ATOM     37  H   UNL     1      16.739  -5.858   7.625  1.00  0.00     0.167 HD
ATOM     38  C   UNL     1      16.864  -5.078  10.354  1.00  0.00     0.074 A 
ATOM     39  C   UNL     1      16.567  -4.989  11.771  1.00  0.00     0.031 C 
ATOM     40  C   UNL     1      17.853  -4.388   9.736  1.00  0.00     0.031 A 
BRANCH  27  41
ATOM     41  C   UNL     1      18.338  -5.517   3.671  1.00  0.00    -0.014 A 
ATOM     42  C   UNL     1      17.747  -4.816   2.604  1.00  0.00     0.010 A 
ATOM     43  C   UNL     1      19.668  -5.958   3.542  1.00  0.00     0.010 A 
ATOM     44  C   UNL     1      18.455  -4.605   1.416  1.00  0.00     0.020 A 
ATOM     45  C   UNL     1      20.389  -5.725   2.367  1.00  0.00     0.020 A 
ATOM     46  C   UNL     1      19.770  -5.067   1.303  1.00  0.00     0.054 A 
BRANCH  46  47
ATOM     47  S   UNL     1      20.665  -4.779  -0.249  1.00  0.00     0.124 S 
ATOM     48  O   UNL     1      20.020  -5.732  -1.149  1.00  0.00    -0.237 OA
ATOM     49  O   UNL     1      20.388  -3.372  -0.523  1.00  0.00    -0.237 OA
ATOM     50  O   UNL     1      22.053  -5.084   0.089  1.00  0.00    -0.744 OA
ENDBRANCH  46  47
ENDBRANCH  27  41
BRANCH  28  51
ATOM     51  C   UNL     1      13.305  -7.656  12.046  1.00  0.00    -0.014 A 
ATOM     52  C   UNL     1      12.483  -6.686  12.645  1.00  0.00     0.010 A 
ATOM     53  C   UNL     1      13.379  -8.940  12.619  1.00  0.00     0.010 A 
ATOM     54  C   UNL     1      11.759  -6.989  13.801  1.00  0.00     0.020 A 
ATOM     55  C   UNL     1      12.632  -9.256  13.756  1.00  0.00     0.020 A 
ATOM     56  C   UNL     1      11.835  -8.274  14.347  1.00  0.00     0.054 A 
BRANCH  56  57
ATOM     57  S   UNL     1      10.842  -8.661  15.814  1.00  0.00     0.124 S 
ATOM     58  O   UNL     1      11.573  -7.964  16.867  1.00  0.00    -0.237 OA
ATOM     59  O   UNL     1       9.538  -8.101  15.470  1.00  0.00    -0.237 OA
ATOM     60  O   UNL     1      10.886 -10.121  15.880  1.00  0.00    -0.744 OA
ENDBRANCH  56  57
ENDBRANCH  28  51
BRANCH  40  61
ATOM     61  C   UNL     1      18.667  -3.450  10.587  1.00  0.00    -0.014 A 
ATOM     62  C   UNL     1      19.591  -3.934  11.530  1.00  0.00     0.010 A 
ATOM     63  C   UNL     1      18.520  -2.061  10.421  1.00  0.00     0.010 A 
ATOM     64  C   UNL     1      20.325  -3.045  12.320  1.00  0.00     0.020 A 
ATOM     65  C   UNL     1      19.273  -1.169  11.188  1.00  0.00     0.020 A 
ATOM     66  C   UNL     1      20.159  -1.668  12.146  1.00  0.00     0.054 A 
BRANCH  66  67
ATOM     67  S   UNL     1      21.142  -0.533  13.164  1.00  0.00     0.124 S 
ATOM     68  O   UNL     1      20.478  -0.636  14.460  1.00  0.00    -0.237 OA
ATOM     69  O   UNL     1      22.479  -1.117  13.094  1.00  0.00    -0.237 OA
ATOM     70  O   UNL     1      20.994   0.754  12.488  1.00  0.00    -0.744 OA
ENDBRANCH  66  67
ENDBRANCH  40  61
ENDBRANCH  14  15
ENDBRANCH   7   9
ENDBRANCH   4   5
ENDBRANCH   3   4
ENDBRANCH   2   3
ENDBRANCH   1   2
BRANCH   1  71
ATOM     71  C   UNL     1       6.121  -8.550   0.916  1.00  0.00     0.021 C 
BRANCH  71  72
ATOM     72  C   UNL     1       6.200  -7.530  -0.214  1.00  0.00     0.116 C 
BRANCH  72  73
ATOM     73  N   UNL     1       5.291  -7.848  -1.295  1.00  0.00    -0.351 N 
ATOM     74  C   UNL     1       4.609  -7.007  -2.132  1.00  0.00     0.262 C 
ATOM     75  H   UNL     1       5.141  -8.809  -1.450  1.00  0.00     0.163 HD
ATOM     76  O   UNL     1       3.855  -7.524  -2.957  1.00  0.00    -0.268 OA
BRANCH  74  77
ATOM     77  C   UNL     1       4.790  -5.579  -2.019  1.00  0.00     0.112 A 
ATOM     78  S   UNL     1       3.395  -4.644  -1.647  1.00  0.00    -0.137 S 
ATOM     79  C   UNL     1       5.891  -4.771  -2.229  1.00  0.00     0.106 A 
ATOM     80  C   UNL     1       4.271  -3.180  -1.696  1.00  0.00     0.067 A 
ATOM     81  C   UNL     1       5.593  -3.385  -2.013  1.00  0.00     0.034 A 
BRANCH  79  82
ATOM     82  S   UNL     1       7.476  -5.273  -2.691  1.00  0.00     0.242 S 
ATOM     83  O   UNL     1       7.810  -4.424  -3.813  1.00  0.00    -0.207 OA
ATOM     84  O   UNL     1       8.222  -5.224  -1.456  1.00  0.00    -0.207 OA
BRANCH  82  85
ATOM     85  N   UNL     1       7.548  -6.852  -3.223  1.00  0.00    -0.208 NA
ATOM     86  H   UNL     1       7.149  -7.428  -2.482  1.00  0.00     0.141 HD
BRANCH  85  87
ATOM     87  C   UNL     1       6.879  -7.256  -4.482  1.00  0.00     0.135 C 
BRANCH  87  88
ATOM     88  C   UNL     1       7.636  -6.816  -5.752  1.00  0.00     0.159 C 
BRANCH  88  89
ATOM     89  C   UNL     1       7.360  -7.793  -6.881  1.00  0.00    -0.018 A 
ATOM     90  C   UNL     1       6.480  -7.489  -7.930  1.00  0.00     0.006 A 
ATOM     91  C   UNL     1       7.967  -9.060  -6.862  1.00  0.00     0.006 A 
ATOM     92  C   UNL     1       6.215  -8.425  -8.932  1.00  0.00     0.000 A 
ATOM     93  C   UNL     1       7.694  -9.999  -7.857  1.00  0.00     0.000 A 
ATOM     94  C   UNL     1       6.819  -9.680  -8.893  1.00  0.00     0.000 A 
ENDBRANCH  88  89
BRANCH  88  95
ATOM     95  O   UNL     1       7.227  -5.502  -6.135  1.00  0.00    -0.387 OA
ATOM     96  H   UNL     1       6.275  -5.501  -6.324  1.00  0.00     0.211 HD
ENDBRANCH  88  95
ENDBRANCH  87  88
ENDBRANCH  85  87
ENDBRANCH  82  85
ENDBRANCH  79  82
ENDBRANCH  74  77
ENDBRANCH  72  73
ENDBRANCH  71  72
ENDBRANCH   1  71
TORSDOF 22
