REMARK SMILES [NH3+][C@]1(C(=O)NCCCCCCNC(=O)c2ccc(-c3c4nc(c(-c5ccc(S(=O)(=O)[O-])cc5)c5ccc([nH]5)c(-c5ccc(S(=O)(=O)[O-])cc5)c5nc(c(-c6ccc(S(=O)(=O)[O-])cc6)c6ccc3[nH]6)C=C5)C=C4)cc2)CCC[C@@H]1CCn1cc(I)cn1
REMARK SMILES IDX 8 1 7 2 6 3 5 4 3 5 4 6 2 8 75 9 78 10 76 11 77 12 1 13
REMARK SMILES IDX 79 17 80 18 81 19 82 20 86 21 83 22 85 23 84 24 9 25 10 26
REMARK SMILES IDX 11 27 12 28 13 29 14 31 15 32 16 33 74 34 17 35 73 36 18 37
REMARK SMILES IDX 19 38 20 39 67 40 21 41 72 42 66 43 68 44 22 45 71 46 65 47
REMARK SMILES IDX 64 48 23 50 53 51 34 52 52 53 35 54 38 55 51 56 69 57 36 58
REMARK SMILES IDX 37 59 50 61 70 62 39 63 24 64 25 65 33 66 26 67 32 68 27 69
REMARK SMILES IDX 28 70 29 71 30 72 31 73 54 74 55 75 63 76 56 77 62 78 57 79
REMARK SMILES IDX 58 80 59 81 60 82 61 83 40 84 41 85 49 86 42 87 48 88 43 89
REMARK SMILES IDX 44 90 45 91 46 92 47 93
REMARK H PARENT 5 7 1 14 1 15 1 16 12 30 68 49 38 60
REMARK Flexibility Score: inf
ROOT
ATOM      1  C   UNL     1       5.150   0.159  -2.108  1.00  0.00     0.002 C 
ENDROOT
BRANCH   1   2
ATOM      2  C   UNL     1       3.891   0.990  -1.864  1.00  0.00     0.021 C 
BRANCH   2   3
ATOM      3  C   UNL     1       2.588   0.204  -1.985  1.00  0.00     0.116 C 
BRANCH   3   4
ATOM      4  N   UNL     1       2.200  -0.337  -0.706  1.00  0.00    -0.351 N 
ATOM      5  C   UNL     1       1.283   0.094   0.206  1.00  0.00     0.281 C 
ATOM      6  O   UNL     1       1.252  -0.540   1.267  1.00  0.00    -0.268 OA
ATOM      7  H   UNL     1       2.680  -1.157  -0.448  1.00  0.00     0.163 HD
BRANCH   5   8
ATOM      8  C   UNL     1       0.306   1.290  -0.097  1.00  0.00     0.176 C 
ATOM      9  C   UNL     1      -0.551   1.510   1.187  1.00  0.00     0.079 C 
ATOM     10  C   UNL     1       1.007   2.690  -0.262  1.00  0.00     0.062 C 
ATOM     11  C   UNL     1      -0.976   2.962   1.147  1.00  0.00     0.008 C 
ATOM     12  C   UNL     1       0.289   3.661   0.707  1.00  0.00     0.011 C 
BRANCH   8  13
ATOM     13  N   UNL     1      -0.637   0.858  -1.132  1.00  0.00    -0.345 N 
ATOM     14  H   UNL     1      -1.282   1.620  -1.344  1.00  0.00     0.345 HD
ATOM     15  H   UNL     1      -1.163   0.051  -0.797  1.00  0.00     0.345 HD
ATOM     16  H   UNL     1      -0.123   0.604  -1.975  1.00  0.00     0.345 HD
ENDBRANCH   8  13
BRANCH  10  17
ATOM     17  C   UNL     1       1.284   3.394  -1.618  1.00  0.00     0.034 C 
BRANCH  17  18
ATOM     18  C   UNL     1       0.300   3.349  -2.787  1.00  0.00     0.145 C 
BRANCH  18  19
ATOM     19  N   UNL     1      -1.035   3.817  -2.501  1.00  0.00    -0.272 N 
ATOM     20  C   UNL     1      -1.407   5.064  -2.092  1.00  0.00     0.123 A 
ATOM     21  N   UNL     1      -2.069   2.958  -2.616  1.00  0.00    -0.180 NA
ATOM     22  C   UNL     1      -2.758   4.983  -1.878  1.00  0.00     0.051 A 
ATOM     23  C   UNL     1      -3.128   3.684  -2.244  1.00  0.00     0.149 A 
ATOM     24  I   UNL     1      -3.933   6.439  -1.151  1.00  0.00    -0.041 I 
ENDBRANCH  18  19
ENDBRANCH  17  18
ENDBRANCH  10  17
ENDBRANCH   5   8
ENDBRANCH   3   4
ENDBRANCH   2   3
ENDBRANCH   1   2
BRANCH   1  25
ATOM     25  C   UNL     1       5.271  -0.417  -3.524  1.00  0.00     0.002 C 
BRANCH  25  26
ATOM     26  C   UNL     1       5.040   0.577  -4.668  1.00  0.00     0.021 C 
BRANCH  26  27
ATOM     27  C   UNL     1       5.895   1.841  -4.616  1.00  0.00     0.116 C 
BRANCH  27  28
ATOM     28  N   UNL     1       7.315   1.537  -4.603  1.00  0.00    -0.352 N 
ATOM     29  C   UNL     1       8.287   1.884  -5.502  1.00  0.00     0.251 C 
ATOM     30  H   UNL     1       7.624   1.003  -3.835  1.00  0.00     0.163 HD
ATOM     31  O   UNL     1       9.393   1.347  -5.443  1.00  0.00    -0.269 OA
BRANCH  29  32
ATOM     32  C   UNL     1       8.007   2.890  -6.546  1.00  0.00     0.039 A 
ATOM     33  C   UNL     1       8.420   2.635  -7.856  1.00  0.00     0.014 A 
ATOM     34  C   UNL     1       7.369   4.094  -6.231  1.00  0.00     0.014 A 
ATOM     35  C   UNL     1       8.154   3.570  -8.859  1.00  0.00     0.010 A 
ATOM     36  C   UNL     1       7.048   4.995  -7.243  1.00  0.00     0.010 A 
ATOM     37  C   UNL     1       7.446   4.746  -8.566  1.00  0.00    -0.014 A 
BRANCH  37  38
ATOM     38  C   UNL     1       7.121   5.730  -9.629  1.00  0.00     0.031 A 
ATOM     39  C   UNL     1       7.720   7.110  -9.592  1.00  0.00     0.074 A 
ATOM     40  C   UNL     1       6.243   5.399 -10.597  1.00  0.00     0.049 A 
ATOM     41  N   UNL     1       7.514   8.120 -10.398  1.00  0.00    -0.248 NA
ATOM     42  C   UNL     1       8.655   7.402  -8.492  1.00  0.00     0.031 C 
ATOM     43  C   UNL     1       5.565   4.106 -10.719  1.00  0.00     0.029 A 
ATOM     44  N   UNL     1       5.763   6.126 -11.657  1.00  0.00    -0.354 N 
ATOM     45  C   UNL     1       8.275   9.169  -9.895  1.00  0.00     0.074 A 
ATOM     46  C   UNL     1       8.913   8.687  -8.690  1.00  0.00     0.031 C 
ATOM     47  C   UNL     1       4.774   4.125 -11.804  1.00  0.00     0.029 A 
ATOM     48  C   UNL     1       4.858   5.440 -12.432  1.00  0.00     0.049 A 
ATOM     49  H   UNL     1       6.041   7.052 -11.845  1.00  0.00     0.167 HD
ATOM     50  C   UNL     1       8.441  10.415 -10.400  1.00  0.00     0.031 A 
ATOM     51  C   UNL     1       4.166   5.827 -13.522  1.00  0.00     0.031 A 
ATOM     52  C   UNL     1       7.817  10.884 -11.609  1.00  0.00     0.049 A 
ATOM     53  C   UNL     1       4.370   7.215 -14.065  1.00  0.00     0.074 A 
ATOM     54  C   UNL     1       7.971  12.109 -12.235  1.00  0.00     0.029 A 
ATOM     55  N   UNL     1       6.923  10.152 -12.375  1.00  0.00    -0.354 N 
ATOM     56  N   UNL     1       5.146   8.170 -13.610  1.00  0.00    -0.248 NA
ATOM     57  C   UNL     1       3.615   7.572 -15.274  1.00  0.00     0.031 C 
ATOM     58  C   UNL     1       7.130  12.136 -13.352  1.00  0.00     0.029 A 
ATOM     59  C   UNL     1       6.498  10.907 -13.455  1.00  0.00     0.049 A 
ATOM     60  H   UNL     1       6.633   9.232 -12.180  1.00  0.00     0.167 HD
ATOM     61  C   UNL     1       4.993   9.233 -14.495  1.00  0.00     0.074 A 
ATOM     62  C   UNL     1       4.063   8.797 -15.516  1.00  0.00     0.031 C 
ATOM     63  C   UNL     1       5.572  10.458 -14.464  1.00  0.00     0.031 A 
BRANCH  50  64
ATOM     64  C   UNL     1       9.329  11.365  -9.640  1.00  0.00    -0.014 A 
ATOM     65  C   UNL     1      10.723  11.180  -9.595  1.00  0.00     0.010 A 
ATOM     66  C   UNL     1       8.768  12.487  -9.004  1.00  0.00     0.010 A 
ATOM     67  C   UNL     1      11.534  12.077  -8.895  1.00  0.00     0.020 A 
ATOM     68  C   UNL     1       9.579  13.403  -8.326  1.00  0.00     0.020 A 
ATOM     69  C   UNL     1      10.956  13.182  -8.263  1.00  0.00     0.054 A 
BRANCH  69  70
ATOM     70  S   UNL     1      12.037  14.346  -7.386  1.00  0.00     0.124 S 
ATOM     71  O   UNL     1      12.399  13.579  -6.196  1.00  0.00    -0.237 OA
ATOM     72  O   UNL     1      13.117  14.565  -8.344  1.00  0.00    -0.237 OA
ATOM     73  O   UNL     1      11.178  15.502  -7.144  1.00  0.00    -0.744 OA
ENDBRANCH  69  70
ENDBRANCH  50  64
BRANCH  51  74
ATOM     74  C   UNL     1       3.223   4.881 -14.177  1.00  0.00    -0.014 A 
ATOM     75  C   UNL     1       3.523   4.327 -15.434  1.00  0.00     0.010 A 
ATOM     76  C   UNL     1       2.022   4.519 -13.540  1.00  0.00     0.010 A 
ATOM     77  C   UNL     1       2.630   3.446 -16.052  1.00  0.00     0.020 A 
ATOM     78  C   UNL     1       1.140   3.617 -14.141  1.00  0.00     0.020 A 
ATOM     79  C   UNL     1       1.444   3.096 -15.400  1.00  0.00     0.054 A 
BRANCH  79  80
ATOM     80  S   UNL     1       0.322   1.914 -16.197  1.00  0.00     0.124 S 
ATOM     81  O   UNL     1      -0.282   2.730 -17.246  1.00  0.00    -0.237 OA
ATOM     82  O   UNL     1       1.235   0.869 -16.653  1.00  0.00    -0.237 OA
ATOM     83  O   UNL     1      -0.577   1.516 -15.116  1.00  0.00    -0.744 OA
ENDBRANCH  79  80
ENDBRANCH  51  74
BRANCH  63  84
ATOM     84  C   UNL     1       5.247  11.407 -15.586  1.00  0.00    -0.014 A 
ATOM     85  C   UNL     1       3.989  12.029 -15.674  1.00  0.00     0.010 A 
ATOM     86  C   UNL     1       6.237  11.724 -16.534  1.00  0.00     0.010 A 
ATOM     87  C   UNL     1       3.717  12.928 -16.709  1.00  0.00     0.020 A 
ATOM     88  C   UNL     1       5.979  12.643 -17.553  1.00  0.00     0.020 A 
ATOM     89  C   UNL     1       4.715  13.229 -17.642  1.00  0.00     0.054 A 
BRANCH  89  90
ATOM     90  S   UNL     1       4.353  14.434 -18.948  1.00  0.00     0.124 S 
ATOM     91  O   UNL     1       3.488  13.665 -19.839  1.00  0.00    -0.237 OA
ATOM     92  O   UNL     1       3.698  15.515 -18.215  1.00  0.00    -0.237 OA
ATOM     93  O   UNL     1       5.669  14.765 -19.489  1.00  0.00    -0.744 OA
ENDBRANCH  89  90
ENDBRANCH  63  84
ENDBRANCH  37  38
ENDBRANCH  29  32
ENDBRANCH  27  28
ENDBRANCH  26  27
ENDBRANCH  25  26
ENDBRANCH   1  25
TORSDOF 20
