REMARK SMILES O=C(NCCCCCCNC(=O)C1CCN(C(=O)COc2ccc(Cl)cc2Cl)CC1)c1ccc(-c2c3nc(c(-c4ccc(S(=O)(=O)[O-])cc4)c4ccc([nH]4)c(-c4ccc(S(=O)(=O)[O-])cc4)c4nc(c(-c5ccc(S(=O)(=O)[O-])cc5)c5ccc2[nH]5)C=C4)C=C3)cc1
REMARK SMILES IDX 6 1 5 2 4 3 3 4 1 5 2 6 31 8 32 9 90 10 33 11 89 12 34 13
REMARK SMILES IDX 35 14 36 15 83 16 37 17 88 18 82 19 84 20 38 21 87 22 81 23
REMARK SMILES IDX 80 24 39 26 69 27 50 28 68 29 51 30 54 31 67 32 85 33 52 34
REMARK SMILES IDX 53 35 66 37 86 38 55 39 40 40 41 41 49 42 42 43 48 44 43 45
REMARK SMILES IDX 44 46 45 47 46 48 47 49 70 50 71 51 79 52 72 53 78 54 73 55
REMARK SMILES IDX 74 56 75 57 76 58 77 59 56 60 57 61 65 62 58 63 64 64 59 65
REMARK SMILES IDX 60 66 61 67 62 68 63 69 7 70 8 71 9 72 10 73 11 74 12 76
REMARK SMILES IDX 13 77 14 78 30 79 15 80 29 81 16 82 17 83 18 84 19 85 20 86
REMARK SMILES IDX 21 87 22 88 27 89 23 90 26 91 28 92 24 93 25 94
REMARK H PARENT 3 7 84 25 54 36 10 75
REMARK Flexibility Score: inf
ROOT
ATOM      1  C   UNL     1       3.872  -3.410   1.762  1.00  0.00     0.002 C 
ENDROOT
BRANCH   1   2
ATOM      2  C   UNL     1       4.477  -2.005   1.755  1.00  0.00     0.021 C 
BRANCH   2   3
ATOM      3  C   UNL     1       4.383  -1.308   0.404  1.00  0.00     0.116 C 
BRANCH   3   4
ATOM      4  N   UNL     1       2.995  -1.125   0.002  1.00  0.00    -0.352 N 
ATOM      5  O   UNL     1       1.059   0.019  -0.186  1.00  0.00    -0.269 OA
ATOM      6  C   UNL     1       2.287   0.042  -0.128  1.00  0.00     0.251 C 
ATOM      7  H   UNL     1       2.499  -1.950  -0.204  1.00  0.00     0.163 HD
BRANCH   6   8
ATOM      8  C   UNL     1       3.019   1.320  -0.199  1.00  0.00     0.039 A 
ATOM      9  C   UNL     1       4.167   1.416  -0.990  1.00  0.00     0.014 A 
ATOM     10  C   UNL     1       2.558   2.426   0.517  1.00  0.00     0.014 A 
ATOM     11  C   UNL     1       4.929   2.573  -0.959  1.00  0.00     0.010 A 
ATOM     12  C   UNL     1       3.275   3.624   0.467  1.00  0.00     0.010 A 
ATOM     13  C   UNL     1       4.475   3.700  -0.257  1.00  0.00    -0.014 A 
BRANCH  13  14
ATOM     14  C   UNL     1       5.230   4.971  -0.376  1.00  0.00     0.031 A 
ATOM     15  C   UNL     1       5.882   5.607   0.818  1.00  0.00     0.074 A 
ATOM     16  C   UNL     1       5.335   5.536  -1.595  1.00  0.00     0.049 A 
ATOM     17  N   UNL     1       6.581   6.711   0.877  1.00  0.00    -0.248 NA
ATOM     18  C   UNL     1       5.727   4.924   2.113  1.00  0.00     0.031 C 
ATOM     19  C   UNL     1       4.739   5.002  -2.825  1.00  0.00     0.029 A 
ATOM     20  N   UNL     1       5.989   6.665  -2.010  1.00  0.00    -0.354 N 
ATOM     21  C   UNL     1       6.934   6.869   2.212  1.00  0.00     0.074 A 
ATOM     22  C   UNL     1       6.349   5.759   2.935  1.00  0.00     0.031 C 
ATOM     23  C   UNL     1       5.097   5.774  -3.860  1.00  0.00     0.029 A 
ATOM     24  C   UNL     1       5.878   6.898  -3.360  1.00  0.00     0.049 A 
ATOM     25  H   UNL     1       6.491   7.254  -1.401  1.00  0.00     0.167 HD
ATOM     26  C   UNL     1       7.679   7.849   2.778  1.00  0.00     0.031 A 
ATOM     27  C   UNL     1       6.330   7.916  -4.115  1.00  0.00     0.031 A 
ATOM     28  C   UNL     1       8.247   8.953   2.045  1.00  0.00     0.049 A 
ATOM     29  C   UNL     1       7.111   9.012  -3.452  1.00  0.00     0.074 A 
ATOM     30  C   UNL     1       9.039   9.984   2.521  1.00  0.00     0.029 A 
ATOM     31  N   UNL     1       8.077   9.176   0.686  1.00  0.00    -0.354 N 
ATOM     32  N   UNL     1       7.462   9.126  -2.194  1.00  0.00    -0.248 NA
ATOM     33  C   UNL     1       7.557  10.116  -4.310  1.00  0.00     0.031 C 
ATOM     34  C   UNL     1       9.293  10.863   1.464  1.00  0.00     0.029 A 
ATOM     35  C   UNL     1       8.722  10.344   0.313  1.00  0.00     0.049 A 
ATOM     36  H   UNL     1       7.572   8.591   0.076  1.00  0.00     0.167 HD
ATOM     37  C   UNL     1       8.192  10.306  -2.112  1.00  0.00     0.074 A 
ATOM     38  C   UNL     1       8.248  10.855  -3.453  1.00  0.00     0.031 C 
ATOM     39  C   UNL     1       8.763  10.881  -1.026  1.00  0.00     0.031 A 
BRANCH  26  40
ATOM     40  C   UNL     1       7.898   7.794   4.269  1.00  0.00    -0.014 A 
ATOM     41  C   UNL     1       8.716   6.810   4.854  1.00  0.00     0.010 A 
ATOM     42  C   UNL     1       7.318   8.776   5.094  1.00  0.00     0.010 A 
ATOM     43  C   UNL     1       8.916   6.786   6.238  1.00  0.00     0.020 A 
ATOM     44  C   UNL     1       7.540   8.774   6.475  1.00  0.00     0.020 A 
ATOM     45  C   UNL     1       8.325   7.768   7.040  1.00  0.00     0.054 A 
BRANCH  45  46
ATOM     46  S   UNL     1       8.621   7.722   8.829  1.00  0.00     0.124 S 
ATOM     47  O   UNL     1       7.849   6.549   9.232  1.00  0.00    -0.237 OA
ATOM     48  O   UNL     1      10.072   7.576   8.910  1.00  0.00    -0.237 OA
ATOM     49  O   UNL     1       8.098   9.002   9.302  1.00  0.00    -0.744 OA
ENDBRANCH  45  46
ENDBRANCH  26  40
BRANCH  27  50
ATOM     50  C   UNL     1       6.029   7.946  -5.572  1.00  0.00    -0.014 A 
ATOM     51  C   UNL     1       7.052   7.788  -6.521  1.00  0.00     0.010 A 
ATOM     52  C   UNL     1       4.702   8.107  -6.016  1.00  0.00     0.010 A 
ATOM     53  C   UNL     1       6.757   7.807  -7.887  1.00  0.00     0.020 A 
ATOM     54  C   UNL     1       4.399   8.092  -7.378  1.00  0.00     0.020 A 
ATOM     55  C   UNL     1       5.432   7.956  -8.307  1.00  0.00     0.054 A 
BRANCH  55  56
ATOM     56  S   UNL     1       5.069   7.931 -10.083  1.00  0.00     0.124 S 
ATOM     57  O   UNL     1       5.601   9.219 -10.519  1.00  0.00    -0.237 OA
ATOM     58  O   UNL     1       5.806   6.755 -10.538  1.00  0.00    -0.237 OA
ATOM     59  O   UNL     1       3.614   7.804 -10.134  1.00  0.00    -0.744 OA
ENDBRANCH  55  56
ENDBRANCH  27  50
BRANCH  39  60
ATOM     60  C   UNL     1       9.529  12.158  -1.249  1.00  0.00    -0.014 A 
ATOM     61  C   UNL     1       8.872  13.361  -1.560  1.00  0.00     0.010 A 
ATOM     62  C   UNL     1      10.929  12.158  -1.103  1.00  0.00     0.010 A 
ATOM     63  C   UNL     1       9.604  14.535  -1.756  1.00  0.00     0.020 A 
ATOM     64  C   UNL     1      11.661  13.336  -1.266  1.00  0.00     0.020 A 
ATOM     65  C   UNL     1      10.995  14.515  -1.606  1.00  0.00     0.054 A 
BRANCH  65  66
ATOM     66  S   UNL     1      11.917  16.060  -1.823  1.00  0.00     0.124 S 
ATOM     67  O   UNL     1      11.840  16.260  -3.268  1.00  0.00    -0.237 OA
ATOM     68  O   UNL     1      11.151  17.006  -1.016  1.00  0.00    -0.237 OA
ATOM     69  O   UNL     1      13.248  15.746  -1.308  1.00  0.00    -0.744 OA
ENDBRANCH  65  66
ENDBRANCH  39  60
ENDBRANCH  13  14
ENDBRANCH   6   8
ENDBRANCH   3   4
ENDBRANCH   2   3
ENDBRANCH   1   2
BRANCH   1  70
ATOM     70  C   UNL     1       4.516  -4.389   0.773  1.00  0.00     0.002 C 
BRANCH  70  71
ATOM     71  C   UNL     1       6.030  -4.544   0.936  1.00  0.00     0.021 C 
BRANCH  71  72
ATOM     72  C   UNL     1       6.425  -5.122   2.294  1.00  0.00     0.116 C 
BRANCH  72  73
ATOM     73  N   UNL     1       6.597  -6.554   2.227  1.00  0.00    -0.356 N 
ATOM     74  C   UNL     1       7.668  -7.369   2.148  1.00  0.00     0.223 C 
ATOM     75  H   UNL     1       5.743  -7.044   2.242  1.00  0.00     0.163 HD
ATOM     76  O   UNL     1       7.407  -8.580   2.138  1.00  0.00    -0.275 OA
BRANCH  74  77
ATOM     77  C   UNL     1       9.131  -6.939   2.004  1.00  0.00     0.082 C 
ATOM     78  C   UNL     1       9.641  -5.601   2.536  1.00  0.00     0.035 C 
ATOM     79  C   UNL     1       9.634  -7.220   0.582  1.00  0.00     0.035 C 
ATOM     80  C   UNL     1       9.640  -4.437   1.541  1.00  0.00     0.120 C 
ATOM     81  C   UNL     1       9.411  -6.040  -0.344  1.00  0.00     0.120 C 
ATOM     82  N   UNL     1      10.014  -4.826   0.194  1.00  0.00    -0.340 N 
ATOM     83  C   UNL     1      10.704  -3.897  -0.577  1.00  0.00     0.260 C 
ATOM     84  O   UNL     1      10.771  -2.708  -0.259  1.00  0.00    -0.271 OA
BRANCH  83  85
ATOM     85  C   UNL     1      11.486  -4.417  -1.787  1.00  0.00     0.329 C 
BRANCH  85  86
ATOM     86  O   UNL     1      12.129  -5.680  -1.664  1.00  0.00    -0.482 OA
BRANCH  86  87
ATOM     87  C   UNL     1      13.243  -5.752  -0.869  1.00  0.00     0.138 A 
ATOM     88  C   UNL     1      13.312  -5.213   0.420  1.00  0.00     0.049 A 
ATOM     89  C   UNL     1      14.317  -6.527  -1.329  1.00  0.00     0.084 A 
ATOM     90  C   UNL     1      14.421  -5.449   1.236  1.00  0.00     0.024 A 
ATOM     91  C   UNL     1      15.436  -6.752  -0.522  1.00  0.00     0.045 A 
ATOM     92  Cl  UNL     1      14.300  -7.232  -2.908  1.00  0.00    -0.080 Cl
ATOM     93  C   UNL     1      15.476  -6.219   0.762  1.00  0.00     0.042 A 
ATOM     94  Cl  UNL     1      16.827  -6.529   1.780  1.00  0.00    -0.084 Cl
ENDBRANCH  86  87
ENDBRANCH  85  86
ENDBRANCH  83  85
ENDBRANCH  74  77
ENDBRANCH  72  73
ENDBRANCH  71  72
ENDBRANCH  70  71
ENDBRANCH   1  70
TORSDOF 19
