REMARK SMILES O=C(NCCCCCCNC(=O)c1cn(Cc2ccc(N3CCCC3=O)cc2)c2cc(F)c(F)cc2c1=O)c1ccc(-c2c3nc(c(-c4ccc(S(=O)(=O)[O-])cc4)c4ccc([nH]4)c(-c4ccc(S(=O)(=O)[O-])cc4)c4nc(c(-c5ccc(S(=O)(=O)[O-])cc5)c5ccc2[nH]5)C=C4)C=C3)cc1
REMARK SMILES IDX 6 1 5 2 4 3 3 4 1 5 2 6 39 8 40 9 98 10 41 11 97 12 42 13
REMARK SMILES IDX 43 14 44 15 91 16 45 17 96 18 90 19 92 20 46 21 95 22 89 23
REMARK SMILES IDX 88 24 47 26 77 27 58 28 76 29 59 30 62 31 75 32 93 33 60 34
REMARK SMILES IDX 61 35 74 37 94 38 63 39 48 40 49 41 57 42 50 43 56 44 51 45
REMARK SMILES IDX 52 46 53 47 54 48 55 49 78 50 79 51 87 52 80 53 86 54 81 55
REMARK SMILES IDX 82 56 83 57 84 58 85 59 64 60 65 61 73 62 66 63 72 64 67 65
REMARK SMILES IDX 68 66 69 67 70 68 71 69 7 70 8 71 9 72 10 73 11 74 12 76
REMARK SMILES IDX 13 77 14 78 37 79 15 80 36 81 38 82 29 83 35 84 30 85 33 86
REMARK SMILES IDX 31 87 34 88 32 89 16 90 17 91 18 92 28 93 19 94 27 95 20 96
REMARK SMILES IDX 21 97 22 98 25 99 23 100 24 101 26 102
REMARK H PARENT 3 7 92 25 62 36 10 75
REMARK Flexibility Score: inf
ROOT
ATOM      1  C   UNL     1       4.224   2.335   2.973  1.00  0.00     0.002 C 
ENDROOT
BRANCH   1   2
ATOM      2  C   UNL     1       4.713   2.041   1.552  1.00  0.00     0.021 C 
BRANCH   2   3
ATOM      3  C   UNL     1       4.403   0.637   1.043  1.00  0.00     0.116 C 
BRANCH   3   4
ATOM      4  N   UNL     1       2.974   0.389   0.978  1.00  0.00    -0.352 N 
ATOM      5  O   UNL     1       0.981   0.062  -0.008  1.00  0.00    -0.269 OA
ATOM      6  C   UNL     1       2.204  -0.000  -0.088  1.00  0.00     0.251 C 
ATOM      7  H   UNL     1       2.486   0.519   1.823  1.00  0.00     0.163 HD
BRANCH   6   8
ATOM      8  C   UNL     1       2.840  -0.496  -1.329  1.00  0.00     0.039 A 
ATOM      9  C   UNL     1       2.295  -0.126  -2.562  1.00  0.00     0.014 A 
ATOM     10  C   UNL     1       3.927  -1.374  -1.280  1.00  0.00     0.014 A 
ATOM     11  C   UNL     1       2.848  -0.623  -3.744  1.00  0.00     0.010 A 
ATOM     12  C   UNL     1       4.522  -1.810  -2.460  1.00  0.00     0.010 A 
ATOM     13  C   UNL     1       3.971  -1.463  -3.702  1.00  0.00    -0.014 A 
BRANCH  13  14
ATOM     14  C   UNL     1       4.552  -2.050  -4.936  1.00  0.00     0.031 A 
ATOM     15  C   UNL     1       4.512  -3.541  -5.137  1.00  0.00     0.074 A 
ATOM     16  C   UNL     1       5.159  -1.260  -5.843  1.00  0.00     0.049 A 
ATOM     17  N   UNL     1       5.054  -4.258  -6.086  1.00  0.00    -0.248 NA
ATOM     18  C   UNL     1       3.789  -4.333  -4.127  1.00  0.00     0.031 C 
ATOM     19  C   UNL     1       5.253   0.197  -5.759  1.00  0.00     0.029 A 
ATOM     20  N   UNL     1       5.816  -1.572  -7.008  1.00  0.00    -0.354 N 
ATOM     21  C   UNL     1       4.759  -5.580  -5.775  1.00  0.00     0.074 A 
ATOM     22  C   UNL     1       4.031  -5.573  -4.527  1.00  0.00     0.031 C 
ATOM     23  C   UNL     1       5.907   0.655  -6.838  1.00  0.00     0.029 A 
ATOM     24  C   UNL     1       6.331  -0.476  -7.661  1.00  0.00     0.049 A 
ATOM     25  H   UNL     1       5.909  -2.492  -7.344  1.00  0.00     0.167 HD
ATOM     26  C   UNL     1       5.053  -6.696  -6.481  1.00  0.00     0.031 A 
ATOM     27  C   UNL     1       7.073  -0.387  -8.785  1.00  0.00     0.031 A 
ATOM     28  C   UNL     1       5.744  -6.683  -7.743  1.00  0.00     0.049 A 
ATOM     29  C   UNL     1       7.421  -1.642  -9.536  1.00  0.00     0.074 A 
ATOM     30  C   UNL     1       6.021  -7.755  -8.571  1.00  0.00     0.029 A 
ATOM     31  N   UNL     1       6.266  -5.554  -8.357  1.00  0.00    -0.354 N 
ATOM     32  N   UNL     1       7.085  -2.879  -9.260  1.00  0.00    -0.248 NA
ATOM     33  C   UNL     1       8.241  -1.498 -10.747  1.00  0.00     0.031 C 
ATOM     34  C   UNL     1       6.789  -7.291  -9.637  1.00  0.00     0.029 A 
ATOM     35  C   UNL     1       6.911  -5.914  -9.528  1.00  0.00     0.049 A 
ATOM     36  H   UNL     1       6.189  -4.635  -8.013  1.00  0.00     0.167 HD
ATOM     37  C   UNL     1       7.639  -3.660 -10.268  1.00  0.00     0.074 A 
ATOM     38  C   UNL     1       8.319  -2.754 -11.171  1.00  0.00     0.031 C 
ATOM     39  C   UNL     1       7.588  -5.006 -10.424  1.00  0.00     0.031 A 
BRANCH  26  40
ATOM     40  C   UNL     1       4.632  -8.034  -5.928  1.00  0.00    -0.014 A 
ATOM     41  C   UNL     1       5.616  -8.985  -5.592  1.00  0.00     0.010 A 
ATOM     42  C   UNL     1       3.277  -8.405  -5.864  1.00  0.00     0.010 A 
ATOM     43  C   UNL     1       5.256 -10.289  -5.245  1.00  0.00     0.020 A 
ATOM     44  C   UNL     1       2.912  -9.700  -5.481  1.00  0.00     0.020 A 
ATOM     45  C   UNL     1       3.905 -10.641  -5.202  1.00  0.00     0.054 A 
BRANCH  45  46
ATOM     46  S   UNL     1       3.462 -12.351  -4.794  1.00  0.00     0.124 S 
ATOM     47  O   UNL     1       3.844 -13.067  -6.007  1.00  0.00    -0.237 OA
ATOM     48  O   UNL     1       4.283 -12.620  -3.615  1.00  0.00    -0.237 OA
ATOM     49  O   UNL     1       2.025 -12.280  -4.537  1.00  0.00    -0.744 OA
ENDBRANCH  45  46
ENDBRANCH  26  40
BRANCH  27  50
ATOM     50  C   UNL     1       7.491   0.963  -9.260  1.00  0.00    -0.014 A 
ATOM     51  C   UNL     1       8.383   1.742  -8.498  1.00  0.00     0.010 A 
ATOM     52  C   UNL     1       6.892   1.530 -10.398  1.00  0.00     0.010 A 
ATOM     53  C   UNL     1       8.596   3.087  -8.810  1.00  0.00     0.020 A 
ATOM     54  C   UNL     1       7.129   2.868 -10.733  1.00  0.00     0.020 A 
ATOM     55  C   UNL     1       7.946   3.648  -9.912  1.00  0.00     0.054 A 
BRANCH  55  56
ATOM     56  S   UNL     1       8.137   5.426 -10.217  1.00  0.00     0.124 S 
ATOM     57  O   UNL     1       7.363   6.001  -9.119  1.00  0.00    -0.237 OA
ATOM     58  O   UNL     1       9.583   5.609 -10.130  1.00  0.00    -0.237 OA
ATOM     59  O   UNL     1       7.565   5.610 -11.548  1.00  0.00    -0.744 OA
ENDBRANCH  55  56
ENDBRANCH  27  50
BRANCH  39  60
ATOM     60  C   UNL     1       8.297  -5.629 -11.600  1.00  0.00    -0.014 A 
ATOM     61  C   UNL     1       7.550  -6.302 -12.587  1.00  0.00     0.010 A 
ATOM     62  C   UNL     1       9.699  -5.728 -11.617  1.00  0.00     0.010 A 
ATOM     63  C   UNL     1       8.186  -7.122 -13.522  1.00  0.00     0.020 A 
ATOM     64  C   UNL     1      10.341  -6.520 -12.573  1.00  0.00     0.020 A 
ATOM     65  C   UNL     1       9.578  -7.241 -13.495  1.00  0.00     0.054 A 
BRANCH  65  66
ATOM     66  S   UNL     1      10.376  -8.393 -14.647  1.00  0.00     0.124 S 
ATOM     67  O   UNL     1       9.983  -9.691 -14.107  1.00  0.00    -0.237 OA
ATOM     68  O   UNL     1       9.769  -8.033 -15.927  1.00  0.00    -0.237 OA
ATOM     69  O   UNL     1      11.796  -8.071 -14.527  1.00  0.00    -0.744 OA
ENDBRANCH  65  66
ENDBRANCH  39  60
ENDBRANCH  13  14
ENDBRANCH   6   8
ENDBRANCH   3   4
ENDBRANCH   2   3
ENDBRANCH   1   2
BRANCH   1  70
ATOM     70  C   UNL     1       4.741   1.384   4.057  1.00  0.00     0.002 C 
BRANCH  70  71
ATOM     71  C   UNL     1       6.262   1.243   4.137  1.00  0.00     0.021 C 
BRANCH  71  72
ATOM     72  C   UNL     1       7.029   2.555   4.261  1.00  0.00     0.116 C 
BRANCH  72  73
ATOM     73  N   UNL     1       6.694   3.301   5.464  1.00  0.00    -0.352 N 
ATOM     74  C   UNL     1       7.509   3.788   6.451  1.00  0.00     0.256 C 
ATOM     75  H   UNL     1       5.734   3.485   5.587  1.00  0.00     0.163 HD
ATOM     76  O   UNL     1       7.020   4.403   7.395  1.00  0.00    -0.269 OA
BRANCH  74  77
ATOM     77  C   UNL     1       8.964   3.555   6.345  1.00  0.00     0.104 A 
ATOM     78  C   UNL     1       9.645   3.987   5.272  1.00  0.00     0.104 A 
ATOM     79  C   UNL     1       9.725   2.863   7.406  1.00  0.00     0.202 A 
ATOM     80  N   UNL     1      10.973   3.706   4.969  1.00  0.00    -0.342 N 
ATOM     81  C   UNL     1      11.170   2.638   7.162  1.00  0.00     0.050 A 
ATOM     82  O   UNL     1       9.202   2.423   8.423  1.00  0.00    -0.288 OA
ATOM     83  C   UNL     1      11.714   2.931   5.891  1.00  0.00     0.055 A 
ATOM     84  C   UNL     1      11.947   2.083   8.192  1.00  0.00     0.056 A 
ATOM     85  C   UNL     1      12.992   2.424   5.633  1.00  0.00     0.069 A 
ATOM     86  C   UNL     1      13.269   1.763   7.938  1.00  0.00     0.159 A 
ATOM     87  C   UNL     1      13.776   1.895   6.657  1.00  0.00     0.160 A 
ATOM     88  F   UNL     1      14.043   1.297   8.927  1.00  0.00    -0.204 F 
ATOM     89  F   UNL     1      15.040   1.540   6.389  1.00  0.00    -0.204 F 
BRANCH  80  90
ATOM     90  C   UNL     1      11.623   4.286   3.763  1.00  0.00     0.157 C 
BRANCH  90  91
ATOM     91  C   UNL     1      12.506   5.481   4.083  1.00  0.00    -0.028 A 
ATOM     92  C   UNL     1      13.831   5.306   4.493  1.00  0.00     0.008 A 
ATOM     93  C   UNL     1      12.029   6.793   3.992  1.00  0.00     0.008 A 
ATOM     94  C   UNL     1      14.626   6.381   4.888  1.00  0.00     0.027 A 
ATOM     95  C   UNL     1      12.835   7.879   4.377  1.00  0.00     0.027 A 
ATOM     96  C   UNL     1      14.135   7.684   4.860  1.00  0.00     0.044 A 
BRANCH  96  97
ATOM     97  N   UNL     1      14.937   8.751   5.333  1.00  0.00    -0.312 N 
ATOM     98  C   UNL     1      16.381   8.709   5.340  1.00  0.00     0.126 C 
ATOM     99  C   UNL     1      14.466   9.980   5.804  1.00  0.00     0.227 C 
ATOM    100  C   UNL     1      16.780   9.783   6.326  1.00  0.00     0.032 C 
ATOM    101  C   UNL     1      15.662  10.804   6.217  1.00  0.00     0.102 C 
ATOM    102  O   UNL     1      13.312  10.380   5.898  1.00  0.00    -0.275 OA
ENDBRANCH  96  97
ENDBRANCH  90  91
ENDBRANCH  80  90
ENDBRANCH  74  77
ENDBRANCH  72  73
ENDBRANCH  71  72
ENDBRANCH  70  71
ENDBRANCH   1  70
TORSDOF 19
