REMARK SMILES COC(=O)c1ccc(Cl)c(-c2ccc(F)cc2C(=O)NCCCCCCNC(=O)c2ccc(-c3c4nc(c(-c5ccc(S(=O)(=O)[O-])cc5)c5ccc([nH]5)c(-c5ccc(S(=O)(=O)[O-])cc5)c5nc(c(-c6ccc(S(=O)(=O)[O-])cc6)c6ccc3[nH]6)C=C5)C=C4)cc2)c1
REMARK SMILES IDX 23 1 22 2 21 3 20 4 18 5 19 6 17 8 11 9 12 10 13 11 16 12
REMARK SMILES IDX 14 13 15 14 10 15 5 16 6 17 90 18 7 19 8 20 9 21 3 22 4 23
REMARK SMILES IDX 2 24 1 25 24 26 25 27 26 28 27 29 28 30 29 32 30 33 31 34
REMARK SMILES IDX 89 35 32 36 88 37 33 38 34 39 35 40 82 41 36 42 87 43 81 44
REMARK SMILES IDX 83 45 37 46 86 47 80 48 79 49 38 51 68 52 49 53 67 54 50 55
REMARK SMILES IDX 53 56 66 57 84 58 51 59 52 60 65 62 85 63 54 64 39 65 40 66
REMARK SMILES IDX 48 67 41 68 47 69 42 70 43 71 44 72 45 73 46 74 69 75 70 76
REMARK SMILES IDX 78 77 71 78 77 79 72 80 73 81 74 82 75 83 76 84 55 85 56 86
REMARK SMILES IDX 64 87 57 88 63 89 58 90 59 91 60 92 61 93 62 94
REMARK H PARENT 20 7 27 31 83 50 53 61
REMARK Flexibility Score: inf
ROOT
ATOM      1  C   UNL     1       0.598   4.825  -1.969  1.00  0.00     0.002 C 
ENDROOT
BRANCH   1   2
ATOM      2  C   UNL     1       0.276   5.962  -0.989  1.00  0.00     0.021 C 
BRANCH   2   3
ATOM      3  C   UNL     1       0.861   5.869   0.417  1.00  0.00     0.116 C 
BRANCH   3   4
ATOM      4  N   UNL     1       2.301   5.849   0.490  1.00  0.00    -0.352 N 
ATOM      5  C   UNL     1       3.143   6.194   1.517  1.00  0.00     0.252 C 
ATOM      6  O   UNL     1       4.352   6.015   1.348  1.00  0.00    -0.269 OA
ATOM      7  H   UNL     1       2.752   5.539  -0.328  1.00  0.00     0.163 HD
BRANCH   5   8
ATOM      8  C   UNL     1       2.711   6.847   2.791  1.00  0.00     0.050 A 
ATOM      9  C   UNL     1       1.715   6.397   3.694  1.00  0.00    -0.004 A 
ATOM     10  C   UNL     1       1.572   7.094   4.921  1.00  0.00     0.012 A 
ATOM     11  C   UNL     1       2.358   8.199   5.243  1.00  0.00     0.040 A 
ATOM     12  C   UNL     1       3.510   7.956   3.143  1.00  0.00     0.053 A 
ATOM     13  C   UNL     1       3.323   8.619   4.348  1.00  0.00     0.124 A 
ATOM     14  F   UNL     1       4.100   9.665   4.658  1.00  0.00    -0.207 F 
BRANCH   9  15
ATOM     15  C   UNL     1       0.837   5.227   3.484  1.00  0.00     0.002 A 
ATOM     16  C   UNL     1       0.598   2.847   2.983  1.00  0.00     0.060 A 
ATOM     17  C   UNL     1      -0.796   2.970   2.971  1.00  0.00     0.017 A 
ATOM     18  C   UNL     1       1.404   3.955   3.284  1.00  0.00     0.026 A 
ATOM     19  C   UNL     1      -1.382   4.212   3.206  1.00  0.00     0.022 A 
ATOM     20  C   UNL     1      -0.577   5.332   3.442  1.00  0.00     0.048 A 
ATOM     21  Cl  UNL     1      -1.396   6.857   3.559  1.00  0.00    -0.084 Cl
BRANCH  16  22
ATOM     22  C   UNL     1       1.268   1.593   2.567  1.00  0.00     0.337 C 
ATOM     23  O   UNL     1       2.374   1.251   2.950  1.00  0.00    -0.246 OA
BRANCH  22  24
ATOM     24  O   UNL     1       0.526   1.014   1.593  1.00  0.00    -0.465 OA
ATOM     25  C   UNL     1       1.165  -0.062   0.904  1.00  0.00     0.282 C 
ENDBRANCH  22  24
ENDBRANCH  16  22
ENDBRANCH   9  15
ENDBRANCH   5   8
ENDBRANCH   3   4
ENDBRANCH   2   3
ENDBRANCH   1   2
BRANCH   1  26
ATOM     26  C   UNL     1       0.433   3.377  -1.494  1.00  0.00     0.002 C 
BRANCH  26  27
ATOM     27  C   UNL     1      -0.874   3.000  -0.794  1.00  0.00     0.021 C 
BRANCH  27  28
ATOM     28  C   UNL     1      -2.171   3.277  -1.541  1.00  0.00     0.116 C 
BRANCH  28  29
ATOM     29  N   UNL     1      -2.347   2.429  -2.704  1.00  0.00    -0.352 N 
ATOM     30  C   UNL     1      -3.286   1.468  -2.996  1.00  0.00     0.251 C 
ATOM     31  H   UNL     1      -1.674   2.565  -3.410  1.00  0.00     0.163 HD
ATOM     32  O   UNL     1      -3.120   0.778  -4.001  1.00  0.00    -0.269 OA
BRANCH  30  33
ATOM     33  C   UNL     1      -4.474   1.221  -2.134  1.00  0.00     0.039 A 
ATOM     34  C   UNL     1      -4.947  -0.093  -2.023  1.00  0.00     0.014 A 
ATOM     35  C   UNL     1      -5.178   2.247  -1.499  1.00  0.00     0.014 A 
ATOM     36  C   UNL     1      -6.079  -0.380  -1.248  1.00  0.00     0.010 A 
ATOM     37  C   UNL     1      -6.261   1.952  -0.663  1.00  0.00     0.010 A 
ATOM     38  C   UNL     1      -6.733   0.637  -0.537  1.00  0.00    -0.014 A 
BRANCH  38  39
ATOM     39  C   UNL     1      -7.925   0.347   0.310  1.00  0.00     0.031 A 
ATOM     40  C   UNL     1      -9.268   0.944  -0.035  1.00  0.00     0.074 A 
ATOM     41  C   UNL     1      -7.805  -0.424   1.410  1.00  0.00     0.049 A 
ATOM     42  N   UNL     1     -10.399   0.868   0.620  1.00  0.00    -0.248 NA
ATOM     43  C   UNL     1      -9.344   1.745  -1.268  1.00  0.00     0.031 C 
ATOM     44  C   UNL     1      -6.567  -1.056   1.874  1.00  0.00     0.029 A 
ATOM     45  N   UNL     1      -8.739  -0.808   2.342  1.00  0.00    -0.354 N 
ATOM     46  C   UNL     1     -11.314   1.619  -0.110  1.00  0.00     0.074 A 
ATOM     47  C   UNL     1     -10.595   2.181  -1.233  1.00  0.00     0.031 C 
ATOM     48  C   UNL     1      -6.824  -1.768   2.984  1.00  0.00     0.029 A 
ATOM     49  C   UNL     1      -8.232  -1.613   3.336  1.00  0.00     0.049 A 
ATOM     50  H   UNL     1      -9.683  -0.532   2.302  1.00  0.00     0.167 HD
ATOM     51  C   UNL     1     -12.637   1.810   0.116  1.00  0.00     0.031 A 
ATOM     52  C   UNL     1      -8.829  -2.161   4.413  1.00  0.00     0.031 A 
ATOM     53  C   UNL     1     -13.365   1.238   1.217  1.00  0.00     0.049 A 
ATOM     54  C   UNL     1     -10.295  -1.918   4.653  1.00  0.00     0.074 A 
ATOM     55  C   UNL     1     -14.712   1.357   1.514  1.00  0.00     0.029 A 
ATOM     56  N   UNL     1     -12.812   0.427   2.196  1.00  0.00    -0.354 N 
ATOM     57  N   UNL     1     -11.142  -1.219   3.937  1.00  0.00    -0.248 NA
ATOM     58  C   UNL     1     -10.886  -2.546   5.844  1.00  0.00     0.031 C 
ATOM     59  C   UNL     1     -14.968   0.645   2.690  1.00  0.00     0.029 A 
ATOM     60  C   UNL     1     -13.789   0.046   3.100  1.00  0.00     0.049 A 
ATOM     61  H   UNL     1     -11.865   0.163   2.241  1.00  0.00     0.167 HD
ATOM     62  C   UNL     1     -12.372  -1.350   4.574  1.00  0.00     0.074 A 
ATOM     63  C   UNL     1     -12.161  -2.203   5.725  1.00  0.00     0.031 C 
ATOM     64  C   UNL     1     -13.569  -0.813   4.235  1.00  0.00     0.031 A 
BRANCH  51  65
ATOM     65  C   UNL     1     -13.393   2.671  -0.861  1.00  0.00    -0.014 A 
ATOM     66  C   UNL     1     -13.692   2.202  -2.153  1.00  0.00     0.010 A 
ATOM     67  C   UNL     1     -13.857   3.940  -0.468  1.00  0.00     0.010 A 
ATOM     68  C   UNL     1     -14.410   3.001  -3.047  1.00  0.00     0.020 A 
ATOM     69  C   UNL     1     -14.598   4.731  -1.352  1.00  0.00     0.020 A 
ATOM     70  C   UNL     1     -14.856   4.262  -2.642  1.00  0.00     0.054 A 
BRANCH  70  71
ATOM     71  S   UNL     1     -15.810   5.265  -3.814  1.00  0.00     0.124 S 
ATOM     72  O   UNL     1     -14.771   5.722  -4.733  1.00  0.00    -0.237 OA
ATOM     73  O   UNL     1     -16.757   4.301  -4.367  1.00  0.00    -0.237 OA
ATOM     74  O   UNL     1     -16.402   6.306  -2.977  1.00  0.00    -0.744 OA
ENDBRANCH  70  71
ENDBRANCH  51  65
BRANCH  52  75
ATOM     75  C   UNL     1      -8.046  -3.007   5.356  1.00  0.00    -0.014 A 
ATOM     76  C   UNL     1      -8.268  -4.394   5.419  1.00  0.00     0.010 A 
ATOM     77  C   UNL     1      -7.095  -2.426   6.213  1.00  0.00     0.010 A 
ATOM     78  C   UNL     1      -7.577  -5.181   6.345  1.00  0.00     0.020 A 
ATOM     79  C   UNL     1      -6.382  -3.213   7.122  1.00  0.00     0.020 A 
ATOM     80  C   UNL     1      -6.641  -4.584   7.194  1.00  0.00     0.054 A 
BRANCH  80  81
ATOM     81  S   UNL     1      -5.736  -5.623   8.374  1.00  0.00     0.124 S 
ATOM     82  O   UNL     1      -6.731  -5.826   9.422  1.00  0.00    -0.237 OA
ATOM     83  O   UNL     1      -5.407  -6.801   7.575  1.00  0.00    -0.237 OA
ATOM     84  O   UNL     1      -4.592  -4.793   8.746  1.00  0.00    -0.744 OA
ENDBRANCH  80  81
ENDBRANCH  52  75
BRANCH  64  85
ATOM     85  C   UNL     1     -14.755  -1.166   5.091  1.00  0.00    -0.014 A 
ATOM     86  C   UNL     1     -14.921  -0.609   6.371  1.00  0.00     0.010 A 
ATOM     87  C   UNL     1     -15.740  -2.033   4.585  1.00  0.00     0.010 A 
ATOM     88  C   UNL     1     -16.038  -0.938   7.143  1.00  0.00     0.020 A 
ATOM     89  C   UNL     1     -16.870  -2.345   5.344  1.00  0.00     0.020 A 
ATOM     90  C   UNL     1     -17.005  -1.807   6.625  1.00  0.00     0.054 A 
BRANCH  90  91
ATOM     91  S   UNL     1     -18.468  -2.187   7.629  1.00  0.00     0.124 S 
ATOM     92  O   UNL     1     -17.932  -3.136   8.600  1.00  0.00    -0.237 OA
ATOM     93  O   UNL     1     -18.839  -0.880   8.166  1.00  0.00    -0.237 OA
ATOM     94  O   UNL     1     -19.412  -2.747   6.665  1.00  0.00    -0.744 OA
ENDBRANCH  90  91
ENDBRANCH  64  85
ENDBRANCH  38  39
ENDBRANCH  30  33
ENDBRANCH  28  29
ENDBRANCH  27  28
ENDBRANCH  26  27
ENDBRANCH   1  26
TORSDOF 19
