REMARK SMILES O=C(NCCCCCCNC(=O)C1CN(S(=O)(=O)c2ccc(F)cc2)C1)c1ccc(-c2c3nc(c(-c4ccc(S(=O)(=O)[O-])cc4)c4ccc([nH]4)c(-c4ccc(S(=O)(=O)[O-])cc4)c4nc(c(-c5ccc(S(=O)(=O)[O-])cc5)c5ccc2[nH]5)C=C4)C=C3)cc1
REMARK SMILES IDX 6 1 5 2 4 3 3 4 1 5 2 6 27 8 28 9 86 10 29 11 85 12 30 13
REMARK SMILES IDX 31 14 32 15 79 16 33 17 84 18 78 19 80 20 34 21 83 22 77 23
REMARK SMILES IDX 76 24 35 26 65 27 46 28 64 29 47 30 50 31 63 32 81 33 48 34
REMARK SMILES IDX 49 35 62 37 82 38 51 39 36 40 37 41 45 42 38 43 44 44 39 45
REMARK SMILES IDX 40 46 41 47 42 48 43 49 66 50 67 51 75 52 68 53 74 54 69 55
REMARK SMILES IDX 70 56 71 57 72 58 73 59 52 60 53 61 61 62 54 63 60 64 55 65
REMARK SMILES IDX 56 66 57 67 58 68 59 69 7 70 8 71 9 72 10 73 11 74 12 76
REMARK SMILES IDX 13 77 14 78 26 79 15 80 16 81 17 82 18 83 19 84 20 85 25 86
REMARK SMILES IDX 21 87 24 88 22 89 23 90
REMARK H PARENT 3 7 80 25 50 36 10 75
REMARK Flexibility Score: inf
ROOT
ATOM      1  C   UNL     1       4.254  -2.079   3.207  1.00  0.00     0.002 C 
ENDROOT
BRANCH   1   2
ATOM      2  C   UNL     1       4.723  -0.826   2.462  1.00  0.00     0.021 C 
BRANCH   2   3
ATOM      3  C   UNL     1       4.538  -0.871   0.947  1.00  0.00     0.116 C 
BRANCH   3   4
ATOM      4  N   UNL     1       3.139  -0.988   0.573  1.00  0.00    -0.352 N 
ATOM      5  O   UNL     1       1.157  -0.314  -0.250  1.00  0.00    -0.269 OA
ATOM      6  C   UNL     1       2.375  -0.164  -0.214  1.00  0.00     0.251 C 
ATOM      7  H   UNL     1       2.671  -1.773   0.938  1.00  0.00     0.163 HD
BRANCH   6   8
ATOM      8  C   UNL     1       3.013   0.911  -1.004  1.00  0.00     0.039 A 
ATOM      9  C   UNL     1       4.157   0.662  -1.770  1.00  0.00     0.014 A 
ATOM     10  C   UNL     1       2.426   2.179  -1.010  1.00  0.00     0.014 A 
ATOM     11  C   UNL     1       4.768   1.704  -2.466  1.00  0.00     0.010 A 
ATOM     12  C   UNL     1       3.010   3.209  -1.751  1.00  0.00     0.010 A 
ATOM     13  C   UNL     1       4.196   2.984  -2.468  1.00  0.00    -0.014 A 
BRANCH  13  14
ATOM     14  C   UNL     1       4.807   4.080  -3.259  1.00  0.00     0.031 A 
ATOM     15  C   UNL     1       5.422   5.267  -2.574  1.00  0.00     0.074 A 
ATOM     16  C   UNL     1       4.769   4.020  -4.603  1.00  0.00     0.049 A 
ATOM     17  N   UNL     1       5.927   6.352  -3.104  1.00  0.00    -0.248 NA
ATOM     18  C   UNL     1       5.468   5.235  -1.105  1.00  0.00     0.031 C 
ATOM     19  C   UNL     1       4.197   2.919  -5.381  1.00  0.00     0.029 A 
ATOM     20  N   UNL     1       5.206   4.909  -5.551  1.00  0.00    -0.354 N 
ATOM     21  C   UNL     1       6.327   7.144  -2.035  1.00  0.00     0.074 A 
ATOM     22  C   UNL     1       5.993   6.420  -0.826  1.00  0.00     0.031 C 
ATOM     23  C   UNL     1       4.322   3.196  -6.688  1.00  0.00     0.029 A 
ATOM     24  C   UNL     1       4.936   4.512  -6.838  1.00  0.00     0.049 A 
ATOM     25  H   UNL     1       5.670   5.749  -5.331  1.00  0.00     0.167 HD
ATOM     26  C   UNL     1       6.916   8.365  -2.059  1.00  0.00     0.031 A 
ATOM     27  C   UNL     1       5.128   5.145  -8.011  1.00  0.00     0.031 A 
ATOM     28  C   UNL     1       7.238   9.084  -3.264  1.00  0.00     0.049 A 
ATOM     29  C   UNL     1       5.759   6.506  -8.017  1.00  0.00     0.074 A 
ATOM     30  C   UNL     1       7.861  10.313  -3.393  1.00  0.00     0.029 A 
ATOM     31  N   UNL     1       6.953   8.643  -4.548  1.00  0.00    -0.354 N 
ATOM     32  N   UNL     1       6.161   7.227  -6.998  1.00  0.00    -0.248 NA
ATOM     33  C   UNL     1       5.966   7.139  -9.326  1.00  0.00     0.031 C 
ATOM     34  C   UNL     1       7.916  10.633  -4.754  1.00  0.00     0.029 A 
ATOM     35  C   UNL     1       7.370   9.583  -5.475  1.00  0.00     0.049 A 
ATOM     36  H   UNL     1       6.519   7.787  -4.768  1.00  0.00     0.167 HD
ATOM     37  C   UNL     1       6.688   8.391  -7.542  1.00  0.00     0.074 A 
ATOM     38  C   UNL     1       6.557   8.277  -8.982  1.00  0.00     0.031 C 
ATOM     39  C   UNL     1       7.235   9.455  -6.905  1.00  0.00     0.031 A 
BRANCH  26  40
ATOM     40  C   UNL     1       7.207   9.014  -0.733  1.00  0.00    -0.014 A 
ATOM     41  C   UNL     1       8.244   8.548   0.095  1.00  0.00     0.010 A 
ATOM     42  C   UNL     1       6.430  10.106  -0.308  1.00  0.00     0.010 A 
ATOM     43  C   UNL     1       8.460   9.125   1.350  1.00  0.00     0.020 A 
ATOM     44  C   UNL     1       6.657  10.701   0.936  1.00  0.00     0.020 A 
ATOM     45  C   UNL     1       7.654  10.188   1.769  1.00  0.00     0.054 A 
BRANCH  45  46
ATOM     46  S   UNL     1       7.930  10.902   3.414  1.00  0.00     0.124 S 
ATOM     47  O   UNL     1       7.293   9.912   4.279  1.00  0.00    -0.237 OA
ATOM     48  O   UNL     1       9.387  10.964   3.501  1.00  0.00    -0.237 OA
ATOM     49  O   UNL     1       7.258  12.197   3.346  1.00  0.00    -0.744 OA
ENDBRANCH  45  46
ENDBRANCH  26  40
BRANCH  27  50
ATOM     50  C   UNL     1       4.700   4.476  -9.267  1.00  0.00    -0.014 A 
ATOM     51  C   UNL     1       5.647   3.882 -10.117  1.00  0.00     0.010 A 
ATOM     52  C   UNL     1       3.330   4.350  -9.567  1.00  0.00     0.010 A 
ATOM     53  C   UNL     1       5.232   3.159 -11.239  1.00  0.00     0.020 A 
ATOM     54  C   UNL     1       2.911   3.610 -10.675  1.00  0.00     0.020 A 
ATOM     55  C   UNL     1       3.866   3.019 -11.505  1.00  0.00     0.054 A 
BRANCH  55  56
ATOM     56  S   UNL     1       3.346   1.982 -12.901  1.00  0.00     0.124 S 
ATOM     57  O   UNL     1       3.602   2.857 -14.041  1.00  0.00    -0.237 OA
ATOM     58  O   UNL     1       4.229   0.824 -12.782  1.00  0.00    -0.237 OA
ATOM     59  O   UNL     1       1.938   1.712 -12.619  1.00  0.00    -0.744 OA
ENDBRANCH  55  56
ENDBRANCH  27  50
BRANCH  39  60
ATOM     60  C   UNL     1       7.769  10.575  -7.753  1.00  0.00    -0.014 A 
ATOM     61  C   UNL     1       6.905  11.514  -8.343  1.00  0.00     0.010 A 
ATOM     62  C   UNL     1       9.160  10.738  -7.886  1.00  0.00     0.010 A 
ATOM     63  C   UNL     1       7.426  12.596  -9.058  1.00  0.00     0.020 A 
ATOM     64  C   UNL     1       9.683  11.828  -8.585  1.00  0.00     0.020 A 
ATOM     65  C   UNL     1       8.812  12.748  -9.172  1.00  0.00     0.054 A 
BRANCH  65  66
ATOM     66  S   UNL     1       9.467  14.203 -10.036  1.00  0.00     0.124 S 
ATOM     67  O   UNL     1       9.262  13.843 -11.436  1.00  0.00    -0.237 OA
ATOM     68  O   UNL     1       8.621  15.284  -9.535  1.00  0.00    -0.237 OA
ATOM     69  O   UNL     1      10.861  14.262  -9.604  1.00  0.00    -0.744 OA
ENDBRANCH  65  66
ENDBRANCH  39  60
ENDBRANCH  13  14
ENDBRANCH   6   8
ENDBRANCH   3   4
ENDBRANCH   2   3
ENDBRANCH   1   2
BRANCH   1  70
ATOM     70  C   UNL     1       4.920  -3.389   2.773  1.00  0.00     0.002 C 
BRANCH  70  71
ATOM     71  C   UNL     1       6.452  -3.395   2.828  1.00  0.00     0.021 C 
BRANCH  71  72
ATOM     72  C   UNL     1       7.036  -3.034   4.193  1.00  0.00     0.116 C 
BRANCH  72  73
ATOM     73  N   UNL     1       6.705  -4.028   5.201  1.00  0.00    -0.356 N 
ATOM     74  C   UNL     1       7.556  -4.889   5.852  1.00  0.00     0.225 C 
ATOM     75  H   UNL     1       5.754  -4.092   5.447  1.00  0.00     0.163 HD
ATOM     76  O   UNL     1       7.073  -5.682   6.665  1.00  0.00    -0.275 OA
BRANCH  74  77
ATOM     77  C   UNL     1       9.046  -4.803   5.515  1.00  0.00     0.109 C 
ATOM     78  C   UNL     1       9.881  -3.748   6.272  1.00  0.00     0.117 C 
ATOM     79  C   UNL     1      10.024  -5.804   6.162  1.00  0.00     0.117 C 
ATOM     80  N   UNL     1      11.054  -4.700   6.268  1.00  0.00    -0.196 NA
BRANCH  80  81
ATOM     81  S   UNL     1      12.304  -4.481   5.110  1.00  0.00     0.243 S 
ATOM     82  O   UNL     1      11.835  -4.999   3.843  1.00  0.00    -0.207 OA
ATOM     83  O   UNL     1      12.773  -3.117   5.238  1.00  0.00    -0.207 OA
BRANCH  81  84
ATOM     84  C   UNL     1      13.587  -5.562   5.688  1.00  0.00     0.082 A 
ATOM     85  C   UNL     1      13.410  -6.948   5.603  1.00  0.00     0.025 A 
ATOM     86  C   UNL     1      14.801  -5.024   6.131  1.00  0.00     0.025 A 
ATOM     87  C   UNL     1      14.446  -7.799   5.988  1.00  0.00     0.040 A 
ATOM     88  C   UNL     1      15.838  -5.881   6.501  1.00  0.00     0.040 A 
ATOM     89  C   UNL     1      15.650  -7.258   6.430  1.00  0.00     0.123 A 
ATOM     90  F   UNL     1      16.649  -8.079   6.779  1.00  0.00    -0.207 F 
ENDBRANCH  81  84
ENDBRANCH  80  81
ENDBRANCH  74  77
ENDBRANCH  72  73
ENDBRANCH  71  72
ENDBRANCH  70  71
ENDBRANCH   1  70
TORSDOF 18
