REMARK SMILES O=C(NCCCCCCNC(=O)c1ccc(-c2c3nc(c(-c4ccc(S(=O)(=O)[O-])cc4)c4ccc([nH]4)c(-c4ccc(S(=O)(=O)[O-])cc4)c4nc(c(-c5ccc(S(=O)(=O)[O-])cc5)c5ccc2[nH]5)C=C4)C=C3)cc1)c1ccc(N[C@H]2OC[C@@H](O)[C@@H](O)[C@H]2O)cc1
REMARK SMILES IDX 6 1 5 2 4 3 3 4 1 5 2 6 73 8 74 9 88 10 75 11 87 12 76 13
REMARK SMILES IDX 77 14 78 16 79 17 85 18 80 19 83 20 81 21 86 22 84 24 82 26
REMARK SMILES IDX 7 28 8 29 9 30 10 31 11 32 12 34 13 35 14 36 72 37 15 38
REMARK SMILES IDX 71 39 16 40 17 41 18 42 65 43 19 44 70 45 64 46 66 47 20 48
REMARK SMILES IDX 69 49 63 50 62 51 21 53 51 54 32 55 50 56 33 57 36 58 49 59
REMARK SMILES IDX 67 60 34 61 35 62 48 64 68 65 37 66 22 67 23 68 31 69 24 70
REMARK SMILES IDX 30 71 25 72 26 73 27 74 28 75 29 76 52 77 53 78 61 79 54 80
REMARK SMILES IDX 60 81 55 82 56 83 57 84 58 85 59 86 38 87 39 88 47 89 40 90
REMARK SMILES IDX 46 91 41 92 42 93 43 94 44 95 45 96
REMARK H PARENT 3 7 77 15 86 23 84 25 82 27 10 33 66 52 36 63
REMARK Flexibility Score: inf
ROOT
ATOM      1  C   UNL     1       0.529 -10.216  -6.596  1.00  0.00     0.002 C 
ENDROOT
BRANCH   1   2
ATOM      2  C   UNL     1       1.655  -9.197  -6.404  1.00  0.00     0.021 C 
BRANCH   2   3
ATOM      3  C   UNL     1       2.202  -9.096  -4.983  1.00  0.00     0.116 C 
BRANCH   3   4
ATOM      4  N   UNL     1       2.864 -10.321  -4.561  1.00  0.00    -0.352 N 
ATOM      5  O   UNL     1       4.603 -11.578  -3.839  1.00  0.00    -0.269 OA
ATOM      6  C   UNL     1       4.104 -10.467  -3.990  1.00  0.00     0.251 C 
ATOM      7  H   UNL     1       2.357 -11.153  -4.702  1.00  0.00     0.163 HD
BRANCH   6   8
ATOM      8  C   UNL     1       4.843  -9.261  -3.568  1.00  0.00     0.039 A 
ATOM      9  C   UNL     1       4.242  -8.338  -2.715  1.00  0.00     0.016 A 
ATOM     10  C   UNL     1       6.142  -9.049  -4.024  1.00  0.00     0.016 A 
ATOM     11  C   UNL     1       4.912  -7.158  -2.394  1.00  0.00     0.026 A 
ATOM     12  C   UNL     1       6.809  -7.867  -3.680  1.00  0.00     0.026 A 
ATOM     13  C   UNL     1       6.192  -6.882  -2.892  1.00  0.00     0.036 A 
BRANCH  13  14
ATOM     14  N   UNL     1       6.898  -5.728  -2.577  1.00  0.00    -0.358 N 
ATOM     15  H   UNL     1       7.846  -5.669  -2.836  1.00  0.00     0.163 HD
BRANCH  14  16
ATOM     16  C   UNL     1       6.293  -4.600  -1.880  1.00  0.00     0.244 C 
ATOM     17  O   UNL     1       5.893  -5.030  -0.576  1.00  0.00    -0.353 OA
ATOM     18  C   UNL     1       7.349  -3.484  -1.703  1.00  0.00     0.195 C 
ATOM     19  C   UNL     1       5.196  -4.013   0.151  1.00  0.00     0.197 C 
ATOM     20  C   UNL     1       6.711  -2.324  -0.924  1.00  0.00     0.178 C 
ATOM     21  C   UNL     1       6.106  -2.809   0.404  1.00  0.00     0.171 C 
BRANCH  18  22
ATOM     22  O   UNL     1       8.480  -4.006  -0.959  1.00  0.00    -0.386 OA
ATOM     23  H   UNL     1       8.180  -4.319  -0.092  1.00  0.00     0.211 HD
ENDBRANCH  18  22
BRANCH  20  24
ATOM     24  O   UNL     1       7.684  -1.308  -0.674  1.00  0.00    -0.387 OA
ATOM     25  H   UNL     1       8.402  -1.673  -0.132  1.00  0.00     0.211 HD
ENDBRANCH  20  24
BRANCH  21  26
ATOM     26  O   UNL     1       7.158  -3.182   1.309  1.00  0.00    -0.388 OA
ATOM     27  H   UNL     1       7.681  -3.900   0.919  1.00  0.00     0.211 HD
ENDBRANCH  21  26
ENDBRANCH  14  16
ENDBRANCH  13  14
ENDBRANCH   6   8
ENDBRANCH   3   4
ENDBRANCH   2   3
ENDBRANCH   1   2
BRANCH   1  28
ATOM     28  C   UNL     1      -0.701 -10.018  -5.706  1.00  0.00     0.002 C 
BRANCH  28  29
ATOM     29  C   UNL     1      -1.353  -8.634  -5.772  1.00  0.00     0.021 C 
BRANCH  29  30
ATOM     30  C   UNL     1      -1.752  -8.162  -7.168  1.00  0.00     0.116 C 
BRANCH  30  31
ATOM     31  N   UNL     1      -2.727  -9.035  -7.798  1.00  0.00    -0.352 N 
ATOM     32  C   UNL     1      -3.903  -8.716  -8.433  1.00  0.00     0.251 C 
ATOM     33  H   UNL     1      -2.514  -9.995  -7.766  1.00  0.00     0.163 HD
ATOM     34  O   UNL     1      -4.670  -9.610  -8.780  1.00  0.00    -0.269 OA
BRANCH  32  35
ATOM     35  C   UNL     1      -4.261  -7.300  -8.674  1.00  0.00     0.039 A 
ATOM     36  C   UNL     1      -5.564  -6.879  -8.395  1.00  0.00     0.014 A 
ATOM     37  C   UNL     1      -3.327  -6.393  -9.183  1.00  0.00     0.014 A 
ATOM     38  C   UNL     1      -5.913  -5.537  -8.566  1.00  0.00     0.010 A 
ATOM     39  C   UNL     1      -3.659  -5.043  -9.295  1.00  0.00     0.010 A 
ATOM     40  C   UNL     1      -4.955  -4.601  -8.986  1.00  0.00    -0.014 A 
BRANCH  40  41
ATOM     41  C   UNL     1      -5.287  -3.156  -9.100  1.00  0.00     0.031 A 
ATOM     42  C   UNL     1      -5.265  -2.474 -10.442  1.00  0.00     0.074 A 
ATOM     43  C   UNL     1      -5.545  -2.442  -7.986  1.00  0.00     0.049 A 
ATOM     44  N   UNL     1      -5.465  -1.213 -10.728  1.00  0.00    -0.248 NA
ATOM     45  C   UNL     1      -4.957  -3.313 -11.611  1.00  0.00     0.031 C 
ATOM     46  C   UNL     1      -5.564  -2.975  -6.621  1.00  0.00     0.029 A 
ATOM     47  N   UNL     1      -5.836  -1.110  -7.823  1.00  0.00    -0.354 N 
ATOM     48  C   UNL     1      -5.283  -1.102 -12.102  1.00  0.00     0.074 A 
ATOM     49  C   UNL     1      -4.923  -2.416 -12.587  1.00  0.00     0.031 C 
ATOM     50  C   UNL     1      -5.876  -1.987  -5.766  1.00  0.00     0.029 A 
ATOM     51  C   UNL     1      -6.040  -0.744  -6.513  1.00  0.00     0.049 A 
ATOM     52  H   UNL     1      -5.892  -0.476  -8.574  1.00  0.00     0.167 HD
ATOM     53  C   UNL     1      -5.417  -0.008 -12.890  1.00  0.00     0.031 A 
ATOM     54  C   UNL     1      -6.323   0.457  -5.972  1.00  0.00     0.031 A 
ATOM     55  C   UNL     1      -5.802   1.293 -12.411  1.00  0.00     0.049 A 
ATOM     56  C   UNL     1      -6.466   1.655  -6.870  1.00  0.00     0.074 A 
ATOM     57  C   UNL     1      -6.035   2.444 -13.144  1.00  0.00     0.029 A 
ATOM     58  N   UNL     1      -6.009   1.618 -11.080  1.00  0.00    -0.354 N 
ATOM     59  N   UNL     1      -6.356   1.723  -8.175  1.00  0.00    -0.248 NA
ATOM     60  C   UNL     1      -6.780   2.936  -6.222  1.00  0.00     0.031 C 
ATOM     61  C   UNL     1      -6.338   3.477 -12.251  1.00  0.00     0.029 A 
ATOM     62  C   UNL     1      -6.343   2.957 -10.967  1.00  0.00     0.049 A 
ATOM     63  H   UNL     1      -5.931   0.990 -10.326  1.00  0.00     0.167 HD
ATOM     64  C   UNL     1      -6.617   3.048  -8.507  1.00  0.00     0.074 A 
ATOM     65  C   UNL     1      -6.900   3.743  -7.268  1.00  0.00     0.031 C 
ATOM     66  C   UNL     1      -6.626   3.635  -9.728  1.00  0.00     0.031 A 
BRANCH  53  67
ATOM     67  C   UNL     1      -5.138  -0.168 -14.361  1.00  0.00    -0.014 A 
ATOM     68  C   UNL     1      -6.024  -0.868 -15.199  1.00  0.00     0.010 A 
ATOM     69  C   UNL     1      -3.999   0.440 -14.922  1.00  0.00     0.010 A 
ATOM     70  C   UNL     1      -5.758  -0.988 -16.565  1.00  0.00     0.020 A 
ATOM     71  C   UNL     1      -3.744   0.343 -16.293  1.00  0.00     0.020 A 
ATOM     72  C   UNL     1      -4.618  -0.384 -17.103  1.00  0.00     0.054 A 
BRANCH  72  73
ATOM     73  S   UNL     1      -4.313  -0.531 -18.886  1.00  0.00     0.124 S 
ATOM     74  O   UNL     1      -3.865  -1.917 -19.000  1.00  0.00    -0.237 OA
ATOM     75  O   UNL     1      -5.625  -0.246 -19.461  1.00  0.00    -0.237 OA
ATOM     76  O   UNL     1      -3.289   0.478 -19.146  1.00  0.00    -0.744 OA
ENDBRANCH  72  73
ENDBRANCH  53  67
BRANCH  54  77
ATOM     77  C   UNL     1      -6.507   0.588  -4.501  1.00  0.00    -0.014 A 
ATOM     78  C   UNL     1      -7.785   0.825  -3.964  1.00  0.00     0.010 A 
ATOM     79  C   UNL     1      -5.407   0.483  -3.632  1.00  0.00     0.010 A 
ATOM     80  C   UNL     1      -7.956   0.978  -2.585  1.00  0.00     0.020 A 
ATOM     81  C   UNL     1      -5.578   0.610  -2.250  1.00  0.00     0.020 A 
ATOM     82  C   UNL     1      -6.850   0.871  -1.737  1.00  0.00     0.054 A 
BRANCH  82  83
ATOM     83  S   UNL     1      -7.098   1.033   0.053  1.00  0.00     0.124 S 
ATOM     84  O   UNL     1      -7.262   2.475   0.206  1.00  0.00    -0.237 OA
ATOM     85  O   UNL     1      -8.297   0.231   0.281  1.00  0.00    -0.237 OA
ATOM     86  O   UNL     1      -5.870   0.477   0.617  1.00  0.00    -0.744 OA
ENDBRANCH  82  83
ENDBRANCH  54  77
BRANCH  66  87
ATOM     87  C   UNL     1      -6.988   5.094  -9.794  1.00  0.00    -0.014 A 
ATOM     88  C   UNL     1      -6.090   6.087  -9.367  1.00  0.00     0.010 A 
ATOM     89  C   UNL     1      -8.227   5.476 -10.341  1.00  0.00     0.010 A 
ATOM     90  C   UNL     1      -6.436   7.438  -9.459  1.00  0.00     0.020 A 
ATOM     91  C   UNL     1      -8.566   6.826 -10.458  1.00  0.00     0.020 A 
ATOM     92  C   UNL     1      -7.673   7.799 -10.003  1.00  0.00     0.054 A 
BRANCH  92  93
ATOM     93  S   UNL     1      -8.083   9.559 -10.154  1.00  0.00     0.124 S 
ATOM     94  O   UNL     1      -8.411   9.914  -8.777  1.00  0.00    -0.237 OA
ATOM     95  O   UNL     1      -6.844  10.134 -10.673  1.00  0.00    -0.237 OA
ATOM     96  O   UNL     1      -9.207   9.574 -11.087  1.00  0.00    -0.744 OA
ENDBRANCH  92  93
ENDBRANCH  66  87
ENDBRANCH  40  41
ENDBRANCH  32  35
ENDBRANCH  30  31
ENDBRANCH  29  30
ENDBRANCH  28  29
ENDBRANCH   1  28
TORSDOF 21
