REMARK SMILES O=C(NCc1ccc(C(=O)NCCCCCCNC(=O)c2ccc(-c3c4nc(c(-c5ccc(S(=O)(=O)[O-])cc5)c5ccc([nH]5)c(-c5ccc(S(=O)(=O)[O-])cc5)c5nc(c(-c6ccc(S(=O)(=O)[O-])cc6)c6ccc3[nH]6)C=C5)C=C4)cc2)o1)Nc1ccc(F)c(Cl)c1
REMARK SMILES IDX 14 1 13 2 12 3 11 4 9 5 10 6 8 8 5 9 6 10 81 11 7 12 4 13
REMARK SMILES IDX 3 14 1 15 2 16 82 17 83 20 84 21 90 22 85 23 88 24 86 25
REMARK SMILES IDX 89 26 87 27 15 28 16 29 17 30 18 31 19 32 20 34 21 35 22 36
REMARK SMILES IDX 80 37 23 38 79 39 24 40 25 41 26 42 73 43 27 44 78 45 72 46
REMARK SMILES IDX 74 47 28 48 77 49 71 50 70 51 29 53 59 54 40 55 58 56 41 57
REMARK SMILES IDX 44 58 57 59 75 60 42 61 43 62 56 64 76 65 45 66 30 67 31 68
REMARK SMILES IDX 39 69 32 70 38 71 33 72 34 73 35 74 36 75 37 76 60 77 61 78
REMARK SMILES IDX 69 79 62 80 68 81 63 82 64 83 65 84 66 85 67 86 46 87 47 88
REMARK SMILES IDX 55 89 48 90 54 91 49 92 50 93 51 94 52 95 53 96
REMARK H PARENT 11 7 3 18 82 19 18 33 74 52 44 63
REMARK Flexibility Score: inf
ROOT
ATOM      1  C   UNL     1       5.968  -8.662   2.817  1.00  0.00     0.002 C 
ENDROOT
BRANCH   1   2
ATOM      2  C   UNL     1       6.138  -7.138   2.734  1.00  0.00     0.021 C 
BRANCH   2   3
ATOM      3  C   UNL     1       6.586  -6.646   1.358  1.00  0.00     0.116 C 
BRANCH   3   4
ATOM      4  N   UNL     1       5.471  -6.591   0.438  1.00  0.00    -0.349 N 
ATOM      5  C   UNL     1       4.798  -5.542  -0.137  1.00  0.00     0.286 C 
ATOM      6  O   UNL     1       3.922  -5.864  -0.946  1.00  0.00    -0.266 OA
ATOM      7  H   UNL     1       5.130  -7.476   0.173  1.00  0.00     0.163 HD
BRANCH   5   8
ATOM      8  C   UNL     1       5.104  -4.153   0.167  1.00  0.00     0.191 A 
ATOM      9  C   UNL     1       4.894  -1.981  -0.247  1.00  0.00     0.124 A 
ATOM     10  C   UNL     1       5.711  -2.082   0.853  1.00  0.00     0.048 A 
ATOM     11  O   UNL     1       4.540  -3.222  -0.675  1.00  0.00    -0.454 OA
ATOM     12  C   UNL     1       5.818  -3.469   1.137  1.00  0.00     0.056 A 
BRANCH   9  13
ATOM     13  C   UNL     1       4.315  -0.843  -0.999  1.00  0.00     0.193 C 
BRANCH  13  14
ATOM     14  N   UNL     1       2.890  -0.824  -0.741  1.00  0.00    -0.331 N 
ATOM     15  O   UNL     1       0.965  -0.404   0.266  1.00  0.00    -0.248 OA
ATOM     16  C   UNL     1       2.135  -0.071   0.098  1.00  0.00     0.319 C 
ATOM     17  N   UNL     1       2.743   1.014   0.663  1.00  0.00    -0.308 N 
ATOM     18  H   UNL     1       2.376  -1.475  -1.272  1.00  0.00     0.165 HD
ATOM     19  H   UNL     1       3.647   1.232   0.339  1.00  0.00     0.171 HD
BRANCH  17  20
ATOM     20  C   UNL     1       2.210   1.856   1.663  1.00  0.00     0.044 A 
ATOM     21  C   UNL     1       2.874   3.067   1.905  1.00  0.00     0.029 A 
ATOM     22  C   UNL     1       1.077   1.537   2.421  1.00  0.00     0.049 A 
ATOM     23  C   UNL     1       2.393   3.962   2.864  1.00  0.00     0.043 A 
ATOM     24  C   UNL     1       0.602   2.429   3.386  1.00  0.00     0.078 A 
ATOM     25  C   UNL     1       1.257   3.639   3.597  1.00  0.00     0.141 A 
ATOM     26  Cl  UNL     1      -0.794   2.020   4.309  1.00  0.00    -0.081 Cl
ATOM     27  F   UNL     1       0.808   4.516   4.507  1.00  0.00    -0.205 F 
ENDBRANCH  17  20
ENDBRANCH  13  14
ENDBRANCH   9  13
ENDBRANCH   5   8
ENDBRANCH   3   4
ENDBRANCH   2   3
ENDBRANCH   1   2
BRANCH   1  28
ATOM     28  C   UNL     1       7.229  -9.480   2.507  1.00  0.00     0.002 C 
BRANCH  28  29
ATOM     29  C   UNL     1       8.479  -9.079   3.296  1.00  0.00     0.021 C 
BRANCH  29  30
ATOM     30  C   UNL     1       8.346  -9.217   4.809  1.00  0.00     0.116 C 
BRANCH  30  31
ATOM     31  N   UNL     1       8.165 -10.601   5.211  1.00  0.00    -0.352 N 
ATOM     32  C   UNL     1       8.868 -11.341   6.129  1.00  0.00     0.251 C 
ATOM     33  H   UNL     1       7.432 -11.078   4.760  1.00  0.00     0.163 HD
ATOM     34  O   UNL     1       8.711 -12.557   6.177  1.00  0.00    -0.269 OA
BRANCH  32  35
ATOM     35  C   UNL     1       9.818 -10.678   7.051  1.00  0.00     0.039 A 
ATOM     36  C   UNL     1      11.042 -11.297   7.317  1.00  0.00     0.014 A 
ATOM     37  C   UNL     1       9.489  -9.477   7.685  1.00  0.00     0.014 A 
ATOM     38  C   UNL     1      11.950 -10.695   8.191  1.00  0.00     0.010 A 
ATOM     39  C   UNL     1      10.423  -8.842   8.502  1.00  0.00     0.010 A 
ATOM     40  C   UNL     1      11.655  -9.454   8.779  1.00  0.00    -0.014 A 
BRANCH  40  41
ATOM     41  C   UNL     1      12.607  -8.802   9.713  1.00  0.00     0.031 A 
ATOM     42  C   UNL     1      12.231  -8.608  11.159  1.00  0.00     0.074 A 
ATOM     43  C   UNL     1      13.790  -8.346   9.256  1.00  0.00     0.049 A 
ATOM     44  N   UNL     1      12.909  -8.030  12.118  1.00  0.00    -0.248 NA
ATOM     45  C   UNL     1      10.909  -9.104  11.575  1.00  0.00     0.031 C 
ATOM     46  C   UNL     1      14.255  -8.437   7.870  1.00  0.00     0.029 A 
ATOM     47  N   UNL     1      14.816  -7.711   9.909  1.00  0.00    -0.354 N 
ATOM     48  C   UNL     1      12.092  -8.077  13.242  1.00  0.00     0.074 A 
ATOM     49  C   UNL     1      10.848  -8.692  12.833  1.00  0.00     0.031 C 
ATOM     50  C   UNL     1      15.485  -7.904   7.784  1.00  0.00     0.029 A 
ATOM     51  C   UNL     1      15.881  -7.404   9.096  1.00  0.00     0.049 A 
ATOM     52  H   UNL     1      14.792  -7.495  10.869  1.00  0.00     0.167 HD
ATOM     53  C   UNL     1      12.358  -7.666  14.505  1.00  0.00     0.031 A 
ATOM     54  C   UNL     1      17.047  -6.790   9.375  1.00  0.00     0.031 A 
ATOM     55  C   UNL     1      13.602  -7.071  14.913  1.00  0.00     0.049 A 
ATOM     56  C   UNL     1      17.327  -6.354  10.788  1.00  0.00     0.074 A 
ATOM     57  C   UNL     1      13.990  -6.667  16.178  1.00  0.00     0.029 A 
ATOM     58  N   UNL     1      14.664  -6.798  14.063  1.00  0.00    -0.354 N 
ATOM     59  N   UNL     1      16.562  -6.458  11.849  1.00  0.00    -0.248 NA
ATOM     60  C   UNL     1      18.635  -5.735  11.044  1.00  0.00     0.031 C 
ATOM     61  C   UNL     1      15.271  -6.110  16.086  1.00  0.00     0.029 A 
ATOM     62  C   UNL     1      15.701  -6.219  14.773  1.00  0.00     0.049 A 
ATOM     63  H   UNL     1      14.678  -6.989  13.097  1.00  0.00     0.167 HD
ATOM     64  C   UNL     1      17.310  -5.947  12.905  1.00  0.00     0.074 A 
ATOM     65  C   UNL     1      18.589  -5.546  12.355  1.00  0.00     0.031 C 
ATOM     66  C   UNL     1      16.969  -5.826  14.212  1.00  0.00     0.031 A 
BRANCH  53  67
ATOM     67  C   UNL     1      11.273  -7.845  15.536  1.00  0.00    -0.014 A 
ATOM     68  C   UNL     1      10.905  -9.125  15.989  1.00  0.00     0.010 A 
ATOM     69  C   UNL     1      10.631  -6.717  16.079  1.00  0.00     0.010 A 
ATOM     70  C   UNL     1       9.882  -9.277  16.929  1.00  0.00     0.020 A 
ATOM     71  C   UNL     1       9.627  -6.864  17.041  1.00  0.00     0.020 A 
ATOM     72  C   UNL     1       9.246  -8.145  17.445  1.00  0.00     0.054 A 
BRANCH  72  73
ATOM     73  S   UNL     1       7.929  -8.370  18.672  1.00  0.00     0.124 S 
ATOM     74  O   UNL     1       6.828  -8.858  17.844  1.00  0.00    -0.237 OA
ATOM     75  O   UNL     1       8.508  -9.350  19.588  1.00  0.00    -0.237 OA
ATOM     76  O   UNL     1       7.743  -7.033  19.231  1.00  0.00    -0.744 OA
ENDBRANCH  72  73
ENDBRANCH  53  67
BRANCH  54  77
ATOM     77  C   UNL     1      18.051  -6.579   8.297  1.00  0.00    -0.014 A 
ATOM     78  C   UNL     1      19.241  -7.327   8.273  1.00  0.00     0.010 A 
ATOM     79  C   UNL     1      17.814  -5.638   7.278  1.00  0.00     0.010 A 
ATOM     80  C   UNL     1      20.185  -7.127   7.261  1.00  0.00     0.020 A 
ATOM     81  C   UNL     1      18.743  -5.454   6.250  1.00  0.00     0.020 A 
ATOM     82  C   UNL     1      19.928  -6.192   6.255  1.00  0.00     0.054 A 
BRANCH  82  83
ATOM     83  S   UNL     1      21.141  -5.986   4.921  1.00  0.00     0.124 S 
ATOM     84  O   UNL     1      22.205  -5.244   5.590  1.00  0.00    -0.237 OA
ATOM     85  O   UNL     1      21.458  -7.367   4.566  1.00  0.00    -0.237 OA
ATOM     86  O   UNL     1      20.403  -5.244   3.901  1.00  0.00    -0.744 OA
ENDBRANCH  82  83
ENDBRANCH  54  77
BRANCH  66  87
ATOM     87  C   UNL     1      18.011  -5.276  15.149  1.00  0.00    -0.014 A 
ATOM     88  C   UNL     1      18.369  -3.917  15.130  1.00  0.00     0.010 A 
ATOM     89  C   UNL     1      18.610  -6.130  16.093  1.00  0.00     0.010 A 
ATOM     90  C   UNL     1      19.337  -3.430  16.013  1.00  0.00     0.020 A 
ATOM     91  C   UNL     1      19.558  -5.642  16.995  1.00  0.00     0.020 A 
ATOM     92  C   UNL     1      19.928  -4.297  16.937  1.00  0.00     0.054 A 
BRANCH  92  93
ATOM     93  S   UNL     1      21.161  -3.636  18.092  1.00  0.00     0.124 S 
ATOM     94  O   UNL     1      22.330  -3.482  17.231  1.00  0.00    -0.237 OA
ATOM     95  O   UNL     1      20.544  -2.392  18.544  1.00  0.00    -0.237 OA
ATOM     96  O   UNL     1      21.270  -4.676  19.113  1.00  0.00    -0.744 OA
ENDBRANCH  92  93
ENDBRANCH  66  87
ENDBRANCH  40  41
ENDBRANCH  32  35
ENDBRANCH  30  31
ENDBRANCH  29  30
ENDBRANCH  28  29
ENDBRANCH   1  28
TORSDOF 19
