REMARK SMILES Cc1[nH]c(=O)sc1S(=O)(=O)NC1(CC(=O)NCCCCCCNC(=O)c2ccc(-c3c4nc(c(-c5ccc(S(=O)(=O)[O-])cc5)c5ccc([nH]5)c(-c5ccc(S(=O)(=O)[O-])cc5)c5nc(c(-c6ccc(S(=O)(=O)[O-])cc6)c6ccc3[nH]6)C=C5)C=C4)cc2)CCC1
REMARK SMILES IDX 19 1 18 2 17 3 16 4 14 5 15 6 13 8 12 9 86 10 88 11 87 12
REMARK SMILES IDX 11 13 8 15 9 16 10 17 7 18 1 19 2 20 3 21 4 22 6 24 5 25
REMARK SMILES IDX 20 26 21 27 22 28 23 29 24 30 25 32 26 33 27 34 85 35 28 36
REMARK SMILES IDX 84 37 29 38 30 39 31 40 78 41 32 42 83 43 77 44 79 45 33 46
REMARK SMILES IDX 82 47 76 48 75 49 34 51 64 52 45 53 63 54 46 55 49 56 62 57
REMARK SMILES IDX 80 58 47 59 48 60 61 62 81 63 50 64 35 65 36 66 44 67 37 68
REMARK SMILES IDX 43 69 38 70 39 71 40 72 41 73 42 74 65 75 66 76 74 77 67 78
REMARK SMILES IDX 73 79 68 80 69 81 70 82 71 83 72 84 51 85 52 86 60 87 53 88
REMARK SMILES IDX 59 89 54 90 55 91 56 92 57 93 58 94
REMARK H PARENT 16 7 11 14 3 23 23 31 79 50 49 61
REMARK Flexibility Score: inf
ROOT
ATOM      1  C   UNL     1      -1.013  -2.426  -0.040  1.00  0.00     0.002 C 
ENDROOT
BRANCH   1   2
ATOM      2  C   UNL     1       0.518  -2.342  -0.061  1.00  0.00     0.021 C 
BRANCH   2   3
ATOM      3  C   UNL     1       1.165  -1.817  -1.343  1.00  0.00     0.116 C 
BRANCH   3   4
ATOM      4  N   UNL     1       0.958  -0.405  -1.545  1.00  0.00    -0.356 N 
ATOM      5  C   UNL     1       1.877   0.582  -1.675  1.00  0.00     0.221 C 
ATOM      6  O   UNL     1       1.509   1.586  -2.290  1.00  0.00    -0.275 OA
ATOM      7  H   UNL     1       0.018  -0.118  -1.597  1.00  0.00     0.163 HD
BRANCH   5   8
ATOM      8  C   UNL     1       3.299   0.467  -1.193  1.00  0.00     0.123 C 
BRANCH   8   9
ATOM      9  C   UNL     1       3.626   0.315   0.306  1.00  0.00     0.042 C 
ATOM     10  C   UNL     1       5.190   0.309   0.515  1.00  0.00     0.024 C 
ATOM     11  C   UNL     1       3.707  -1.143   0.912  1.00  0.00     0.024 C 
ATOM     12  C   UNL     1       5.146  -1.229   0.393  1.00  0.00     0.004 C 
BRANCH   9  13
ATOM     13  N   UNL     1       2.870   1.256   1.220  1.00  0.00    -0.204 NA
ATOM     14  H   UNL     1       1.946   0.832   1.300  1.00  0.00     0.142 HD
BRANCH  13  15
ATOM     15  S   UNL     1       2.547   2.917   1.079  1.00  0.00     0.252 S 
ATOM     16  O   UNL     1       3.651   3.467   0.319  1.00  0.00    -0.206 OA
ATOM     17  O   UNL     1       2.339   3.337   2.452  1.00  0.00    -0.206 OA
BRANCH  15  18
ATOM     18  C   UNL     1       1.052   3.124   0.226  1.00  0.00     0.158 A 
ATOM     19  C   UNL     1      -0.264   1.204   1.356  1.00  0.00     0.067 C 
ATOM     20  C   UNL     1      -0.025   2.337   0.415  1.00  0.00     0.046 A 
ATOM     21  N   UNL     1      -1.041   2.619  -0.477  1.00  0.00    -0.315 N 
ATOM     22  C   UNL     1      -0.812   3.633  -1.366  1.00  0.00     0.305 A 
ATOM     23  H   UNL     1      -1.887   2.116  -0.473  1.00  0.00     0.170 HD
ATOM     24  S   UNL     1       0.737   4.362  -0.985  1.00  0.00    -0.061 S 
ATOM     25  O   UNL     1      -1.572   3.997  -2.261  1.00  0.00    -0.257 OA
ENDBRANCH  15  18
ENDBRANCH  13  15
ENDBRANCH   9  13
ENDBRANCH   8   9
ENDBRANCH   5   8
ENDBRANCH   3   4
ENDBRANCH   2   3
ENDBRANCH   1   2
BRANCH   1  26
ATOM     26  C   UNL     1      -1.699  -3.049  -1.258  1.00  0.00     0.002 C 
BRANCH  26  27
ATOM     27  C   UNL     1      -1.179  -4.415  -1.716  1.00  0.00     0.021 C 
BRANCH  27  28
ATOM     28  C   UNL     1      -1.310  -5.512  -0.674  1.00  0.00     0.116 C 
BRANCH  28  29
ATOM     29  N   UNL     1      -2.700  -5.859  -0.399  1.00  0.00    -0.352 N 
ATOM     30  C   UNL     1      -3.165  -6.834   0.461  1.00  0.00     0.251 C 
ATOM     31  H   UNL     1      -3.384  -5.339  -0.880  1.00  0.00     0.163 HD
ATOM     32  O   UNL     1      -4.291  -7.298   0.333  1.00  0.00    -0.269 OA
BRANCH  30  33
ATOM     33  C   UNL     1      -2.276  -7.298   1.540  1.00  0.00     0.039 A 
ATOM     34  C   UNL     1      -2.175  -8.652   1.868  1.00  0.00     0.014 A 
ATOM     35  C   UNL     1      -1.518  -6.341   2.215  1.00  0.00     0.014 A 
ATOM     36  C   UNL     1      -1.250  -9.043   2.834  1.00  0.00     0.010 A 
ATOM     37  C   UNL     1      -0.515  -6.739   3.062  1.00  0.00     0.010 A 
ATOM     38  C   UNL     1      -0.412  -8.080   3.417  1.00  0.00    -0.014 A 
BRANCH  38  39
ATOM     39  C   UNL     1       0.656  -8.467   4.333  1.00  0.00     0.031 A 
ATOM     40  C   UNL     1       1.639  -9.433   3.774  1.00  0.00     0.074 A 
ATOM     41  C   UNL     1       0.883  -7.829   5.502  1.00  0.00     0.049 A 
ATOM     42  N   UNL     1       1.815 -10.667   4.114  1.00  0.00    -0.248 NA
ATOM     43  C   UNL     1       2.433  -9.021   2.604  1.00  0.00     0.031 C 
ATOM     44  C   UNL     1       0.197  -6.646   6.037  1.00  0.00     0.029 A 
ATOM     45  N   UNL     1       1.877  -8.030   6.407  1.00  0.00    -0.354 N 
ATOM     46  C   UNL     1       2.894 -11.122   3.363  1.00  0.00     0.074 A 
ATOM     47  C   UNL     1       3.099 -10.143   2.325  1.00  0.00     0.031 C 
ATOM     48  C   UNL     1       0.942  -6.097   7.022  1.00  0.00     0.029 A 
ATOM     49  C   UNL     1       2.054  -6.985   7.308  1.00  0.00     0.049 A 
ATOM     50  H   UNL     1       2.427  -8.846   6.423  1.00  0.00     0.167 HD
ATOM     51  C   UNL     1       3.695 -12.134   3.804  1.00  0.00     0.031 A 
ATOM     52  C   UNL     1       3.057  -6.847   8.210  1.00  0.00     0.031 A 
ATOM     53  C   UNL     1       3.113 -12.815   4.932  1.00  0.00     0.049 A 
ATOM     54  C   UNL     1       3.637  -8.194   8.420  1.00  0.00     0.074 A 
ATOM     55  C   UNL     1       1.943 -13.513   5.154  1.00  0.00     0.029 A 
ATOM     56  N   UNL     1       3.594 -12.472   6.175  1.00  0.00    -0.354 N 
ATOM     57  N   UNL     1       2.979  -9.175   8.972  1.00  0.00    -0.248 NA
ATOM     58  C   UNL     1       4.782  -8.588   7.616  1.00  0.00     0.031 C 
ATOM     59  C   UNL     1       1.539 -13.142   6.470  1.00  0.00     0.029 A 
ATOM     60  C   UNL     1       2.519 -12.303   7.007  1.00  0.00     0.049 A 
ATOM     61  H   UNL     1       4.542 -12.367   6.421  1.00  0.00     0.167 HD
ATOM     62  C   UNL     1       3.339 -10.298   8.242  1.00  0.00     0.074 A 
ATOM     63  C   UNL     1       4.532  -9.896   7.499  1.00  0.00     0.031 C 
ATOM     64  C   UNL     1       2.476 -11.348   8.095  1.00  0.00     0.031 A 
BRANCH  51  65
ATOM     65  C   UNL     1       5.172 -12.241   3.497  1.00  0.00    -0.014 A 
ATOM     66  C   UNL     1       5.887 -13.355   3.987  1.00  0.00     0.010 A 
ATOM     67  C   UNL     1       5.934 -11.166   2.998  1.00  0.00     0.010 A 
ATOM     68  C   UNL     1       7.287 -13.354   4.049  1.00  0.00     0.020 A 
ATOM     69  C   UNL     1       7.330 -11.173   3.013  1.00  0.00     0.020 A 
ATOM     70  C   UNL     1       7.997 -12.252   3.574  1.00  0.00     0.054 A 
BRANCH  70  71
ATOM     71  S   UNL     1       9.796 -12.206   3.762  1.00  0.00     0.124 S 
ATOM     72  O   UNL     1       9.944 -12.134   5.212  1.00  0.00    -0.237 OA
ATOM     73  O   UNL     1      10.203 -13.464   3.143  1.00  0.00    -0.237 OA
ATOM     74  O   UNL     1      10.184 -11.002   3.031  1.00  0.00    -0.744 OA
ENDBRANCH  70  71
ENDBRANCH  51  65
BRANCH  52  75
ATOM     75  C   UNL     1       3.721  -5.606   8.678  1.00  0.00    -0.014 A 
ATOM     76  C   UNL     1       4.554  -5.614   9.812  1.00  0.00     0.010 A 
ATOM     77  C   UNL     1       3.771  -4.476   7.835  1.00  0.00     0.010 A 
ATOM     78  C   UNL     1       5.460  -4.567  10.052  1.00  0.00     0.020 A 
ATOM     79  C   UNL     1       4.667  -3.426   8.072  1.00  0.00     0.020 A 
ATOM     80  C   UNL     1       5.528  -3.490   9.164  1.00  0.00     0.054 A 
BRANCH  80  81
ATOM     81  S   UNL     1       6.840  -2.246   9.363  1.00  0.00     0.124 S 
ATOM     82  O   UNL     1       6.403  -1.521  10.552  1.00  0.00    -0.237 OA
ATOM     83  O   UNL     1       8.036  -3.068   9.525  1.00  0.00    -0.237 OA
ATOM     84  O   UNL     1       6.780  -1.486   8.115  1.00  0.00    -0.744 OA
ENDBRANCH  80  81
ENDBRANCH  52  75
BRANCH  64  85
ATOM     85  C   UNL     1       1.258 -11.405   8.991  1.00  0.00    -0.014 A 
ATOM     86  C   UNL     1       0.247 -10.423   9.015  1.00  0.00     0.010 A 
ATOM     87  C   UNL     1       1.068 -12.578   9.741  1.00  0.00     0.010 A 
ATOM     88  C   UNL     1      -0.906 -10.600   9.797  1.00  0.00     0.020 A 
ATOM     89  C   UNL     1      -0.084 -12.769  10.506  1.00  0.00     0.020 A 
ATOM     90  C   UNL     1      -1.061 -11.774  10.541  1.00  0.00     0.054 A 
BRANCH  90  91
ATOM     91  S   UNL     1      -2.564 -12.016  11.530  1.00  0.00     0.124 S 
ATOM     92  O   UNL     1      -2.410 -11.023  12.589  1.00  0.00    -0.237 OA
ATOM     93  O   UNL     1      -3.632 -11.751  10.569  1.00  0.00    -0.237 OA
ATOM     94  O   UNL     1      -2.470 -13.408  11.970  1.00  0.00    -0.744 OA
ENDBRANCH  90  91
ENDBRANCH  64  85
ENDBRANCH  38  39
ENDBRANCH  30  33
ENDBRANCH  28  29
ENDBRANCH  27  28
ENDBRANCH  26  27
ENDBRANCH   1  26
TORSDOF 20
