REMARK SMILES C[C@]([NH2+]Cc1nc(-c2ccsc2)no1)(C(=O)NCCCCCCNC(=O)c1ccc(-c2c3nc(c(-c4ccc(S(=O)(=O)[O-])cc4)c4ccc([nH]4)c(-c4ccc(S(=O)(=O)[O-])cc4)c4nc(c(-c5ccc(S(=O)(=O)[O-])cc5)c5ccc2[nH]5)C=C4)C=C3)cc1)C(F)(F)F
REMARK SMILES IDX 20 1 19 2 18 3 17 4 15 5 16 6 2 8 1 9 87 10 88 11 89 12
REMARK SMILES IDX 90 13 3 14 4 17 5 18 6 19 14 20 7 21 13 22 8 23 9 24 12 25
REMARK SMILES IDX 10 26 11 27 21 28 22 29 23 30 24 31 25 32 26 34 27 35 28 36
REMARK SMILES IDX 86 37 29 38 85 39 30 40 31 41 32 42 79 43 33 44 84 45 78 46
REMARK SMILES IDX 80 47 34 48 83 49 77 50 76 51 35 53 65 54 46 55 64 56 47 57
REMARK SMILES IDX 50 58 63 59 81 60 48 61 49 62 62 64 82 65 51 66 36 67 37 68
REMARK SMILES IDX 45 69 38 70 44 71 39 72 40 73 41 74 42 75 43 76 66 77 67 78
REMARK SMILES IDX 75 79 68 80 74 81 69 82 70 83 71 84 72 85 73 86 52 87 53 88
REMARK SMILES IDX 61 89 54 90 60 91 55 92 56 93 57 94 58 95 59 96
REMARK H PARENT 17 7 3 15 3 16 24 33 80 52 50 63
REMARK Flexibility Score: inf
ROOT
ATOM      1  C   UNL     1      -3.382  -0.161   2.772  1.00  0.00     0.002 C 
ENDROOT
BRANCH   1   2
ATOM      2  C   UNL     1      -1.891  -0.122   2.433  1.00  0.00     0.021 C 
BRANCH   2   3
ATOM      3  C   UNL     1      -1.377  -1.370   1.702  1.00  0.00     0.116 C 
BRANCH   3   4
ATOM      4  N   UNL     1      -1.573  -1.225   0.270  1.00  0.00    -0.350 N 
ATOM      5  C   UNL     1      -0.744  -1.048  -0.796  1.00  0.00     0.290 C 
ATOM      6  O   UNL     1      -1.329  -0.658  -1.813  1.00  0.00    -0.267 OA
ATOM      7  H   UNL     1      -2.522  -1.263   0.011  1.00  0.00     0.163 HD
BRANCH   5   8
ATOM      8  C   UNL     1       0.800  -1.251  -0.776  1.00  0.00     0.268 C 
ATOM      9  C   UNL     1       1.238  -2.512  -0.011  1.00  0.00     0.101 C 
BRANCH   8  10
ATOM     10  C   UNL     1       1.141  -1.544  -2.282  1.00  0.00     0.453 C 
ATOM     11  F   UNL     1       0.905  -0.482  -3.089  1.00  0.00    -0.164 F 
ATOM     12  F   UNL     1       2.462  -1.836  -2.430  1.00  0.00    -0.164 F 
ATOM     13  F   UNL     1       0.461  -2.610  -2.767  1.00  0.00    -0.164 F 
ENDBRANCH   8  10
BRANCH   8  14
ATOM     14  N   UNL     1       1.538  -0.003  -0.326  1.00  0.00    -0.318 N 
ATOM     15  H   UNL     1       1.278   0.760  -0.950  1.00  0.00     0.347 HD
ATOM     16  H   UNL     1       2.531  -0.238  -0.356  1.00  0.00     0.347 HD
BRANCH  14  17
ATOM     17  C   UNL     1       1.270   0.424   1.043  1.00  0.00     0.363 C 
BRANCH  17  18
ATOM     18  C   UNL     1       2.015   1.601   1.572  1.00  0.00     0.282 A 
ATOM     19  N   UNL     1       1.812   2.201   2.725  1.00  0.00    -0.186 NA
ATOM     20  O   UNL     1       2.996   2.177   0.822  1.00  0.00    -0.333 OA
ATOM     21  C   UNL     1       2.710   3.232   2.674  1.00  0.00     0.203 A 
ATOM     22  N   UNL     1       3.448   3.283   1.556  1.00  0.00    -0.057 NA
BRANCH  21  23
ATOM     23  C   UNL     1       2.761   4.205   3.765  1.00  0.00     0.033 A 
ATOM     24  C   UNL     1       2.390   3.883   5.107  1.00  0.00     0.024 A 
ATOM     25  C   UNL     1       3.142   5.523   3.640  1.00  0.00     0.077 A 
ATOM     26  C   UNL     1       2.509   4.966   5.952  1.00  0.00     0.065 A 
ATOM     27  S   UNL     1       3.044   6.367   5.127  1.00  0.00    -0.152 S 
ENDBRANCH  21  23
ENDBRANCH  17  18
ENDBRANCH  14  17
ENDBRANCH   8  14
ENDBRANCH   5   8
ENDBRANCH   3   4
ENDBRANCH   2   3
ENDBRANCH   1   2
BRANCH   1  28
ATOM     28  C   UNL     1      -3.778  -1.222   3.802  1.00  0.00     0.002 C 
BRANCH  28  29
ATOM     29  C   UNL     1      -2.981  -1.192   5.109  1.00  0.00     0.021 C 
BRANCH  29  30
ATOM     30  C   UNL     1      -2.981   0.152   5.833  1.00  0.00     0.116 C 
BRANCH  30  31
ATOM     31  N   UNL     1      -4.322   0.563   6.213  1.00  0.00    -0.352 N 
ATOM     32  C   UNL     1      -4.831   0.821   7.462  1.00  0.00     0.251 C 
ATOM     33  H   UNL     1      -4.957   0.670   5.469  1.00  0.00     0.163 HD
ATOM     34  O   UNL     1      -6.042   0.937   7.619  1.00  0.00    -0.269 OA
BRANCH  32  35
ATOM     35  C   UNL     1      -3.915   0.946   8.616  1.00  0.00     0.039 A 
ATOM     36  C   UNL     1      -4.236   0.294   9.809  1.00  0.00     0.014 A 
ATOM     37  C   UNL     1      -2.752   1.717   8.525  1.00  0.00     0.014 A 
ATOM     38  C   UNL     1      -3.361   0.371  10.895  1.00  0.00     0.010 A 
ATOM     39  C   UNL     1      -1.850   1.737   9.585  1.00  0.00     0.010 A 
ATOM     40  C   UNL     1      -2.148   1.070  10.783  1.00  0.00    -0.014 A 
BRANCH  40  41
ATOM     41  C   UNL     1      -1.180   1.115  11.908  1.00  0.00     0.031 A 
ATOM     42  C   UNL     1      -0.857   2.423  12.577  1.00  0.00     0.074 A 
ATOM     43  C   UNL     1      -0.547  -0.013  12.288  1.00  0.00     0.049 A 
ATOM     44  N   UNL     1       0.001   2.670  13.534  1.00  0.00    -0.248 NA
ATOM     45  C   UNL     1      -1.572   3.615  12.091  1.00  0.00     0.031 C 
ATOM     46  C   UNL     1      -0.742  -1.337  11.690  1.00  0.00     0.029 A 
ATOM     47  N   UNL     1       0.396  -0.226  13.262  1.00  0.00    -0.354 N 
ATOM     48  C   UNL     1      -0.059   4.041  13.752  1.00  0.00     0.074 A 
ATOM     49  C   UNL     1      -1.001   4.580  12.796  1.00  0.00     0.031 C 
ATOM     50  C   UNL     1       0.038  -2.226  12.325  1.00  0.00     0.029 A 
ATOM     51  C   UNL     1       0.817  -1.532  13.347  1.00  0.00     0.049 A 
ATOM     52  H   UNL     1       0.738   0.489  13.845  1.00  0.00     0.167 HD
ATOM     53  C   UNL     1       0.596   4.782  14.678  1.00  0.00     0.031 A 
ATOM     54  C   UNL     1       1.732  -2.109  14.151  1.00  0.00     0.031 A 
ATOM     55  C   UNL     1       1.523   4.240  15.636  1.00  0.00     0.049 A 
ATOM     56  C   UNL     1       2.447  -1.265  15.170  1.00  0.00     0.074 A 
ATOM     57  C   UNL     1       2.194   4.900  16.651  1.00  0.00     0.029 A 
ATOM     58  N   UNL     1       1.909   2.910  15.700  1.00  0.00    -0.354 N 
ATOM     59  N   UNL     1       2.329   0.020  15.403  1.00  0.00    -0.248 NA
ATOM     60  C   UNL     1       3.409  -1.952  16.043  1.00  0.00     0.031 C 
ATOM     61  C   UNL     1       3.025   3.978  17.296  1.00  0.00     0.029 A 
ATOM     62  C   UNL     1       2.826   2.732  16.721  1.00  0.00     0.049 A 
ATOM     63  H   UNL     1       1.579   2.197  15.106  1.00  0.00     0.167 HD
ATOM     64  C   UNL     1       3.183   0.291  16.467  1.00  0.00     0.074 A 
ATOM     65  C   UNL     1       3.798  -0.966  16.840  1.00  0.00     0.031 C 
ATOM     66  C   UNL     1       3.432   1.475  17.080  1.00  0.00     0.031 A 
BRANCH  53  67
ATOM     67  C   UNL     1       0.336   6.266  14.694  1.00  0.00    -0.014 A 
ATOM     68  C   UNL     1      -0.902   6.782  15.117  1.00  0.00     0.010 A 
ATOM     69  C   UNL     1       1.357   7.160  14.322  1.00  0.00     0.010 A 
ATOM     70  C   UNL     1      -1.129   8.161  15.129  1.00  0.00     0.020 A 
ATOM     71  C   UNL     1       1.145   8.541  14.360  1.00  0.00     0.020 A 
ATOM     72  C   UNL     1      -0.104   9.032  14.747  1.00  0.00     0.054 A 
BRANCH  72  73
ATOM     73  S   UNL     1      -0.418  10.818  14.795  1.00  0.00     0.124 S 
ATOM     74  O   UNL     1      -1.300  10.998  13.644  1.00  0.00    -0.237 OA
ATOM     75  O   UNL     1      -1.046  10.997  16.101  1.00  0.00    -0.237 OA
ATOM     76  O   UNL     1       0.911  11.408  14.659  1.00  0.00    -0.744 OA
ENDBRANCH  72  73
ENDBRANCH  53  67
BRANCH  54  77
ATOM     77  C   UNL     1       2.012  -3.565  14.029  1.00  0.00    -0.014 A 
ATOM     78  C   UNL     1       1.593  -4.460  15.029  1.00  0.00     0.010 A 
ATOM     79  C   UNL     1       2.684  -4.068  12.900  1.00  0.00     0.010 A 
ATOM     80  C   UNL     1       1.853  -5.829  14.910  1.00  0.00     0.020 A 
ATOM     81  C   UNL     1       2.921  -5.439  12.764  1.00  0.00     0.020 A 
ATOM     82  C   UNL     1       2.513  -6.309  13.775  1.00  0.00     0.054 A 
BRANCH  82  83
ATOM     83  S   UNL     1       2.788  -8.096  13.613  1.00  0.00     0.124 S 
ATOM     84  O   UNL     1       3.866  -8.325  14.569  1.00  0.00    -0.237 OA
ATOM     85  O   UNL     1       1.487  -8.650  13.979  1.00  0.00    -0.237 OA
ATOM     86  O   UNL     1       3.151  -8.258  12.206  1.00  0.00    -0.744 OA
ENDBRANCH  82  83
ENDBRANCH  54  77
BRANCH  66  87
ATOM     87  C   UNL     1       4.390   1.465  18.241  1.00  0.00    -0.014 A 
ATOM     88  C   UNL     1       5.772   1.296  18.046  1.00  0.00     0.010 A 
ATOM     89  C   UNL     1       3.902   1.685  19.543  1.00  0.00     0.010 A 
ATOM     90  C   UNL     1       6.646   1.316  19.137  1.00  0.00     0.020 A 
ATOM     91  C   UNL     1       4.776   1.734  20.631  1.00  0.00     0.020 A 
ATOM     92  C   UNL     1       6.141   1.535  20.423  1.00  0.00     0.054 A 
BRANCH  92  93
ATOM     93  S   UNL     1       7.301   1.600  21.816  1.00  0.00     0.124 S 
ATOM     94  O   UNL     1       7.654   0.193  21.983  1.00  0.00    -0.237 OA
ATOM     95  O   UNL     1       8.367   2.459  21.306  1.00  0.00    -0.237 OA
ATOM     96  O   UNL     1       6.509   2.178  22.899  1.00  0.00    -0.744 OA
ENDBRANCH  92  93
ENDBRANCH  66  87
ENDBRANCH  40  41
ENDBRANCH  32  35
ENDBRANCH  30  31
ENDBRANCH  29  30
ENDBRANCH  28  29
ENDBRANCH   1  28
TORSDOF 21
