REMARK SMILES Cc1cc(C)n(C)c(=O)c1C(=O)N1CCC2(CC1)C[NH2+][C@@H](C(=O)NCCCCCCNC(=O)c1ccc(-c3c4nc(c(-c5ccc(S(=O)(=O)[O-])cc5)c5ccc([nH]5)c(-c5ccc(S(=O)(=O)[O-])cc5)c5nc(c(-c6ccc(S(=O)(=O)[O-])cc6)c6ccc3[nH]6)C=C5)C=C4)cc1)C2
REMARK SMILES IDX 28 1 27 2 26 3 25 4 24 5 22 6 23 7 21 9 11 10 12 11 13 12
REMARK SMILES IDX 14 13 18 14 15 15 17 16 16 17 19 18 94 19 20 20 10 23 1 24
REMARK SMILES IDX 2 25 3 26 4 27 8 28 5 29 6 30 9 31 7 32 29 33 30 34 31 35
REMARK SMILES IDX 32 36 33 38 34 39 35 40 93 41 36 42 92 43 37 44 38 45 39 46
REMARK SMILES IDX 86 47 40 48 91 49 85 50 87 51 41 52 90 53 84 54 83 55 42 57
REMARK SMILES IDX 72 58 53 59 71 60 54 61 57 62 70 63 88 64 55 65 56 66 69 68
REMARK SMILES IDX 89 69 58 70 43 71 44 72 52 73 45 74 51 75 46 76 47 77 48 78
REMARK SMILES IDX 49 79 50 80 73 81 74 82 82 83 75 84 81 85 76 86 77 87 78 88
REMARK SMILES IDX 79 89 80 90 59 91 60 92 68 93 61 94 67 95 62 96 63 97 64 98
REMARK SMILES IDX 65 99 66 100
REMARK H PARENT 24 8 20 21 20 22 31 37 87 56 57 67
REMARK Flexibility Score: inf
ROOT
ATOM      1  C   UNL     1      -1.500   2.060  -8.246  1.00  0.00     0.002 C 
ENDROOT
BRANCH   1   2
ATOM      2  C   UNL     1      -1.546   3.092  -7.114  1.00  0.00     0.002 C 
BRANCH   2   3
ATOM      3  C   UNL     1      -0.874   2.651  -5.812  1.00  0.00     0.021 C 
BRANCH   3   4
ATOM      4  C   UNL     1       0.598   2.279  -5.970  1.00  0.00     0.116 C 
BRANCH   4   5
ATOM      5  N   UNL     1       1.401   3.444  -6.288  1.00  0.00    -0.351 N 
ATOM      6  C   UNL     1       2.404   4.032  -5.576  1.00  0.00     0.278 C 
ATOM      7  O   UNL     1       2.937   5.039  -6.051  1.00  0.00    -0.268 OA
ATOM      8  H   UNL     1       1.191   3.875  -7.148  1.00  0.00     0.163 HD
BRANCH   6   9
ATOM      9  C   UNL     1       2.856   3.482  -4.218  1.00  0.00     0.273 C 
ATOM     10  C   UNL     1       0.793   1.833   1.725  1.00  0.00     0.259 C 
ATOM     11  O   UNL     1       1.361   2.460   2.626  1.00  0.00    -0.269 OA
ATOM     12  N   UNL     1       0.766   2.324   0.425  1.00  0.00    -0.338 N 
ATOM     13  C   UNL     1       1.647   3.438   0.110  1.00  0.00     0.120 C 
ATOM     14  C   UNL     1      -0.017   1.854  -0.713  1.00  0.00     0.120 C 
ATOM     15  C   UNL     1       2.725   2.921  -0.828  1.00  0.00     0.034 C 
ATOM     16  C   UNL     1       0.863   1.512  -1.933  1.00  0.00     0.034 C 
ATOM     17  C   UNL     1       2.131   2.400  -2.155  1.00  0.00     0.029 C 
ATOM     18  C   UNL     1       3.233   1.606  -2.904  1.00  0.00     0.268 C 
ATOM     19  C   UNL     1       1.824   3.591  -3.100  1.00  0.00     0.088 C 
ATOM     20  N   UNL     1       3.166   2.044  -4.289  1.00  0.00    -0.336 N 
ATOM     21  H   UNL     1       2.431   1.543  -4.789  1.00  0.00     0.346 HD
ATOM     22  H   UNL     1       4.035   1.863  -4.792  1.00  0.00     0.346 HD
BRANCH  10  23
ATOM     23  C   UNL     1       0.258   0.481   2.073  1.00  0.00     0.108 A 
ATOM     24  C   UNL     1       1.781  -0.763   0.440  1.00  0.00     0.045 C 
ATOM     25  C   UNL     1       0.758  -0.651   1.529  1.00  0.00    -0.031 A 
ATOM     26  C   UNL     1       0.445  -1.940   2.113  1.00  0.00     0.026 A 
ATOM     27  C   UNL     1      -0.098  -2.045   3.334  1.00  0.00     0.018 A 
ATOM     28  C   UNL     1      -0.548   0.358   3.342  1.00  0.00     0.263 A 
ATOM     29  C   UNL     1      -0.204  -3.408   3.964  1.00  0.00     0.064 C 
ATOM     30  N   UNL     1      -0.541  -0.895   3.981  1.00  0.00    -0.315 N 
ATOM     31  O   UNL     1      -1.151   1.334   3.791  1.00  0.00    -0.268 OA
ATOM     32  C   UNL     1      -1.044  -0.959   5.346  1.00  0.00     0.153 C 
ENDBRANCH  10  23
ENDBRANCH   6   9
ENDBRANCH   4   5
ENDBRANCH   3   4
ENDBRANCH   2   3
ENDBRANCH   1   2
BRANCH   1  33
ATOM     33  C   UNL     1      -2.032   0.673  -7.879  1.00  0.00     0.021 C 
BRANCH  33  34
ATOM     34  C   UNL     1      -3.458   0.668  -7.340  1.00  0.00     0.116 C 
BRANCH  34  35
ATOM     35  N   UNL     1      -4.413   1.142  -8.329  1.00  0.00    -0.352 N 
ATOM     36  C   UNL     1      -5.452   0.469  -8.920  1.00  0.00     0.251 C 
ATOM     37  H   UNL     1      -4.298   2.078  -8.614  1.00  0.00     0.163 HD
ATOM     38  O   UNL     1      -6.025   0.948  -9.894  1.00  0.00    -0.269 OA
BRANCH  36  39
ATOM     39  C   UNL     1      -5.863  -0.846  -8.385  1.00  0.00     0.039 A 
ATOM     40  C   UNL     1      -6.055  -1.907  -9.271  1.00  0.00     0.014 A 
ATOM     41  C   UNL     1      -6.055  -1.026  -7.012  1.00  0.00     0.014 A 
ATOM     42  C   UNL     1      -6.393  -3.166  -8.772  1.00  0.00     0.010 A 
ATOM     43  C   UNL     1      -6.322  -2.297  -6.511  1.00  0.00     0.010 A 
ATOM     44  C   UNL     1      -6.506  -3.376  -7.387  1.00  0.00    -0.014 A 
BRANCH  44  45
ATOM     45  C   UNL     1      -6.847  -4.716  -6.850  1.00  0.00     0.031 A 
ATOM     46  C   UNL     1      -8.164  -4.935  -6.156  1.00  0.00     0.074 A 
ATOM     47  C   UNL     1      -5.968  -5.730  -6.972  1.00  0.00     0.049 A 
ATOM     48  N   UNL     1      -8.649  -6.036  -5.644  1.00  0.00    -0.248 NA
ATOM     49  C   UNL     1      -9.042  -3.763  -6.001  1.00  0.00     0.031 C 
ATOM     50  C   UNL     1      -4.643  -5.633  -7.590  1.00  0.00     0.029 A 
ATOM     51  N   UNL     1      -6.059  -7.045  -6.591  1.00  0.00    -0.354 N 
ATOM     52  C   UNL     1      -9.884  -5.690  -5.109  1.00  0.00     0.074 A 
ATOM     53  C   UNL     1     -10.047  -4.266  -5.301  1.00  0.00     0.031 C 
ATOM     54  C   UNL     1      -4.065  -6.846  -7.584  1.00  0.00     0.029 A 
ATOM     55  C   UNL     1      -4.962  -7.798  -6.937  1.00  0.00     0.049 A 
ATOM     56  H   UNL     1      -6.838  -7.415  -6.114  1.00  0.00     0.167 HD
ATOM     57  C   UNL     1     -10.815  -6.489  -4.537  1.00  0.00     0.031 A 
ATOM     58  C   UNL     1      -4.711  -9.111  -6.762  1.00  0.00     0.031 A 
ATOM     59  C   UNL     1     -10.659  -7.907  -4.362  1.00  0.00     0.049 A 
ATOM     60  C   UNL     1      -5.748  -9.974  -6.098  1.00  0.00     0.074 A 
ATOM     61  C   UNL     1     -11.567  -8.813  -3.844  1.00  0.00     0.029 A 
ATOM     62  N   UNL     1      -9.521  -8.624  -4.698  1.00  0.00    -0.354 N 
ATOM     63  N   UNL     1      -6.939  -9.640  -5.662  1.00  0.00    -0.248 NA
ATOM     64  C   UNL     1      -5.409 -11.391  -5.904  1.00  0.00     0.031 C 
ATOM     65  C   UNL     1     -10.960 -10.073  -3.823  1.00  0.00     0.029 A 
ATOM     66  C   UNL     1      -9.691  -9.958  -4.370  1.00  0.00     0.049 A 
ATOM     67  H   UNL     1      -8.713  -8.242  -5.109  1.00  0.00     0.167 HD
ATOM     68  C   UNL     1      -7.496 -10.807  -5.151  1.00  0.00     0.074 A 
ATOM     69  C   UNL     1      -6.521 -11.860  -5.351  1.00  0.00     0.031 C 
ATOM     70  C   UNL     1      -8.704 -10.989  -4.566  1.00  0.00     0.031 A 
BRANCH  57  71
ATOM     71  C   UNL     1     -12.094  -5.847  -4.075  1.00  0.00    -0.014 A 
ATOM     72  C   UNL     1     -13.046  -5.391  -5.006  1.00  0.00     0.010 A 
ATOM     73  C   UNL     1     -12.371  -5.737  -2.701  1.00  0.00     0.010 A 
ATOM     74  C   UNL     1     -14.236  -4.805  -4.571  1.00  0.00     0.020 A 
ATOM     75  C   UNL     1     -13.573  -5.174  -2.262  1.00  0.00     0.020 A 
ATOM     76  C   UNL     1     -14.492  -4.699  -3.201  1.00  0.00     0.054 A 
BRANCH  76  77
ATOM     77  S   UNL     1     -16.060  -3.959  -2.668  1.00  0.00     0.124 S 
ATOM     78  O   UNL     1     -15.854  -2.550  -2.997  1.00  0.00    -0.237 OA
ATOM     79  O   UNL     1     -17.040  -4.660  -3.494  1.00  0.00    -0.237 OA
ATOM     80  O   UNL     1     -16.120  -4.263  -1.241  1.00  0.00    -0.744 OA
ENDBRANCH  76  77
ENDBRANCH  57  71
BRANCH  58  81
ATOM     81  C   UNL     1      -3.430  -9.691  -7.246  1.00  0.00    -0.014 A 
ATOM     82  C   UNL     1      -3.411 -10.532  -8.373  1.00  0.00     0.010 A 
ATOM     83  C   UNL     1      -2.219  -9.391  -6.597  1.00  0.00     0.010 A 
ATOM     84  C   UNL     1      -2.207 -11.068  -8.837  1.00  0.00     0.020 A 
ATOM     85  C   UNL     1      -1.009  -9.907  -7.072  1.00  0.00     0.020 A 
ATOM     86  C   UNL     1      -1.012 -10.749  -8.185  1.00  0.00     0.054 A 
BRANCH  86  87
ATOM     87  S   UNL     1       0.545 -11.410  -8.841  1.00  0.00     0.124 S 
ATOM     88  O   UNL     1       0.454 -12.821  -8.477  1.00  0.00    -0.237 OA
ATOM     89  O   UNL     1       0.436 -11.115 -10.267  1.00  0.00    -0.237 OA
ATOM     90  O   UNL     1       1.567 -10.645  -8.130  1.00  0.00    -0.744 OA
ENDBRANCH  86  87
ENDBRANCH  58  81
BRANCH  70  91
ATOM     91  C   UNL     1      -9.045 -12.371  -4.083  1.00  0.00    -0.014 A 
ATOM     92  C   UNL     1      -8.466 -12.880  -2.908  1.00  0.00     0.010 A 
ATOM     93  C   UNL     1     -10.024 -13.128  -4.752  1.00  0.00     0.010 A 
ATOM     94  C   UNL     1      -8.855 -14.127  -2.413  1.00  0.00     0.020 A 
ATOM     95  C   UNL     1     -10.433 -14.364  -4.247  1.00  0.00     0.020 A 
ATOM     96  C   UNL     1      -9.842 -14.858  -3.082  1.00  0.00     0.054 A 
BRANCH  96  97
ATOM     97  S   UNL     1     -10.384 -16.436  -2.370  1.00  0.00     0.124 S 
ATOM     98  O   UNL     1      -9.235 -17.298  -2.630  1.00  0.00    -0.237 OA
ATOM     99  O   UNL     1     -10.609 -16.093  -0.968  1.00  0.00    -0.237 OA
ATOM    100  O   UNL     1     -11.591 -16.761  -3.127  1.00  0.00    -0.744 OA
ENDBRANCH  96  97
ENDBRANCH  70  91
ENDBRANCH  44  45
ENDBRANCH  36  39
ENDBRANCH  34  35
ENDBRANCH  33  34
ENDBRANCH   1  33
TORSDOF 17
