REMARK SMILES CN1C(=O)C[C@@H](C(=O)NCCCCCCNC(=O)c2ccc(-c3c4nc(c(-c5ccc(S(=O)(=O)[O-])cc5)c5ccc([nH]5)c(-c5ccc(S(=O)(=O)[O-])cc5)c5nc(c(-c6ccc(S(=O)(=O)[O-])cc6)c6ccc3[nH]6)C=C5)C=C4)cc2)C12CCN(c1ccc(Cl)cn1)CC2
REMARK SMILES IDX 13 1 12 2 11 3 10 4 9 5 7 6 8 7 6 9 1 10 2 11 3 12 79 13
REMARK SMILES IDX 4 14 5 15 80 16 91 17 81 18 90 19 82 20 83 21 84 22 89 23
REMARK SMILES IDX 85 24 88 25 86 26 87 27 14 28 15 29 16 30 17 31 18 33 19 34
REMARK SMILES IDX 20 35 78 36 21 37 77 38 22 39 23 40 24 41 71 42 25 43 76 44
REMARK SMILES IDX 70 45 72 46 26 47 75 48 69 49 68 50 27 52 57 53 38 54 56 55
REMARK SMILES IDX 39 56 42 57 55 58 73 59 40 60 41 61 54 63 74 64 43 65 28 66
REMARK SMILES IDX 29 67 37 68 30 69 36 70 31 71 32 72 33 73 34 74 35 75 58 76
REMARK SMILES IDX 59 77 67 78 60 79 66 80 61 81 62 82 63 83 64 84 65 85 44 86
REMARK SMILES IDX 45 87 53 88 46 89 52 90 47 91 48 92 49 93 50 94 51 95
REMARK H PARENT 9 8 16 32 72 51 42 62
REMARK Flexibility Score: inf
ROOT
ATOM      1  C   UNL     1      -2.794   2.521   3.458  1.00  0.00     0.002 C 
ENDROOT
BRANCH   1   2
ATOM      2  C   UNL     1      -2.628   2.484   1.938  1.00  0.00     0.002 C 
BRANCH   2   3
ATOM      3  C   UNL     1      -1.568   1.500   1.447  1.00  0.00     0.021 C 
BRANCH   3   4
ATOM      4  C   UNL     1      -1.849   0.044   1.820  1.00  0.00     0.116 C 
BRANCH   4   5
ATOM      5  N   UNL     1      -2.869  -0.567   0.989  1.00  0.00    -0.356 N 
ATOM      6  C   UNL     1      -2.851  -1.589   0.100  1.00  0.00     0.226 C 
ATOM      7  O   UNL     1      -3.940  -1.879  -0.412  1.00  0.00    -0.275 OA
ATOM      8  H   UNL     1      -3.757  -0.154   1.093  1.00  0.00     0.163 HD
BRANCH   6   9
ATOM      9  C   UNL     1      -1.607  -2.373  -0.331  1.00  0.00     0.113 C 
ATOM     10  C   UNL     1       1.605  -0.487   0.024  1.00  0.00     0.147 C 
ATOM     11  N   UNL     1       0.482  -1.404   0.034  1.00  0.00    -0.339 N 
ATOM     12  C   UNL     1       0.342  -2.340   1.055  1.00  0.00     0.223 C 
ATOM     13  C   UNL     1      -0.475  -1.610  -1.065  1.00  0.00     0.058 C 
ATOM     14  O   UNL     1       1.088  -2.492   2.004  1.00  0.00    -0.275 OA
ATOM     15  C   UNL     1      -0.929  -3.110   0.824  1.00  0.00     0.116 C 
ATOM     16  C   UNL     1      -0.938  -0.302  -1.742  1.00  0.00     0.051 C 
ATOM     17  C   UNL     1       0.190  -2.526  -2.143  1.00  0.00     0.051 C 
ATOM     18  C   UNL     1      -1.813  -0.555  -2.958  1.00  0.00     0.120 C 
ATOM     19  C   UNL     1      -0.655  -2.692  -3.418  1.00  0.00     0.120 C 
ATOM     20  N   UNL     1      -1.041  -1.371  -3.866  1.00  0.00    -0.356 N 
BRANCH  20  21
ATOM     21  C   UNL     1      -0.836  -0.964  -5.159  1.00  0.00     0.128 A 
ATOM     22  C   UNL     1      -0.293   0.300  -5.412  1.00  0.00     0.048 A 
ATOM     23  N   UNL     1      -1.160  -1.799  -6.167  1.00  0.00    -0.238 NA
ATOM     24  C   UNL     1      -0.095   0.731  -6.721  1.00  0.00     0.026 A 
ATOM     25  C   UNL     1      -0.995  -1.347  -7.435  1.00  0.00     0.134 A 
ATOM     26  C   UNL     1      -0.469  -0.106  -7.757  1.00  0.00     0.059 A 
ATOM     27  Cl  UNL     1      -0.282   0.385  -9.389  1.00  0.00    -0.083 Cl
ENDBRANCH  20  21
ENDBRANCH   6   9
ENDBRANCH   4   5
ENDBRANCH   3   4
ENDBRANCH   2   3
ENDBRANCH   1   2
BRANCH   1  28
ATOM     28  C   UNL     1      -1.487   2.695   4.239  1.00  0.00     0.021 C 
BRANCH  28  29
ATOM     29  C   UNL     1      -0.672   3.921   3.839  1.00  0.00     0.116 C 
BRANCH  29  30
ATOM     30  N   UNL     1      -1.424   5.148   4.039  1.00  0.00    -0.352 N 
ATOM     31  C   UNL     1      -1.132   6.215   4.847  1.00  0.00     0.251 C 
ATOM     32  H   UNL     1      -2.259   5.223   3.522  1.00  0.00     0.163 HD
ATOM     33  O   UNL     1      -1.994   7.051   5.099  1.00  0.00    -0.269 OA
BRANCH  31  34
ATOM     34  C   UNL     1       0.225   6.345   5.415  1.00  0.00     0.039 A 
ATOM     35  C   UNL     1       0.366   6.678   6.763  1.00  0.00     0.014 A 
ATOM     36  C   UNL     1       1.354   6.147   4.614  1.00  0.00     0.014 A 
ATOM     37  C   UNL     1       1.643   6.767   7.320  1.00  0.00     0.010 A 
ATOM     38  C   UNL     1       2.622   6.164   5.187  1.00  0.00     0.010 A 
ATOM     39  C   UNL     1       2.780   6.484   6.544  1.00  0.00    -0.014 A 
BRANCH  39  40
ATOM     40  C   UNL     1       4.141   6.520   7.137  1.00  0.00     0.031 A 
ATOM     41  C   UNL     1       5.155   7.519   6.643  1.00  0.00     0.074 A 
ATOM     42  C   UNL     1       4.480   5.617   8.080  1.00  0.00     0.049 A 
ATOM     43  N   UNL     1       6.401   7.673   7.008  1.00  0.00    -0.248 NA
ATOM     44  C   UNL     1       4.722   8.451   5.588  1.00  0.00     0.031 C 
ATOM     45  C   UNL     1       3.598   4.573   8.610  1.00  0.00     0.029 A 
ATOM     46  N   UNL     1       5.658   5.427   8.757  1.00  0.00    -0.354 N 
ATOM     47  C   UNL     1       6.906   8.696   6.213  1.00  0.00     0.074 A 
ATOM     48  C   UNL     1       5.845   9.104   5.322  1.00  0.00     0.031 C 
ATOM     49  C   UNL     1       4.258   3.870   9.545  1.00  0.00     0.029 A 
ATOM     50  C   UNL     1       5.621   4.380   9.651  1.00  0.00     0.049 A 
ATOM     51  H   UNL     1       6.456   5.986   8.617  1.00  0.00     0.167 HD
ATOM     52  C   UNL     1       8.140   9.253   6.235  1.00  0.00     0.031 A 
ATOM     53  C   UNL     1       6.580   3.879  10.454  1.00  0.00     0.031 A 
ATOM     54  C   UNL     1       9.183   8.862   7.146  1.00  0.00     0.049 A 
ATOM     55  C   UNL     1       7.943   4.520  10.451  1.00  0.00     0.074 A 
ATOM     56  C   UNL     1      10.438   9.425   7.302  1.00  0.00     0.029 A 
ATOM     57  N   UNL     1       9.101   7.811   8.044  1.00  0.00    -0.354 N 
ATOM     58  N   UNL     1       8.368   5.552   9.761  1.00  0.00    -0.248 NA
ATOM     59  C   UNL     1       8.953   3.937  11.345  1.00  0.00     0.031 C 
ATOM     60  C   UNL     1      11.140   8.671   8.246  1.00  0.00     0.029 A 
ATOM     61  C   UNL     1      10.296   7.685   8.731  1.00  0.00     0.049 A 
ATOM     62  H   UNL     1       8.310   7.239   8.175  1.00  0.00     0.167 HD
ATOM     63  C   UNL     1       9.682   5.761  10.166  1.00  0.00     0.074 A 
ATOM     64  C   UNL     1       9.975   4.763  11.173  1.00  0.00     0.031 C 
ATOM     65  C   UNL     1      10.568   6.695   9.741  1.00  0.00     0.031 A 
BRANCH  52  66
ATOM     66  C   UNL     1       8.450  10.343   5.243  1.00  0.00    -0.014 A 
ATOM     67  C   UNL     1       7.889  11.626   5.366  1.00  0.00     0.010 A 
ATOM     68  C   UNL     1       9.402  10.106   4.233  1.00  0.00     0.010 A 
ATOM     69  C   UNL     1       8.265  12.648   4.490  1.00  0.00     0.020 A 
ATOM     70  C   UNL     1       9.801  11.132   3.373  1.00  0.00     0.020 A 
ATOM     71  C   UNL     1       9.225  12.397   3.504  1.00  0.00     0.054 A 
BRANCH  71  72
ATOM     72  S   UNL     1       9.749  13.763   2.432  1.00  0.00     0.124 S 
ATOM     73  O   UNL     1       8.563  13.968   1.604  1.00  0.00    -0.237 OA
ATOM     74  O   UNL     1      10.037  14.827   3.391  1.00  0.00    -0.237 OA
ATOM     75  O   UNL     1      10.913  13.228   1.730  1.00  0.00    -0.744 OA
ENDBRANCH  71  72
ENDBRANCH  52  66
BRANCH  53  76
ATOM     76  C   UNL     1       6.301   2.700  11.323  1.00  0.00    -0.014 A 
ATOM     77  C   UNL     1       6.317   2.820  12.724  1.00  0.00     0.010 A 
ATOM     78  C   UNL     1       6.063   1.437  10.750  1.00  0.00     0.010 A 
ATOM     79  C   UNL     1       6.154   1.692  13.534  1.00  0.00     0.020 A 
ATOM     80  C   UNL     1       5.862   0.314  11.557  1.00  0.00     0.020 A 
ATOM     81  C   UNL     1       5.934   0.444  12.944  1.00  0.00     0.054 A 
BRANCH  81  82
ATOM     82  S   UNL     1       5.732  -1.007  14.013  1.00  0.00     0.124 S 
ATOM     83  O   UNL     1       7.095  -1.224  14.489  1.00  0.00    -0.237 OA
ATOM     84  O   UNL     1       4.779  -0.533  15.014  1.00  0.00    -0.237 OA
ATOM     85  O   UNL     1       5.215  -2.030  13.106  1.00  0.00    -0.744 OA
ENDBRANCH  81  82
ENDBRANCH  53  76
BRANCH  65  86
ATOM     86  C   UNL     1      11.923   6.721  10.399  1.00  0.00    -0.014 A 
ATOM     87  C   UNL     1      12.869   5.706  10.172  1.00  0.00     0.010 A 
ATOM     88  C   UNL     1      12.273   7.813  11.215  1.00  0.00     0.010 A 
ATOM     89  C   UNL     1      14.127   5.765  10.777  1.00  0.00     0.020 A 
ATOM     90  C   UNL     1      13.541   7.894  11.794  1.00  0.00     0.020 A 
ATOM     91  C   UNL     1      14.455   6.860  11.584  1.00  0.00     0.054 A 
BRANCH  91  92
ATOM     92  S   UNL     1      16.110   6.935  12.322  1.00  0.00     0.124 S 
ATOM     93  O   UNL     1      16.030   5.903  13.352  1.00  0.00    -0.237 OA
ATOM     94  O   UNL     1      16.979   6.627  11.189  1.00  0.00    -0.237 OA
ATOM     95  O   UNL     1      16.206   8.305  12.820  1.00  0.00    -0.744 OA
ENDBRANCH  91  92
ENDBRANCH  65  86
ENDBRANCH  39  40
ENDBRANCH  31  34
ENDBRANCH  29  30
ENDBRANCH  28  29
ENDBRANCH   1  28
TORSDOF 17
