REMARK SMILES Cc1ccc(-c2ncc(C(=O)NCCCCCCNC(=O)c3ccc(-c4c5nc(c(-c6ccc(S(=O)(=O)[O-])cc6)c6ccc([nH]6)c(-c6ccc(S(=O)(=O)[O-])cc6)c6nc(c(-c7ccc(S(=O)(=O)[O-])cc7)c7ccc4[nH]7)C=C6)C=C5)cc3)c(Nc3ccccc3)n2)cc1
REMARK SMILES IDX 16 1 15 2 14 3 13 4 12 5 10 6 11 7 9 9 6 10 7 11 90 12 8 13
REMARK SMILES IDX 82 14 5 15 1 16 2 17 3 18 92 19 4 20 91 21 83 22 84 24 85 25
REMARK SMILES IDX 89 26 86 27 88 28 87 29 17 30 18 31 19 32 20 33 21 35 22 36
REMARK SMILES IDX 23 37 81 38 24 39 80 40 25 41 26 42 27 43 74 44 28 45 79 46
REMARK SMILES IDX 73 47 75 48 29 49 78 50 72 51 71 52 30 54 60 55 41 56 59 57
REMARK SMILES IDX 42 58 45 59 58 60 76 61 43 62 44 63 57 65 77 66 46 67 31 68
REMARK SMILES IDX 32 69 40 70 33 71 39 72 34 73 35 74 36 75 37 76 38 77 61 78
REMARK SMILES IDX 62 79 70 80 63 81 69 82 64 83 65 84 66 85 67 86 68 87 47 88
REMARK SMILES IDX 48 89 56 90 49 91 55 92 50 93 51 94 52 95 53 96 54 97
REMARK H PARENT 12 8 83 23 19 34 75 53 45 64
REMARK Flexibility Score: inf
ROOT
ATOM      1  C   UNL     1     -10.462  -2.141   3.453  1.00  0.00     0.002 C 
ENDROOT
BRANCH   1   2
ATOM      2  C   UNL     1      -9.701  -0.801   3.495  1.00  0.00     0.002 C 
BRANCH   2   3
ATOM      3  C   UNL     1      -8.208  -0.843   3.131  1.00  0.00     0.021 C 
BRANCH   3   4
ATOM      4  C   UNL     1      -7.914  -1.399   1.735  1.00  0.00     0.116 C 
BRANCH   4   5
ATOM      5  N   UNL     1      -8.125  -0.377   0.721  1.00  0.00    -0.352 N 
ATOM      6  C   UNL     1      -7.286   0.379  -0.057  1.00  0.00     0.256 C 
ATOM      7  O   UNL     1      -7.816   1.181  -0.832  1.00  0.00    -0.269 OA
ATOM      8  H   UNL     1      -9.077  -0.186   0.559  1.00  0.00     0.163 HD
BRANCH   6   9
ATOM      9  C   UNL     1      -5.807   0.271  -0.055  1.00  0.00     0.100 A 
ATOM     10  C   UNL     1      -3.088   0.132  -0.074  1.00  0.00     0.161 A 
ATOM     11  N   UNL     1      -3.717  -0.227   1.054  1.00  0.00    -0.236 NA
ATOM     12  N   UNL     1      -3.701   0.587  -1.174  1.00  0.00    -0.210 NA
ATOM     13  C   UNL     1      -5.064  -0.110   1.042  1.00  0.00     0.131 A 
ATOM     14  C   UNL     1      -5.053   0.672  -1.165  1.00  0.00     0.147 A 
BRANCH  10  15
ATOM     15  C   UNL     1      -1.627   0.089  -0.087  1.00  0.00     0.019 A 
ATOM     16  C   UNL     1       2.701  -0.010  -0.023  1.00  0.00     0.044 C 
ATOM     17  C   UNL     1       1.202   0.031  -0.058  1.00  0.00    -0.051 A 
ATOM     18  C   UNL     1       0.466  -1.155   0.037  1.00  0.00     0.004 A 
ATOM     19  C   UNL     1       0.520   1.244  -0.191  1.00  0.00     0.004 A 
ATOM     20  C   UNL     1      -0.933  -1.125   0.032  1.00  0.00     0.012 A 
ATOM     21  C   UNL     1      -0.878   1.270  -0.212  1.00  0.00     0.012 A 
ENDBRANCH  10  15
BRANCH  14  22
ATOM     22  N   UNL     1      -5.683   1.207  -2.312  1.00  0.00    -0.339 N 
ATOM     23  H   UNL     1      -6.667   1.227  -2.292  1.00  0.00     0.168 HD
BRANCH  22  24
ATOM     24  C   UNL     1      -5.083   1.714  -3.475  1.00  0.00     0.040 A 
ATOM     25  C   UNL     1      -5.390   3.015  -3.895  1.00  0.00     0.026 A 
ATOM     26  C   UNL     1      -4.101   1.004  -4.174  1.00  0.00     0.026 A 
ATOM     27  C   UNL     1      -4.737   3.589  -4.989  1.00  0.00     0.002 A 
ATOM     28  C   UNL     1      -3.462   1.565  -5.282  1.00  0.00     0.002 A 
ATOM     29  C   UNL     1      -3.776   2.860  -5.686  1.00  0.00     0.000 A 
ENDBRANCH  22  24
ENDBRANCH  14  22
ENDBRANCH   6   9
ENDBRANCH   4   5
ENDBRANCH   3   4
ENDBRANCH   2   3
ENDBRANCH   1   2
BRANCH   1  30
ATOM     30  C   UNL     1      -9.759  -3.351   4.078  1.00  0.00     0.021 C 
BRANCH  30  31
ATOM     31  C   UNL     1      -9.520  -3.226   5.571  1.00  0.00     0.116 C 
BRANCH  31  32
ATOM     32  N   UNL     1     -10.555  -3.794   6.417  1.00  0.00    -0.352 N 
ATOM     33  C   UNL     1     -10.157  -4.250   7.679  1.00  0.00     0.251 C 
ATOM     34  H   UNL     1     -11.491  -3.856   6.117  1.00  0.00     0.163 HD
ATOM     35  O   UNL     1      -9.685  -5.330   7.918  1.00  0.00    -0.269 OA
BRANCH  33  36
ATOM     36  C   UNL     1     -10.009  -3.126   8.635  1.00  0.00     0.039 A 
ATOM     37  C   UNL     1     -11.048  -2.710   9.463  1.00  0.00     0.014 A 
ATOM     38  C   UNL     1      -8.863  -2.348   8.453  1.00  0.00     0.014 A 
ATOM     39  C   UNL     1     -10.985  -1.434  10.028  1.00  0.00     0.010 A 
ATOM     40  C   UNL     1      -8.853  -1.057   8.922  1.00  0.00     0.010 A 
ATOM     41  C   UNL     1      -9.925  -0.589   9.689  1.00  0.00    -0.014 A 
BRANCH  41  42
ATOM     42  C   UNL     1      -9.836   0.821  10.041  1.00  0.00     0.031 A 
ATOM     43  C   UNL     1      -8.924   1.249  11.126  1.00  0.00     0.074 A 
ATOM     44  C   UNL     1     -10.449   1.743   9.266  1.00  0.00     0.049 A 
ATOM     45  N   UNL     1      -9.003   2.378  11.745  1.00  0.00    -0.248 NA
ATOM     46  C   UNL     1      -7.852   0.394  11.630  1.00  0.00     0.031 C 
ATOM     47  C   UNL     1     -10.188   3.179   9.236  1.00  0.00     0.029 A 
ATOM     48  N   UNL     1     -11.599   1.596   8.489  1.00  0.00    -0.354 N 
ATOM     49  C   UNL     1      -7.850   2.526  12.483  1.00  0.00     0.074 A 
ATOM     50  C   UNL     1      -7.207   1.233  12.445  1.00  0.00     0.031 C 
ATOM     51  C   UNL     1     -11.282   3.802   8.770  1.00  0.00     0.029 A 
ATOM     52  C   UNL     1     -12.320   2.792   8.634  1.00  0.00     0.049 A 
ATOM     53  H   UNL     1     -11.854   0.813   7.950  1.00  0.00     0.167 HD
ATOM     54  C   UNL     1      -7.484   3.762  12.926  1.00  0.00     0.031 A 
ATOM     55  C   UNL     1     -13.567   2.869   9.187  1.00  0.00     0.031 A 
ATOM     56  C   UNL     1      -8.490   4.769  12.599  1.00  0.00     0.049 A 
ATOM     57  C   UNL     1     -13.620   3.790  10.387  1.00  0.00     0.074 A 
ATOM     58  C   UNL     1      -8.584   5.713  11.590  1.00  0.00     0.029 A 
ATOM     59  N   UNL     1      -9.745   4.691  13.188  1.00  0.00    -0.354 N 
ATOM     60  N   UNL     1     -12.567   4.195  11.042  1.00  0.00    -0.248 NA
ATOM     61  C   UNL     1     -14.860   4.302  10.964  1.00  0.00     0.031 C 
ATOM     62  C   UNL     1      -9.935   6.145  11.523  1.00  0.00     0.029 A 
ATOM     63  C   UNL     1     -10.648   5.485  12.509  1.00  0.00     0.049 A 
ATOM     64  H   UNL     1      -9.961   4.145  13.979  1.00  0.00     0.167 HD
ATOM     65  C   UNL     1     -12.948   4.996  12.086  1.00  0.00     0.074 A 
ATOM     66  C   UNL     1     -14.396   5.038  11.991  1.00  0.00     0.031 C 
ATOM     67  C   UNL     1     -12.038   5.551  12.941  1.00  0.00     0.031 A 
BRANCH  54  68
ATOM     68  C   UNL     1      -6.087   4.102  13.397  1.00  0.00    -0.014 A 
ATOM     69  C   UNL     1      -5.592   5.411  13.214  1.00  0.00     0.010 A 
ATOM     70  C   UNL     1      -5.196   3.179  13.976  1.00  0.00     0.010 A 
ATOM     71  C   UNL     1      -4.260   5.752  13.494  1.00  0.00     0.020 A 
ATOM     72  C   UNL     1      -3.850   3.495  14.228  1.00  0.00     0.020 A 
ATOM     73  C   UNL     1      -3.387   4.781  13.973  1.00  0.00     0.054 A 
BRANCH  73  74
ATOM     74  S   UNL     1      -1.650   5.216  14.252  1.00  0.00     0.124 S 
ATOM     75  O   UNL     1      -1.233   5.707  12.940  1.00  0.00    -0.237 OA
ATOM     76  O   UNL     1      -1.744   6.227  15.301  1.00  0.00    -0.237 OA
ATOM     77  O   UNL     1      -1.036   3.954  14.659  1.00  0.00    -0.744 OA
ENDBRANCH  73  74
ENDBRANCH  54  68
BRANCH  55  78
ATOM     78  C   UNL     1     -14.388   1.637   9.011  1.00  0.00    -0.014 A 
ATOM     79  C   UNL     1     -14.833   1.345   7.703  1.00  0.00     0.010 A 
ATOM     80  C   UNL     1     -14.297   0.592   9.948  1.00  0.00     0.010 A 
ATOM     81  C   UNL     1     -14.973   0.020   7.282  1.00  0.00     0.020 A 
ATOM     82  C   UNL     1     -14.448  -0.738   9.527  1.00  0.00     0.020 A 
ATOM     83  C   UNL     1     -14.694  -1.012   8.178  1.00  0.00     0.054 A 
BRANCH  83  84
ATOM     84  S   UNL     1     -14.452  -2.689   7.513  1.00  0.00     0.124 S 
ATOM     85  O   UNL     1     -15.643  -2.881   6.694  1.00  0.00    -0.237 OA
ATOM     86  O   UNL     1     -13.191  -2.547   6.779  1.00  0.00    -0.237 OA
ATOM     87  O   UNL     1     -14.370  -3.517   8.712  1.00  0.00    -0.744 OA
ENDBRANCH  83  84
ENDBRANCH  55  78
BRANCH  67  88
ATOM     88  C   UNL     1     -12.343   6.278  14.231  1.00  0.00    -0.014 A 
ATOM     89  C   UNL     1     -13.536   6.141  14.954  1.00  0.00     0.010 A 
ATOM     90  C   UNL     1     -11.319   7.054  14.832  1.00  0.00     0.010 A 
ATOM     91  C   UNL     1     -13.723   6.792  16.183  1.00  0.00     0.020 A 
ATOM     92  C   UNL     1     -11.476   7.668  16.077  1.00  0.00     0.020 A 
ATOM     93  C   UNL     1     -12.692   7.553  16.736  1.00  0.00     0.054 A 
BRANCH  93  94
ATOM     94  S   UNL     1     -12.918   8.329  18.356  1.00  0.00     0.124 S 
ATOM     95  O   UNL     1     -13.522   9.608  17.995  1.00  0.00    -0.237 OA
ATOM     96  O   UNL     1     -13.801   7.393  19.049  1.00  0.00    -0.237 OA
ATOM     97  O   UNL     1     -11.561   8.403  18.892  1.00  0.00    -0.744 OA
ENDBRANCH  93  94
ENDBRANCH  67  88
ENDBRANCH  41  42
ENDBRANCH  33  36
ENDBRANCH  31  32
ENDBRANCH  30  31
ENDBRANCH   1  30
TORSDOF 19
