REMARK SMILES O=C1O[C@@H](c2ccc(O)c(O)c2)[C@H](C(=O)NCCCCCCNC(=O)c2ccc(-c3c4nc(c(-c5ccc(S(=O)(=O)[O-])cc5)c5ccc([nH]5)c(-c5ccc(S(=O)(=O)[O-])cc5)c5nc(c(-c6ccc(S(=O)(=O)[O-])cc6)c6ccc3[nH]6)C=C5)C=C4)cc2)/C1=C\c1ccc(O)c(O)c1
REMARK SMILES IDX 20 1 19 2 18 3 17 4 16 5 14 6 15 7 13 9 1 10 2 11 3 12 86 13
REMARK SMILES IDX 4 14 87 15 5 16 6 17 12 18 7 19 10 20 8 21 11 22 9 24 88 26
REMARK SMILES IDX 89 27 95 28 90 29 93 30 91 31 94 32 92 34 21 36 22 37 23 38
REMARK SMILES IDX 24 39 25 41 26 42 27 43 85 44 28 45 84 46 29 47 30 48 31 49
REMARK SMILES IDX 78 50 32 51 83 52 77 53 79 54 33 55 82 56 76 57 75 58 34 60
REMARK SMILES IDX 64 61 45 62 63 63 46 64 49 65 62 66 80 67 47 68 48 69 61 71
REMARK SMILES IDX 81 72 50 73 35 74 36 75 44 76 37 77 43 78 38 79 39 80 40 81
REMARK SMILES IDX 41 82 42 83 65 84 66 85 74 86 67 87 73 88 68 89 69 90 70 91
REMARK SMILES IDX 71 92 72 93 51 94 52 95 60 96 53 97 59 98 54 99 55 100
REMARK SMILES IDX 56 101 57 102 58 103
REMARK H PARENT 16 8 11 23 9 25 94 33 92 35 23 40 79 59 49 70
REMARK Flexibility Score: inf
ROOT
ATOM      1  C   UNL     1       6.117   0.517   3.765  1.00  0.00     0.002 C 
ENDROOT
BRANCH   1   2
ATOM      2  C   UNL     1       5.696   1.824   3.084  1.00  0.00     0.002 C 
BRANCH   2   3
ATOM      3  C   UNL     1       5.158   1.670   1.662  1.00  0.00     0.021 C 
BRANCH   3   4
ATOM      4  C   UNL     1       4.026   0.662   1.526  1.00  0.00     0.116 C 
BRANCH   4   5
ATOM      5  N   UNL     1       2.800   1.081   2.171  1.00  0.00    -0.355 N 
ATOM      6  C   UNL     1       1.520   1.136   1.699  1.00  0.00     0.231 C 
ATOM      7  O   UNL     1       0.642   1.410   2.520  1.00  0.00    -0.274 OA
ATOM      8  H   UNL     1       2.907   1.376   3.104  1.00  0.00     0.163 HD
BRANCH   6   9
ATOM      9  C   UNL     1       1.230   0.964   0.202  1.00  0.00     0.161 C 
ATOM     10  O   UNL     1      -1.854  -0.814  -0.109  1.00  0.00    -0.247 OA
ATOM     11  C   UNL     1      -0.700  -0.424  -0.127  1.00  0.00     0.335 C 
ATOM     12  O   UNL     1       0.395  -1.215  -0.237  1.00  0.00    -0.453 OA
ATOM     13  C   UNL     1      -0.241   0.974  -0.053  1.00  0.00     0.054 C 
ATOM     14  C   UNL     1       1.592  -0.422  -0.326  1.00  0.00     0.224 C 
ATOM     15  C   UNL     1      -1.116   1.975  -0.226  1.00  0.00     0.020 C 
BRANCH  14  16
ATOM     16  C   UNL     1       2.180  -0.436  -1.742  1.00  0.00    -0.002 A 
ATOM     17  C   UNL     1       3.233   0.434  -2.110  1.00  0.00     0.012 A 
ATOM     18  C   UNL     1       1.758  -1.382  -2.689  1.00  0.00     0.057 A 
ATOM     19  C   UNL     1       3.862   0.349  -3.357  1.00  0.00     0.050 A 
ATOM     20  C   UNL     1       2.370  -1.443  -3.937  1.00  0.00     0.157 A 
ATOM     21  C   UNL     1       3.423  -0.597  -4.266  1.00  0.00     0.157 A 
BRANCH  20  22
ATOM     22  O   UNL     1       1.935  -2.365  -4.846  1.00  0.00    -0.504 OA
ATOM     23  H   UNL     1       2.338  -2.417  -5.690  1.00  0.00     0.293 HD
ENDBRANCH  20  22
BRANCH  21  24
ATOM     24  O   UNL     1       4.000  -0.738  -5.497  1.00  0.00    -0.504 OA
ATOM     25  H   UNL     1       4.711  -0.182  -5.747  1.00  0.00     0.293 HD
ENDBRANCH  21  24
ENDBRANCH  14  16
BRANCH  15  26
ATOM     26  C   UNL     1      -0.765   3.393  -0.181  1.00  0.00    -0.021 A 
ATOM     27  C   UNL     1       0.104   3.953  -1.131  1.00  0.00     0.012 A 
ATOM     28  C   UNL     1      -1.336   4.208   0.802  1.00  0.00     0.058 A 
ATOM     29  C   UNL     1       0.429   5.311  -1.084  1.00  0.00     0.051 A 
ATOM     30  C   UNL     1      -1.016   5.558   0.835  1.00  0.00     0.157 A 
ATOM     31  C   UNL     1      -0.136   6.107  -0.095  1.00  0.00     0.157 A 
BRANCH  30  32
ATOM     32  O   UNL     1      -1.577   6.355   1.792  1.00  0.00    -0.504 OA
ATOM     33  H   UNL     1      -1.368   7.268   1.824  1.00  0.00     0.293 HD
ENDBRANCH  30  32
BRANCH  31  34
ATOM     34  O   UNL     1       0.142   7.442   0.003  1.00  0.00    -0.504 OA
ATOM     35  H   UNL     1       0.730   7.844  -0.605  1.00  0.00     0.293 HD
ENDBRANCH  31  34
ENDBRANCH  15  26
ENDBRANCH   6   9
ENDBRANCH   4   5
ENDBRANCH   3   4
ENDBRANCH   2   3
ENDBRANCH   1   2
BRANCH   1  36
ATOM     36  C   UNL     1       7.118  -0.335   2.980  1.00  0.00     0.021 C 
BRANCH  36  37
ATOM     37  C   UNL     1       8.418   0.377   2.627  1.00  0.00     0.116 C 
BRANCH  37  38
ATOM     38  N   UNL     1       9.145   0.803   3.810  1.00  0.00    -0.352 N 
ATOM     39  C   UNL     1      10.445   0.544   4.166  1.00  0.00     0.251 C 
ATOM     40  H   UNL     1       8.634   1.354   4.446  1.00  0.00     0.163 HD
ATOM     41  O   UNL     1      10.838   0.807   5.298  1.00  0.00    -0.269 OA
BRANCH  39  42
ATOM     42  C   UNL     1      11.361  -0.066   3.180  1.00  0.00     0.039 A 
ATOM     43  C   UNL     1      12.186  -1.120   3.578  1.00  0.00     0.014 A 
ATOM     44  C   UNL     1      11.399   0.400   1.863  1.00  0.00     0.014 A 
ATOM     45  C   UNL     1      13.010  -1.743   2.639  1.00  0.00     0.010 A 
ATOM     46  C   UNL     1      12.159  -0.274   0.913  1.00  0.00     0.010 A 
ATOM     47  C   UNL     1      12.980  -1.346   1.292  1.00  0.00    -0.014 A 
BRANCH  47  48
ATOM     48  C   UNL     1      13.810  -2.025   0.265  1.00  0.00     0.031 A 
ATOM     49  C   UNL     1      14.869  -1.252  -0.476  1.00  0.00     0.074 A 
ATOM     50  C   UNL     1      13.570  -3.314  -0.048  1.00  0.00     0.049 A 
ATOM     51  N   UNL     1      15.639  -1.642  -1.458  1.00  0.00    -0.248 NA
ATOM     52  C   UNL     1      15.069   0.152  -0.079  1.00  0.00     0.031 C 
ATOM     53  C   UNL     1      12.553  -4.163   0.577  1.00  0.00     0.029 A 
ATOM     54  N   UNL     1      14.161  -4.135  -0.976  1.00  0.00    -0.354 N 
ATOM     55  C   UNL     1      16.401  -0.532  -1.806  1.00  0.00     0.074 A 
ATOM     56  C   UNL     1      15.959   0.562  -0.970  1.00  0.00     0.031 C 
ATOM     57  C   UNL     1      12.610  -5.390   0.035  1.00  0.00     0.029 A 
ATOM     58  C   UNL     1      13.631  -5.404  -1.008  1.00  0.00     0.049 A 
ATOM     59  H   UNL     1      14.895  -3.843  -1.563  1.00  0.00     0.167 HD
ATOM     60  C   UNL     1      17.393  -0.436  -2.723  1.00  0.00     0.031 A 
ATOM     61  C   UNL     1      13.924  -6.457  -1.796  1.00  0.00     0.031 A 
ATOM     62  C   UNL     1      17.834  -1.531  -3.546  1.00  0.00     0.049 A 
ATOM     63  C   UNL     1      15.011  -6.318  -2.829  1.00  0.00     0.074 A 
ATOM     64  C   UNL     1      18.862  -1.549  -4.472  1.00  0.00     0.029 A 
ATOM     65  N   UNL     1      17.272  -2.799  -3.547  1.00  0.00    -0.354 N 
ATOM     66  N   UNL     1      15.758  -5.275  -3.104  1.00  0.00    -0.248 NA
ATOM     67  C   UNL     1      15.301  -7.501  -3.650  1.00  0.00     0.031 C 
ATOM     68  C   UNL     1      18.880  -2.809  -5.078  1.00  0.00     0.029 A 
ATOM     69  C   UNL     1      17.914  -3.599  -4.476  1.00  0.00     0.049 A 
ATOM     70  H   UNL     1      16.527  -3.087  -2.971  1.00  0.00     0.167 HD
ATOM     71  C   UNL     1      16.632  -5.689  -4.104  1.00  0.00     0.074 A 
ATOM     72  C   UNL     1      16.327  -7.078  -4.377  1.00  0.00     0.031 C 
ATOM     73  C   UNL     1      17.603  -4.983  -4.734  1.00  0.00     0.031 A 
BRANCH  60  74
ATOM     74  C   UNL     1      18.063   0.903  -2.891  1.00  0.00    -0.014 A 
ATOM     75  C   UNL     1      18.870   1.449  -1.875  1.00  0.00     0.010 A 
ATOM     76  C   UNL     1      17.918   1.610  -4.099  1.00  0.00     0.010 A 
ATOM     77  C   UNL     1      19.481   2.694  -2.046  1.00  0.00     0.020 A 
ATOM     78  C   UNL     1      18.555   2.840  -4.288  1.00  0.00     0.020 A 
ATOM     79  C   UNL     1      19.318   3.382  -3.252  1.00  0.00     0.054 A 
BRANCH  79  80
ATOM     80  S   UNL     1      20.140   4.986  -3.453  1.00  0.00     0.124 S 
ATOM     81  O   UNL     1      19.367   5.835  -2.551  1.00  0.00    -0.237 OA
ATOM     82  O   UNL     1      21.508   4.699  -3.028  1.00  0.00    -0.237 OA
ATOM     83  O   UNL     1      19.981   5.282  -4.875  1.00  0.00    -0.744 OA
ENDBRANCH  79  80
ENDBRANCH  60  74
BRANCH  61  84
ATOM     84  C   UNL     1      13.185  -7.739  -1.633  1.00  0.00    -0.014 A 
ATOM     85  C   UNL     1      13.835  -8.882  -1.135  1.00  0.00     0.010 A 
ATOM     86  C   UNL     1      11.821  -7.824  -1.970  1.00  0.00     0.010 A 
ATOM     87  C   UNL     1      13.144 -10.090  -1.000  1.00  0.00     0.020 A 
ATOM     88  C   UNL     1      11.118  -9.020  -1.805  1.00  0.00     0.020 A 
ATOM     89  C   UNL     1      11.788 -10.150  -1.333  1.00  0.00     0.054 A 
BRANCH  89  90
ATOM     90  S   UNL     1      10.902 -11.716  -1.106  1.00  0.00     0.124 S 
ATOM     91  O   UNL     1      11.463 -12.540  -2.172  1.00  0.00    -0.237 OA
ATOM     92  O   UNL     1      11.278 -12.095   0.253  1.00  0.00    -0.237 OA
ATOM     93  O   UNL     1       9.499 -11.342  -1.275  1.00  0.00    -0.744 OA
ENDBRANCH  89  90
ENDBRANCH  61  84
BRANCH  73  94
ATOM     94  C   UNL     1      18.447  -5.709  -5.750  1.00  0.00    -0.014 A 
ATOM     95  C   UNL     1      17.924  -6.105  -6.994  1.00  0.00     0.010 A 
ATOM     96  C   UNL     1      19.808  -5.939  -5.475  1.00  0.00     0.010 A 
ATOM     97  C   UNL     1      18.741  -6.743  -7.932  1.00  0.00     0.020 A 
ATOM     98  C   UNL     1      20.635  -6.546  -6.423  1.00  0.00     0.020 A 
ATOM     99  C   UNL     1      20.093  -6.956  -7.641  1.00  0.00     0.054 A 
BRANCH  99 100
ATOM    100  S   UNL     1      21.142  -7.737  -8.898  1.00  0.00     0.124 S 
ATOM    101  O   UNL     1      20.662  -9.116  -8.880  1.00  0.00    -0.237 OA
ATOM    102  O   UNL     1      20.819  -6.974 -10.101  1.00  0.00    -0.237 OA
ATOM    103  O   UNL     1      22.497  -7.542  -8.388  1.00  0.00    -0.744 OA
ENDBRANCH  99 100
ENDBRANCH  73  94
ENDBRANCH  47  48
ENDBRANCH  39  42
ENDBRANCH  37  38
ENDBRANCH  36  37
ENDBRANCH   1  36
TORSDOF 22
