REMARK SMILES O=C(NCCCCCCNC(=O)[C@@H]1CCCN(C(=O)Nc2ccccc2)C1)c1ccc(-c2c3nc(c(-c4ccc(S(=O)(=O)[O-])cc4)c4ccc([nH]4)c(-c4ccc(S(=O)(=O)[O-])cc4)c4nc(c(-c5ccc(S(=O)(=O)[O-])cc5)c5ccc2[nH]5)C=C4)C=C3)cc1
REMARK SMILES IDX 6 1 5 2 4 3 3 4 1 5 2 6 28 8 29 9 87 10 30 11 86 12 31 13
REMARK SMILES IDX 32 14 33 15 80 16 34 17 85 18 79 19 81 20 35 21 84 22 78 23
REMARK SMILES IDX 77 24 36 26 66 27 47 28 65 29 48 30 51 31 64 32 82 33 49 34
REMARK SMILES IDX 50 35 63 37 83 38 52 39 37 40 38 41 46 42 39 43 45 44 40 45
REMARK SMILES IDX 41 46 42 47 43 48 44 49 67 50 68 51 76 52 69 53 75 54 70 55
REMARK SMILES IDX 71 56 72 57 73 58 74 59 53 60 54 61 62 62 55 63 61 64 56 65
REMARK SMILES IDX 57 66 58 67 59 68 60 69 7 70 8 71 9 72 10 73 11 74 12 76
REMARK SMILES IDX 13 77 14 78 27 79 15 80 17 81 16 82 18 83 19 84 20 85 21 87
REMARK SMILES IDX 22 88 26 89 23 90 25 91 24 92
REMARK H PARENT 3 7 81 25 51 36 10 75 20 86
REMARK Flexibility Score: inf
ROOT
ATOM      1  C   UNL     1       3.727   0.343  -4.049  1.00  0.00     0.002 C 
ENDROOT
BRANCH   1   2
ATOM      2  C   UNL     1       4.392  -0.401  -2.888  1.00  0.00     0.021 C 
BRANCH   2   3
ATOM      3  C   UNL     1       4.223   0.242  -1.516  1.00  0.00     0.116 C 
BRANCH   3   4
ATOM      4  N   UNL     1       2.833   0.312  -1.091  1.00  0.00    -0.352 N 
ATOM      5  O   UNL     1       1.003  -0.156   0.136  1.00  0.00    -0.269 OA
ATOM      6  C   UNL     1       2.226  -0.196   0.033  1.00  0.00     0.251 C 
ATOM      7  H   UNL     1       2.236   0.799  -1.703  1.00  0.00     0.163 HD
BRANCH   6   8
ATOM      8  C   UNL     1       3.039  -0.806   1.108  1.00  0.00     0.039 A 
ATOM      9  C   UNL     1       4.209  -0.189   1.551  1.00  0.00     0.014 A 
ATOM     10  C   UNL     1       2.617  -2.000   1.701  1.00  0.00     0.014 A 
ATOM     11  C   UNL     1       5.033  -0.837   2.466  1.00  0.00     0.010 A 
ATOM     12  C   UNL     1       3.401  -2.606   2.691  1.00  0.00     0.010 A 
ATOM     13  C   UNL     1       4.634  -2.046   3.059  1.00  0.00    -0.014 A 
BRANCH  13  14
ATOM     14  C   UNL     1       5.500  -2.659   4.103  1.00  0.00     0.031 A 
ATOM     15  C   UNL     1       6.142  -4.006   3.903  1.00  0.00     0.074 A 
ATOM     16  C   UNL     1       5.746  -1.958   5.229  1.00  0.00     0.049 A 
ATOM     17  N   UNL     1       6.964  -4.649   4.695  1.00  0.00    -0.248 NA
ATOM     18  C   UNL     1       5.822  -4.730   2.662  1.00  0.00     0.031 C 
ATOM     19  C   UNL     1       5.166  -0.651   5.551  1.00  0.00     0.029 A 
ATOM     20  N   UNL     1       6.564  -2.228   6.296  1.00  0.00    -0.354 N 
ATOM     21  C   UNL     1       7.251  -5.851   4.059  1.00  0.00     0.074 A 
ATOM     22  C   UNL     1       6.492  -5.863   2.827  1.00  0.00     0.031 C 
ATOM     23  C   UNL     1       5.688  -0.209   6.704  1.00  0.00     0.029 A 
ATOM     24  C   UNL     1       6.588  -1.224   7.236  1.00  0.00     0.049 A 
ATOM     25  H   UNL     1       7.084  -3.059   6.381  1.00  0.00     0.167 HD
ATOM     26  C   UNL     1       8.076  -6.850   4.460  1.00  0.00     0.031 A 
ATOM     27  C   UNL     1       7.248  -1.130   8.406  1.00  0.00     0.031 A 
ATOM     28  C   UNL     1       8.826  -6.840   5.691  1.00  0.00     0.049 A 
ATOM     29  C   UNL     1       8.148  -2.254   8.829  1.00  0.00     0.074 A 
ATOM     30  C   UNL     1       9.690  -7.805   6.181  1.00  0.00     0.029 A 
ATOM     31  N   UNL     1       8.804  -5.816   6.626  1.00  0.00    -0.354 N 
ATOM     32  N   UNL     1       8.415  -3.374   8.200  1.00  0.00    -0.248 NA
ATOM     33  C   UNL     1       8.839  -2.099  10.115  1.00  0.00     0.031 C 
ATOM     34  C   UNL     1      10.161  -7.381   7.429  1.00  0.00     0.029 A 
ATOM     35  C   UNL     1       9.631  -6.129   7.693  1.00  0.00     0.049 A 
ATOM     36  H   UNL     1       8.279  -4.987   6.543  1.00  0.00     0.167 HD
ATOM     37  C   UNL     1       9.309  -4.057   9.015  1.00  0.00     0.074 A 
ATOM     38  C   UNL     1       9.564  -3.208  10.161  1.00  0.00     0.031 C 
ATOM     39  C   UNL     1       9.863  -5.281   8.834  1.00  0.00     0.031 A 
BRANCH  26  40
ATOM     40  C   UNL     1       8.211  -8.051   3.559  1.00  0.00    -0.014 A 
ATOM     41  C   UNL     1       8.931  -7.973   2.354  1.00  0.00     0.010 A 
ATOM     42  C   UNL     1       7.667  -9.288   3.951  1.00  0.00     0.010 A 
ATOM     43  C   UNL     1       9.079  -9.102   1.542  1.00  0.00     0.020 A 
ATOM     44  C   UNL     1       7.833 -10.426   3.154  1.00  0.00     0.020 A 
ATOM     45  C   UNL     1       8.527 -10.321   1.947  1.00  0.00     0.054 A 
BRANCH  45  46
ATOM     46  S   UNL     1       8.762 -11.776   0.888  1.00  0.00     0.124 S 
ATOM     47  O   UNL     1       7.854 -11.491  -0.220  1.00  0.00    -0.237 OA
ATOM     48  O   UNL     1      10.185 -11.710   0.565  1.00  0.00    -0.237 OA
ATOM     49  O   UNL     1       8.371 -12.894   1.743  1.00  0.00    -0.744 OA
ENDBRANCH  45  46
ENDBRANCH  26  40
BRANCH  27  50
ATOM     50  C   UNL     1       7.055   0.067   9.267  1.00  0.00    -0.014 A 
ATOM     51  C   UNL     1       8.089   1.000   9.451  1.00  0.00     0.010 A 
ATOM     52  C   UNL     1       5.814   0.285   9.895  1.00  0.00     0.010 A 
ATOM     53  C   UNL     1       7.892   2.121  10.264  1.00  0.00     0.020 A 
ATOM     54  C   UNL     1       5.604   1.419  10.682  1.00  0.00     0.020 A 
ATOM     55  C   UNL     1       6.650   2.322  10.874  1.00  0.00     0.054 A 
BRANCH  55  56
ATOM     56  S   UNL     1       6.397   3.806  11.886  1.00  0.00     0.124 S 
ATOM     57  O   UNL     1       7.073   3.444  13.127  1.00  0.00    -0.237 OA
ATOM     58  O   UNL     1       7.043   4.848  11.091  1.00  0.00    -0.237 OA
ATOM     59  O   UNL     1       4.942   3.914  11.971  1.00  0.00    -0.744 OA
ENDBRANCH  55  56
ENDBRANCH  27  50
BRANCH  39  60
ATOM     60  C   UNL     1      10.811  -5.761   9.898  1.00  0.00    -0.014 A 
ATOM     61  C   UNL     1      10.341  -6.161  11.162  1.00  0.00     0.010 A 
ATOM     62  C   UNL     1      12.190  -5.822   9.627  1.00  0.00     0.010 A 
ATOM     63  C   UNL     1      11.239  -6.567  12.153  1.00  0.00     0.020 A 
ATOM     64  C   UNL     1      13.088  -6.253  10.607  1.00  0.00     0.020 A 
ATOM     65  C   UNL     1      12.608  -6.603  11.870  1.00  0.00     0.054 A 
BRANCH  65  66
ATOM     66  S   UNL     1      13.755  -7.144  13.167  1.00  0.00     0.124 S 
ATOM     67  O   UNL     1      13.813  -5.966  14.029  1.00  0.00    -0.237 OA
ATOM     68  O   UNL     1      13.075  -8.306  13.736  1.00  0.00    -0.237 OA
ATOM     69  O   UNL     1      14.984  -7.444  12.437  1.00  0.00    -0.744 OA
ENDBRANCH  65  66
ENDBRANCH  39  60
ENDBRANCH  13  14
ENDBRANCH   6   8
ENDBRANCH   3   4
ENDBRANCH   2   3
ENDBRANCH   1   2
BRANCH   1  70
ATOM     70  C   UNL     1       4.157   1.802  -4.250  1.00  0.00     0.002 C 
BRANCH  70  71
ATOM     71  C   UNL     1       5.665   2.055  -4.294  1.00  0.00     0.021 C 
BRANCH  71  72
ATOM     72  C   UNL     1       6.415   1.315  -5.398  1.00  0.00     0.116 C 
BRANCH  72  73
ATOM     73  N   UNL     1       6.501   2.076  -6.625  1.00  0.00    -0.356 N 
ATOM     74  C   UNL     1       7.562   2.516  -7.348  1.00  0.00     0.224 C 
ATOM     75  H   UNL     1       5.627   2.321  -7.006  1.00  0.00     0.163 HD
ATOM     76  O   UNL     1       7.293   3.103  -8.404  1.00  0.00    -0.275 OA
BRANCH  74  77
ATOM     77  C   UNL     1       9.032   2.348  -6.945  1.00  0.00     0.098 C 
ATOM     78  C   UNL     1       9.498   0.947  -6.571  1.00  0.00     0.017 C 
ATOM     79  C   UNL     1       9.522   3.423  -5.988  1.00  0.00     0.134 C 
ATOM     80  C   UNL     1       9.833   0.704  -5.101  1.00  0.00     0.022 C 
ATOM     81  N   UNL     1       9.195   3.137  -4.597  1.00  0.00    -0.324 N 
ATOM     82  C   UNL     1       9.681   1.856  -4.099  1.00  0.00     0.121 C 
BRANCH  81  83
ATOM     83  C   UNL     1       8.535   4.126  -3.897  1.00  0.00     0.321 C 
ATOM     84  O   UNL     1       8.178   5.175  -4.447  1.00  0.00    -0.248 OA
ATOM     85  N   UNL     1       8.083   3.971  -2.630  1.00  0.00    -0.308 N 
ATOM     86  H   UNL     1       7.349   4.593  -2.423  1.00  0.00     0.171 HD
BRANCH  85  87
ATOM     87  C   UNL     1       8.394   3.152  -1.544  1.00  0.00     0.042 A 
ATOM     88  C   UNL     1       7.334   2.760  -0.721  1.00  0.00     0.026 A 
ATOM     89  C   UNL     1       9.689   2.748  -1.228  1.00  0.00     0.026 A 
ATOM     90  C   UNL     1       7.549   1.851   0.314  1.00  0.00     0.002 A 
ATOM     91  C   UNL     1       9.905   1.836  -0.193  1.00  0.00     0.002 A 
ATOM     92  C   UNL     1       8.830   1.367   0.560  1.00  0.00     0.000 A 
ENDBRANCH  85  87
ENDBRANCH  81  83
ENDBRANCH  74  77
ENDBRANCH  72  73
ENDBRANCH  71  72
ENDBRANCH  70  71
ENDBRANCH   1  70
TORSDOF 18
