REMARK SMILES C[C@]([NH3+])(C(=O)N[C@H]1CCCCC[C@@H]1C(=O)NCCCCCCNC(=O)c1ccc(-c2c3nc(c(-c4ccc(S(=O)(=O)[O-])cc4)c4ccc([nH]4)c(-c4ccc(S(=O)(=O)[O-])cc4)c4nc(c(-c5ccc(S(=O)(=O)[O-])cc5)c5ccc2[nH]5)C=C4)C=C3)cc1)C(F)(F)F
REMARK SMILES IDX 19 1 18 2 17 3 16 4 14 5 15 6 13 8 7 9 6 10 4 11 5 12 2 14
REMARK SMILES IDX 1 15 86 16 87 17 88 18 89 19 3 20 8 24 12 26 11 27 10 28
REMARK SMILES IDX 9 29 20 31 21 32 22 33 23 34 24 35 25 37 26 38 27 39 85 40
REMARK SMILES IDX 28 41 84 42 29 43 30 44 31 45 78 46 32 47 83 48 77 49 79 50
REMARK SMILES IDX 33 51 82 52 76 53 75 54 34 56 64 57 45 58 63 59 46 60 49 61
REMARK SMILES IDX 62 62 80 63 47 64 48 65 61 67 81 68 50 69 35 70 36 71 44 72
REMARK SMILES IDX 37 73 43 74 38 75 39 76 40 77 41 78 42 79 65 80 66 81 74 82
REMARK SMILES IDX 67 83 73 84 68 85 69 86 70 87 71 88 72 89 51 90 52 91 60 92
REMARK SMILES IDX 53 93 59 94 54 95 55 96 56 97 57 98 58 99
REMARK H PARENT 16 7 6 13 3 21 3 22 3 23 23 36 79 55 49 66
REMARK Flexibility Score: 100.00
ROOT
ATOM      1  C   UNL     1      -3.979   2.265  -0.856  1.00  0.00     0.002 C 
ENDROOT
BRANCH   1   2
ATOM      2  C   UNL     1      -3.812   0.751  -0.749  1.00  0.00     0.021 C 
BRANCH   2   3
ATOM      3  C   UNL     1      -2.466   0.186  -1.182  1.00  0.00     0.116 C 
BRANCH   3   4
ATOM      4  N   UNL     1      -1.356   0.569  -0.329  1.00  0.00    -0.356 N 
ATOM      5  C   UNL     1      -0.205  -0.051   0.033  1.00  0.00     0.225 C 
ATOM      6  O   UNL     1       0.680   0.702   0.469  1.00  0.00    -0.275 OA
ATOM      7  H   UNL     1      -1.460   1.464   0.069  1.00  0.00     0.163 HD
BRANCH   5   8
ATOM      8  C   UNL     1       0.027  -1.578   0.130  1.00  0.00     0.101 C 
BRANCH   8   9
ATOM      9  C   UNL     1      -0.711  -2.479  -0.899  1.00  0.00     0.094 C 
BRANCH   9  10
ATOM     10  N   UNL     1       0.165  -3.399  -1.688  1.00  0.00    -0.347 N 
ATOM     11  C   UNL     1      -0.270  -3.909  -2.920  1.00  0.00     0.290 C 
ATOM     12  O   UNL     1      -0.238  -3.154  -3.890  1.00  0.00    -0.267 OA
ATOM     13  H   UNL     1       1.052  -3.648  -1.341  1.00  0.00     0.164 HD
BRANCH  11  14
ATOM     14  C   UNL     1      -0.769  -5.387  -2.989  1.00  0.00     0.266 C 
ATOM     15  C   UNL     1      -2.285  -5.473  -2.716  1.00  0.00     0.100 C 
BRANCH  14  16
ATOM     16  C   UNL     1      -0.549  -5.890  -4.443  1.00  0.00     0.453 C 
ATOM     17  F   UNL     1       0.748  -5.832  -4.819  1.00  0.00    -0.164 F 
ATOM     18  F   UNL     1      -0.925  -7.198  -4.540  1.00  0.00    -0.164 F 
ATOM     19  F   UNL     1      -1.291  -5.217  -5.349  1.00  0.00    -0.164 F 
ENDBRANCH  14  16
BRANCH  14  20
ATOM     20  N   UNL     1       0.011  -6.219  -2.000  1.00  0.00    -0.337 N 
ATOM     21  H   UNL     1       1.008  -6.144  -2.204  1.00  0.00     0.345 HD
ATOM     22  H   UNL     1      -0.278  -7.195  -2.074  1.00  0.00     0.345 HD
ATOM     23  H   UNL     1      -0.169  -5.882  -1.054  1.00  0.00     0.345 HD
ENDBRANCH  14  20
ENDBRANCH  11  14
ENDBRANCH   9  10
BRANCH   9  24
ATOM     24  C   UNL     1      -1.894  -3.217  -0.244  1.00  0.00     0.026 CG0
ATOM     25  G   UNL     1      -1.488  -4.477   0.517  1.00  0.00     0.000 G0
ENDBRANCH   9  24
ENDBRANCH   8   9
BRANCH   8  26
ATOM     26  C   UNL     1      -0.184  -1.889   1.639  1.00  0.00     0.015 C 
BRANCH  26  27
ATOM     27  C   UNL     1       0.135  -3.310   2.086  1.00  0.00     0.001 C 
BRANCH  27  28
ATOM     28  C   UNL     1      -1.042  -4.265   1.949  1.00  0.00     0.000 C 
BRANCH  28  29
ATOM     29  C   UNL     1      -1.488  -4.477   0.517  1.00  0.00     0.002 CG0
ATOM     30  G   UNL     1      -1.894  -3.217  -0.244  1.00  0.00     0.000 G0
ENDBRANCH  28  29
ENDBRANCH  27  28
ENDBRANCH  26  27
ENDBRANCH   8  26
ENDBRANCH   5   8
ENDBRANCH   3   4
ENDBRANCH   2   3
ENDBRANCH   1   2
BRANCH   1  31
ATOM     31  C   UNL     1      -3.657   2.885  -2.218  1.00  0.00     0.002 C 
BRANCH  31  32
ATOM     32  C   UNL     1      -4.329   2.236  -3.432  1.00  0.00     0.021 C 
BRANCH  32  33
ATOM     33  C   UNL     1      -5.848   2.126  -3.359  1.00  0.00     0.116 C 
BRANCH  33  34
ATOM     34  N   UNL     1      -6.489   3.422  -3.233  1.00  0.00    -0.352 N 
ATOM     35  C   UNL     1      -7.463   3.991  -4.018  1.00  0.00     0.251 C 
ATOM     36  H   UNL     1      -6.182   3.973  -2.477  1.00  0.00     0.163 HD
ATOM     37  O   UNL     1      -7.742   5.176  -3.881  1.00  0.00    -0.269 OA
BRANCH  35  38
ATOM     38  C   UNL     1      -8.161   3.174  -5.034  1.00  0.00     0.039 A 
ATOM     39  C   UNL     1      -8.372   3.713  -6.306  1.00  0.00     0.014 A 
ATOM     40  C   UNL     1      -8.619   1.888  -4.732  1.00  0.00     0.014 A 
ATOM     41  C   UNL     1      -8.996   2.942  -7.289  1.00  0.00     0.010 A 
ATOM     42  C   UNL     1      -9.172   1.095  -5.733  1.00  0.00     0.010 A 
ATOM     43  C   UNL     1      -9.374   1.615  -7.020  1.00  0.00    -0.014 A 
BRANCH  43  44
ATOM     44  C   UNL     1      -9.984   0.762  -8.072  1.00  0.00     0.031 A 
ATOM     45  C   UNL     1     -11.391   0.251  -7.911  1.00  0.00     0.074 A 
ATOM     46  C   UNL     1      -9.252   0.403  -9.145  1.00  0.00     0.049 A 
ATOM     47  N   UNL     1     -12.075  -0.540  -8.697  1.00  0.00    -0.248 NA
ATOM     48  C   UNL     1     -12.117   0.663  -6.698  1.00  0.00     0.031 C 
ATOM     49  C   UNL     1      -7.865   0.802  -9.397  1.00  0.00     0.029 A 
ATOM     50  N   UNL     1      -9.570  -0.384 -10.224  1.00  0.00    -0.354 N 
ATOM     51  C   UNL     1     -13.301  -0.731  -8.069  1.00  0.00     0.074 A 
ATOM     52  C   UNL     1     -13.248  -0.017  -6.813  1.00  0.00     0.031 C 
ATOM     53  C   UNL     1      -7.464   0.284 -10.568  1.00  0.00     0.029 A 
ATOM     54  C   UNL     1      -8.544  -0.521 -11.130  1.00  0.00     0.049 A 
ATOM     55  H   UNL     1     -10.450  -0.809 -10.340  1.00  0.00     0.167 HD
ATOM     56  C   UNL     1     -14.381  -1.422  -8.508  1.00  0.00     0.031 A 
ATOM     57  C   UNL     1      -8.476  -1.221 -12.279  1.00  0.00     0.031 A 
ATOM     58  C   UNL     1     -14.430  -2.125  -9.762  1.00  0.00     0.049 A 
ATOM     59  C   UNL     1      -9.681  -1.997 -12.735  1.00  0.00     0.074 A 
ATOM     60  C   UNL     1     -15.495  -2.811 -10.322  1.00  0.00     0.029 A 
ATOM     61  N   UNL     1     -13.371  -2.239 -10.650  1.00  0.00    -0.354 N 
ATOM     62  N   UNL     1     -10.855  -2.109 -12.159  1.00  0.00    -0.248 NA
ATOM     63  C   UNL     1      -9.558  -2.731 -14.001  1.00  0.00     0.031 C 
ATOM     64  C   UNL     1     -15.060  -3.390 -11.518  1.00  0.00     0.029 A 
ATOM     65  C   UNL     1     -13.747  -3.007 -11.739  1.00  0.00     0.049 A 
ATOM     66  H   UNL     1     -12.483  -1.833 -10.525  1.00  0.00     0.167 HD
ATOM     67  C   UNL     1     -11.619  -2.902 -13.008  1.00  0.00     0.074 A 
ATOM     68  C   UNL     1     -10.779  -3.227 -14.144  1.00  0.00     0.031 C 
ATOM     69  C   UNL     1     -12.900  -3.323 -12.862  1.00  0.00     0.031 A 
BRANCH  56  70
ATOM     70  C   UNL     1     -15.598  -1.457  -7.618  1.00  0.00    -0.014 A 
ATOM     71  C   UNL     1     -16.370  -0.303  -7.393  1.00  0.00     0.010 A 
ATOM     72  C   UNL     1     -16.001  -2.672  -7.035  1.00  0.00     0.010 A 
ATOM     73  C   UNL     1     -17.497  -0.354  -6.568  1.00  0.00     0.020 A 
ATOM     74  C   UNL     1     -17.146  -2.734  -6.235  1.00  0.00     0.020 A 
ATOM     75  C   UNL     1     -17.878  -1.570  -5.993  1.00  0.00     0.054 A 
BRANCH  75  76
ATOM     76  S   UNL     1     -19.359  -1.610  -4.948  1.00  0.00     0.124 S 
ATOM     77  O   UNL     1     -18.907  -0.893  -3.757  1.00  0.00    -0.237 OA
ATOM     78  O   UNL     1     -20.346  -0.909  -5.765  1.00  0.00    -0.237 OA
ATOM     79  O   UNL     1     -19.611  -3.036  -4.756  1.00  0.00    -0.744 OA
ENDBRANCH  75  76
ENDBRANCH  56  70
BRANCH  57  80
ATOM     80  C   UNL     1      -7.223  -1.210 -13.084  1.00  0.00    -0.014 A 
ATOM     81  C   UNL     1      -7.181  -0.565 -14.333  1.00  0.00     0.010 A 
ATOM     82  C   UNL     1      -6.059  -1.836 -12.601  1.00  0.00     0.010 A 
ATOM     83  C   UNL     1      -6.007  -0.565 -15.092  1.00  0.00     0.020 A 
ATOM     84  C   UNL     1      -4.875  -1.812 -13.342  1.00  0.00     0.020 A 
ATOM     85  C   UNL     1      -4.860  -1.186 -14.590  1.00  0.00     0.054 A 
BRANCH  85  86
ATOM     86  S   UNL     1      -3.336  -1.132 -15.574  1.00  0.00     0.124 S 
ATOM     87  O   UNL     1      -3.646  -2.052 -16.664  1.00  0.00    -0.237 OA
ATOM     88  O   UNL     1      -3.249   0.279 -15.941  1.00  0.00    -0.237 OA
ATOM     89  O   UNL     1      -2.310  -1.590 -14.640  1.00  0.00    -0.744 OA
ENDBRANCH  85  86
ENDBRANCH  57  80
BRANCH  69  90
ATOM     90  C   UNL     1     -13.490  -4.151 -13.974  1.00  0.00    -0.014 A 
ATOM     91  C   UNL     1     -13.076  -5.475 -14.200  1.00  0.00     0.010 A 
ATOM     92  C   UNL     1     -14.518  -3.609 -14.768  1.00  0.00     0.010 A 
ATOM     93  C   UNL     1     -13.656  -6.231 -15.222  1.00  0.00     0.020 A 
ATOM     94  C   UNL     1     -15.123  -4.372 -15.770  1.00  0.00     0.020 A 
ATOM     95  C   UNL     1     -14.677  -5.675 -16.000  1.00  0.00     0.054 A 
BRANCH  95  96
ATOM     96  S   UNL     1     -15.445  -6.694 -17.289  1.00  0.00     0.124 S 
ATOM     97  O   UNL     1     -14.391  -6.753 -18.298  1.00  0.00    -0.237 OA
ATOM     98  O   UNL     1     -15.715  -7.946 -16.588  1.00  0.00    -0.237 OA
ATOM     99  O   UNL     1     -16.632  -5.932 -17.672  1.00  0.00    -0.744 OA
ENDBRANCH  95  96
ENDBRANCH  69  90
ENDBRANCH  43  44
ENDBRANCH  35  38
ENDBRANCH  33  34
ENDBRANCH  32  33
ENDBRANCH  31  32
ENDBRANCH   1  31
TORSDOF 20
