REMARK SMILES COc1ccc(NC2=[NH+]C(=O)/C(=C\c3ccccc3C(=O)NCCCCCCNC(=O)c3ccc(-c4c5nc(c(-c6ccc(S(=O)(=O)[O-])cc6)c6ccc([nH]6)c(-c6ccc(S(=O)(=O)[O-])cc6)c6nc(c(-c7ccc(S(=O)(=O)[O-])cc7)c7ccc4[nH]7)C=C6)C=C5)cc3)S2)cc1
REMARK SMILES IDX 25 1 24 2 23 3 22 4 20 5 21 6 19 8 14 9 15 10 16 11 18 12
REMARK SMILES IDX 17 13 13 14 7 15 8 16 9 18 92 19 10 20 12 22 11 23 6 24 3 25
REMARK SMILES IDX 4 26 94 27 5 28 93 29 2 30 1 31 26 32 27 33 28 34 29 35
REMARK SMILES IDX 30 36 31 38 32 39 33 40 91 41 34 42 90 43 35 44 36 45 37 46
REMARK SMILES IDX 84 47 38 48 89 49 83 50 85 51 39 52 88 53 82 54 81 55 40 57
REMARK SMILES IDX 70 58 51 59 69 60 52 61 55 62 68 63 86 64 53 65 54 66 67 68
REMARK SMILES IDX 87 69 56 70 41 71 42 72 50 73 43 74 49 75 44 76 45 77 46 78
REMARK SMILES IDX 47 79 48 80 71 81 72 82 80 83 73 84 79 85 74 86 75 87 76 88
REMARK SMILES IDX 77 89 78 90 57 91 58 92 66 93 59 94 65 95 60 96 61 97 62 98
REMARK SMILES IDX 63 99 64 100
REMARK H PARENT 22 7 7 17 9 21 29 37 85 56 55 67
REMARK Flexibility Score: inf
ROOT
ATOM      1  C   UNL     1      -2.925   4.617  -3.541  1.00  0.00     0.002 C 
ENDROOT
BRANCH   1   2
ATOM      2  C   UNL     1      -3.483   5.954  -4.041  1.00  0.00     0.021 C 
BRANCH   2   3
ATOM      3  C   UNL     1      -2.547   6.797  -4.903  1.00  0.00     0.116 C 
BRANCH   3   4
ATOM      4  N   UNL     1      -2.111   6.138  -6.116  1.00  0.00    -0.352 N 
ATOM      5  C   UNL     1      -1.729   6.681  -7.319  1.00  0.00     0.251 C 
ATOM      6  O   UNL     1      -1.554   5.921  -8.271  1.00  0.00    -0.269 OA
ATOM      7  H   UNL     1      -2.084   5.154  -6.072  1.00  0.00     0.163 HD
BRANCH   5   8
ATOM      8  C   UNL     1      -1.639   8.153  -7.524  1.00  0.00     0.047 A 
ATOM      9  C   UNL     1      -0.973   9.075  -6.691  1.00  0.00    -0.011 A 
ATOM     10  C   UNL     1      -1.131  10.450  -6.967  1.00  0.00     0.009 A 
ATOM     11  C   UNL     1      -1.838  10.898  -8.084  1.00  0.00     0.001 A 
ATOM     12  C   UNL     1      -2.298   8.616  -8.681  1.00  0.00     0.014 A 
ATOM     13  C   UNL     1      -2.394   9.979  -8.961  1.00  0.00     0.001 A 
BRANCH   9  14
ATOM     14  C   UNL     1      -0.144   8.785  -5.507  1.00  0.00     0.032 C 
ATOM     15  N   UNL     1       2.695   5.259  -3.425  1.00  0.00    -0.235 N 
ATOM     16  C   UNL     1       2.139   6.035  -4.396  1.00  0.00     0.322 C 
ATOM     17  H   UNL     1       3.415   5.673  -2.896  1.00  0.00     0.313 HD
ATOM     18  N   UNL     1       1.914   5.783  -5.641  1.00  0.00    -0.199 N 
ATOM     19  S   UNL     1       1.623   7.621  -3.837  1.00  0.00     0.006 SA
ATOM     20  C   UNL     1       1.346   6.851  -6.306  1.00  0.00     0.346 C 
ATOM     21  H   UNL     1       2.125   4.923  -6.071  1.00  0.00     0.316 HD
ATOM     22  C   UNL     1       0.817   7.863  -5.346  1.00  0.00     0.110 C 
ATOM     23  O   UNL     1       1.325   6.999  -7.518  1.00  0.00    -0.240 OA
BRANCH  15  24
ATOM     24  C   UNL     1       2.361   3.934  -3.090  1.00  0.00     0.125 A 
ATOM     25  C   UNL     1       1.539   1.422  -2.098  1.00  0.00     0.119 A 
ATOM     26  C   UNL     1       1.018   1.918  -3.292  1.00  0.00     0.051 A 
ATOM     27  C   UNL     1       2.560   2.123  -1.464  1.00  0.00     0.051 A 
ATOM     28  C   UNL     1       1.440   3.157  -3.796  1.00  0.00     0.055 A 
ATOM     29  C   UNL     1       2.968   3.365  -1.961  1.00  0.00     0.055 A 
BRANCH  25  30
ATOM     30  O   UNL     1       0.994   0.251  -1.648  1.00  0.00    -0.497 OA
ATOM     31  C   UNL     1       1.101   0.033  -0.241  1.00  0.00     0.278 C 
ENDBRANCH  25  30
ENDBRANCH  15  24
ENDBRANCH   9  14
ENDBRANCH   5   8
ENDBRANCH   3   4
ENDBRANCH   2   3
ENDBRANCH   1   2
BRANCH   1  32
ATOM     32  C   UNL     1      -1.511   4.639  -2.961  1.00  0.00     0.002 C 
BRANCH  32  33
ATOM     33  C   UNL     1      -1.257   5.571  -1.780  1.00  0.00     0.021 C 
BRANCH  33  34
ATOM     34  C   UNL     1      -2.103   5.310  -0.541  1.00  0.00     0.116 C 
BRANCH  34  35
ATOM     35  N   UNL     1      -1.927   3.975   0.007  1.00  0.00    -0.352 N 
ATOM     36  C   UNL     1      -1.672   3.566   1.295  1.00  0.00     0.251 C 
ATOM     37  H   UNL     1      -2.002   3.246  -0.650  1.00  0.00     0.163 HD
ATOM     38  O   UNL     1      -1.443   2.379   1.516  1.00  0.00    -0.269 OA
BRANCH  36  39
ATOM     39  C   UNL     1      -1.628   4.543   2.410  1.00  0.00     0.039 A 
ATOM     40  C   UNL     1      -0.664   4.372   3.410  1.00  0.00     0.014 A 
ATOM     41  C   UNL     1      -2.522   5.612   2.491  1.00  0.00     0.014 A 
ATOM     42  C   UNL     1      -0.554   5.308   4.443  1.00  0.00     0.010 A 
ATOM     43  C   UNL     1      -2.351   6.594   3.465  1.00  0.00     0.010 A 
ATOM     44  C   UNL     1      -1.372   6.449   4.458  1.00  0.00    -0.014 A 
BRANCH  44  45
ATOM     45  C   UNL     1      -1.226   7.489   5.511  1.00  0.00     0.031 A 
ATOM     46  C   UNL     1      -2.370   7.790   6.443  1.00  0.00     0.074 A 
ATOM     47  C   UNL     1      -0.085   8.204   5.591  1.00  0.00     0.049 A 
ATOM     48  N   UNL     1      -2.449   8.692   7.388  1.00  0.00    -0.248 NA
ATOM     49  C   UNL     1      -3.598   6.997   6.270  1.00  0.00     0.031 C 
ATOM     50  C   UNL     1       1.077   8.050   4.712  1.00  0.00     0.029 A 
ATOM     51  N   UNL     1       0.285   9.207   6.452  1.00  0.00    -0.354 N 
ATOM     52  C   UNL     1      -3.737   8.591   7.902  1.00  0.00     0.074 A 
ATOM     53  C   UNL     1      -4.422   7.580   7.128  1.00  0.00     0.031 C 
ATOM     54  C   UNL     1       2.042   8.899   5.102  1.00  0.00     0.029 A 
ATOM     55  C   UNL     1       1.556   9.684   6.233  1.00  0.00     0.049 A 
ATOM     56  H   UNL     1      -0.304   9.552   7.161  1.00  0.00     0.167 HD
ATOM     57  C   UNL     1      -4.295   9.259   8.940  1.00  0.00     0.031 A 
ATOM     58  C   UNL     1       2.255  10.642   6.871  1.00  0.00     0.031 A 
ATOM     59  C   UNL     1      -3.603  10.244   9.727  1.00  0.00     0.049 A 
ATOM     60  C   UNL     1       1.626  11.352   8.037  1.00  0.00     0.074 A 
ATOM     61  C   UNL     1      -4.056  10.930  10.841  1.00  0.00     0.029 A 
ATOM     62  N   UNL     1      -2.309  10.680   9.487  1.00  0.00    -0.354 N 
ATOM     63  N   UNL     1       0.428  11.194   8.549  1.00  0.00    -0.248 NA
ATOM     64  C   UNL     1       2.447  12.360   8.721  1.00  0.00     0.031 C 
ATOM     65  C   UNL     1      -3.049  11.813  11.248  1.00  0.00     0.029 A 
ATOM     66  C   UNL     1      -1.952  11.639  10.419  1.00  0.00     0.049 A 
ATOM     67  H   UNL     1      -1.729  10.356   8.761  1.00  0.00     0.167 HD
ATOM     68  C   UNL     1       0.360  12.068   9.627  1.00  0.00     0.074 A 
ATOM     69  C   UNL     1       1.644  12.736   9.706  1.00  0.00     0.031 C 
ATOM     70  C   UNL     1      -0.673  12.300  10.476  1.00  0.00     0.031 A 
BRANCH  57  71
ATOM     71  C   UNL     1      -5.728   8.940   9.281  1.00  0.00    -0.014 A 
ATOM     72  C   UNL     1      -6.082   7.697   9.838  1.00  0.00     0.010 A 
ATOM     73  C   UNL     1      -6.731   9.901   9.064  1.00  0.00     0.010 A 
ATOM     74  C   UNL     1      -7.418   7.402  10.123  1.00  0.00     0.020 A 
ATOM     75  C   UNL     1      -8.066   9.622   9.375  1.00  0.00     0.020 A 
ATOM     76  C   UNL     1      -8.402   8.365   9.884  1.00  0.00     0.054 A 
BRANCH  76  77
ATOM     77  S   UNL     1     -10.127   7.960  10.273  1.00  0.00     0.124 S 
ATOM     78  O   UNL     1     -10.475   7.053   9.182  1.00  0.00    -0.237 OA
ATOM     79  O   UNL     1     -10.023   7.344  11.593  1.00  0.00    -0.237 OA
ATOM     80  O   UNL     1     -10.802   9.256  10.244  1.00  0.00    -0.744 OA
ENDBRANCH  76  77
ENDBRANCH  57  71
BRANCH  58  81
ATOM     81  C   UNL     1       3.641  10.966   6.436  1.00  0.00    -0.014 A 
ATOM     82  C   UNL     1       4.742  10.591   7.227  1.00  0.00     0.010 A 
ATOM     83  C   UNL     1       3.870  11.634   5.220  1.00  0.00     0.010 A 
ATOM     84  C   UNL     1       6.044  10.892   6.819  1.00  0.00     0.020 A 
ATOM     85  C   UNL     1       5.172  11.914   4.795  1.00  0.00     0.020 A 
ATOM     86  C   UNL     1       6.251  11.550   5.603  1.00  0.00     0.054 A 
BRANCH  86  87
ATOM     87  S   UNL     1       7.952  11.876   5.061  1.00  0.00     0.124 S 
ATOM     88  O   UNL     1       8.336  12.990   5.920  1.00  0.00    -0.237 OA
ATOM     89  O   UNL     1       8.619  10.605   5.333  1.00  0.00    -0.237 OA
ATOM     90  O   UNL     1       7.801  12.198   3.643  1.00  0.00    -0.744 OA
ENDBRANCH  86  87
ENDBRANCH  58  81
BRANCH  70  91
ATOM     91  C   UNL     1      -0.447  13.304  11.573  1.00  0.00    -0.014 A 
ATOM     92  C   UNL     1      -0.376  14.680  11.295  1.00  0.00     0.010 A 
ATOM     93  C   UNL     1      -0.337  12.866  12.905  1.00  0.00     0.010 A 
ATOM     94  C   UNL     1      -0.159  15.598  12.325  1.00  0.00     0.020 A 
ATOM     95  C   UNL     1      -0.148  13.783  13.942  1.00  0.00     0.020 A 
ATOM     96  C   UNL     1      -0.041  15.142  13.642  1.00  0.00     0.054 A 
BRANCH  96  97
ATOM     97  S   UNL     1       0.215  16.354  14.966  1.00  0.00     0.124 S 
ATOM     98  O   UNL     1       1.623  16.701  14.790  1.00  0.00    -0.237 OA
ATOM     99  O   UNL     1      -0.739  17.407  14.629  1.00  0.00    -0.237 OA
ATOM    100  O   UNL     1      -0.095  15.607  16.183  1.00  0.00    -0.744 OA
ENDBRANCH  96  97
ENDBRANCH  70  91
ENDBRANCH  44  45
ENDBRANCH  36  39
ENDBRANCH  34  35
ENDBRANCH  33  34
ENDBRANCH  32  33
ENDBRANCH   1  32
TORSDOF 19
