REMARK SMILES CC(C)=CC[C@H](C(=O)NCCCCCCNC(=O)c1ccc(-c2c3nc(c(-c4ccc(S(=O)(=O)[O-])cc4)c4ccc([nH]4)c(-c4ccc(S(=O)(=O)[O-])cc4)c4nc(c(-c5ccc(S(=O)(=O)[O-])cc5)c5ccc2[nH]5)C=C4)C=C3)cc1)c1ccccc1
REMARK SMILES IDX 13 1 12 2 11 3 10 4 9 5 7 6 8 7 6 9 5 10 4 11 1 12 2 13 3 14
REMARK SMILES IDX 79 15 80 16 84 17 81 18 83 19 82 20 14 21 15 22 16 23 17 24
REMARK SMILES IDX 18 26 19 27 20 28 78 29 21 30 77 31 22 32 23 33 24 34 71 35
REMARK SMILES IDX 25 36 76 37 70 38 72 39 26 40 75 41 69 42 68 43 27 45 57 46
REMARK SMILES IDX 38 47 56 48 39 49 42 50 55 51 73 52 40 53 41 54 54 56 74 57
REMARK SMILES IDX 43 58 28 59 29 60 37 61 30 62 36 63 31 64 32 65 33 66 34 67
REMARK SMILES IDX 35 68 58 69 59 70 67 71 60 72 66 73 61 74 62 75 63 76 64 77
REMARK SMILES IDX 65 78 44 79 45 80 53 81 46 82 52 83 47 84 48 85 49 86 50 87
REMARK SMILES IDX 51 88
REMARK H PARENT 9 8 16 25 72 44 42 55
REMARK Flexibility Score: inf
ROOT
ATOM      1  C   UNL     1       1.565  -2.864  -0.697  1.00  0.00     0.002 C 
ENDROOT
BRANCH   1   2
ATOM      2  C   UNL     1       1.819  -2.889   0.812  1.00  0.00     0.002 C 
BRANCH   2   3
ATOM      3  C   UNL     1       3.008  -2.043   1.290  1.00  0.00     0.021 C 
BRANCH   3   4
ATOM      4  C   UNL     1       2.881  -0.540   1.022  1.00  0.00     0.116 C 
BRANCH   4   5
ATOM      5  N   UNL     1       1.694   0.010   1.654  1.00  0.00    -0.356 N 
ATOM      6  C   UNL     1       1.576   0.823   2.747  1.00  0.00     0.227 C 
ATOM      7  O   UNL     1       0.465   0.884   3.277  1.00  0.00    -0.274 OA
ATOM      8  H   UNL     1       0.842  -0.242   1.230  1.00  0.00     0.163 HD
BRANCH   6   9
ATOM      9  C   UNL     1       2.811   1.572   3.276  1.00  0.00     0.112 C 
BRANCH   9  10
ATOM     10  C   UNL     1       2.432   2.940   3.909  1.00  0.00     0.045 C 
BRANCH  10  11
ATOM     11  C   UNL     1       1.352   3.739   3.218  1.00  0.00    -0.027 C 
ATOM     12  C   UNL     1      -0.168   3.775   5.210  1.00  0.00     0.039 C 
ATOM     13  C   UNL     1       0.189   4.118   3.788  1.00  0.00    -0.080 C 
ATOM     14  C   UNL     1      -0.840   4.871   2.993  1.00  0.00     0.039 C 
ENDBRANCH  10  11
ENDBRANCH   9  10
BRANCH   9  15
ATOM     15  C   UNL     1       3.645   0.749   4.270  1.00  0.00    -0.035 A 
ATOM     16  C   UNL     1       3.293  -0.555   4.653  1.00  0.00     0.004 A 
ATOM     17  C   UNL     1       4.810   1.302   4.834  1.00  0.00     0.004 A 
ATOM     18  C   UNL     1       4.086  -1.290   5.538  1.00  0.00     0.000 A 
ATOM     19  C   UNL     1       5.584   0.580   5.747  1.00  0.00     0.000 A 
ATOM     20  C   UNL     1       5.228  -0.720   6.090  1.00  0.00     0.000 A 
ENDBRANCH   9  15
ENDBRANCH   6   9
ENDBRANCH   4   5
ENDBRANCH   3   4
ENDBRANCH   2   3
ENDBRANCH   1   2
BRANCH   1  21
ATOM     21  C   UNL     1       2.756  -3.283  -1.561  1.00  0.00     0.021 C 
BRANCH  21  22
ATOM     22  C   UNL     1       3.337  -4.656  -1.236  1.00  0.00     0.116 C 
BRANCH  22  23
ATOM     23  N   UNL     1       2.408  -5.737  -1.527  1.00  0.00    -0.352 N 
ATOM     24  C   UNL     1       2.632  -6.882  -2.255  1.00  0.00     0.251 C 
ATOM     25  H   UNL     1       1.502  -5.636  -1.155  1.00  0.00     0.163 HD
ATOM     26  O   UNL     1       1.703  -7.629  -2.548  1.00  0.00    -0.269 OA
BRANCH  24  27
ATOM     27  C   UNL     1       4.006  -7.188  -2.705  1.00  0.00     0.039 A 
ATOM     28  C   UNL     1       4.238  -7.455  -4.057  1.00  0.00     0.014 A 
ATOM     29  C   UNL     1       5.066  -7.165  -1.795  1.00  0.00     0.014 A 
ATOM     30  C   UNL     1       5.548  -7.626  -4.511  1.00  0.00     0.010 A 
ATOM     31  C   UNL     1       6.373  -7.276  -2.259  1.00  0.00     0.010 A 
ATOM     32  C   UNL     1       6.628  -7.500  -3.622  1.00  0.00    -0.014 A 
BRANCH  32  33
ATOM     33  C   UNL     1       8.037  -7.588  -4.084  1.00  0.00     0.031 A 
ATOM     34  C   UNL     1       8.917  -8.703  -3.592  1.00  0.00     0.074 A 
ATOM     35  C   UNL     1       8.550  -6.615  -4.864  1.00  0.00     0.049 A 
ATOM     36  N   UNL     1      10.202  -8.876  -3.762  1.00  0.00    -0.248 NA
ATOM     37  C   UNL     1       8.271  -9.747  -2.780  1.00  0.00     0.031 C 
ATOM     38  C   UNL     1       7.807  -5.466  -5.387  1.00  0.00     0.029 A 
ATOM     39  N   UNL     1       9.825  -6.427  -5.336  1.00  0.00    -0.354 N 
ATOM     40  C   UNL     1      10.524 -10.030  -3.058  1.00  0.00     0.074 A 
ATOM     41  C   UNL     1       9.307 -10.496  -2.429  1.00  0.00     0.031 C 
ATOM     42  C   UNL     1       8.637  -4.700  -6.115  1.00  0.00     0.029 A 
ATOM     43  C   UNL     1       9.978  -5.276  -6.073  1.00  0.00     0.049 A 
ATOM     44  H   UNL     1      10.562  -7.058  -5.164  1.00  0.00     0.167 HD
ATOM     45  C   UNL     1      11.722 -10.653  -2.954  1.00  0.00     0.031 A 
ATOM     46  C   UNL     1      11.075  -4.732  -6.636  1.00  0.00     0.031 A 
ATOM     47  C   UNL     1      12.927 -10.195  -3.593  1.00  0.00     0.049 A 
ATOM     48  C   UNL     1      12.399  -5.434  -6.496  1.00  0.00     0.074 A 
ATOM     49  C   UNL     1      14.178 -10.786  -3.589  1.00  0.00     0.029 A 
ATOM     50  N   UNL     1      13.030  -9.039  -4.350  1.00  0.00    -0.354 N 
ATOM     51  N   UNL     1      12.674  -6.551  -5.865  1.00  0.00    -0.248 NA
ATOM     52  C   UNL     1      13.558  -4.808  -7.147  1.00  0.00     0.031 C 
ATOM     53  C   UNL     1      15.050  -9.963  -4.308  1.00  0.00     0.029 A 
ATOM     54  C   UNL     1      14.329  -8.888  -4.804  1.00  0.00     0.049 A 
ATOM     55  H   UNL     1      12.290  -8.417  -4.537  1.00  0.00     0.167 HD
ATOM     56  C   UNL     1      14.030  -6.777  -6.071  1.00  0.00     0.074 A 
ATOM     57  C   UNL     1      14.520  -5.684  -6.885  1.00  0.00     0.031 C 
ATOM     58  C   UNL     1      14.798  -7.802  -5.627  1.00  0.00     0.031 A 
BRANCH  45  59
ATOM     59  C   UNL     1      11.789 -11.894  -2.106  1.00  0.00    -0.014 A 
ATOM     60  C   UNL     1      11.187 -13.094  -2.526  1.00  0.00     0.010 A 
ATOM     61  C   UNL     1      12.494 -11.871  -0.888  1.00  0.00     0.010 A 
ATOM     62  C   UNL     1      11.250 -14.236  -1.723  1.00  0.00     0.020 A 
ATOM     63  C   UNL     1      12.582 -13.019  -0.095  1.00  0.00     0.020 A 
ATOM     64  C   UNL     1      11.943 -14.189  -0.509  1.00  0.00     0.054 A 
BRANCH  64  65
ATOM     65  S   UNL     1      12.021 -15.689   0.507  1.00  0.00     0.124 S 
ATOM     66  O   UNL     1      10.670 -15.746   1.061  1.00  0.00    -0.237 OA
ATOM     67  O   UNL     1      12.341 -16.725  -0.472  1.00  0.00    -0.237 OA
ATOM     68  O   UNL     1      13.078 -15.400   1.472  1.00  0.00    -0.744 OA
ENDBRANCH  64  65
ENDBRANCH  45  59
BRANCH  46  69
ATOM     69  C   UNL     1      10.966  -3.453  -7.389  1.00  0.00    -0.014 A 
ATOM     70  C   UNL     1      11.076  -3.441  -8.790  1.00  0.00     0.010 A 
ATOM     71  C   UNL     1      10.733  -2.243  -6.710  1.00  0.00     0.010 A 
ATOM     72  C   UNL     1      10.967  -2.241  -9.499  1.00  0.00     0.020 A 
ATOM     73  C   UNL     1      10.599  -1.045  -7.418  1.00  0.00     0.020 A 
ATOM     74  C   UNL     1      10.727  -1.050  -8.808  1.00  0.00     0.054 A 
BRANCH  74  75
ATOM     75  S   UNL     1      10.533   0.487  -9.753  1.00  0.00     0.124 S 
ATOM     76  O   UNL     1      11.909   0.786 -10.132  1.00  0.00    -0.237 OA
ATOM     77  O   UNL     1       9.649   0.079 -10.842  1.00  0.00    -0.237 OA
ATOM     78  O   UNL     1       9.933   1.406  -8.787  1.00  0.00    -0.744 OA
ENDBRANCH  74  75
ENDBRANCH  46  69
BRANCH  58  79
ATOM     79  C   UNL     1      16.243  -7.828  -6.046  1.00  0.00    -0.014 A 
ATOM     80  C   UNL     1      17.189  -6.975  -5.452  1.00  0.00     0.010 A 
ATOM     81  C   UNL     1      16.672  -8.792  -6.977  1.00  0.00     0.010 A 
ATOM     82  C   UNL     1      18.541  -7.082  -5.789  1.00  0.00     0.020 A 
ATOM     83  C   UNL     1      18.026  -8.916  -7.298  1.00  0.00     0.020 A 
ATOM     84  C   UNL     1      18.952  -8.056  -6.705  1.00  0.00     0.054 A 
BRANCH  84  85
ATOM     85  S   UNL     1      20.722  -8.231  -7.061  1.00  0.00     0.124 S 
ATOM     86  O   UNL     1      20.978  -7.070  -7.909  1.00  0.00    -0.237 OA
ATOM     87  O   UNL     1      21.323  -8.182  -5.730  1.00  0.00    -0.237 OA
ATOM     88  O   UNL     1      20.815  -9.525  -7.732  1.00  0.00    -0.744 OA
ENDBRANCH  84  85
ENDBRANCH  58  79
ENDBRANCH  32  33
ENDBRANCH  24  27
ENDBRANCH  22  23
ENDBRANCH  21  22
ENDBRANCH   1  21
TORSDOF 19
