REMARK SMILES O=C(NCCCCCCNC(=O)c1cc(Br)cc2c1N[C@H](c1cccc([N+](=O)[O-])c1)[C@H]1CC=C[C@H]21)c1ccc(-c2c3nc(c(-c4ccc(S(=O)(=O)[O-])cc4)c4ccc([nH]4)c(-c4ccc(S(=O)(=O)[O-])cc4)c4nc(c(-c5ccc(S(=O)(=O)[O-])cc5)c5ccc2[nH]5)C=C4)C=C3)cc1
REMARK SMILES IDX 6 1 5 2 4 3 3 4 1 5 2 6 36 8 37 9 95 10 38 11 94 12 39 13
REMARK SMILES IDX 40 14 41 15 88 16 42 17 93 18 87 19 89 20 43 21 92 22 86 23
REMARK SMILES IDX 85 24 44 26 74 27 55 28 73 29 56 30 59 31 72 32 90 33 57 34
REMARK SMILES IDX 58 35 71 37 91 38 60 39 45 40 46 41 54 42 47 43 53 44 48 45
REMARK SMILES IDX 49 46 50 47 51 48 52 49 75 50 76 51 84 52 77 53 83 54 78 55
REMARK SMILES IDX 79 56 80 57 81 58 82 59 61 60 62 61 70 62 63 63 69 64 64 65
REMARK SMILES IDX 65 66 66 67 67 68 68 69 7 70 8 71 9 72 10 73 11 74 12 76
REMARK SMILES IDX 13 77 14 78 19 79 15 80 18 81 20 82 16 83 17 84 35 85 21 86
REMARK SMILES IDX 31 88 34 89 32 90 33 91 22 92 23 93 30 94 24 95 26 96 25 97
REMARK SMILES IDX 27 98 28 99 29 100
REMARK H PARENT 3 7 89 25 59 36 10 75 20 87
REMARK Flexibility Score: inf
ROOT
ATOM      1  C   UNL     1       4.082  -3.795   1.203  1.00  0.00     0.002 C 
ENDROOT
BRANCH   1   2
ATOM      2  C   UNL     1       4.566  -2.354   1.361  1.00  0.00     0.021 C 
BRANCH   2   3
ATOM      3  C   UNL     1       4.307  -1.432   0.177  1.00  0.00     0.116 C 
BRANCH   3   4
ATOM      4  N   UNL     1       2.892  -1.184  -0.014  1.00  0.00    -0.352 N 
ATOM      5  O   UNL     1       0.975  -0.023   0.012  1.00  0.00    -0.269 OA
ATOM      6  C   UNL     1       2.203   0.003  -0.035  1.00  0.00     0.251 C 
ATOM      7  H   UNL     1       2.341  -1.989  -0.149  1.00  0.00     0.163 HD
BRANCH   6   8
ATOM      8  C   UNL     1       2.910   1.306  -0.123  1.00  0.00     0.039 A 
ATOM      9  C   UNL     1       2.354   2.414   0.525  1.00  0.00     0.014 A 
ATOM     10  C   UNL     1       4.052   1.473  -0.913  1.00  0.00     0.014 A 
ATOM     11  C   UNL     1       2.933   3.679   0.379  1.00  0.00     0.010 A 
ATOM     12  C   UNL     1       4.676   2.718  -0.993  1.00  0.00     0.010 A 
ATOM     13  C   UNL     1       4.097   3.842  -0.387  1.00  0.00    -0.014 A 
BRANCH  13  14
ATOM     14  C   UNL     1       4.656   5.190  -0.672  1.00  0.00     0.031 A 
ATOM     15  C   UNL     1       4.641   5.706  -2.089  1.00  0.00     0.074 A 
ATOM     16  C   UNL     1       5.188   5.940   0.313  1.00  0.00     0.049 A 
ATOM     17  N   UNL     1       5.159   6.805  -2.574  1.00  0.00    -0.248 NA
ATOM     18  C   UNL     1       3.975   4.865  -3.100  1.00  0.00     0.031 C 
ATOM     19  C   UNL     1       5.254   5.558   1.723  1.00  0.00     0.029 A 
ATOM     20  N   UNL     1       5.774   7.183   0.276  1.00  0.00    -0.354 N 
ATOM     21  C   UNL     1       4.898   6.776  -3.939  1.00  0.00     0.074 A 
ATOM     22  C   UNL     1       4.225   5.529  -4.219  1.00  0.00     0.031 C 
ATOM     23  C   UNL     1       5.818   6.558   2.421  1.00  0.00     0.029 A 
ATOM     24  C   UNL     1       6.200   7.630   1.504  1.00  0.00     0.049 A 
ATOM     25  H   UNL     1       5.878   7.704  -0.553  1.00  0.00     0.167 HD
ATOM     26  C   UNL     1       5.167   7.717  -4.872  1.00  0.00     0.031 A 
ATOM     27  C   UNL     1       6.833   8.770   1.855  1.00  0.00     0.031 A 
ATOM     28  C   UNL     1       5.796   8.977  -4.581  1.00  0.00     0.049 A 
ATOM     29  C   UNL     1       7.149   9.793   0.796  1.00  0.00     0.074 A 
ATOM     30  C   UNL     1       6.078  10.012  -5.454  1.00  0.00     0.029 A 
ATOM     31  N   UNL     1       6.221   9.382  -3.325  1.00  0.00    -0.354 N 
ATOM     32  N   UNL     1       6.880   9.755  -0.488  1.00  0.00    -0.248 NA
ATOM     33  C   UNL     1       7.844  11.015   1.226  1.00  0.00     0.031 C 
ATOM     34  C   UNL     1       6.726  11.019  -4.739  1.00  0.00     0.029 A 
ATOM     35  C   UNL     1       6.781  10.644  -3.405  1.00  0.00     0.049 A 
ATOM     36  H   UNL     1       6.137   8.851  -2.500  1.00  0.00     0.167 HD
ATOM     37  C   UNL     1       7.349  10.955  -1.012  1.00  0.00     0.074 A 
ATOM     38  C   UNL     1       7.910  11.704   0.093  1.00  0.00     0.031 C 
ATOM     39  C   UNL     1       7.318  11.391  -2.295  1.00  0.00     0.031 A 
BRANCH  26  40
ATOM     40  C   UNL     1       4.763   7.451  -6.299  1.00  0.00    -0.014 A 
ATOM     41  C   UNL     1       5.749   7.318  -7.293  1.00  0.00     0.010 A 
ATOM     42  C   UNL     1       3.408   7.462  -6.677  1.00  0.00     0.010 A 
ATOM     43  C   UNL     1       5.391   7.238  -8.642  1.00  0.00     0.020 A 
ATOM     44  C   UNL     1       3.045   7.350  -8.022  1.00  0.00     0.020 A 
ATOM     45  C   UNL     1       4.040   7.267  -8.998  1.00  0.00     0.054 A 
BRANCH  45  46
ATOM     46  S   UNL     1       3.596   7.205 -10.755  1.00  0.00     0.124 S 
ATOM     47  O   UNL     1       3.937   8.550 -11.207  1.00  0.00    -0.237 OA
ATOM     48  O   UNL     1       4.450   6.133 -11.262  1.00  0.00    -0.237 OA
ATOM     49  O   UNL     1       2.168   6.894 -10.736  1.00  0.00    -0.744 OA
ENDBRANCH  45  46
ENDBRANCH  26  40
BRANCH  27  50
ATOM     50  C   UNL     1       7.173   9.005   3.287  1.00  0.00    -0.014 A 
ATOM     51  C   UNL     1       8.133   8.207   3.937  1.00  0.00     0.010 A 
ATOM     52  C   UNL     1       6.484   9.980   4.031  1.00  0.00     0.010 A 
ATOM     53  C   UNL     1       8.359   8.340   5.310  1.00  0.00     0.020 A 
ATOM     54  C   UNL     1       6.729  10.137   5.399  1.00  0.00     0.020 A 
ATOM     55  C   UNL     1       7.644   9.295   6.036  1.00  0.00     0.054 A 
BRANCH  55  56
ATOM     56  S   UNL     1       7.915   9.414   7.826  1.00  0.00     0.124 S 
ATOM     57  O   UNL     1       7.194   8.243   8.317  1.00  0.00    -0.237 OA
ATOM     58  O   UNL     1       9.370   9.346   7.934  1.00  0.00    -0.237 OA
ATOM     59  O   UNL     1       7.327  10.704   8.177  1.00  0.00    -0.744 OA
ENDBRANCH  55  56
ENDBRANCH  27  50
BRANCH  39  60
ATOM     60  C   UNL     1       7.884  12.751  -2.612  1.00  0.00    -0.014 A 
ATOM     61  C   UNL     1       7.021  13.773  -3.053  1.00  0.00     0.010 A 
ATOM     62  C   UNL     1       9.273  12.959  -2.658  1.00  0.00     0.010 A 
ATOM     63  C   UNL     1       7.537  14.956  -3.587  1.00  0.00     0.020 A 
ATOM     64  C   UNL     1       9.792  14.154  -3.165  1.00  0.00     0.020 A 
ATOM     65  C   UNL     1       8.921  15.130  -3.656  1.00  0.00     0.054 A 
BRANCH  65  66
ATOM     66  S   UNL     1       9.574  16.639  -4.425  1.00  0.00     0.124 S 
ATOM     67  O   UNL     1       9.349  16.383  -5.844  1.00  0.00    -0.237 OA
ATOM     68  O   UNL     1       8.743  17.686  -3.834  1.00  0.00    -0.237 OA
ATOM     69  O   UNL     1      10.975  16.657  -4.008  1.00  0.00    -0.744 OA
ENDBRANCH  65  66
ENDBRANCH  39  60
ENDBRANCH  13  14
ENDBRANCH   6   8
ENDBRANCH   3   4
ENDBRANCH   2   3
ENDBRANCH   1   2
BRANCH   1  70
ATOM     70  C   UNL     1       4.653  -4.558   0.004  1.00  0.00     0.002 C 
BRANCH  70  71
ATOM     71  C   UNL     1       6.179  -4.544  -0.135  1.00  0.00     0.021 C 
BRANCH  71  72
ATOM     72  C   UNL     1       6.955  -5.003   1.096  1.00  0.00     0.116 C 
BRANCH  72  73
ATOM     73  N   UNL     1       6.682  -6.387   1.449  1.00  0.00    -0.352 N 
ATOM     74  C   UNL     1       7.578  -7.384   1.752  1.00  0.00     0.253 C 
ATOM     75  H   UNL     1       5.732  -6.643   1.474  1.00  0.00     0.163 HD
ATOM     76  O   UNL     1       7.185  -8.530   1.958  1.00  0.00    -0.269 OA
BRANCH  74  77
ATOM     77  C   UNL     1       9.026  -7.087   1.798  1.00  0.00     0.064 A 
ATOM     78  C   UNL     1       9.838  -7.810   0.917  1.00  0.00     0.031 A 
ATOM     79  C   UNL     1       9.571  -6.126   2.676  1.00  0.00     0.051 A 
ATOM     80  C   UNL     1      11.201  -7.542   0.868  1.00  0.00     0.019 A 
ATOM     81  C   UNL     1      10.950  -5.828   2.563  1.00  0.00    -0.016 A 
ATOM     82  N   UNL     1       8.779  -5.435   3.588  1.00  0.00    -0.377 N 
ATOM     83  Br  UNL     1      12.303  -8.518  -0.319  1.00  0.00    -0.051 Br
ATOM     84  C   UNL     1      11.760  -6.554   1.678  1.00  0.00     0.022 A 
ATOM     85  C   UNL     1      11.493  -4.782   3.496  1.00  0.00     0.049 C 
ATOM     86  C   UNL     1       9.224  -4.264   4.355  1.00  0.00     0.114 C 
ATOM     87  H   UNL     1       7.858  -5.752   3.729  1.00  0.00     0.161 HD
ATOM     88  C   UNL     1      10.437  -3.669   3.638  1.00  0.00     0.031 C 
ATOM     89  C   UNL     1      12.691  -3.958   3.138  1.00  0.00    -0.023 C 
ATOM     90  C   UNL     1      11.213  -2.520   4.276  1.00  0.00     0.034 C 
ATOM     91  C   UNL     1      12.550  -2.710   3.612  1.00  0.00    -0.030 C 
BRANCH  86  92
ATOM     92  C   UNL     1       8.000  -3.370   4.544  1.00  0.00    -0.019 A 
ATOM     93  C   UNL     1       6.935  -3.853   5.335  1.00  0.00     0.006 A 
ATOM     94  C   UNL     1       7.839  -2.123   3.921  1.00  0.00     0.091 A 
ATOM     95  C   UNL     1       5.747  -3.132   5.487  1.00  0.00     0.007 A 
ATOM     96  C   UNL     1       6.652  -1.387   4.097  1.00  0.00     0.269 A 
ATOM     97  C   UNL     1       5.603  -1.892   4.873  1.00  0.00     0.085 A 
BRANCH  96  98
ATOM     98  N   UNL     1       6.481  -0.106   3.397  1.00  0.00     0.062 N 
ATOM     99  O   UNL     1       5.436   0.526   3.601  1.00  0.00    -0.258 OA
ATOM    100  O   UNL     1       7.374   0.239   2.610  1.00  0.00    -0.258 OA
ENDBRANCH  96  98
ENDBRANCH  86  92
ENDBRANCH  74  77
ENDBRANCH  72  73
ENDBRANCH  71  72
ENDBRANCH  70  71
ENDBRANCH   1  70
TORSDOF 18
