REMARK SMILES CC[NH+]1CCC2(CC1)OC[C@H](C(=O)NCCCCCCNC(=O)c1ccc(-c3c4nc(c(-c5ccc(S(=O)(=O)[O-])cc5)c5ccc([nH]5)c(-c5ccc(S(=O)(=O)[O-])cc5)c5nc(c(-c6ccc(S(=O)(=O)[O-])cc6)c6ccc3[nH]6)C=C5)C=C4)cc1)N2C(=O)c1ccc(F)cc1
REMARK SMILES IDX 18 1 17 2 16 3 15 4 14 5 12 6 13 7 11 9 3 10 4 11 8 12 5 14
REMARK SMILES IDX 7 15 6 16 9 17 84 18 10 19 2 20 1 21 85 22 86 23 87 24 88 25
REMARK SMILES IDX 93 26 89 27 92 28 90 29 91 30 19 31 20 32 21 33 22 34 23 36
REMARK SMILES IDX 24 37 25 38 83 39 26 40 82 41 27 42 28 43 29 44 76 45 30 46
REMARK SMILES IDX 81 47 75 48 77 49 31 50 80 51 74 52 73 53 32 55 62 56 43 57
REMARK SMILES IDX 61 58 44 59 47 60 60 61 78 62 45 63 46 64 59 66 79 67 48 68
REMARK SMILES IDX 33 69 34 70 42 71 35 72 41 73 36 74 37 75 38 76 39 77 40 78
REMARK SMILES IDX 63 79 64 80 72 81 65 82 71 83 66 84 67 85 68 86 69 87 70 88
REMARK SMILES IDX 49 89 50 90 58 91 51 92 57 93 52 94 53 95 54 96 55 97 56 98
REMARK H PARENT 14 8 3 13 21 35 77 54 47 65
REMARK Flexibility Score: inf
ROOT
ATOM      1  C   UNL     1       0.486   7.518   2.483  1.00  0.00     0.002 C 
ENDROOT
BRANCH   1   2
ATOM      2  C   UNL     1       1.165   6.546   3.452  1.00  0.00     0.002 C 
BRANCH   2   3
ATOM      3  C   UNL     1       1.850   5.343   2.806  1.00  0.00     0.021 C 
BRANCH   3   4
ATOM      4  C   UNL     1       3.014   5.676   1.868  1.00  0.00     0.116 C 
BRANCH   4   5
ATOM      5  N   UNL     1       4.291   5.479   2.520  1.00  0.00    -0.354 N 
ATOM      6  C   UNL     1       5.345   4.657   2.275  1.00  0.00     0.245 C 
ATOM      7  O   UNL     1       6.299   4.793   3.057  1.00  0.00    -0.273 OA
ATOM      8  H   UNL     1       4.424   6.061   3.303  1.00  0.00     0.163 HD
BRANCH   6   9
ATOM      9  C   UNL     1       5.494   3.700   1.059  1.00  0.00     0.203 C 
ATOM     10  N   UNL     1       1.077   1.049   0.165  1.00  0.00    -0.335 N 
ATOM     11  C   UNL     1       1.345   2.191   1.033  1.00  0.00     0.267 C 
ATOM     12  C   UNL     1       2.170   0.723  -0.745  1.00  0.00     0.267 C 
ATOM     13  H   UNL     1       0.366   1.329  -0.511  1.00  0.00     0.348 HD
ATOM     14  C   UNL     1       2.685   2.095   1.732  1.00  0.00     0.120 C 
ATOM     15  C   UNL     1       3.600   0.821  -0.212  1.00  0.00     0.120 C 
ATOM     16  C   UNL     1       3.859   1.976   0.760  1.00  0.00     0.155 C 
ATOM     17  O   UNL     1       4.941   1.491   1.622  1.00  0.00    -0.352 OA
ATOM     18  N   UNL     1       4.378   3.261   0.233  1.00  0.00    -0.295 N 
ATOM     19  C   UNL     1       6.058   2.381   1.536  1.00  0.00     0.198 C 
BRANCH  10  20
ATOM     20  C   UNL     1       0.421  -0.046   0.879  1.00  0.00     0.258 C 
ATOM     21  C   UNL     1       0.203  -1.328   0.086  1.00  0.00     0.071 C 
ENDBRANCH  10  20
BRANCH  18  22
ATOM     22  C   UNL     1       4.126   4.043  -0.889  1.00  0.00     0.256 C 
ATOM     23  O   UNL     1       4.751   5.080  -1.119  1.00  0.00    -0.269 OA
BRANCH  22  24
ATOM     24  C   UNL     1       3.089   3.725  -1.875  1.00  0.00     0.040 A 
ATOM     25  C   UNL     1       3.417   3.005  -3.030  1.00  0.00     0.017 A 
ATOM     26  C   UNL     1       1.819   4.301  -1.739  1.00  0.00     0.017 A 
ATOM     27  C   UNL     1       2.425   2.751  -3.982  1.00  0.00     0.040 A 
ATOM     28  C   UNL     1       0.828   4.029  -2.680  1.00  0.00     0.040 A 
ATOM     29  C   UNL     1       1.135   3.242  -3.785  1.00  0.00     0.123 A 
ATOM     30  F   UNL     1       0.178   2.957  -4.675  1.00  0.00    -0.207 F 
ENDBRANCH  22  24
ENDBRANCH  18  22
ENDBRANCH   6   9
ENDBRANCH   4   5
ENDBRANCH   3   4
ENDBRANCH   2   3
ENDBRANCH   1   2
BRANCH   1  31
ATOM     31  C   UNL     1      -0.455   6.896   1.445  1.00  0.00     0.021 C 
BRANCH  31  32
ATOM     32  C   UNL     1      -1.559   5.998   2.001  1.00  0.00     0.116 C 
BRANCH  32  33
ATOM     33  N   UNL     1      -2.415   6.694   2.945  1.00  0.00    -0.352 N 
ATOM     34  C   UNL     1      -3.743   7.020   2.858  1.00  0.00     0.251 C 
ATOM     35  H   UNL     1      -1.972   6.976   3.778  1.00  0.00     0.163 HD
ATOM     36  O   UNL     1      -4.229   7.797   3.684  1.00  0.00    -0.269 OA
BRANCH  34  37
ATOM     37  C   UNL     1      -4.594   6.465   1.784  1.00  0.00     0.039 A 
ATOM     38  C   UNL     1      -5.490   7.315   1.129  1.00  0.00     0.014 A 
ATOM     39  C   UNL     1      -4.552   5.107   1.454  1.00  0.00     0.014 A 
ATOM     40  C   UNL     1      -6.307   6.815   0.111  1.00  0.00     0.010 A 
ATOM     41  C   UNL     1      -5.324   4.623   0.397  1.00  0.00     0.010 A 
ATOM     42  C   UNL     1      -6.214   5.470  -0.281  1.00  0.00    -0.014 A 
BRANCH  42  43
ATOM     43  C   UNL     1      -7.049   4.930  -1.387  1.00  0.00     0.031 A 
ATOM     44  C   UNL     1      -8.093   3.882  -1.104  1.00  0.00     0.074 A 
ATOM     45  C   UNL     1      -6.837   5.346  -2.652  1.00  0.00     0.049 A 
ATOM     46  N   UNL     1      -8.862   3.236  -1.943  1.00  0.00    -0.248 NA
ATOM     47  C   UNL     1      -8.286   3.497   0.304  1.00  0.00     0.031 C 
ATOM     48  C   UNL     1      -5.843   6.341  -3.062  1.00  0.00     0.029 A 
ATOM     49  N   UNL     1      -7.440   4.977  -3.829  1.00  0.00    -0.354 N 
ATOM     50  C   UNL     1      -9.619   2.363  -1.170  1.00  0.00     0.074 A 
ATOM     51  C   UNL     1      -9.186   2.529   0.200  1.00  0.00     0.031 C 
ATOM     52  C   UNL     1      -5.918   6.516  -4.392  1.00  0.00     0.029 A 
ATOM     53  C   UNL     1      -6.933   5.618  -4.935  1.00  0.00     0.049 A 
ATOM     54  H   UNL     1      -8.167   4.315  -3.876  1.00  0.00     0.167 HD
ATOM     55  C   UNL     1     -10.599   1.514  -1.562  1.00  0.00     0.031 A 
ATOM     56  C   UNL     1      -7.242   5.491  -6.240  1.00  0.00     0.031 A 
ATOM     57  C   UNL     1     -11.039   1.358  -2.923  1.00  0.00     0.049 A 
ATOM     58  C   UNL     1      -8.318   4.521  -6.651  1.00  0.00     0.074 A 
ATOM     59  C   UNL     1     -12.046   0.544  -3.413  1.00  0.00     0.029 A 
ATOM     60  N   UNL     1     -10.505   2.032  -4.010  1.00  0.00    -0.354 N 
ATOM     61  N   UNL     1      -9.048   3.733  -5.898  1.00  0.00    -0.248 NA
ATOM     62  C   UNL     1      -8.619   4.431  -8.087  1.00  0.00     0.031 C 
ATOM     63  C   UNL     1     -12.095   0.697  -4.802  1.00  0.00     0.029 A 
ATOM     64  C   UNL     1     -11.154   1.645  -5.170  1.00  0.00     0.049 A 
ATOM     65  H   UNL     1      -9.774   2.689  -3.964  1.00  0.00     0.167 HD
ATOM     66  C   UNL     1      -9.918   3.081  -6.766  1.00  0.00     0.074 A 
ATOM     67  C   UNL     1      -9.631   3.575  -8.097  1.00  0.00     0.031 C 
ATOM     68  C   UNL     1     -10.869   2.157  -6.486  1.00  0.00     0.031 A 
BRANCH  55  69
ATOM     69  C   UNL     1     -11.274   0.686  -0.499  1.00  0.00    -0.014 A 
ATOM     70  C   UNL     1     -12.156   1.277   0.423  1.00  0.00     0.010 A 
ATOM     71  C   UNL     1     -11.076  -0.707  -0.462  1.00  0.00     0.010 A 
ATOM     72  C   UNL     1     -12.806   0.495   1.381  1.00  0.00     0.020 A 
ATOM     73  C   UNL     1     -11.744  -1.496   0.479  1.00  0.00     0.020 A 
ATOM     74  C   UNL     1     -12.596  -0.887   1.403  1.00  0.00     0.054 A 
BRANCH  74  75
ATOM     75  S   UNL     1     -13.485  -1.881   2.633  1.00  0.00     0.124 S 
ATOM     76  O   UNL     1     -12.783  -1.531   3.866  1.00  0.00    -0.237 OA
ATOM     77  O   UNL     1     -14.851  -1.378   2.525  1.00  0.00    -0.237 OA
ATOM     78  O   UNL     1     -13.291  -3.254   2.175  1.00  0.00    -0.744 OA
ENDBRANCH  74  75
ENDBRANCH  55  69
BRANCH  56  79
ATOM     79  C   UNL     1      -6.529   6.303  -7.264  1.00  0.00    -0.014 A 
ATOM     80  C   UNL     1      -7.202   7.321  -7.964  1.00  0.00     0.010 A 
ATOM     81  C   UNL     1      -5.178   6.047  -7.563  1.00  0.00     0.010 A 
ATOM     82  C   UNL     1      -6.550   8.041  -8.969  1.00  0.00     0.020 A 
ATOM     83  C   UNL     1      -4.514   6.786  -8.546  1.00  0.00     0.020 A 
ATOM     84  C   UNL     1      -5.210   7.766  -9.257  1.00  0.00     0.054 A 
BRANCH  84  85
ATOM     85  S   UNL     1      -4.377   8.723 -10.553  1.00  0.00     0.124 S 
ATOM     86  O   UNL     1      -4.929   8.132 -11.767  1.00  0.00    -0.237 OA
ATOM     87  O   UNL     1      -4.803  10.090 -10.262  1.00  0.00    -0.237 OA
ATOM     88  O   UNL     1      -2.960   8.458 -10.314  1.00  0.00    -0.744 OA
ENDBRANCH  84  85
ENDBRANCH  56  79
BRANCH  68  89
ATOM     89  C   UNL     1     -11.709   1.655  -7.629  1.00  0.00    -0.014 A 
ATOM     90  C   UNL     1     -11.185   0.774  -8.590  1.00  0.00     0.010 A 
ATOM     91  C   UNL     1     -13.063   2.030  -7.707  1.00  0.00     0.010 A 
ATOM     92  C   UNL     1     -11.993   0.298  -9.626  1.00  0.00     0.020 A 
ATOM     93  C   UNL     1     -13.881   1.536  -8.726  1.00  0.00     0.020 A 
ATOM     94  C   UNL     1     -13.337   0.682  -9.687  1.00  0.00     0.054 A 
BRANCH  94  95
ATOM     95  S   UNL     1     -14.378   0.012 -11.013  1.00  0.00     0.124 S 
ATOM     96  O   UNL     1     -13.923   0.774 -12.172  1.00  0.00    -0.237 OA
ATOM     97  O   UNL     1     -14.025  -1.405 -11.014  1.00  0.00    -0.237 OA
ATOM     98  O   UNL     1     -15.739   0.308 -10.568  1.00  0.00    -0.744 OA
ENDBRANCH  94  95
ENDBRANCH  68  89
ENDBRANCH  42  43
ENDBRANCH  34  37
ENDBRANCH  32  33
ENDBRANCH  31  32
ENDBRANCH   1  31
TORSDOF 19
