REMARK SMILES COC(=O)[C@@H]1CN(C(=O)NC(=O)CCCC(=O)NCCCCCCNC(=O)c2ccc(-c3c4nc(c(-c5ccc(S(=O)(=O)[O-])cc5)c5ccc([nH]5)c(-c5ccc(S(=O)(=O)[O-])cc5)c5nc(c(-c6ccc(S(=O)(=O)[O-])cc6)c6ccc3[nH]6)C=C5)C=C4)cc2)C[C@H]1C
REMARK SMILES IDX 20 1 19 2 18 3 16 4 17 5 15 7 14 8 13 9 11 10 8 11 9 12
REMARK SMILES IDX 10 13 12 15 7 16 5 17 6 18 89 19 88 20 90 21 3 22 4 23 2 24
REMARK SMILES IDX 1 25 21 26 22 27 23 28 24 29 25 30 26 31 27 33 28 34 29 35
REMARK SMILES IDX 87 36 30 37 86 38 31 39 32 40 33 41 80 42 34 43 85 44 79 45
REMARK SMILES IDX 81 46 35 47 84 48 78 49 77 50 36 52 66 53 47 54 65 55 48 56
REMARK SMILES IDX 51 57 64 58 82 59 49 60 50 61 63 63 83 64 52 65 37 66 38 67
REMARK SMILES IDX 46 68 39 69 45 70 40 71 41 72 42 73 43 74 44 75 67 76 68 77
REMARK SMILES IDX 76 78 69 79 75 80 70 81 71 82 72 83 73 84 74 85 53 86 54 87
REMARK SMILES IDX 62 88 55 89 61 90 56 91 57 92 58 93 59 94 60 95
REMARK H PARENT 18 6 10 14 25 32 81 51 51 62
REMARK Flexibility Score: inf
ROOT
ATOM      1  C   UNL     1       5.074  -1.425   1.314  1.00  0.00     0.021 C 
ENDROOT
BRANCH   1   2
ATOM      2  C   UNL     1       5.007  -2.444   0.165  1.00  0.00     0.116 C 
BRANCH   2   3
ATOM      3  N   UNL     1       3.565  -3.221   0.235  1.00  0.00    -0.356 N 
ATOM      4  C   UNL     1       1.974  -3.562  -0.873  1.00  0.00     0.220 C 
ATOM      5  O   UNL     1       0.869  -4.073  -0.567  1.00  0.00    -0.275 OA
ATOM      6  H   UNL     1       3.462  -3.657   1.112  1.00  0.00     0.163 HD
BRANCH   4   7
ATOM      7  C   UNL     1       1.779  -3.109  -2.624  1.00  0.00     0.100 C 
BRANCH   7   8
ATOM      8  C   UNL     1       1.912  -1.748  -3.398  1.00  0.00     0.020 C 
BRANCH   8   9
ATOM      9  C   UNL     1       3.022  -0.687  -3.256  1.00  0.00     0.101 C 
BRANCH   9  10
ATOM     10  C   UNL     1       4.461  -0.994  -3.563  1.00  0.00     0.227 C 
ATOM     11  C   UNL     1       4.612  -3.316  -2.660  1.00  0.00     0.324 C 
ATOM     12  O   UNL     1       5.141  -4.398  -2.927  1.00  0.00    -0.248 OA
ATOM     13  N   UNL     1       4.968  -2.238  -3.388  1.00  0.00    -0.278 N 
ATOM     14  H   UNL     1       5.786  -2.390  -3.914  1.00  0.00     0.174 HD
ATOM     15  O   UNL     1       5.226  -0.092  -3.917  1.00  0.00    -0.275 OA
BRANCH  11  16
ATOM     16  N   UNL     1       3.714  -3.214  -1.631  1.00  0.00    -0.323 N 
ATOM     17  C   UNL     1       1.903  -2.668   1.008  1.00  0.00     0.123 C 
ATOM     18  C   UNL     1       2.720  -1.784  -0.642  1.00  0.00     0.137 C 
ATOM     19  C   UNL     1       2.372  -4.650   0.917  1.00  0.00     0.021 C 
ATOM     20  C   UNL     1       3.491  -4.916  -0.731  1.00  0.00     0.125 C 
ATOM     21  C   UNL     1       3.117  -5.204   2.168  1.00  0.00     0.010 C 
BRANCH  17  22
ATOM     22  C   UNL     1       0.445  -2.419   1.375  1.00  0.00     0.310 C 
ATOM     23  O   UNL     1      -0.229  -3.294   1.918  1.00  0.00    -0.252 OA
BRANCH  22  24
ATOM     24  O   UNL     1      -0.050  -1.163   1.297  1.00  0.00    -0.469 OA
ATOM     25  C   UNL     1       0.620  -0.032   0.733  1.00  0.00     0.282 C 
ENDBRANCH  22  24
ENDBRANCH  17  22
ENDBRANCH  11  16
ENDBRANCH   9  10
ENDBRANCH   8   9
ENDBRANCH   7   8
ENDBRANCH   4   7
ENDBRANCH   2   3
ENDBRANCH   1   2
BRANCH   1  26
ATOM     26  C   UNL     1       5.698  -1.983   2.583  1.00  0.00     0.002 C 
BRANCH  26  27
ATOM     27  C   UNL     1       7.167  -2.366   2.409  1.00  0.00     0.002 C 
BRANCH  27  28
ATOM     28  C   UNL     1       8.022  -1.281   1.750  1.00  0.00     0.021 C 
BRANCH  28  29
ATOM     29  C   UNL     1       7.892   0.088   2.406  1.00  0.00     0.116 C 
BRANCH  29  30
ATOM     30  N   UNL     1       8.213   0.026   3.822  1.00  0.00    -0.352 N 
ATOM     31  C   UNL     1       9.184   0.724   4.491  1.00  0.00     0.251 C 
ATOM     32  H   UNL     1       7.669  -0.589   4.364  1.00  0.00     0.163 HD
ATOM     33  O   UNL     1       9.533   0.399   5.618  1.00  0.00    -0.269 OA
BRANCH  31  34
ATOM     34  C   UNL     1       9.793   1.873   3.802  1.00  0.00     0.039 A 
ATOM     35  C   UNL     1      11.180   1.950   3.685  1.00  0.00     0.014 A 
ATOM     36  C   UNL     1       8.960   2.824   3.205  1.00  0.00     0.014 A 
ATOM     37  C   UNL     1      11.739   2.980   2.930  1.00  0.00     0.010 A 
ATOM     38  C   UNL     1       9.514   3.790   2.383  1.00  0.00     0.010 A 
ATOM     39  C   UNL     1      10.909   3.892   2.258  1.00  0.00    -0.014 A 
BRANCH  39  40
ATOM     40  C   UNL     1      11.454   5.013   1.458  1.00  0.00     0.031 A 
ATOM     41  C   UNL     1      11.157   6.422   1.888  1.00  0.00     0.074 A 
ATOM     42  C   UNL     1      12.122   4.770   0.316  1.00  0.00     0.049 A 
ATOM     43  N   UNL     1      11.401   7.545   1.267  1.00  0.00    -0.248 NA
ATOM     44  C   UNL     1      10.454   6.583   3.173  1.00  0.00     0.031 C 
ATOM     45  C   UNL     1      12.467   3.446  -0.204  1.00  0.00     0.029 A 
ATOM     46  N   UNL     1      12.621   5.637  -0.623  1.00  0.00    -0.354 N 
ATOM     47  C   UNL     1      10.858   8.541   2.071  1.00  0.00     0.074 A 
ATOM     48  C   UNL     1      10.213   7.883   3.185  1.00  0.00     0.031 C 
ATOM     49  C   UNL     1      13.148   3.590  -1.353  1.00  0.00     0.029 A 
ATOM     50  C   UNL     1      13.237   5.011  -1.679  1.00  0.00     0.049 A 
ATOM     51  H   UNL     1      12.546   6.616  -0.546  1.00  0.00     0.167 HD
ATOM     52  C   UNL     1      10.909   9.884   1.907  1.00  0.00     0.031 A 
ATOM     53  C   UNL     1      13.799   5.525  -2.791  1.00  0.00     0.031 A 
ATOM     54  C   UNL     1      11.549  10.523   0.790  1.00  0.00     0.049 A 
ATOM     55  C   UNL     1      13.794   7.017  -2.988  1.00  0.00     0.074 A 
ATOM     56  C   UNL     1      11.690  11.874   0.537  1.00  0.00     0.029 A 
ATOM     57  N   UNL     1      12.149   9.850  -0.266  1.00  0.00    -0.354 N 
ATOM     58  N   UNL     1      13.309   7.950  -2.203  1.00  0.00    -0.248 NA
ATOM     59  C   UNL     1      14.417   7.527  -4.217  1.00  0.00     0.031 C 
ATOM     60  C   UNL     1      12.318  12.019  -0.703  1.00  0.00     0.029 A 
ATOM     61  C   UNL     1      12.641  10.759  -1.185  1.00  0.00     0.049 A 
ATOM     62  H   UNL     1      12.214   8.871  -0.348  1.00  0.00     0.167 HD
ATOM     63  C   UNL     1      13.613   9.160  -2.818  1.00  0.00     0.074 A 
ATOM     64  C   UNL     1      14.313   8.839  -4.046  1.00  0.00     0.031 C 
ATOM     65  C   UNL     1      13.350  10.421  -2.395  1.00  0.00     0.031 A 
BRANCH  52  66
ATOM     66  C   UNL     1      10.223  10.730   2.949  1.00  0.00    -0.014 A 
ATOM     67  C   UNL     1      10.672  10.756   4.284  1.00  0.00     0.010 A 
ATOM     68  C   UNL     1       9.097  11.494   2.596  1.00  0.00     0.010 A 
ATOM     69  C   UNL     1       9.960  11.459   5.258  1.00  0.00     0.020 A 
ATOM     70  C   UNL     1       8.405  12.233   3.559  1.00  0.00     0.020 A 
ATOM     71  C   UNL     1       8.824  12.185   4.891  1.00  0.00     0.054 A 
BRANCH  71  72
ATOM     72  S   UNL     1       7.897  13.057   6.181  1.00  0.00     0.124 S 
ATOM     73  O   UNL     1       7.267  11.951   6.897  1.00  0.00    -0.237 OA
ATOM     74  O   UNL     1       8.949  13.760   6.911  1.00  0.00    -0.237 OA
ATOM     75  O   UNL     1       6.981  13.915   5.432  1.00  0.00    -0.744 OA
ENDBRANCH  71  72
ENDBRANCH  52  66
BRANCH  53  76
ATOM     76  C   UNL     1      14.451   4.618  -3.774  1.00  0.00    -0.014 A 
ATOM     77  C   UNL     1      15.851   4.605  -3.896  1.00  0.00     0.010 A 
ATOM     78  C   UNL     1      13.689   3.731  -4.557  1.00  0.00     0.010 A 
ATOM     79  C   UNL     1      16.479   3.726  -4.783  1.00  0.00     0.020 A 
ATOM     80  C   UNL     1      14.314   2.830  -5.425  1.00  0.00     0.020 A 
ATOM     81  C   UNL     1      15.706   2.837  -5.534  1.00  0.00     0.054 A 
BRANCH  81  82
ATOM     82  S   UNL     1      16.552   1.653  -6.618  1.00  0.00     0.124 S 
ATOM     83  O   UNL     1      17.090   2.523  -7.659  1.00  0.00    -0.237 OA
ATOM     84  O   UNL     1      17.537   1.056  -5.719  1.00  0.00    -0.237 OA
ATOM     85  O   UNL     1      15.483   0.753  -7.045  1.00  0.00    -0.744 OA
ENDBRANCH  81  82
ENDBRANCH  53  76
BRANCH  65  86
ATOM     86  C   UNL     1      13.877  11.567  -3.218  1.00  0.00    -0.014 A 
ATOM     87  C   UNL     1      13.297  11.922  -4.448  1.00  0.00     0.010 A 
ATOM     88  C   UNL     1      14.898  12.374  -2.681  1.00  0.00     0.010 A 
ATOM     89  C   UNL     1      13.732  13.065  -5.126  1.00  0.00     0.020 A 
ATOM     90  C   UNL     1      15.313  13.532  -3.340  1.00  0.00     0.020 A 
ATOM     91  C   UNL     1      14.728  13.869  -4.561  1.00  0.00     0.054 A 
BRANCH  91  92
ATOM     92  S   UNL     1      15.199  15.401  -5.411  1.00  0.00     0.124 S 
ATOM     93  O   UNL     1      15.909  14.895  -6.582  1.00  0.00    -0.237 OA
ATOM     94  O   UNL     1      13.905  16.025  -5.681  1.00  0.00    -0.237 OA
ATOM     95  O   UNL     1      16.030  16.100  -4.434  1.00  0.00    -0.744 OA
ENDBRANCH  91  92
ENDBRANCH  65  86
ENDBRANCH  39  40
ENDBRANCH  31  34
ENDBRANCH  29  30
ENDBRANCH  28  29
ENDBRANCH  27  28
ENDBRANCH  26  27
ENDBRANCH   1  26
TORSDOF 22
