REMARK SMILES CC(C)Cc1ccc(-c2cc(Cl)cc3c2O[C@H](C(F)(F)F)C(C(=O)NCCCCCCNC(=O)c2ccc(-c4c5nc(c(-c6ccc(S(=O)(=O)[O-])cc6)c6ccc([nH]6)c(-c6ccc(S(=O)(=O)[O-])cc6)c6nc(c(-c7ccc(S(=O)(=O)[O-])cc7)c7ccc4[nH]7)C=C6)C=C5)cc2)=C3)cc1
REMARK SMILES IDX 28 1 27 2 26 3 25 4 23 5 24 6 22 8 9 9 10 10 15 11 11 12
REMARK SMILES IDX 14 13 16 14 12 15 13 16 95 17 17 18 8 19 5 20 6 21 97 22
REMARK SMILES IDX 7 23 96 24 4 25 2 26 1 27 3 28 18 29 19 30 20 31 21 32 29 33
REMARK SMILES IDX 30 34 31 35 32 36 33 37 34 39 35 40 36 41 94 42 37 43 93 44
REMARK SMILES IDX 38 45 39 46 40 47 87 48 41 49 92 50 86 51 88 52 42 53 91 54
REMARK SMILES IDX 85 55 84 56 43 58 73 59 54 60 72 61 55 62 58 63 71 64 89 65
REMARK SMILES IDX 56 66 57 67 70 69 90 70 59 71 44 72 45 73 53 74 46 75 52 76
REMARK SMILES IDX 47 77 48 78 49 79 50 80 51 81 74 82 75 83 83 84 76 85 82 86
REMARK SMILES IDX 77 87 78 88 79 89 80 90 81 91 60 92 61 93 69 94 62 95 68 96
REMARK SMILES IDX 63 97 64 98 65 99 66 100 67 101
REMARK H PARENT 25 7 32 38 88 57 58 68
REMARK Flexibility Score: inf
ROOT
ATOM      1  C   UNL     1      -4.842  13.535   0.750  1.00  0.00     0.002 C 
ENDROOT
BRANCH   1   2
ATOM      2  C   UNL     1      -4.877  12.415   1.805  1.00  0.00     0.021 C 
BRANCH   2   3
ATOM      3  C   UNL     1      -5.709  11.187   1.410  1.00  0.00     0.116 C 
BRANCH   3   4
ATOM      4  N   UNL     1      -5.185  10.613   0.187  1.00  0.00    -0.352 N 
ATOM      5  C   UNL     1      -4.660   9.366   0.080  1.00  0.00     0.251 C 
ATOM      6  O   UNL     1      -3.563   9.199  -0.437  1.00  0.00    -0.270 OA
ATOM      7  H   UNL     1      -5.210  11.168  -0.626  1.00  0.00     0.163 HD
BRANCH   5   8
ATOM      8  C   UNL     1      -5.564   8.241   0.459  1.00  0.00     0.067 C 
ATOM      9  C   UNL     1      -3.269   5.169  -0.868  1.00  0.00     0.026 A 
ATOM     10  C   UNL     1      -2.804   5.558  -2.155  1.00  0.00     0.033 A 
ATOM     11  C   UNL     1      -4.321   5.938  -0.336  1.00  0.00     0.135 A 
ATOM     12  C   UNL     1      -3.440   6.520  -2.934  1.00  0.00     0.042 A 
ATOM     13  C   UNL     1      -5.031   6.819  -1.195  1.00  0.00     0.019 A 
ATOM     14  O   UNL     1      -4.667   5.945   1.012  1.00  0.00    -0.475 OA
ATOM     15  Cl  UNL     1      -2.775   6.962  -4.455  1.00  0.00    -0.084 Cl
ATOM     16  C   UNL     1      -4.608   7.101  -2.490  1.00  0.00     0.032 A 
ATOM     17  C   UNL     1      -6.117   7.632  -0.608  1.00  0.00     0.025 C 
ATOM     18  C   UNL     1      -5.023   7.307   1.529  1.00  0.00     0.314 C 
BRANCH   9  19
ATOM     19  C   UNL     1      -2.694   3.884  -0.371  1.00  0.00    -0.015 A 
ATOM     20  C   UNL     1      -1.655   1.209  -0.572  1.00  0.00    -0.048 A 
ATOM     21  C   UNL     1      -0.821   2.321  -0.690  1.00  0.00     0.004 A 
ATOM     22  C   UNL     1      -3.007   1.454  -0.272  1.00  0.00     0.004 A 
ATOM     23  C   UNL     1      -1.317   3.625  -0.533  1.00  0.00     0.009 A 
ATOM     24  C   UNL     1      -3.519   2.767  -0.171  1.00  0.00     0.009 A 
BRANCH  20  25
ATOM     25  C   UNL     1      -1.197  -0.217  -0.841  1.00  0.00     0.038 C 
BRANCH  25  26
ATOM     26  C   UNL     1       0.321  -0.530  -0.897  1.00  0.00    -0.013 C 
ATOM     27  C   UNL     1       1.052  -0.185   0.403  1.00  0.00     0.008 C 
ATOM     28  C   UNL     1       0.550  -2.021  -1.192  1.00  0.00     0.008 C 
ENDBRANCH  25  26
ENDBRANCH  20  25
ENDBRANCH   9  19
BRANCH  18  29
ATOM     29  C   UNL     1      -6.066   7.257   2.671  1.00  0.00     0.429 C 
ATOM     30  F   UNL     1      -6.688   6.060   2.756  1.00  0.00    -0.167 F 
ATOM     31  F   UNL     1      -5.493   7.512   3.871  1.00  0.00    -0.167 F 
ATOM     32  F   UNL     1      -7.046   8.188   2.518  1.00  0.00    -0.167 F 
ENDBRANCH  18  29
ENDBRANCH   5   8
ENDBRANCH   3   4
ENDBRANCH   2   3
ENDBRANCH   1   2
BRANCH   1  33
ATOM     33  C   UNL     1      -6.216  14.033   0.297  1.00  0.00     0.002 C 
BRANCH  33  34
ATOM     34  C   UNL     1      -7.091  14.585   1.423  1.00  0.00     0.021 C 
BRANCH  34  35
ATOM     35  C   UNL     1      -6.446  15.703   2.234  1.00  0.00     0.116 C 
BRANCH  35  36
ATOM     36  N   UNL     1      -6.113  16.858   1.416  1.00  0.00    -0.352 N 
ATOM     37  C   UNL     1      -6.371  18.184   1.653  1.00  0.00     0.251 C 
ATOM     38  H   UNL     1      -5.637  16.662   0.577  1.00  0.00     0.163 HD
ATOM     39  O   UNL     1      -6.176  19.017   0.769  1.00  0.00    -0.269 OA
BRANCH  37  40
ATOM     40  C   UNL     1      -6.906  18.602   2.965  1.00  0.00     0.039 A 
ATOM     41  C   UNL     1      -7.968  19.507   3.003  1.00  0.00     0.014 A 
ATOM     42  C   UNL     1      -6.370  18.095   4.153  1.00  0.00     0.014 A 
ATOM     43  C   UNL     1      -8.526  19.863   4.231  1.00  0.00     0.010 A 
ATOM     44  C   UNL     1      -6.979  18.388   5.369  1.00  0.00     0.010 A 
ATOM     45  C   UNL     1      -8.058  19.283   5.423  1.00  0.00    -0.014 A 
BRANCH  45  46
ATOM     46  C   UNL     1      -8.690  19.605   6.728  1.00  0.00     0.031 A 
ATOM     47  C   UNL     1      -7.900  20.294   7.808  1.00  0.00     0.074 A 
ATOM     48  C   UNL     1      -9.968  19.238   6.954  1.00  0.00     0.049 A 
ATOM     49  N   UNL     1      -8.282  20.650   9.007  1.00  0.00    -0.248 NA
ATOM     50  C   UNL     1      -6.491  20.602   7.512  1.00  0.00     0.031 C 
ATOM     51  C   UNL     1     -10.824  18.521   6.005  1.00  0.00     0.029 A 
ATOM     52  N   UNL     1     -10.771  19.419   8.052  1.00  0.00    -0.354 N 
ATOM     53  C   UNL     1      -7.162  21.210   9.612  1.00  0.00     0.074 A 
ATOM     54  C   UNL     1      -6.072  21.096   8.668  1.00  0.00     0.031 C 
ATOM     55  C   UNL     1     -12.040  18.356   6.548  1.00  0.00     0.029 A 
ATOM     56  C   UNL     1     -12.041  18.916   7.896  1.00  0.00     0.049 A 
ATOM     57  H   UNL     1     -10.466  19.866   8.874  1.00  0.00     0.167 HD
ATOM     58  C   UNL     1      -7.055  21.787  10.833  1.00  0.00     0.031 A 
ATOM     59  C   UNL     1     -13.090  18.904   8.742  1.00  0.00     0.031 A 
ATOM     60  C   UNL     1      -8.145  21.901  11.767  1.00  0.00     0.049 A 
ATOM     61  C   UNL     1     -12.945  19.546  10.094  1.00  0.00     0.074 A 
ATOM     62  C   UNL     1      -8.154  22.519  13.006  1.00  0.00     0.029 A 
ATOM     63  N   UNL     1      -9.416  21.382  11.570  1.00  0.00    -0.354 N 
ATOM     64  N   UNL     1     -11.898  20.139  10.617  1.00  0.00    -0.248 NA
ATOM     65  C   UNL     1     -14.129  19.531  10.963  1.00  0.00     0.031 C 
ATOM     66  C   UNL     1      -9.411  22.318  13.584  1.00  0.00     0.029 A 
ATOM     67  C   UNL     1     -10.209  21.639  12.677  1.00  0.00     0.049 A 
ATOM     68  H   UNL     1      -9.711  20.902  10.763  1.00  0.00     0.167 HD
ATOM     69  C   UNL     1     -12.306  20.592  11.867  1.00  0.00     0.074 A 
ATOM     70  C   UNL     1     -13.700  20.222  12.010  1.00  0.00     0.031 C 
ATOM     71  C   UNL     1     -11.592  21.255  12.811  1.00  0.00     0.031 A 
BRANCH  58  72
ATOM     72  C   UNL     1      -5.706  22.329  11.233  1.00  0.00    -0.014 A 
ATOM     73  C   UNL     1      -5.151  23.453  10.592  1.00  0.00     0.010 A 
ATOM     74  C   UNL     1      -4.999  21.731  12.291  1.00  0.00     0.010 A 
ATOM     75  C   UNL     1      -3.897  23.939  10.972  1.00  0.00     0.020 A 
ATOM     76  C   UNL     1      -3.759  22.233  12.697  1.00  0.00     0.020 A 
ATOM     77  C   UNL     1      -3.208  23.324  12.022  1.00  0.00     0.054 A 
BRANCH  77  78
ATOM     78  S   UNL     1      -1.592  23.990  12.508  1.00  0.00     0.124 S 
ATOM     79  O   UNL     1      -0.751  23.592  11.381  1.00  0.00    -0.237 OA
ATOM     80  O   UNL     1      -1.857  25.422  12.617  1.00  0.00    -0.237 OA
ATOM     81  O   UNL     1      -1.302  23.314  13.770  1.00  0.00    -0.744 OA
ENDBRANCH  77  78
ENDBRANCH  58  72
BRANCH  59  82
ATOM     82  C   UNL     1     -14.373  18.274   8.323  1.00  0.00    -0.014 A 
ATOM     83  C   UNL     1     -15.513  19.061   8.079  1.00  0.00     0.010 A 
ATOM     84  C   UNL     1     -14.457  16.880   8.152  1.00  0.00     0.010 A 
ATOM     85  C   UNL     1     -16.716  18.465   7.690  1.00  0.00     0.020 A 
ATOM     86  C   UNL     1     -15.649  16.284   7.731  1.00  0.00     0.020 A 
ATOM     87  C   UNL     1     -16.775  17.079   7.514  1.00  0.00     0.054 A 
BRANCH  87  88
ATOM     88  S   UNL     1     -18.331  16.333   6.955  1.00  0.00     0.124 S 
ATOM     89  O   UNL     1     -19.171  16.455   8.143  1.00  0.00    -0.237 OA
ATOM     90  O   UNL     1     -18.701  17.185   5.828  1.00  0.00    -0.237 OA
ATOM     91  O   UNL     1     -17.947  14.970   6.596  1.00  0.00    -0.744 OA
ENDBRANCH  87  88
ENDBRANCH  59  82
BRANCH  71  92
ATOM     92  C   UNL     1     -12.316  21.654  14.071  1.00  0.00    -0.014 A 
ATOM     93  C   UNL     1     -12.732  20.695  15.013  1.00  0.00     0.010 A 
ATOM     94  C   UNL     1     -12.556  23.016  14.330  1.00  0.00     0.010 A 
ATOM     95  C   UNL     1     -13.416  21.088  16.166  1.00  0.00     0.020 A 
ATOM     96  C   UNL     1     -13.210  23.416  15.498  1.00  0.00     0.020 A 
ATOM     97  C   UNL     1     -13.653  22.447  16.400  1.00  0.00     0.054 A 
BRANCH  97  98
ATOM     98  S   UNL     1     -14.527  22.932  17.913  1.00  0.00     0.124 S 
ATOM     99  O   UNL     1     -15.894  22.512  17.623  1.00  0.00    -0.237 OA
ATOM    100  O   UNL     1     -13.836  22.160  18.943  1.00  0.00    -0.237 OA
ATOM    101  O   UNL     1     -14.321  24.377  17.984  1.00  0.00    -0.744 OA
ENDBRANCH  97  98
ENDBRANCH  71  92
ENDBRANCH  45  46
ENDBRANCH  37  40
ENDBRANCH  35  36
ENDBRANCH  34  35
ENDBRANCH  33  34
ENDBRANCH   1  33
TORSDOF 20
