REMARK SMILES Cc1ccc(C2=NN(C(=O)CCC(=O)NCCCCCCNC(=O)c3ccc(-c4c5nc(c(-c6ccc(S(=O)(=O)[O-])cc6)c6ccc([nH]6)c(-c6ccc(S(=O)(=O)[O-])cc6)c6nc(c(-c7ccc(S(=O)(=O)[O-])cc7)c7ccc4[nH]7)C=C6)C=C5)cc3)[C@H](C[C@@H]3C=c4cccc(C)c4=NC3=O)C2)cc1
REMARK SMILES IDX 17 1 16 2 15 3 13 4 14 5 12 7 11 8 9 9 10 10 8 11 6 12 7 13
REMARK SMILES IDX 99 14 85 15 5 16 1 17 2 18 3 19 101 20 4 21 100 22 86 23
REMARK SMILES IDX 87 24 88 25 97 26 89 27 96 28 98 29 90 30 95 31 91 32 93 33
REMARK SMILES IDX 92 34 94 35 18 36 19 37 20 38 21 39 22 40 23 41 24 43 25 44
REMARK SMILES IDX 26 45 84 46 27 47 83 48 28 49 29 50 30 51 77 52 31 53 82 54
REMARK SMILES IDX 76 55 78 56 32 57 81 58 75 59 74 60 33 62 63 63 44 64 62 65
REMARK SMILES IDX 45 66 48 67 61 68 79 69 46 70 47 71 60 73 80 74 49 75 34 76
REMARK SMILES IDX 35 77 43 78 36 79 42 80 37 81 38 82 39 83 40 84 41 85 64 86
REMARK SMILES IDX 65 87 73 88 66 89 72 90 67 91 68 92 69 93 70 94 71 95 50 96
REMARK SMILES IDX 51 97 59 98 52 99 58 100 53 101 54 102 55 103 56 104 57 105
REMARK H PARENT 15 6 22 42 78 61 48 72
REMARK Flexibility Score: inf
ROOT
ATOM      1  C   UNL     1      -4.244   0.036  -0.856  1.00  0.00     0.021 C 
ENDROOT
BRANCH   1   2
ATOM      2  C   UNL     1      -5.128   0.916   0.965  1.00  0.00     0.116 C 
BRANCH   2   3
ATOM      3  N   UNL     1      -6.417   1.885   1.101  1.00  0.00    -0.356 N 
ATOM      4  C   UNL     1      -7.674   1.790   1.570  1.00  0.00     0.220 C 
ATOM      5  O   UNL     1      -8.399   2.774   1.399  1.00  0.00    -0.275 OA
ATOM      6  H   UNL     1      -6.231   2.784   0.746  1.00  0.00     0.163 HD
BRANCH   4   7
ATOM      7  C   UNL     1      -8.151   0.576   2.303  1.00  0.00     0.110 C 
BRANCH   7   8
ATOM      8  C   UNL     1      -7.895  -0.777   1.661  1.00  0.00     0.112 C 
BRANCH   8   9
ATOM      9  C   UNL     1      -6.449  -1.306   1.712  1.00  0.00     0.243 C 
ATOM     10  O   UNL     1      -6.043  -1.877   2.724  1.00  0.00    -0.273 OA
BRANCH   9  11
ATOM     11  N   UNL     1      -5.601  -0.953   0.588  1.00  0.00    -0.230 N 
ATOM     12  C   UNL     1      -3.270   0.614   0.502  1.00  0.00     0.070 C 
ATOM     13  N   UNL     1      -3.868  -0.685   1.057  1.00  0.00    -0.174 NA
ATOM     14  C   UNL     1      -4.759   1.690  -0.623  1.00  0.00     0.086 C 
ATOM     15  C   UNL     1      -6.218   0.242  -0.678  1.00  0.00     0.118 C 
BRANCH  12  16
ATOM     16  C   UNL     1      -1.472   0.395   0.191  1.00  0.00    -0.002 A 
ATOM     17  C   UNL     1       2.790   0.363  -0.574  1.00  0.00     0.044 C 
ATOM     18  C   UNL     1       1.306   0.273  -0.621  1.00  0.00    -0.051 A 
ATOM     19  C   UNL     1       0.507  -0.870  -0.491  1.00  0.00     0.004 A 
ATOM     20  C   UNL     1       0.702   1.468  -0.583  1.00  0.00     0.004 A 
ATOM     21  C   UNL     1      -0.896  -0.823  -0.149  1.00  0.00     0.010 A 
ATOM     22  C   UNL     1      -0.530   1.466   0.006  1.00  0.00     0.010 A 
ENDBRANCH  12  16
BRANCH  15  23
ATOM     23  C   UNL     1      -6.658  -0.743  -1.976  1.00  0.00     0.045 C 
BRANCH  23  24
ATOM     24  C   UNL     1      -7.710  -1.865  -1.638  1.00  0.00     0.106 C 
ATOM     25  C   UNL     1      -7.189  -2.923  -0.703  1.00  0.00    -0.003 C 
ATOM     26  C   UNL     1      -8.427  -2.628  -2.767  1.00  0.00     0.253 C 
ATOM     27  C   UNL     1      -8.000  -3.882  -0.261  1.00  0.00    -0.003 A 
ATOM     28  N   UNL     1      -9.227  -3.714  -2.399  1.00  0.00    -0.212 NA
ATOM     29  O   UNL     1      -8.393  -2.206  -3.920  1.00  0.00    -0.272 OA
ATOM     30  C   UNL     1      -7.891  -4.494   1.039  1.00  0.00     0.010 A 
ATOM     31  C   UNL     1      -9.035  -4.296  -1.249  1.00  0.00     0.077 A 
ATOM     32  C   UNL     1      -8.756  -5.447   1.402  1.00  0.00     0.001 A 
ATOM     33  C   UNL     1      -9.764  -5.555  -0.834  1.00  0.00    -0.025 A 
ATOM     34  C   UNL     1      -9.640  -6.030   0.422  1.00  0.00     0.005 A 
ATOM     35  C   UNL     1     -10.441  -6.347  -1.904  1.00  0.00     0.047 C 
ENDBRANCH  23  24
ENDBRANCH  15  23
ENDBRANCH   9  11
ENDBRANCH   8   9
ENDBRANCH   7   8
ENDBRANCH   4   7
ENDBRANCH   2   3
ENDBRANCH   1   2
BRANCH   1  36
ATOM     36  C   UNL     1      -2.887   1.337  -1.498  1.00  0.00     0.002 C 
BRANCH  36  37
ATOM     37  C   UNL     1      -2.577   2.775  -0.306  1.00  0.00     0.002 C 
BRANCH  37  38
ATOM     38  C   UNL     1      -2.284   2.752   1.534  1.00  0.00     0.021 C 
BRANCH  38  39
ATOM     39  C   UNL     1      -1.635   1.547   2.622  1.00  0.00     0.116 C 
BRANCH  39  40
ATOM     40  N   UNL     1      -0.159   1.423   2.856  1.00  0.00    -0.352 N 
ATOM     41  C   UNL     1       0.778   0.409   3.127  1.00  0.00     0.251 C 
ATOM     42  H   UNL     1       0.279   2.303   2.807  1.00  0.00     0.163 HD
ATOM     43  O   UNL     1       1.826   0.792   3.664  1.00  0.00    -0.269 OA
BRANCH  41  44
ATOM     44  C   UNL     1       0.712  -1.054   2.767  1.00  0.00     0.039 A 
ATOM     45  C   UNL     1       1.899  -1.698   2.309  1.00  0.00     0.014 A 
ATOM     46  C   UNL     1      -0.446  -1.815   2.807  1.00  0.00     0.014 A 
ATOM     47  C   UNL     1       1.879  -2.971   1.690  1.00  0.00     0.010 A 
ATOM     48  C   UNL     1      -0.467  -3.087   2.203  1.00  0.00     0.010 A 
ATOM     49  C   UNL     1       0.665  -3.635   1.560  1.00  0.00    -0.014 A 
BRANCH  49  50
ATOM     50  C   UNL     1       0.429  -4.862   0.772  1.00  0.00     0.031 A 
ATOM     51  C   UNL     1       0.416  -6.188   1.447  1.00  0.00     0.074 A 
ATOM     52  C   UNL     1      -0.040  -4.784  -0.500  1.00  0.00     0.049 A 
ATOM     53  N   UNL     1       0.329  -7.328   0.841  1.00  0.00    -0.248 NA
ATOM     54  C   UNL     1       0.552  -6.326   2.895  1.00  0.00     0.031 C 
ATOM     55  C   UNL     1      -0.950  -5.719  -1.168  1.00  0.00     0.029 A 
ATOM     56  N   UNL     1       0.275  -3.869  -1.509  1.00  0.00    -0.354 N 
ATOM     57  C   UNL     1       0.086  -8.291   1.799  1.00  0.00     0.074 A 
ATOM     58  C   UNL     1       0.338  -7.636   3.061  1.00  0.00     0.031 C 
ATOM     59  C   UNL     1      -0.992  -5.443  -2.484  1.00  0.00     0.029 A 
ATOM     60  C   UNL     1       0.088  -4.507  -2.748  1.00  0.00     0.049 A 
ATOM     61  H   UNL     1       0.574  -2.941  -1.376  1.00  0.00     0.167 HD
ATOM     62  C   UNL     1      -0.457  -9.489   1.437  1.00  0.00     0.031 A 
ATOM     63  C   UNL     1       1.104  -4.731  -3.634  1.00  0.00     0.031 A 
ATOM     64  C   UNL     1      -0.611  -9.592  -0.009  1.00  0.00     0.049 A 
ATOM     65  C   UNL     1       1.240  -6.170  -4.070  1.00  0.00     0.074 A 
ATOM     66  C   UNL     1      -1.690  -9.366  -0.845  1.00  0.00     0.029 A 
ATOM     67  N   UNL     1       0.510  -9.705  -0.816  1.00  0.00    -0.354 N 
ATOM     68  N   UNL     1       0.780  -7.171  -3.380  1.00  0.00    -0.248 NA
ATOM     69  C   UNL     1       2.037  -6.593  -5.218  1.00  0.00     0.031 C 
ATOM     70  C   UNL     1      -1.200  -9.280  -2.170  1.00  0.00     0.029 A 
ATOM     71  C   UNL     1       0.168  -9.488  -2.137  1.00  0.00     0.049 A 
ATOM     72  H   UNL     1       1.418  -9.910  -0.495  1.00  0.00     0.167 HD
ATOM     73  C   UNL     1       1.322  -8.330  -3.862  1.00  0.00     0.074 A 
ATOM     74  C   UNL     1       2.047  -7.927  -5.051  1.00  0.00     0.031 C 
ATOM     75  C   UNL     1       1.188  -9.499  -3.176  1.00  0.00     0.031 A 
BRANCH  62  76
ATOM     76  C   UNL     1      -1.136 -10.458   2.384  1.00  0.00    -0.014 A 
ATOM     77  C   UNL     1      -2.143 -11.309   1.874  1.00  0.00     0.010 A 
ATOM     78  C   UNL     1      -0.882 -10.561   3.763  1.00  0.00     0.010 A 
ATOM     79  C   UNL     1      -2.913 -12.142   2.695  1.00  0.00     0.020 A 
ATOM     80  C   UNL     1      -1.660 -11.379   4.605  1.00  0.00     0.020 A 
ATOM     81  C   UNL     1      -2.682 -12.155   4.065  1.00  0.00     0.054 A 
BRANCH  81  82
ATOM     82  S   UNL     1      -3.730 -13.198   5.112  1.00  0.00     0.124 S 
ATOM     83  O   UNL     1      -5.063 -12.656   4.860  1.00  0.00    -0.237 OA
ATOM     84  O   UNL     1      -3.483 -14.533   4.576  1.00  0.00    -0.237 OA
ATOM     85  O   UNL     1      -3.216 -12.965   6.460  1.00  0.00    -0.744 OA
ENDBRANCH  81  82
ENDBRANCH  62  76
BRANCH  63  86
ATOM     86  C   UNL     1       2.340  -3.933  -3.391  1.00  0.00    -0.014 A 
ATOM     87  C   UNL     1       2.432  -2.569  -3.708  1.00  0.00     0.010 A 
ATOM     88  C   UNL     1       3.335  -4.518  -2.584  1.00  0.00     0.010 A 
ATOM     89  C   UNL     1       3.480  -1.798  -3.183  1.00  0.00     0.020 A 
ATOM     90  C   UNL     1       4.348  -3.745  -2.026  1.00  0.00     0.020 A 
ATOM     91  C   UNL     1       4.402  -2.382  -2.303  1.00  0.00     0.054 A 
BRANCH  91  92
ATOM     92  S   UNL     1       5.652  -1.406  -1.409  1.00  0.00     0.124 S 
ATOM     93  O   UNL     1       5.587  -0.092  -2.045  1.00  0.00    -0.237 OA
ATOM     94  O   UNL     1       5.160  -1.462  -0.034  1.00  0.00    -0.237 OA
ATOM     95  O   UNL     1       6.881  -2.151  -1.656  1.00  0.00    -0.744 OA
ENDBRANCH  91  92
ENDBRANCH  63  86
BRANCH  75  96
ATOM     96  C   UNL     1       1.958 -10.763  -3.448  1.00  0.00    -0.014 A 
ATOM     97  C   UNL     1       3.174 -10.810  -4.147  1.00  0.00     0.010 A 
ATOM     98  C   UNL     1       1.490 -11.977  -2.892  1.00  0.00     0.010 A 
ATOM     99  C   UNL     1       3.830 -12.024  -4.384  1.00  0.00     0.020 A 
ATOM    100  C   UNL     1       2.165 -13.185  -3.075  1.00  0.00     0.020 A 
ATOM    101  C   UNL     1       3.308 -13.208  -3.863  1.00  0.00     0.054 A 
BRANCH 101 102
ATOM    102  S   UNL     1       4.141 -14.774  -4.210  1.00  0.00     0.124 S 
ATOM    103  O   UNL     1       3.620 -15.100  -5.536  1.00  0.00    -0.237 OA
ATOM    104  O   UNL     1       5.556 -14.411  -4.165  1.00  0.00    -0.237 OA
ATOM    105  O   UNL     1       3.694 -15.649  -3.129  1.00  0.00    -0.744 OA
ENDBRANCH 101 102
ENDBRANCH  75  96
ENDBRANCH  49  50
ENDBRANCH  41  44
ENDBRANCH  39  40
ENDBRANCH  38  39
ENDBRANCH  37  38
ENDBRANCH  36  37
ENDBRANCH   1  36
TORSDOF 22
