REMARK SMILES CC1(C)C[C@@]([NH2+]CCN=[N+]=[N-])(C(=O)NCCCCCCNC(=O)c2ccc(-c3c4nc(c(-c5ccc(S(=O)(=O)[O-])cc5)c5ccc([nH]5)c(-c5ccc(S(=O)(=O)[O-])cc5)c5nc(c(-c6ccc(S(=O)(=O)[O-])cc6)c6ccc3[nH]6)C=C5)C=C4)cc2)C(C)(C)O1
REMARK SMILES IDX 17 1 16 2 15 3 14 4 12 5 13 6 5 8 1 9 2 10 3 11 4 12 87 13
REMARK SMILES IDX 84 14 85 15 86 16 6 17 7 20 8 21 9 22 10 23 11 24 18 25
REMARK SMILES IDX 19 26 20 27 21 28 22 29 23 31 24 32 25 33 83 34 26 35 82 36
REMARK SMILES IDX 27 37 28 38 29 39 76 40 30 41 81 42 75 43 77 44 31 45 80 46
REMARK SMILES IDX 74 47 73 48 32 50 62 51 43 52 61 53 44 54 47 55 60 56 78 57
REMARK SMILES IDX 45 58 46 59 59 61 79 62 48 63 33 64 34 65 42 66 35 67 41 68
REMARK SMILES IDX 36 69 37 70 38 71 39 72 40 73 63 74 64 75 72 76 65 77 71 78
REMARK SMILES IDX 66 79 67 80 68 81 69 82 70 83 49 84 50 85 58 86 51 87 57 88
REMARK SMILES IDX 52 89 53 90 54 91 55 92 56 93
REMARK H PARENT 14 7 6 18 6 19 21 30 77 49 47 60
REMARK Flexibility Score: inf
ROOT
ATOM      1  C   UNL     1       6.264   3.103   1.744  1.00  0.00     0.002 C 
ENDROOT
BRANCH   1   2
ATOM      2  C   UNL     1       4.906   2.507   1.349  1.00  0.00     0.021 C 
BRANCH   2   3
ATOM      3  C   UNL     1       3.968   2.356   2.549  1.00  0.00     0.116 C 
BRANCH   3   4
ATOM      4  N   UNL     1       3.238   3.590   2.759  1.00  0.00    -0.351 N 
ATOM      5  C   UNL     1       2.043   4.063   2.323  1.00  0.00     0.284 C 
ATOM      6  O   UNL     1       1.900   5.288   2.460  1.00  0.00    -0.268 OA
ATOM      7  H   UNL     1       3.713   4.223   3.345  1.00  0.00     0.163 HD
BRANCH   5   8
ATOM      8  C   UNL     1       0.852   3.181   1.806  1.00  0.00     0.206 C 
ATOM      9  C   UNL     1       0.690   0.174  -0.419  1.00  0.00     0.042 C 
ATOM     10  C   UNL     1       0.089   1.296   0.438  1.00  0.00     0.070 C 
ATOM     11  C   UNL     1      -1.288   0.843   0.928  1.00  0.00     0.042 C 
ATOM     12  C   UNL     1       1.075   1.700   1.529  1.00  0.00     0.117 C 
ATOM     13  O   UNL     1      -0.087   2.475  -0.358  1.00  0.00    -0.362 OA
ATOM     14  C   UNL     1       0.448   3.640   0.345  1.00  0.00     0.127 C 
ATOM     15  C   UNL     1       1.646   4.096  -0.510  1.00  0.00     0.049 C 
ATOM     16  C   UNL     1      -0.634   4.723   0.289  1.00  0.00     0.049 C 
BRANCH   8  17
ATOM     17  N   UNL     1      -0.279   3.360   2.774  1.00  0.00    -0.331 N 
ATOM     18  H   UNL     1      -1.015   2.703   2.518  1.00  0.00     0.347 HD
ATOM     19  H   UNL     1      -0.550   4.341   2.701  1.00  0.00     0.347 HD
BRANCH  17  20
ATOM     20  C   UNL     1       0.042   3.145   4.188  1.00  0.00     0.267 C 
BRANCH  20  21
ATOM     21  C   UNL     1      -1.212   3.322   5.062  1.00  0.00     0.152 C 
BRANCH  21  22
ATOM     22  N   UNL     1      -2.150   2.207   4.848  1.00  0.00    -0.088 NA
ATOM     23  N   UNL     1      -3.081   2.422   4.048  1.00  0.00     0.001 N 
ATOM     24  N   UNL     1      -3.920   2.607   3.305  1.00  0.00    -0.003 NA
ENDBRANCH  21  22
ENDBRANCH  20  21
ENDBRANCH  17  20
ENDBRANCH   8  17
ENDBRANCH   5   8
ENDBRANCH   3   4
ENDBRANCH   2   3
ENDBRANCH   1   2
BRANCH   1  25
ATOM     25  C   UNL     1       7.041   2.264   2.767  1.00  0.00     0.002 C 
BRANCH  25  26
ATOM     26  C   UNL     1       7.230   0.800   2.363  1.00  0.00     0.021 C 
BRANCH  26  27
ATOM     27  C   UNL     1       8.025   0.631   1.076  1.00  0.00     0.116 C 
BRANCH  27  28
ATOM     28  N   UNL     1       9.376   1.153   1.228  1.00  0.00    -0.352 N 
ATOM     29  C   UNL     1      10.565   0.480   1.114  1.00  0.00     0.251 C 
ATOM     30  H   UNL     1       9.444   2.112   1.440  1.00  0.00     0.163 HD
ATOM     31  O   UNL     1      11.601   0.960   1.559  1.00  0.00    -0.269 OA
BRANCH  29  32
ATOM     32  C   UNL     1      10.565  -0.834   0.445  1.00  0.00     0.039 A 
ATOM     33  C   UNL     1      11.238  -1.908   1.029  1.00  0.00     0.014 A 
ATOM     34  C   UNL     1       9.866  -0.994  -0.755  1.00  0.00     0.014 A 
ATOM     35  C   UNL     1      11.170  -3.164   0.426  1.00  0.00     0.010 A 
ATOM     36  C   UNL     1       9.730  -2.259  -1.305  1.00  0.00     0.010 A 
ATOM     37  C   UNL     1      10.394  -3.353  -0.730  1.00  0.00    -0.014 A 
BRANCH  37  38
ATOM     38  C   UNL     1      10.285  -4.675  -1.393  1.00  0.00     0.031 A 
ATOM     39  C   UNL     1      10.790  -4.834  -2.802  1.00  0.00     0.074 A 
ATOM     40  C   UNL     1       9.660  -5.692  -0.770  1.00  0.00     0.049 A 
ATOM     41  N   UNL     1      10.673  -5.855  -3.609  1.00  0.00    -0.248 NA
ATOM     42  C   UNL     1      11.489  -3.679  -3.392  1.00  0.00     0.031 C 
ATOM     43  C   UNL     1       9.109  -5.649   0.586  1.00  0.00     0.029 A 
ATOM     44  N   UNL     1       9.369  -6.961  -1.206  1.00  0.00    -0.354 N 
ATOM     45  C   UNL     1      11.260  -5.458  -4.804  1.00  0.00     0.074 A 
ATOM     46  C   UNL     1      11.682  -4.086  -4.637  1.00  0.00     0.031 C 
ATOM     47  C   UNL     1       8.565  -6.842   0.878  1.00  0.00     0.029 A 
ATOM     48  C   UNL     1       8.681  -7.716  -0.286  1.00  0.00     0.049 A 
ATOM     49  H   UNL     1       9.630  -7.299  -2.093  1.00  0.00     0.167 HD
ATOM     50  C   UNL     1      11.447  -6.179  -5.934  1.00  0.00     0.031 A 
ATOM     51  C   UNL     1       8.182  -8.965  -0.376  1.00  0.00     0.031 A 
ATOM     52  C   UNL     1      11.035  -7.547  -6.086  1.00  0.00     0.049 A 
ATOM     53  C   UNL     1       8.376  -9.737  -1.654  1.00  0.00     0.074 A 
ATOM     54  C   UNL     1      11.221  -8.384  -7.171  1.00  0.00     0.029 A 
ATOM     55  N   UNL     1      10.353  -8.279  -5.126  1.00  0.00    -0.354 N 
ATOM     56  N   UNL     1       8.980  -9.364  -2.758  1.00  0.00    -0.248 NA
ATOM     57  C   UNL     1       7.832 -11.102  -1.697  1.00  0.00     0.031 C 
ATOM     58  C   UNL     1      10.596  -9.602  -6.892  1.00  0.00     0.029 A 
ATOM     59  C   UNL     1      10.089  -9.551  -5.602  1.00  0.00     0.049 A 
ATOM     60  H   UNL     1      10.094  -7.943  -4.237  1.00  0.00     0.167 HD
ATOM     61  C   UNL     1       8.926 -10.462  -3.609  1.00  0.00     0.074 A 
ATOM     62  C   UNL     1       8.232 -11.513  -2.893  1.00  0.00     0.031 C 
ATOM     63  C   UNL     1       9.414 -10.591  -4.867  1.00  0.00     0.031 A 
BRANCH  50  64
ATOM     64  C   UNL     1      12.119  -5.496  -7.097  1.00  0.00    -0.014 A 
ATOM     65  C   UNL     1      13.474  -5.121  -7.040  1.00  0.00     0.010 A 
ATOM     66  C   UNL     1      11.396  -5.262  -8.281  1.00  0.00     0.010 A 
ATOM     67  C   UNL     1      14.080  -4.488  -8.128  1.00  0.00     0.020 A 
ATOM     68  C   UNL     1      12.007  -4.660  -9.384  1.00  0.00     0.020 A 
ATOM     69  C   UNL     1      13.342  -4.262  -9.294  1.00  0.00     0.054 A 
BRANCH  69  70
ATOM     70  S   UNL     1      14.165  -3.464 -10.699  1.00  0.00     0.124 S 
ATOM     71  O   UNL     1      14.329  -2.096 -10.214  1.00  0.00    -0.237 OA
ATOM     72  O   UNL     1      15.397  -4.237 -10.827  1.00  0.00    -0.237 OA
ATOM     73  O   UNL     1      13.213  -3.624 -11.796  1.00  0.00    -0.744 OA
ENDBRANCH  69  70
ENDBRANCH  50  64
BRANCH  51  74
ATOM     74  C   UNL     1       7.456  -9.564   0.778  1.00  0.00    -0.014 A 
ATOM     75  C   UNL     1       8.014 -10.638   1.494  1.00  0.00     0.010 A 
ATOM     76  C   UNL     1       6.205  -9.057   1.175  1.00  0.00     0.010 A 
ATOM     77  C   UNL     1       7.325 -11.209   2.568  1.00  0.00     0.020 A 
ATOM     78  C   UNL     1       5.528  -9.604   2.269  1.00  0.00     0.020 A 
ATOM     79  C   UNL     1       6.087 -10.686   2.950  1.00  0.00     0.054 A 
BRANCH  79  80
ATOM     80  S   UNL     1       5.232 -11.416   4.375  1.00  0.00     0.124 S 
ATOM     81  O   UNL     1       4.813 -12.710   3.846  1.00  0.00    -0.237 OA
ATOM     82  O   UNL     1       6.284 -11.454   5.386  1.00  0.00    -0.237 OA
ATOM     83  O   UNL     1       4.151 -10.470   4.646  1.00  0.00    -0.744 OA
ENDBRANCH  79  80
ENDBRANCH  51  74
BRANCH  63  84
ATOM     84  C   UNL     1       9.283 -11.931  -5.541  1.00  0.00    -0.014 A 
ATOM     85  C   UNL     1       8.046 -12.399  -6.017  1.00  0.00     0.010 A 
ATOM     86  C   UNL     1      10.445 -12.685  -5.792  1.00  0.00     0.010 A 
ATOM     87  C   UNL     1       7.974 -13.604  -6.721  1.00  0.00     0.020 A 
ATOM     88  C   UNL     1      10.382 -13.873  -6.522  1.00  0.00     0.020 A 
ATOM     89  C   UNL     1       9.144 -14.329  -6.978  1.00  0.00     0.054 A 
BRANCH  89  90
ATOM     90  S   UNL     1       9.032 -15.844  -7.967  1.00  0.00     0.124 S 
ATOM     91  O   UNL     1       8.363 -16.760  -7.048  1.00  0.00    -0.237 OA
ATOM     92  O   UNL     1       8.238 -15.416  -9.117  1.00  0.00    -0.237 OA
ATOM     93  O   UNL     1      10.425 -16.169  -8.265  1.00  0.00    -0.744 OA
ENDBRANCH  89  90
ENDBRANCH  63  84
ENDBRANCH  37  38
ENDBRANCH  29  32
ENDBRANCH  27  28
ENDBRANCH  26  27
ENDBRANCH  25  26
ENDBRANCH   1  25
TORSDOF 20
