REMARK SMILES O=C(NCCCCCCNC(=O)[C@H]1C[C@H]2CCCC[C@@H]2[N@@H+]1C1CCS(=O)(=O)CC1)c1ccc(-c2c3nc(c(-c4ccc(S(=O)(=O)[O-])cc4)c4ccc([nH]4)c(-c4ccc(S(=O)(=O)[O-])cc4)c4nc(c(-c5ccc(S(=O)(=O)[O-])cc5)c5ccc2[nH]5)C=C4)C=C3)cc1
REMARK SMILES IDX 5 1 4 2 3 3 1 4 2 5 30 7 31 8 89 9 32 10 88 11 33 12 34 13
REMARK SMILES IDX 35 14 82 15 36 16 87 17 81 18 83 19 37 20 86 21 80 22 79 23
REMARK SMILES IDX 38 25 68 26 49 27 67 28 50 29 53 30 66 31 84 32 51 33 52 34
REMARK SMILES IDX 65 36 85 37 54 38 39 39 40 40 48 41 41 42 47 43 42 44 43 45
REMARK SMILES IDX 44 46 45 47 46 48 69 49 70 50 78 51 71 52 77 53 72 54 73 55
REMARK SMILES IDX 74 56 75 57 76 58 55 59 56 60 64 61 57 62 63 63 58 64 59 65
REMARK SMILES IDX 60 66 61 67 62 68 6 69 7 70 8 71 9 72 10 73 11 74 12 76
REMARK SMILES IDX 13 77 14 78 21 79 15 80 20 81 16 83 19 84 17 85 18 86 22 87
REMARK SMILES IDX 23 88 29 89 24 90 28 91 25 92 26 93 27 94
REMARK H PARENT 3 6 83 24 53 35 10 75 21 82
REMARK Flexibility Score: inf
ROOT
ATOM      1  C   UNL     1      11.741  10.439  -6.116  1.00  0.00     0.021 C 
ENDROOT
BRANCH   1   2
ATOM      2  C   UNL     1      13.051  10.777  -5.427  1.00  0.00     0.116 C 
BRANCH   2   3
ATOM      3  N   UNL     1      13.949  11.535  -6.285  1.00  0.00    -0.352 N 
ATOM      4  O   UNL     1      15.142  13.347  -6.923  1.00  0.00    -0.269 OA
ATOM      5  C   UNL     1      14.554  12.744  -6.032  1.00  0.00     0.251 C 
ATOM      6  H   UNL     1      14.149  11.130  -7.160  1.00  0.00     0.163 HD
BRANCH   5   7
ATOM      7  C   UNL     1      14.460  13.310  -4.671  1.00  0.00     0.039 A 
ATOM      8  C   UNL     1      14.658  12.481  -3.566  1.00  0.00     0.014 A 
ATOM      9  C   UNL     1      14.123  14.655  -4.495  1.00  0.00     0.014 A 
ATOM     10  C   UNL     1      14.345  12.946  -2.300  1.00  0.00     0.010 A 
ATOM     11  C   UNL     1      13.937  15.155  -3.202  1.00  0.00     0.010 A 
ATOM     12  C   UNL     1      14.021  14.298  -2.095  1.00  0.00    -0.014 A 
BRANCH  12  13
ATOM     13  C   UNL     1      13.890  14.779  -0.696  1.00  0.00     0.031 A 
ATOM     14  C   UNL     1      12.604  15.349  -0.166  1.00  0.00     0.074 A 
ATOM     15  C   UNL     1      14.954  14.623   0.119  1.00  0.00     0.049 A 
ATOM     16  N   UNL     1      12.325  15.735   1.054  1.00  0.00    -0.248 NA
ATOM     17  C   UNL     1      11.491  15.515  -1.114  1.00  0.00     0.031 C 
ATOM     18  C   UNL     1      16.261  14.098  -0.296  1.00  0.00     0.029 A 
ATOM     19  N   UNL     1      15.103  14.846   1.462  1.00  0.00    -0.354 N 
ATOM     20  C   UNL     1      11.015  16.196   1.022  1.00  0.00     0.074 A 
ATOM     21  C   UNL     1      10.562  16.073  -0.347  1.00  0.00     0.031 C 
ATOM     22  C   UNL     1      17.047  13.967   0.779  1.00  0.00     0.029 A 
ATOM     23  C   UNL     1      16.340  14.485   1.942  1.00  0.00     0.049 A 
ATOM     24  H   UNL     1      14.394  15.228   2.028  1.00  0.00     0.167 HD
ATOM     25  C   UNL     1      10.259  16.669   2.044  1.00  0.00     0.031 A 
ATOM     26  C   UNL     1      16.866  14.580   3.176  1.00  0.00     0.031 A 
ATOM     27  C   UNL     1      10.728  16.799   3.402  1.00  0.00     0.049 A 
ATOM     28  C   UNL     1      16.015  15.142   4.276  1.00  0.00     0.074 A 
ATOM     29  C   UNL     1      10.037  17.261   4.510  1.00  0.00     0.029 A 
ATOM     30  N   UNL     1      12.002  16.469   3.840  1.00  0.00    -0.354 N 
ATOM     31  N   UNL     1      14.768  15.546   4.227  1.00  0.00    -0.248 NA
ATOM     32  C   UNL     1      16.641  15.257   5.598  1.00  0.00     0.031 C 
ATOM     33  C   UNL     1      10.910  17.264   5.603  1.00  0.00     0.029 A 
ATOM     34  C   UNL     1      12.124  16.738   5.195  1.00  0.00     0.049 A 
ATOM     35  H   UNL     1      12.716  16.098   3.272  1.00  0.00     0.167 HD
ATOM     36  C   UNL     1      14.457  15.956   5.516  1.00  0.00     0.074 A 
ATOM     37  C   UNL     1      15.632  15.709   6.328  1.00  0.00     0.031 C 
ATOM     38  C   UNL     1      13.306  16.499   5.985  1.00  0.00     0.031 A 
BRANCH  25  39
ATOM     39  C   UNL     1       8.845  17.095   1.740  1.00  0.00    -0.014 A 
ATOM     40  C   UNL     1       7.850  16.146   1.440  1.00  0.00     0.010 A 
ATOM     41  C   UNL     1       8.483  18.452   1.836  1.00  0.00     0.010 A 
ATOM     42  C   UNL     1       6.529  16.547   1.222  1.00  0.00     0.020 A 
ATOM     43  C   UNL     1       7.157  18.855   1.646  1.00  0.00     0.020 A 
ATOM     44  C   UNL     1       6.190  17.899   1.330  1.00  0.00     0.054 A 
BRANCH  44  45
ATOM     45  S   UNL     1       4.457  18.380   1.092  1.00  0.00     0.124 S 
ATOM     46  O   UNL     1       4.276  18.154  -0.340  1.00  0.00    -0.237 OA
ATOM     47  O   UNL     1       3.746  17.453   1.968  1.00  0.00    -0.237 OA
ATOM     48  O   UNL     1       4.422  19.779   1.509  1.00  0.00    -0.744 OA
ENDBRANCH  44  45
ENDBRANCH  25  39
BRANCH  26  49
ATOM     49  C   UNL     1      18.280  14.182   3.413  1.00  0.00    -0.014 A 
ATOM     50  C   UNL     1      18.602  13.099   4.249  1.00  0.00     0.010 A 
ATOM     51  C   UNL     1      19.321  14.898   2.791  1.00  0.00     0.010 A 
ATOM     52  C   UNL     1      19.938  12.764   4.485  1.00  0.00     0.020 A 
ATOM     53  C   UNL     1      20.654  14.541   2.992  1.00  0.00     0.020 A 
ATOM     54  C   UNL     1      20.955  13.488   3.855  1.00  0.00     0.054 A 
BRANCH  54  55
ATOM     55  S   UNL     1      22.681  13.024   4.161  1.00  0.00     0.124 S 
ATOM     56  O   UNL     1      22.884  13.502   5.525  1.00  0.00    -0.237 OA
ATOM     57  O   UNL     1      22.652  11.574   3.994  1.00  0.00    -0.237 OA
ATOM     58  O   UNL     1      23.417  13.748   3.127  1.00  0.00    -0.744 OA
ENDBRANCH  54  55
ENDBRANCH  26  49
BRANCH  38  59
ATOM     59  C   UNL     1      13.265  16.836   7.452  1.00  0.00    -0.014 A 
ATOM     60  C   UNL     1      14.044  17.881   7.983  1.00  0.00     0.010 A 
ATOM     61  C   UNL     1      12.436  16.095   8.313  1.00  0.00     0.010 A 
ATOM     62  C   UNL     1      14.037  18.140   9.355  1.00  0.00     0.020 A 
ATOM     63  C   UNL     1      12.399  16.375   9.681  1.00  0.00     0.020 A 
ATOM     64  C   UNL     1      13.218  17.381  10.196  1.00  0.00     0.054 A 
BRANCH  64  65
ATOM     65  S   UNL     1      13.224  17.740  11.973  1.00  0.00     0.124 S 
ATOM     66  O   UNL     1      14.523  17.215  12.385  1.00  0.00    -0.237 OA
ATOM     67  O   UNL     1      13.093  19.194  12.006  1.00  0.00    -0.237 OA
ATOM     68  O   UNL     1      12.067  17.004  12.479  1.00  0.00    -0.744 OA
ENDBRANCH  64  65
ENDBRANCH  38  59
ENDBRANCH  12  13
ENDBRANCH   5   7
ENDBRANCH   2   3
ENDBRANCH   1   2
BRANCH   1  69
ATOM     69  C   UNL     1      11.894   9.506  -7.315  1.00  0.00     0.002 C 
BRANCH  69  70
ATOM     70  C   UNL     1      12.607   8.182  -7.014  1.00  0.00     0.002 C 
BRANCH  70  71
ATOM     71  C   UNL     1      12.046   7.403  -5.820  1.00  0.00     0.021 C 
BRANCH  71  72
ATOM     72  C   UNL     1      10.552   7.116  -5.921  1.00  0.00     0.116 C 
BRANCH  72  73
ATOM     73  N   UNL     1      10.286   6.162  -6.980  1.00  0.00    -0.351 N 
ATOM     74  C   UNL     1       9.870   4.873  -6.974  1.00  0.00     0.278 C 
ATOM     75  H   UNL     1      10.438   6.523  -7.883  1.00  0.00     0.163 HD
ATOM     76  O   UNL     1      10.014   4.260  -8.042  1.00  0.00    -0.268 OA
BRANCH  74  77
ATOM     77  C   UNL     1       9.145   4.177  -5.804  1.00  0.00     0.275 C 
ATOM     78  C   UNL     1       9.769   2.787  -5.552  1.00  0.00     0.085 C 
ATOM     79  N   UNL     1       9.171   4.888  -4.509  1.00  0.00    -0.320 N 
ATOM     80  C   UNL     1       9.850   2.702  -4.038  1.00  0.00     0.054 C 
ATOM     81  C   UNL     1      10.129   4.152  -3.669  1.00  0.00     0.188 C 
ATOM     82  H   UNL     1       9.480   5.844  -4.684  1.00  0.00     0.349 HD
ATOM     83  C   UNL     1      10.897   1.756  -3.470  1.00  0.00     0.010 C 
ATOM     84  C   UNL     1      10.206   4.351  -2.156  1.00  0.00     0.065 C 
ATOM     85  C   UNL     1      10.991   1.936  -1.952  1.00  0.00     0.001 C 
ATOM     86  C   UNL     1      11.246   3.395  -1.557  1.00  0.00     0.006 C 
BRANCH  79  87
ATOM     87  C   UNL     1       7.947   5.417  -3.893  1.00  0.00     0.186 C 
ATOM     88  C   UNL     1       7.250   6.543  -4.694  1.00  0.00     0.081 C 
ATOM     89  C   UNL     1       6.885   4.415  -3.404  1.00  0.00     0.081 C 
ATOM     90  C   UNL     1       6.505   6.117  -5.943  1.00  0.00     0.143 C 
ATOM     91  C   UNL     1       6.118   3.698  -4.496  1.00  0.00     0.143 C 
ATOM     92  S   UNL     1       5.328   4.813  -5.641  1.00  0.00     0.150 S 
ATOM     93  O   UNL     1       5.144   4.092  -6.885  1.00  0.00    -0.229 OA
ATOM     94  O   UNL     1       4.191   5.401  -4.954  1.00  0.00    -0.229 OA
ENDBRANCH  79  87
ENDBRANCH  74  77
ENDBRANCH  72  73
ENDBRANCH  71  72
ENDBRANCH  70  71
ENDBRANCH  69  70
ENDBRANCH   1  69
TORSDOF 17
