REMARK SMILES O=C(NCCCCCCNC(=O)[C@H]1CC[C@@H](CNC(=O)c2ccc(CO)cc2)O1)c1ccc(-c2c3nc(c(-c4ccc(S(=O)(=O)[O-])cc4)c4ccc([nH]4)c(-c4ccc(S(=O)(=O)[O-])cc4)c4nc(c(-c5ccc(S(=O)(=O)[O-])cc5)c5ccc2[nH]5)C=C4)C=C3)cc1
REMARK SMILES IDX 7 1 6 2 5 3 4 4 3 5 1 6 2 7 30 9 31 10 89 11 32 12 88 13
REMARK SMILES IDX 33 14 34 15 35 16 82 17 36 18 87 19 81 20 83 21 37 22 86 23
REMARK SMILES IDX 80 24 79 25 38 27 68 28 49 29 67 30 50 31 53 32 66 33 84 34
REMARK SMILES IDX 51 35 52 36 65 38 85 39 54 40 39 41 40 42 48 43 41 44 47 45
REMARK SMILES IDX 42 46 43 47 44 48 45 49 46 50 69 51 70 52 78 53 71 54 77 55
REMARK SMILES IDX 72 56 73 57 74 58 75 59 76 60 55 61 56 62 64 63 57 64 63 65
REMARK SMILES IDX 58 66 59 67 60 68 61 69 62 70 8 71 9 72 10 73 11 74 12 76
REMARK SMILES IDX 13 77 14 78 29 79 15 80 16 81 17 82 18 83 19 84 20 86 21 87
REMARK SMILES IDX 22 88 28 89 23 90 27 91 24 92 25 93 26 94
REMARK H PARENT 3 8 83 26 53 37 10 75 18 85 26 95
REMARK Flexibility Score: inf
ROOT
ATOM      1  C   UNL     1       6.072   3.638  -2.692  1.00  0.00     0.002 C 
ENDROOT
BRANCH   1   2
ATOM      2  C   UNL     1       6.175   5.060  -2.129  1.00  0.00     0.002 C 
BRANCH   2   3
ATOM      3  C   UNL     1       5.142   6.053  -2.661  1.00  0.00     0.021 C 
BRANCH   3   4
ATOM      4  C   UNL     1       3.692   5.648  -2.442  1.00  0.00     0.116 C 
BRANCH   4   5
ATOM      5  N   UNL     1       3.307   5.671  -1.041  1.00  0.00    -0.352 N 
ATOM      6  O   UNL     1       2.104   6.312   0.759  1.00  0.00    -0.269 OA
ATOM      7  C   UNL     1       2.203   6.254  -0.463  1.00  0.00     0.251 C 
ATOM      8  H   UNL     1       3.918   5.208  -0.423  1.00  0.00     0.163 HD
BRANCH   7   9
ATOM      9  C   UNL     1       1.148   6.834  -1.325  1.00  0.00     0.039 A 
ATOM     10  C   UNL     1       0.685   6.136  -2.442  1.00  0.00     0.014 A 
ATOM     11  C   UNL     1       0.624   8.094  -1.019  1.00  0.00     0.014 A 
ATOM     12  C   UNL     1      -0.189   6.755  -3.328  1.00  0.00     0.010 A 
ATOM     13  C   UNL     1      -0.324   8.679  -1.867  1.00  0.00     0.010 A 
ATOM     14  C   UNL     1      -0.717   8.027  -3.045  1.00  0.00    -0.014 A 
BRANCH  14  15
ATOM     15  C   UNL     1      -1.728   8.601  -3.970  1.00  0.00     0.031 A 
ATOM     16  C   UNL     1      -1.450   9.842  -4.773  1.00  0.00     0.074 A 
ATOM     17  C   UNL     1      -2.892   7.939  -4.130  1.00  0.00     0.049 A 
ATOM     18  N   UNL     1      -2.195  10.408  -5.689  1.00  0.00    -0.248 NA
ATOM     19  C   UNL     1      -0.182  10.543  -4.517  1.00  0.00     0.031 C 
ATOM     20  C   UNL     1      -3.284   6.736  -3.389  1.00  0.00     0.029 A 
ATOM     21  N   UNL     1      -3.939   8.155  -4.987  1.00  0.00    -0.354 N 
ATOM     22  C   UNL     1      -1.496  11.532  -6.113  1.00  0.00     0.074 A 
ATOM     23  C   UNL     1      -0.277  11.585  -5.333  1.00  0.00     0.031 C 
ATOM     24  C   UNL     1      -4.452   6.285  -3.867  1.00  0.00     0.029 A 
ATOM     25  C   UNL     1      -4.920   7.195  -4.905  1.00  0.00     0.049 A 
ATOM     26  H   UNL     1      -3.985   8.922  -5.601  1.00  0.00     0.167 HD
ATOM     27  C   UNL     1      -1.835  12.432  -7.068  1.00  0.00     0.031 A 
ATOM     28  C   UNL     1      -6.073   7.058  -5.585  1.00  0.00     0.031 A 
ATOM     29  C   UNL     1      -3.053  12.381  -7.836  1.00  0.00     0.049 A 
ATOM     30  C   UNL     1      -6.420   8.065  -6.641  1.00  0.00     0.074 A 
ATOM     31  C   UNL     1      -3.486  13.248  -8.826  1.00  0.00     0.029 A 
ATOM     32  N   UNL     1      -4.033  11.408  -7.706  1.00  0.00    -0.354 N 
ATOM     33  N   UNL     1      -5.733   9.111  -7.035  1.00  0.00    -0.248 NA
ATOM     34  C   UNL     1      -7.692   7.872  -7.346  1.00  0.00     0.031 C 
ATOM     35  C   UNL     1      -4.742  12.819  -9.269  1.00  0.00     0.029 A 
ATOM     36  C   UNL     1      -5.071  11.658  -8.589  1.00  0.00     0.049 A 
ATOM     37  H   UNL     1      -3.995  10.650  -7.079  1.00  0.00     0.167 HD
ATOM     38  C   UNL     1      -6.493   9.703  -8.035  1.00  0.00     0.074 A 
ATOM     39  C   UNL     1      -7.671   8.877  -8.210  1.00  0.00     0.031 C 
ATOM     40  C   UNL     1      -6.244  10.835  -8.738  1.00  0.00     0.031 A 
BRANCH  27  41
ATOM     41  C   UNL     1      -0.877  13.564  -7.333  1.00  0.00    -0.014 A 
ATOM     42  C   UNL     1       0.327  13.343  -8.025  1.00  0.00     0.010 A 
ATOM     43  C   UNL     1      -1.210  14.874  -6.942  1.00  0.00     0.010 A 
ATOM     44  C   UNL     1       1.194  14.406  -8.296  1.00  0.00     0.020 A 
ATOM     45  C   UNL     1      -0.356  15.943  -7.229  1.00  0.00     0.020 A 
ATOM     46  C   UNL     1       0.849  15.700  -7.893  1.00  0.00     0.054 A 
BRANCH  46  47
ATOM     47  S   UNL     1       1.978  17.065  -8.284  1.00  0.00     0.124 S 
ATOM     48  O   UNL     1       3.055  16.848  -7.320  1.00  0.00    -0.237 OA
ATOM     49  O   UNL     1       2.325  16.805  -9.679  1.00  0.00    -0.237 OA
ATOM     50  O   UNL     1       1.170  18.260  -8.058  1.00  0.00    -0.744 OA
ENDBRANCH  46  47
ENDBRANCH  27  41
BRANCH  28  51
ATOM     51  C   UNL     1      -6.985   5.928  -5.266  1.00  0.00    -0.014 A 
ATOM     52  C   UNL     1      -7.160   4.864  -6.168  1.00  0.00     0.010 A 
ATOM     53  C   UNL     1      -7.664   5.902  -4.034  1.00  0.00     0.010 A 
ATOM     54  C   UNL     1      -8.011   3.802  -5.849  1.00  0.00     0.020 A 
ATOM     55  C   UNL     1      -8.492   4.829  -3.700  1.00  0.00     0.020 A 
ATOM     56  C   UNL     1      -8.671   3.791  -4.616  1.00  0.00     0.054 A 
BRANCH  56  57
ATOM     57  S   UNL     1      -9.727   2.378  -4.193  1.00  0.00     0.124 S 
ATOM     58  O   UNL     1     -10.949   2.684  -4.929  1.00  0.00    -0.237 OA
ATOM     59  O   UNL     1      -8.955   1.242  -4.690  1.00  0.00    -0.237 OA
ATOM     60  O   UNL     1      -9.832   2.459  -2.738  1.00  0.00    -0.744 OA
ENDBRANCH  56  57
ENDBRANCH  28  51
BRANCH  40  61
ATOM     61  C   UNL     1      -7.269  11.234  -9.762  1.00  0.00    -0.014 A 
ATOM     62  C   UNL     1      -8.513  11.763  -9.371  1.00  0.00     0.010 A 
ATOM     63  C   UNL     1      -6.984  11.085 -11.131  1.00  0.00     0.010 A 
ATOM     64  C   UNL     1      -9.473  12.090 -10.332  1.00  0.00     0.020 A 
ATOM     65  C   UNL     1      -7.933  11.434 -12.095  1.00  0.00     0.020 A 
ATOM     66  C   UNL     1      -9.179  11.916 -11.688  1.00  0.00     0.054 A 
BRANCH  66  67
ATOM     67  S   UNL     1     -10.436  12.355 -12.919  1.00  0.00     0.124 S 
ATOM     68  O   UNL     1     -11.343  11.213 -12.846  1.00  0.00    -0.237 OA
ATOM     69  O   UNL     1     -10.968  13.614 -12.405  1.00  0.00    -0.237 OA
ATOM     70  O   UNL     1      -9.675  12.468 -14.162  1.00  0.00    -0.744 OA
ENDBRANCH  66  67
ENDBRANCH  40  61
ENDBRANCH  14  15
ENDBRANCH   7   9
ENDBRANCH   4   5
ENDBRANCH   3   4
ENDBRANCH   2   3
ENDBRANCH   1   2
BRANCH   1  71
ATOM     71  C   UNL     1       6.042   3.528  -4.223  1.00  0.00     0.021 C 
BRANCH  71  72
ATOM     72  C   UNL     1       7.220   4.198  -4.930  1.00  0.00     0.116 C 
BRANCH  72  73
ATOM     73  N   UNL     1       8.473   3.570  -4.566  1.00  0.00    -0.354 N 
ATOM     74  C   UNL     1       9.274   2.753  -5.312  1.00  0.00     0.249 C 
ATOM     75  H   UNL     1       8.792   3.757  -3.653  1.00  0.00     0.163 HD
ATOM     76  O   UNL     1      10.246   2.233  -4.761  1.00  0.00    -0.272 OA
BRANCH  74  77
ATOM     77  C   UNL     1       8.955   2.557  -6.808  1.00  0.00     0.207 C 
ATOM     78  C   UNL     1       9.434   3.759  -7.608  1.00  0.00     0.045 C 
ATOM     79  O   UNL     1       9.640   1.423  -7.356  1.00  0.00    -0.363 OA
ATOM     80  C   UNL     1      10.870   3.382  -7.893  1.00  0.00     0.037 C 
ATOM     81  C   UNL     1      10.755   1.885  -8.147  1.00  0.00     0.138 C 
BRANCH  81  82
ATOM     82  C   UNL     1      11.992   1.012  -7.861  1.00  0.00     0.148 C 
BRANCH  82  83
ATOM     83  N   UNL     1      13.168   1.748  -7.423  1.00  0.00    -0.349 N 
ATOM     84  C   UNL     1      13.799   1.729  -6.205  1.00  0.00     0.251 C 
ATOM     85  H   UNL     1      13.569   2.345  -8.096  1.00  0.00     0.163 HD
ATOM     86  O   UNL     1      14.627   2.596  -5.936  1.00  0.00    -0.269 OA
BRANCH  84  87
ATOM     87  C   UNL     1      13.531   0.654  -5.226  1.00  0.00     0.039 A 
ATOM     88  C   UNL     1      13.290   1.000  -3.894  1.00  0.00     0.014 A 
ATOM     89  C   UNL     1      13.642  -0.691  -5.591  1.00  0.00     0.014 A 
ATOM     90  C   UNL     1      13.124  -0.001  -2.933  1.00  0.00     0.007 A 
ATOM     91  C   UNL     1      13.474  -1.691  -4.629  1.00  0.00     0.007 A 
ATOM     92  C   UNL     1      13.207  -1.354  -3.294  1.00  0.00    -0.023 A 
BRANCH  92  93
ATOM     93  C   UNL     1      13.073  -2.426  -2.246  1.00  0.00     0.191 C 
BRANCH  93  94
ATOM     94  O   UNL     1      14.290  -2.576  -1.524  1.00  0.00    -0.392 OA
ATOM     95  H   UNL     1      14.999  -2.832  -2.135  1.00  0.00     0.211 HD
ENDBRANCH  93  94
ENDBRANCH  92  93
ENDBRANCH  84  87
ENDBRANCH  82  83
ENDBRANCH  81  82
ENDBRANCH  74  77
ENDBRANCH  72  73
ENDBRANCH  71  72
ENDBRANCH   1  71
TORSDOF 21
