REMARK SMILES O=C(NCCCCCCNC(=O)c1ccc(-c2ccc(Cl)c3ccccc23)o1)c1ccc(-c2c3nc(c(-c4ccc(S(=O)(=O)[O-])cc4)c4ccc([nH]4)c(-c4ccc(S(=O)(=O)[O-])cc4)c4nc(c(-c5ccc(S(=O)(=O)[O-])cc5)c5ccc2[nH]5)C=C4)C=C3)cc1
REMARK SMILES IDX 5 1 4 2 3 3 1 4 2 5 29 7 30 8 88 9 31 10 87 11 32 12 33 13
REMARK SMILES IDX 34 14 81 15 35 16 86 17 80 18 82 19 36 20 85 21 79 22 78 23
REMARK SMILES IDX 37 25 67 26 48 27 66 28 49 29 52 30 65 31 83 32 50 33 51 34
REMARK SMILES IDX 64 36 84 37 53 38 38 39 39 40 47 41 40 42 46 43 41 44 42 45
REMARK SMILES IDX 43 46 44 47 45 48 68 49 69 50 77 51 70 52 76 53 71 54 72 55
REMARK SMILES IDX 73 56 74 57 75 58 54 59 55 60 63 61 56 62 62 63 57 64 58 65
REMARK SMILES IDX 59 66 60 67 61 68 6 69 7 70 8 71 9 72 10 73 11 74 12 76
REMARK SMILES IDX 13 77 14 78 28 79 15 80 16 81 17 82 18 83 27 84 19 85 22 86
REMARK SMILES IDX 26 87 20 88 23 89 25 90 21 91 24 92
REMARK H PARENT 3 6 82 24 52 35 10 75
REMARK Flexibility Score: inf
ROOT
ATOM      1  C   UNL     1       4.666  -1.677  -2.243  1.00  0.00     0.021 C 
ENDROOT
BRANCH   1   2
ATOM      2  C   UNL     1       4.428  -0.438  -1.388  1.00  0.00     0.116 C 
BRANCH   2   3
ATOM      3  N   UNL     1       3.016  -0.146  -1.210  1.00  0.00    -0.352 N 
ATOM      4  O   UNL     1       1.085   0.116  -0.075  1.00  0.00    -0.269 OA
ATOM      5  C   UNL     1       2.310   0.039  -0.046  1.00  0.00     0.251 C 
ATOM      6  H   UNL     1       2.491  -0.071  -2.040  1.00  0.00     0.163 HD
BRANCH   5   7
ATOM      7  C   UNL     1       3.031   0.122   1.244  1.00  0.00     0.039 A 
ATOM      8  C   UNL     1       4.183   0.903   1.369  1.00  0.00     0.014 A 
ATOM      9  C   UNL     1       2.541  -0.585   2.346  1.00  0.00     0.014 A 
ATOM     10  C   UNL     1       4.915   0.872   2.550  1.00  0.00     0.010 A 
ATOM     11  C   UNL     1       3.236  -0.549   3.559  1.00  0.00     0.010 A 
ATOM     12  C   UNL     1       4.442   0.159   3.664  1.00  0.00    -0.014 A 
BRANCH  12  13
ATOM     13  C   UNL     1       5.187   0.236   4.947  1.00  0.00     0.031 A 
ATOM     14  C   UNL     1       5.837  -0.978   5.551  1.00  0.00     0.074 A 
ATOM     15  C   UNL     1       5.286   1.433   5.561  1.00  0.00     0.049 A 
ATOM     16  N   UNL     1       6.541  -1.069   6.651  1.00  0.00    -0.248 NA
ATOM     17  C   UNL     1       5.674  -2.254   4.837  1.00  0.00     0.031 C 
ATOM     18  C   UNL     1       4.684   2.679   5.077  1.00  0.00     0.029 A 
ATOM     19  N   UNL     1       5.937   1.803   6.708  1.00  0.00    -0.354 N 
ATOM     20  C   UNL     1       6.888  -2.409   6.774  1.00  0.00     0.074 A 
ATOM     21  C   UNL     1       6.300  -3.099   5.646  1.00  0.00     0.031 C 
ATOM     22  C   UNL     1       5.031   3.682   5.896  1.00  0.00     0.029 A 
ATOM     23  C   UNL     1       5.824   3.143   6.995  1.00  0.00     0.049 A 
ATOM     24  H   UNL     1       6.438   1.171   7.273  1.00  0.00     0.167 HD
ATOM     25  C   UNL     1       7.628  -3.007   7.739  1.00  0.00     0.031 A 
ATOM     26  C   UNL     1       6.289   3.862   8.033  1.00  0.00     0.031 A 
ATOM     27  C   UNL     1       8.210  -2.313   8.860  1.00  0.00     0.049 A 
ATOM     28  C   UNL     1       7.092   3.172   9.096  1.00  0.00     0.074 A 
ATOM     29  C   UNL     1       9.009  -2.825   9.868  1.00  0.00     0.029 A 
ATOM     30  N   UNL     1       8.050  -0.961   9.128  1.00  0.00    -0.354 N 
ATOM     31  N   UNL     1       7.442   1.911   9.171  1.00  0.00    -0.248 NA
ATOM     32  C   UNL     1       7.564   4.002  10.211  1.00  0.00     0.031 C 
ATOM     33  C   UNL     1       9.288  -1.795  10.773  1.00  0.00     0.029 A 
ATOM     34  C   UNL     1       8.713  -0.628  10.298  1.00  0.00     0.049 A 
ATOM     35  H   UNL     1       7.541  -0.331   8.568  1.00  0.00     0.167 HD
ATOM     36  C   UNL     1       8.188   1.796  10.337  1.00  0.00     0.074 A 
ATOM     37  C   UNL     1       8.256   3.121  10.922  1.00  0.00     0.031 C 
ATOM     38  C   UNL     1       8.762   0.692  10.875  1.00  0.00     0.031 A 
BRANCH  25  39
ATOM     39  C   UNL     1       7.834  -4.497   7.645  1.00  0.00    -0.014 A 
ATOM     40  C   UNL     1       8.686  -5.058   6.678  1.00  0.00     0.010 A 
ATOM     41  C   UNL     1       7.210  -5.345   8.579  1.00  0.00     0.010 A 
ATOM     42  C   UNL     1       8.883  -6.441   6.624  1.00  0.00     0.020 A 
ATOM     43  C   UNL     1       7.423  -6.727   8.544  1.00  0.00     0.020 A 
ATOM     44  C   UNL     1       8.247  -7.267   7.556  1.00  0.00     0.054 A 
BRANCH  44  45
ATOM     45  S   UNL     1       8.539  -9.056   7.476  1.00  0.00     0.124 S 
ATOM     46  O   UNL     1       7.769  -9.434   6.294  1.00  0.00    -0.237 OA
ATOM     47  O   UNL     1       9.990  -9.138   7.330  1.00  0.00    -0.237 OA
ATOM     48  O   UNL     1       8.014  -9.552   8.746  1.00  0.00    -0.744 OA
ENDBRANCH  44  45
ENDBRANCH  25  39
BRANCH  26  49
ATOM     49  C   UNL     1       5.984   5.316   8.111  1.00  0.00    -0.014 A 
ATOM     50  C   UNL     1       6.992   6.272   7.904  1.00  0.00     0.010 A 
ATOM     51  C   UNL     1       4.666   5.748   8.349  1.00  0.00     0.010 A 
ATOM     52  C   UNL     1       6.688   7.636   7.939  1.00  0.00     0.020 A 
ATOM     53  C   UNL     1       4.353   7.109   8.356  1.00  0.00     0.020 A 
ATOM     54  C   UNL     1       5.369   8.045   8.160  1.00  0.00     0.054 A 
BRANCH  54  55
ATOM     55  S   UNL     1       4.984   9.818   8.130  1.00  0.00     0.124 S 
ATOM     56  O   UNL     1       5.509  10.263   9.416  1.00  0.00    -0.237 OA
ATOM     57  O   UNL     1       5.714  10.281   6.952  1.00  0.00    -0.237 OA
ATOM     58  O   UNL     1       3.529   9.848   8.001  1.00  0.00    -0.744 OA
ENDBRANCH  54  55
ENDBRANCH  26  49
BRANCH  38  59
ATOM     59  C   UNL     1       9.535   0.875  12.153  1.00  0.00    -0.014 A 
ATOM     60  C   UNL     1       8.876   1.105  13.374  1.00  0.00     0.010 A 
ATOM     61  C   UNL     1      10.938   0.777  12.137  1.00  0.00     0.010 A 
ATOM     62  C   UNL     1       9.610   1.265  14.552  1.00  0.00     0.020 A 
ATOM     63  C   UNL     1      11.673   0.910  13.317  1.00  0.00     0.020 A 
ATOM     64  C   UNL     1      11.005   1.169  14.515  1.00  0.00     0.054 A 
BRANCH  64  65
ATOM     65  S   UNL     1      11.934   1.344  16.063  1.00  0.00     0.124 S 
ATOM     66  O   UNL     1      11.866   2.784  16.296  1.00  0.00    -0.237 OA
ATOM     67  O   UNL     1      11.168   0.519  16.994  1.00  0.00    -0.237 OA
ATOM     68  O   UNL     1      13.260   0.829  15.730  1.00  0.00    -0.744 OA
ENDBRANCH  64  65
ENDBRANCH  38  59
ENDBRANCH  12  13
ENDBRANCH   5   7
ENDBRANCH   2   3
ENDBRANCH   1   2
BRANCH   1  69
ATOM     69  C   UNL     1       4.201  -1.560  -3.695  1.00  0.00     0.002 C 
BRANCH  69  70
ATOM     70  C   UNL     1       4.778  -0.376  -4.479  1.00  0.00     0.002 C 
BRANCH  70  71
ATOM     71  C   UNL     1       6.305  -0.251  -4.458  1.00  0.00     0.021 C 
BRANCH  71  72
ATOM     72  C   UNL     1       7.059  -1.478  -4.970  1.00  0.00     0.116 C 
BRANCH  72  73
ATOM     73  N   UNL     1       6.832  -1.693  -6.388  1.00  0.00    -0.349 N 
ATOM     74  C   UNL     1       7.761  -1.779  -7.399  1.00  0.00     0.287 C 
ATOM     75  H   UNL     1       5.892  -1.789  -6.661  1.00  0.00     0.163 HD
ATOM     76  O   UNL     1       7.351  -1.725  -8.561  1.00  0.00    -0.266 OA
BRANCH  74  77
ATOM     77  C   UNL     1       9.152  -1.940  -7.045  1.00  0.00     0.192 A 
ATOM     78  C   UNL     1       9.785  -2.785  -6.151  1.00  0.00     0.057 A 
ATOM     79  O   UNL     1      10.085  -1.153  -7.666  1.00  0.00    -0.451 OA
ATOM     80  C   UNL     1      11.161  -2.469  -6.196  1.00  0.00     0.052 A 
ATOM     81  C   UNL     1      11.298  -1.454  -7.121  1.00  0.00     0.135 A 
BRANCH  81  82
ATOM     82  C   UNL     1      12.454  -0.724  -7.629  1.00  0.00     0.025 A 
ATOM     83  C   UNL     1      13.522  -1.498  -8.110  1.00  0.00     0.014 A 
ATOM     84  C   UNL     1      12.559   0.699  -7.596  1.00  0.00    -0.006 A 
ATOM     85  C   UNL     1      14.691  -0.896  -8.555  1.00  0.00     0.022 A 
ATOM     86  C   UNL     1      13.764   1.315  -8.042  1.00  0.00     0.001 A 
ATOM     87  C   UNL     1      11.524   1.542  -7.116  1.00  0.00     0.009 A 
ATOM     88  C   UNL     1      14.815   0.491  -8.518  1.00  0.00     0.048 A 
ATOM     89  C   UNL     1      13.867   2.727  -7.980  1.00  0.00     0.010 A 
ATOM     90  C   UNL     1      11.654   2.932  -7.074  1.00  0.00     0.001 A 
ATOM     91  Cl  UNL     1      16.324   1.142  -9.076  1.00  0.00    -0.084 Cl
ATOM     92  C   UNL     1      12.828   3.525  -7.503  1.00  0.00     0.001 A 
ENDBRANCH  81  82
ENDBRANCH  74  77
ENDBRANCH  72  73
ENDBRANCH  71  72
ENDBRANCH  70  71
ENDBRANCH  69  70
ENDBRANCH   1  69
TORSDOF 17
