REMARK SMILES COc1cccc(C[C@H](C(=O)NCCCCCCNC(=O)c2ccc(-c3c4nc(c(-c5ccc(S(=O)(=O)[O-])cc5)c5ccc([nH]5)c(-c5ccc(S(=O)(=O)[O-])cc5)c5nc(c(-c6ccc(S(=O)(=O)[O-])cc6)c6ccc3[nH]6)C=C5)C=C4)cc2)c2cccc(C)c2)n1
REMARK SMILES IDX 15 1 14 2 13 3 12 4 10 5 11 6 9 8 8 9 7 10 3 11 4 12 89 13
REMARK SMILES IDX 5 14 6 15 2 16 1 17 82 18 83 19 88 20 84 21 86 22 85 23
REMARK SMILES IDX 87 24 16 25 17 26 18 27 19 28 20 29 21 31 22 32 23 33 81 34
REMARK SMILES IDX 24 35 80 36 25 37 26 38 27 39 74 40 28 41 79 42 73 43 75 44
REMARK SMILES IDX 29 45 78 46 72 47 71 48 30 50 60 51 41 52 59 53 42 54 45 55
REMARK SMILES IDX 58 56 76 57 43 58 44 59 57 61 77 62 46 63 31 64 32 65 40 66
REMARK SMILES IDX 33 67 39 68 34 69 35 70 36 71 37 72 38 73 61 74 62 75 70 76
REMARK SMILES IDX 63 77 69 78 64 79 65 80 66 81 67 82 68 83 47 84 48 85 56 86
REMARK SMILES IDX 49 87 55 88 50 89 51 90 52 91 53 92 54 93
REMARK H PARENT 12 7 19 30 75 49 45 60
REMARK Flexibility Score: inf
ROOT
ATOM      1  C   UNL     1      -2.492  -8.712  -0.861  1.00  0.00     0.002 C 
ENDROOT
BRANCH   1   2
ATOM      2  C   UNL     1      -2.896  -7.716   0.227  1.00  0.00     0.021 C 
BRANCH   2   3
ATOM      3  C   UNL     1      -1.768  -7.403   1.209  1.00  0.00     0.116 C 
BRANCH   3   4
ATOM      4  N   UNL     1      -1.350  -6.015   1.176  1.00  0.00    -0.356 N 
ATOM      5  C   UNL     1      -1.191  -5.063   2.136  1.00  0.00     0.227 C 
ATOM      6  O   UNL     1      -0.674  -4.008   1.737  1.00  0.00    -0.274 OA
ATOM      7  H   UNL     1      -1.138  -5.693   0.270  1.00  0.00     0.163 HD
BRANCH   5   8
ATOM      8  C   UNL     1      -1.524  -5.241   3.636  1.00  0.00     0.114 C 
BRANCH   8   9
ATOM      9  C   UNL     1      -1.767  -3.821   4.238  1.00  0.00     0.074 C 
BRANCH   9  10
ATOM     10  C   UNL     1      -2.455  -3.776   5.584  1.00  0.00     0.046 A 
ATOM     11  C   UNL     1      -3.226  -4.981   7.389  1.00  0.00     0.213 A 
ATOM     12  C   UNL     1      -4.135  -3.997   7.737  1.00  0.00     0.068 A 
ATOM     13  N   UNL     1      -2.338  -4.856   6.387  1.00  0.00    -0.219 NA
ATOM     14  C   UNL     1      -4.148  -2.826   6.990  1.00  0.00     0.007 A 
ATOM     15  C   UNL     1      -3.303  -2.713   5.889  1.00  0.00     0.024 A 
BRANCH  11  16
ATOM     16  O   UNL     1      -3.219  -6.193   8.027  1.00  0.00    -0.481 OA
ATOM     17  C   UNL     1      -4.425  -6.910   7.754  1.00  0.00     0.280 C 
ENDBRANCH  11  16
ENDBRANCH   9  10
ENDBRANCH   8   9
BRANCH   8  18
ATOM     18  C   UNL     1      -2.633  -6.242   3.931  1.00  0.00    -0.035 A 
ATOM     19  C   UNL     1      -3.980  -5.977   3.655  1.00  0.00     0.004 A 
ATOM     20  C   UNL     1      -2.280  -7.501   4.464  1.00  0.00     0.008 A 
ATOM     21  C   UNL     1      -4.942  -6.965   3.865  1.00  0.00     0.001 A 
ATOM     22  C   UNL     1      -3.224  -8.528   4.563  1.00  0.00    -0.051 A 
ATOM     23  C   UNL     1      -4.564  -8.241   4.293  1.00  0.00     0.003 A 
ATOM     24  C   UNL     1      -2.776  -9.915   4.915  1.00  0.00     0.044 C 
ENDBRANCH   8  18
ENDBRANCH   5   8
ENDBRANCH   3   4
ENDBRANCH   2   3
ENDBRANCH   1   2
BRANCH   1  25
ATOM     25  C   UNL     1      -1.859 -10.021  -0.369  1.00  0.00     0.002 C 
BRANCH  25  26
ATOM     26  C   UNL     1      -2.656 -10.804   0.678  1.00  0.00     0.021 C 
BRANCH  26  27
ATOM     27  C   UNL     1      -4.078 -11.176   0.270  1.00  0.00     0.116 C 
BRANCH  27  28
ATOM     28  N   UNL     1      -4.121 -11.847  -1.020  1.00  0.00    -0.352 N 
ATOM     29  C   UNL     1      -4.621 -13.072  -1.362  1.00  0.00     0.251 C 
ATOM     30  H   UNL     1      -3.727 -11.338  -1.765  1.00  0.00     0.163 HD
ATOM     31  O   UNL     1      -4.369 -13.541  -2.477  1.00  0.00    -0.269 OA
BRANCH  29  32
ATOM     32  C   UNL     1      -5.450 -13.840  -0.414  1.00  0.00     0.039 A 
ATOM     33  C   UNL     1      -5.250 -15.219  -0.305  1.00  0.00     0.014 A 
ATOM     34  C   UNL     1      -6.449 -13.216   0.340  1.00  0.00     0.014 A 
ATOM     35  C   UNL     1      -6.017 -15.963   0.593  1.00  0.00     0.010 A 
ATOM     36  C   UNL     1      -7.165 -13.947   1.285  1.00  0.00     0.010 A 
ATOM     37  C   UNL     1      -6.961 -15.329   1.417  1.00  0.00    -0.014 A 
BRANCH  37  38
ATOM     38  C   UNL     1      -7.741 -16.097   2.420  1.00  0.00     0.031 A 
ATOM     39  C   UNL     1      -9.236 -16.211   2.294  1.00  0.00     0.074 A 
ATOM     40  C   UNL     1      -7.106 -16.650   3.472  1.00  0.00     0.049 A 
ATOM     41  N   UNL     1     -10.087 -16.800   3.094  1.00  0.00    -0.248 NA
ATOM     42  C   UNL     1      -9.860 -15.560   1.130  1.00  0.00     0.031 C 
ATOM     43  C   UNL     1      -5.663 -16.580   3.723  1.00  0.00     0.029 A 
ATOM     44  N   UNL     1      -7.590 -17.377   4.530  1.00  0.00    -0.354 N 
ATOM     45  C   UNL     1     -11.344 -16.581   2.540  1.00  0.00     0.074 A 
ATOM     46  C   UNL     1     -11.149 -15.762   1.364  1.00  0.00     0.031 C 
ATOM     47  C   UNL     1      -5.378 -17.260   4.845  1.00  0.00     0.029 A 
ATOM     48  C   UNL     1      -6.617 -17.776   5.417  1.00  0.00     0.049 A 
ATOM     49  H   UNL     1      -8.544 -17.593   4.644  1.00  0.00     0.167 HD
ATOM     50  C   UNL     1     -12.548 -17.036   2.962  1.00  0.00     0.031 A 
ATOM     51  C   UNL     1      -6.711 -18.472   6.567  1.00  0.00     0.031 A 
ATOM     52  C   UNL     1     -12.735 -17.857   4.130  1.00  0.00     0.049 A 
ATOM     53  C   UNL     1      -8.063 -18.948   7.025  1.00  0.00     0.074 A 
ATOM     54  C   UNL     1     -13.908 -18.410   4.613  1.00  0.00     0.029 A 
ATOM     55  N   UNL     1     -11.725 -18.239   5.000  1.00  0.00    -0.354 N 
ATOM     56  N   UNL     1      -9.232 -18.784   6.452  1.00  0.00    -0.248 NA
ATOM     57  C   UNL     1      -8.107 -19.715   8.277  1.00  0.00     0.031 C 
ATOM     58  C   UNL     1     -13.617 -19.078   5.806  1.00  0.00     0.029 A 
ATOM     59  C   UNL     1     -12.252 -18.998   6.032  1.00  0.00     0.049 A 
ATOM     60  H   UNL     1     -10.774 -18.006   4.899  1.00  0.00     0.167 HD
ATOM     61  C   UNL     1     -10.146 -19.451   7.260  1.00  0.00     0.074 A 
ATOM     62  C   UNL     1      -9.391 -20.035   8.351  1.00  0.00     0.031 C 
ATOM     63  C   UNL     1     -11.488 -19.572   7.111  1.00  0.00     0.031 A 
BRANCH  50  64
ATOM     64  C   UNL     1     -13.763 -16.650   2.158  1.00  0.00    -0.014 A 
ATOM     65  C   UNL     1     -13.977 -17.169   0.868  1.00  0.00     0.010 A 
ATOM     66  C   UNL     1     -14.730 -15.796   2.719  1.00  0.00     0.010 A 
ATOM     67  C   UNL     1     -15.115 -16.810   0.140  1.00  0.00     0.020 A 
ATOM     68  C   UNL     1     -15.885 -15.459   2.006  1.00  0.00     0.020 A 
ATOM     69  C   UNL     1     -16.062 -15.957   0.714  1.00  0.00     0.054 A 
BRANCH  69  70
ATOM     70  S   UNL     1     -17.542 -15.532  -0.244  1.00  0.00     0.124 S 
ATOM     71  O   UNL     1     -16.993 -14.647  -1.269  1.00  0.00    -0.237 OA
ATOM     72  O   UNL     1     -18.000 -16.835  -0.720  1.00  0.00    -0.237 OA
ATOM     73  O   UNL     1     -18.415 -14.886   0.733  1.00  0.00    -0.744 OA
ENDBRANCH  69  70
ENDBRANCH  50  64
BRANCH  51  74
ATOM     74  C   UNL     1      -5.487 -18.765   7.362  1.00  0.00    -0.014 A 
ATOM     75  C   UNL     1      -4.998 -20.080   7.465  1.00  0.00     0.010 A 
ATOM     76  C   UNL     1      -4.797 -17.728   8.015  1.00  0.00     0.010 A 
ATOM     77  C   UNL     1      -3.857 -20.355   8.225  1.00  0.00     0.020 A 
ATOM     78  C   UNL     1      -3.638 -17.993   8.750  1.00  0.00     0.020 A 
ATOM     79  C   UNL     1      -3.183 -19.308   8.861  1.00  0.00     0.054 A 
BRANCH  79  80
ATOM     80  S   UNL     1      -1.681 -19.683   9.806  1.00  0.00     0.124 S 
ATOM     81  O   UNL     1      -2.222 -20.351  10.985  1.00  0.00    -0.237 OA
ATOM     82  O   UNL     1      -0.932 -20.532   8.883  1.00  0.00    -0.237 OA
ATOM     83  O   UNL     1      -1.092 -18.367  10.047  1.00  0.00    -0.744 OA
ENDBRANCH  79  80
ENDBRANCH  51  74
BRANCH  63  84
ATOM     84  C   UNL     1     -12.228 -20.396   8.132  1.00  0.00    -0.014 A 
ATOM     85  C   UNL     1     -12.415 -19.936   9.448  1.00  0.00     0.010 A 
ATOM     86  C   UNL     1     -12.794 -21.626   7.750  1.00  0.00     0.010 A 
ATOM     87  C   UNL     1     -13.126 -20.707  10.371  1.00  0.00     0.020 A 
ATOM     88  C   UNL     1     -13.532 -22.385   8.661  1.00  0.00     0.020 A 
ATOM     89  C   UNL     1     -13.681 -21.927   9.971  1.00  0.00     0.054 A 
BRANCH  89  90
ATOM     90  S   UNL     1     -14.638 -22.887  11.176  1.00  0.00     0.124 S 
ATOM     91  O   UNL     1     -13.592 -23.395  12.059  1.00  0.00    -0.237 OA
ATOM     92  O   UNL     1     -15.519 -21.878  11.760  1.00  0.00    -0.237 OA
ATOM     93  O   UNL     1     -15.310 -23.896  10.361  1.00  0.00    -0.744 OA
ENDBRANCH  89  90
ENDBRANCH  63  84
ENDBRANCH  37  38
ENDBRANCH  29  32
ENDBRANCH  27  28
ENDBRANCH  26  27
ENDBRANCH  25  26
ENDBRANCH   1  25
TORSDOF 20
