REMARK SMILES CCc1ccc2c(CC(=O)NCCCCCCNC(=O)c3ccc(-c4c5nc(c(-c6ccc(S(=O)(=O)[O-])cc6)c6ccc([nH]6)c(-c6ccc(S(=O)(=O)[O-])cc6)c6nc(c(-c7ccc(S(=O)(=O)[O-])cc7)c7ccc4[nH]7)C=C6)C=C5)cc3)c(C(=O)c3cc(C)ccn3)[nH]c2c1
REMARK SMILES IDX 14 1 13 2 12 3 11 4 9 5 10 6 8 8 7 9 3 10 4 11 93 12 5 13
REMARK SMILES IDX 92 14 6 15 91 16 81 17 2 19 1 20 82 21 83 22 84 23 85 24
REMARK SMILES IDX 90 25 86 26 89 27 87 28 88 29 15 30 16 31 17 32 18 33 19 34
REMARK SMILES IDX 20 36 21 37 22 38 80 39 23 40 79 41 24 42 25 43 26 44 73 45
REMARK SMILES IDX 27 46 78 47 72 48 74 49 28 50 77 51 71 52 70 53 29 55 59 56
REMARK SMILES IDX 40 57 58 58 41 59 44 60 57 61 75 62 42 63 43 64 56 66 76 67
REMARK SMILES IDX 45 68 30 69 31 70 39 71 32 72 38 73 33 74 34 75 35 76 36 77
REMARK SMILES IDX 37 78 60 79 61 80 69 81 62 82 68 83 63 84 64 85 65 86 66 87
REMARK SMILES IDX 67 88 46 89 47 90 55 91 48 92 54 93 49 94 50 95 51 96 52 97
REMARK SMILES IDX 53 98
REMARK H PARENT 11 7 91 18 18 35 74 54 44 65
REMARK Flexibility Score: inf
ROOT
ATOM      1  C   UNL     1      -1.196   4.594   7.558  1.00  0.00     0.002 C 
ENDROOT
BRANCH   1   2
ATOM      2  C   UNL     1      -0.561   4.314   6.189  1.00  0.00     0.021 C 
BRANCH   2   3
ATOM      3  C   UNL     1      -0.688   5.465   5.193  1.00  0.00     0.116 C 
BRANCH   3   4
ATOM      4  N   UNL     1       0.110   6.608   5.579  1.00  0.00    -0.356 N 
ATOM      5  C   UNL     1       1.244   7.119   5.018  1.00  0.00     0.224 C 
ATOM      6  O   UNL     1       1.638   8.206   5.452  1.00  0.00    -0.275 OA
ATOM      7  H   UNL     1      -0.216   7.094   6.371  1.00  0.00     0.163 HD
BRANCH   5   8
ATOM      8  C   UNL     1       1.907   6.462   3.812  1.00  0.00     0.138 C 
BRANCH   8   9
ATOM      9  C   UNL     1       2.289   5.014   3.976  1.00  0.00    -0.002 A 
ATOM     10  C   UNL     1       1.023   1.419   2.142  1.00  0.00    -0.046 A 
ATOM     11  C   UNL     1       0.471   2.596   1.626  1.00  0.00     0.004 A 
ATOM     12  C   UNL     1       1.954   1.486   3.193  1.00  0.00     0.030 A 
ATOM     13  C   UNL     1       0.835   3.846   2.134  1.00  0.00     0.011 A 
ATOM     14  C   UNL     1       2.297   2.750   3.697  1.00  0.00     0.046 A 
ATOM     15  C   UNL     1       1.758   3.929   3.198  1.00  0.00     0.004 A 
ATOM     16  N   UNL     1       3.153   3.101   4.714  1.00  0.00    -0.352 N 
ATOM     17  C   UNL     1       3.236   4.473   4.849  1.00  0.00     0.093 A 
ATOM     18  H   UNL     1       3.643   2.457   5.274  1.00  0.00     0.167 HD
BRANCH  10  19
ATOM     19  C   UNL     1       0.600   0.083   1.575  1.00  0.00     0.032 C 
ATOM     20  C   UNL     1       1.057  -0.111   0.135  1.00  0.00     0.009 C 
ENDBRANCH  10  19
BRANCH  17  21
ATOM     21  C   UNL     1       4.130   5.188   5.755  1.00  0.00     0.227 C 
ATOM     22  O   UNL     1       4.200   6.414   5.802  1.00  0.00    -0.285 OA
BRANCH  21  23
ATOM     23  C   UNL     1       5.062   4.425   6.628  1.00  0.00     0.113 A 
ATOM     24  C   UNL     1       6.083   3.668   6.061  1.00  0.00     0.036 A 
ATOM     25  N   UNL     1       4.891   4.582   7.965  1.00  0.00    -0.253 NA
ATOM     26  C   UNL     1       6.985   3.028   6.915  1.00  0.00    -0.047 A 
ATOM     27  C   UNL     1       5.789   3.974   8.765  1.00  0.00     0.112 A 
ATOM     28  C   UNL     1       8.119   2.207   6.377  1.00  0.00     0.044 C 
ATOM     29  C   UNL     1       6.836   3.196   8.294  1.00  0.00     0.023 A 
ENDBRANCH  21  23
ENDBRANCH  17  21
ENDBRANCH   8   9
ENDBRANCH   5   8
ENDBRANCH   3   4
ENDBRANCH   2   3
ENDBRANCH   1   2
BRANCH   1  30
ATOM     30  C   UNL     1      -2.680   4.981   7.532  1.00  0.00     0.002 C 
BRANCH  30  31
ATOM     31  C   UNL     1      -3.598   3.998   6.801  1.00  0.00     0.021 C 
BRANCH  31  32
ATOM     32  C   UNL     1      -3.641   2.600   7.405  1.00  0.00     0.116 C 
BRANCH  32  33
ATOM     33  N   UNL     1      -4.266   2.588   8.721  1.00  0.00    -0.352 N 
ATOM     34  C   UNL     1      -5.268   1.769   9.186  1.00  0.00     0.251 C 
ATOM     35  H   UNL     1      -3.926   3.254   9.361  1.00  0.00     0.163 HD
ATOM     36  O   UNL     1      -5.809   1.995  10.264  1.00  0.00    -0.269 OA
BRANCH  34  37
ATOM     37  C   UNL     1      -5.701   0.624   8.359  1.00  0.00     0.039 A 
ATOM     38  C   UNL     1      -7.061   0.445   8.092  1.00  0.00     0.014 A 
ATOM     39  C   UNL     1      -4.752  -0.252   7.825  1.00  0.00     0.014 A 
ATOM     40  C   UNL     1      -7.466  -0.575   7.226  1.00  0.00     0.010 A 
ATOM     41  C   UNL     1      -5.151  -1.226   6.918  1.00  0.00     0.010 A 
ATOM     42  C   UNL     1      -6.510  -1.395   6.607  1.00  0.00    -0.014 A 
BRANCH  42  43
ATOM     43  C   UNL     1      -6.885  -2.451   5.634  1.00  0.00     0.031 A 
ATOM     44  C   UNL     1      -6.606  -3.891   5.961  1.00  0.00     0.074 A 
ATOM     45  C   UNL     1      -7.367  -2.114   4.423  1.00  0.00     0.049 A 
ATOM     46  N   UNL     1      -6.685  -4.945   5.191  1.00  0.00    -0.248 NA
ATOM     47  C   UNL     1      -6.146  -4.175   7.330  1.00  0.00     0.031 C 
ATOM     48  C   UNL     1      -7.678  -0.754   3.980  1.00  0.00     0.029 A 
ATOM     49  N   UNL     1      -7.663  -2.894   3.333  1.00  0.00    -0.354 N 
ATOM     50  C   UNL     1      -6.249  -6.011   5.970  1.00  0.00     0.074 A 
ATOM     51  C   UNL     1      -5.875  -5.469   7.258  1.00  0.00     0.031 C 
ATOM     52  C   UNL     1      -8.141  -0.798   2.720  1.00  0.00     0.029 A 
ATOM     53  C   UNL     1      -8.109  -2.179   2.248  1.00  0.00     0.049 A 
ATOM     54  H   UNL     1      -7.566  -3.874   3.329  1.00  0.00     0.167 HD
ATOM     55  C   UNL     1      -6.173  -7.324   5.644  1.00  0.00     0.031 A 
ATOM     56  C   UNL     1      -8.439  -2.586   1.006  1.00  0.00     0.031 A 
ATOM     57  C   UNL     1      -6.556  -7.859   4.365  1.00  0.00     0.049 A 
ATOM     58  C   UNL     1      -8.323  -4.043   0.654  1.00  0.00     0.074 A 
ATOM     59  C   UNL     1      -6.558  -9.178   3.948  1.00  0.00     0.029 A 
ATOM     60  N   UNL     1      -7.007  -7.099   3.296  1.00  0.00    -0.354 N 
ATOM     61  N   UNL     1      -7.930  -5.042   1.407  1.00  0.00    -0.248 NA
ATOM     62  C   UNL     1      -8.693  -4.427  -0.715  1.00  0.00     0.031 C 
ATOM     63  C   UNL     1      -6.971  -9.211   2.611  1.00  0.00     0.029 A 
ATOM     64  C   UNL     1      -7.275  -7.918   2.213  1.00  0.00     0.049 A 
ATOM     65  H   UNL     1      -7.120  -6.121   3.305  1.00  0.00     0.167 HD
ATOM     66  C   UNL     1      -8.040  -6.180   0.616  1.00  0.00     0.074 A 
ATOM     67  C   UNL     1      -8.530  -5.744  -0.677  1.00  0.00     0.031 C 
ATOM     68  C   UNL     1      -7.771  -7.469   0.936  1.00  0.00     0.031 A 
BRANCH  55  69
ATOM     69  C   UNL     1      -5.622  -8.256   6.690  1.00  0.00    -0.014 A 
ATOM     70  C   UNL     1      -6.339  -8.540   7.867  1.00  0.00     0.010 A 
ATOM     71  C   UNL     1      -4.354  -8.836   6.506  1.00  0.00     0.010 A 
ATOM     72  C   UNL     1      -5.767  -9.321   8.873  1.00  0.00     0.020 A 
ATOM     73  C   UNL     1      -3.790  -9.644   7.497  1.00  0.00     0.020 A 
ATOM     74  C   UNL     1      -4.488  -9.855   8.688  1.00  0.00     0.054 A 
BRANCH  74  75
ATOM     75  S   UNL     1      -3.745 -10.831  10.024  1.00  0.00     0.124 S 
ATOM     76  O   UNL     1      -3.318  -9.788  10.953  1.00  0.00    -0.237 OA
ATOM     77  O   UNL     1      -4.859 -11.659  10.480  1.00  0.00    -0.237 OA
ATOM     78  O   UNL     1      -2.664 -11.557   9.362  1.00  0.00    -0.744 OA
ENDBRANCH  74  75
ENDBRANCH  55  69
BRANCH  56  79
ATOM     79  C   UNL     1      -8.945  -1.596   0.019  1.00  0.00    -0.014 A 
ATOM     80  C   UNL     1     -10.314  -1.565  -0.302  1.00  0.00     0.010 A 
ATOM     81  C   UNL     1      -8.082  -0.653  -0.566  1.00  0.00     0.010 A 
ATOM     82  C   UNL     1     -10.811  -0.606  -1.189  1.00  0.00     0.020 A 
ATOM     83  C   UNL     1      -8.579   0.321  -1.437  1.00  0.00     0.020 A 
ATOM     84  C   UNL     1      -9.942   0.336  -1.746  1.00  0.00     0.054 A 
BRANCH  84  85
ATOM     85  S   UNL     1     -10.626   1.621  -2.829  1.00  0.00     0.124 S 
ATOM     86  O   UNL     1     -10.908   0.872  -4.049  1.00  0.00    -0.237 OA
ATOM     87  O   UNL     1     -11.795   2.075  -2.079  1.00  0.00    -0.237 OA
ATOM     88  O   UNL     1      -9.542   2.596  -2.927  1.00  0.00    -0.744 OA
ENDBRANCH  84  85
ENDBRANCH  56  79
BRANCH  68  89
ATOM     89  C   UNL     1      -8.044  -8.519  -0.106  1.00  0.00    -0.014 A 
ATOM     90  C   UNL     1      -7.179  -8.708  -1.197  1.00  0.00     0.010 A 
ATOM     91  C   UNL     1      -9.138  -9.387   0.064  1.00  0.00     0.010 A 
ATOM     92  C   UNL     1      -7.409  -9.745  -2.106  1.00  0.00     0.020 A 
ATOM     93  C   UNL     1      -9.359 -10.437  -0.830  1.00  0.00     0.020 A 
ATOM     94  C   UNL     1      -8.495 -10.606  -1.913  1.00  0.00     0.054 A 
BRANCH  94  95
ATOM     95  S   UNL     1      -8.726 -11.994  -3.059  1.00  0.00     0.124 S 
ATOM     96  O   UNL     1      -9.258 -11.326  -4.243  1.00  0.00    -0.237 OA
ATOM     97  O   UNL     1      -7.372 -12.527  -3.194  1.00  0.00    -0.237 OA
ATOM     98  O   UNL     1      -9.665 -12.868  -2.359  1.00  0.00    -0.744 OA
ENDBRANCH  94  95
ENDBRANCH  68  89
ENDBRANCH  42  43
ENDBRANCH  34  37
ENDBRANCH  32  33
ENDBRANCH  31  32
ENDBRANCH  30  31
ENDBRANCH   1  30
TORSDOF 20
