REMARK SMILES O=C(NCCCCCCNC(=O)[C@H]1CC=CC[C@H]1C(=O)Nc1ccc(S(=O)(=O)N2CCc3ccccc32)cc1)c1ccc(-c2c3nc(c(-c4ccc(S(=O)(=O)[O-])cc4)c4ccc([nH]4)c(-c4ccc(S(=O)(=O)[O-])cc4)c4nc(c(-c5ccc(S(=O)(=O)[O-])cc5)c5ccc2[nH]5)C=C4)C=C3)cc1
REMARK SMILES IDX 7 1 6 2 5 3 4 4 3 5 1 6 2 7 40 9 41 10 99 11 42 12 98 13
REMARK SMILES IDX 43 14 44 15 45 16 92 17 46 18 97 19 91 20 93 21 47 22 96 23
REMARK SMILES IDX 90 24 89 25 48 27 78 28 59 29 77 30 60 31 63 32 76 33 94 34
REMARK SMILES IDX 61 35 62 36 75 38 95 39 64 40 49 41 50 42 58 43 51 44 57 45
REMARK SMILES IDX 52 46 53 47 54 48 55 49 56 50 79 51 80 52 88 53 81 54 87 55
REMARK SMILES IDX 82 56 83 57 84 58 85 59 86 60 65 61 66 62 74 63 67 64 73 65
REMARK SMILES IDX 68 66 69 67 70 68 71 69 72 70 8 71 9 72 10 73 11 74 12 76
REMARK SMILES IDX 13 77 14 78 18 79 15 80 17 81 16 82 19 83 20 84 21 85 22 87
REMARK SMILES IDX 23 88 39 89 24 90 38 91 25 92 26 93 27 94 28 95 29 96 30 97
REMARK SMILES IDX 37 98 31 99 32 100 36 101 33 102 35 103 34 104
REMARK H PARENT 3 8 93 26 63 37 10 75 21 86
REMARK Flexibility Score: inf
ROOT
ATOM      1  C   UNL     1       4.608  -3.493   1.322  1.00  0.00     0.002 C 
ENDROOT
BRANCH   1   2
ATOM      2  C   UNL     1       4.258  -2.343   2.271  1.00  0.00     0.002 C 
BRANCH   2   3
ATOM      3  C   UNL     1       4.685  -0.955   1.823  1.00  0.00     0.021 C 
BRANCH   3   4
ATOM      4  C   UNL     1       4.295  -0.618   0.398  1.00  0.00     0.116 C 
BRANCH   4   5
ATOM      5  N   UNL     1       2.866  -0.756   0.155  1.00  0.00    -0.352 N 
ATOM      6  O   UNL     1       0.828  -0.064  -0.544  1.00  0.00    -0.269 OA
ATOM      7  C   UNL     1       2.033   0.108  -0.516  1.00  0.00     0.251 C 
ATOM      8  H   UNL     1       2.444  -1.569   0.517  1.00  0.00     0.163 HD
BRANCH   7   9
ATOM      9  C   UNL     1       2.653   1.274  -1.175  1.00  0.00     0.039 A 
ATOM     10  C   UNL     1       3.767   1.091  -2.000  1.00  0.00     0.014 A 
ATOM     11  C   UNL     1       2.172   2.550  -0.886  1.00  0.00     0.014 A 
ATOM     12  C   UNL     1       4.490   2.194  -2.421  1.00  0.00     0.010 A 
ATOM     13  C   UNL     1       2.845   3.659  -1.396  1.00  0.00     0.010 A 
ATOM     14  C   UNL     1       4.020   3.487  -2.146  1.00  0.00    -0.014 A 
BRANCH  14  15
ATOM     15  C   UNL     1       4.718   4.655  -2.725  1.00  0.00     0.031 A 
ATOM     16  C   UNL     1       5.353   5.691  -1.847  1.00  0.00     0.074 A 
ATOM     17  C   UNL     1       4.739   4.776  -4.066  1.00  0.00     0.049 A 
ATOM     18  N   UNL     1       5.902   6.828  -2.186  1.00  0.00    -0.248 NA
ATOM     19  C   UNL     1       5.363   5.425  -0.400  1.00  0.00     0.031 C 
ATOM     20  C   UNL     1       4.158   3.813  -5.008  1.00  0.00     0.029 A 
ATOM     21  N   UNL     1       5.262   5.752  -4.870  1.00  0.00    -0.354 N 
ATOM     22  C   UNL     1       6.290   7.433  -0.996  1.00  0.00     0.074 A 
ATOM     23  C   UNL     1       5.906   6.538   0.075  1.00  0.00     0.031 C 
ATOM     24  C   UNL     1       4.381   4.232  -6.260  1.00  0.00     0.029 A 
ATOM     25  C   UNL     1       5.041   5.529  -6.208  1.00  0.00     0.049 A 
ATOM     26  H   UNL     1       5.748   6.535  -4.525  1.00  0.00     0.167 HD
ATOM     27  C   UNL     1       6.901   8.630  -0.822  1.00  0.00     0.031 A 
ATOM     28  C   UNL     1       5.300   6.302  -7.278  1.00  0.00     0.031 A 
ATOM     29  C   UNL     1       7.266   9.504  -1.907  1.00  0.00     0.049 A 
ATOM     30  C   UNL     1       5.948   7.633  -7.059  1.00  0.00     0.074 A 
ATOM     31  C   UNL     1       7.904  10.731  -1.848  1.00  0.00     0.029 A 
ATOM     32  N   UNL     1       7.021   9.244  -3.249  1.00  0.00    -0.354 N 
ATOM     33  N   UNL     1       6.310   8.191  -5.928  1.00  0.00    -0.248 NA
ATOM     34  C   UNL     1       6.223   8.440  -8.253  1.00  0.00     0.031 C 
ATOM     35  C   UNL     1       8.002  11.233  -3.151  1.00  0.00     0.029 A 
ATOM     36  C   UNL     1       7.478  10.294  -4.027  1.00  0.00     0.049 A 
ATOM     37  H   UNL     1       6.587   8.432  -3.596  1.00  0.00     0.167 HD
ATOM     38  C   UNL     1       6.877   9.409  -6.274  1.00  0.00     0.074 A 
ATOM     39  C   UNL     1       6.815   9.502  -7.720  1.00  0.00     0.031 C 
ATOM     40  C   UNL     1       7.404  10.362  -5.466  1.00  0.00     0.031 A 
BRANCH  27  41
ATOM     41  C   UNL     1       7.157   9.080   0.593  1.00  0.00    -0.014 A 
ATOM     42  C   UNL     1       8.129   8.459   1.399  1.00  0.00     0.010 A 
ATOM     43  C   UNL     1       6.416  10.152   1.124  1.00  0.00     0.010 A 
ATOM     44  C   UNL     1       8.312   8.863   2.726  1.00  0.00     0.020 A 
ATOM     45  C   UNL     1       6.614  10.577   2.441  1.00  0.00     0.020 A 
ATOM     46  C   UNL     1       7.544   9.912   3.242  1.00  0.00     0.054 A 
BRANCH  46  47
ATOM     47  S   UNL     1       7.784  10.403   4.972  1.00  0.00     0.124 S 
ATOM     48  O   UNL     1       7.112   9.320   5.687  1.00  0.00    -0.237 OA
ATOM     49  O   UNL     1       9.239  10.430   5.102  1.00  0.00    -0.237 OA
ATOM     50  O   UNL     1       7.130  11.706   5.058  1.00  0.00    -0.744 OA
ENDBRANCH  46  47
ENDBRANCH  27  41
BRANCH  28  51
ATOM     51  C   UNL     1       4.912   5.816  -8.627  1.00  0.00    -0.014 A 
ATOM     52  C   UNL     1       5.887   5.353  -9.525  1.00  0.00     0.010 A 
ATOM     53  C   UNL     1       3.551   5.713  -8.976  1.00  0.00     0.010 A 
ATOM     54  C   UNL     1       5.508   4.788 -10.746  1.00  0.00     0.020 A 
ATOM     55  C   UNL     1       3.168   5.125 -10.183  1.00  0.00     0.020 A 
ATOM     56  C   UNL     1       4.151   4.668 -11.063  1.00  0.00     0.054 A 
BRANCH  56  57
ATOM     57  S   UNL     1       3.682   3.840 -12.608  1.00  0.00     0.124 S 
ATOM     58  O   UNL     1       4.001   4.857 -13.605  1.00  0.00    -0.237 OA
ATOM     59  O   UNL     1       4.544   2.660 -12.608  1.00  0.00    -0.237 OA
ATOM     60  O   UNL     1       2.259   3.561 -12.428  1.00  0.00    -0.744 OA
ENDBRANCH  56  57
ENDBRANCH  28  51
BRANCH  40  61
ATOM     61  C   UNL     1       7.997  11.571  -6.132  1.00  0.00    -0.014 A 
ATOM     62  C   UNL     1       7.180  12.581  -6.670  1.00  0.00     0.010 A 
ATOM     63  C   UNL     1       9.395  11.729  -6.153  1.00  0.00     0.010 A 
ATOM     64  C   UNL     1       7.755  13.724  -7.231  1.00  0.00     0.020 A 
ATOM     65  C   UNL     1       9.971  12.880  -6.691  1.00  0.00     0.020 A 
ATOM     66  C   UNL     1       9.146  13.868  -7.234  1.00  0.00     0.054 A 
BRANCH  66  67
ATOM     67  S   UNL     1       9.866  15.392  -7.902  1.00  0.00     0.124 S 
ATOM     68  O   UNL     1       9.712  15.195  -9.341  1.00  0.00    -0.237 OA
ATOM     69  O   UNL     1       9.021  16.430  -7.316  1.00  0.00    -0.237 OA
ATOM     70  O   UNL     1      11.242  15.369  -7.413  1.00  0.00    -0.744 OA
ENDBRANCH  66  67
ENDBRANCH  40  61
ENDBRANCH  14  15
ENDBRANCH   7   9
ENDBRANCH   4   5
ENDBRANCH   3   4
ENDBRANCH   2   3
ENDBRANCH   1   2
BRANCH   1  71
ATOM     71  C   UNL     1       6.089  -3.722   1.027  1.00  0.00     0.021 C 
BRANCH  71  72
ATOM     72  C   UNL     1       6.899  -4.188   2.236  1.00  0.00     0.116 C 
BRANCH  72  73
ATOM     73  N   UNL     1       7.063  -5.629   2.338  1.00  0.00    -0.356 N 
ATOM     74  C   UNL     1       7.833  -6.454   3.087  1.00  0.00     0.224 C 
ATOM     75  H   UNL     1       6.477  -6.120   1.717  1.00  0.00     0.163 HD
ATOM     76  O   UNL     1       7.637  -7.672   2.937  1.00  0.00    -0.275 OA
BRANCH  74  77
ATOM     77  C   UNL     1       8.876  -6.064   4.138  1.00  0.00     0.095 C 
ATOM     78  C   UNL     1      10.149  -6.884   3.815  1.00  0.00     0.041 C 
ATOM     79  C   UNL     1       9.257  -4.626   4.410  1.00  0.00     0.095 C 
ATOM     80  C   UNL     1      10.760  -6.367   2.557  1.00  0.00    -0.030 C 
ATOM     81  C   UNL     1      10.132  -4.038   3.243  1.00  0.00     0.041 C 
ATOM     82  C   UNL     1      10.713  -5.056   2.280  1.00  0.00    -0.030 C 
BRANCH  79  83
ATOM     83  C   UNL     1       8.262  -3.626   5.049  1.00  0.00     0.228 C 
ATOM     84  O   UNL     1       8.592  -2.426   5.021  1.00  0.00    -0.274 OA
ATOM     85  N   UNL     1       7.087  -3.845   5.739  1.00  0.00    -0.326 N 
ATOM     86  H   UNL     1       6.939  -3.212   6.479  1.00  0.00     0.169 HD
BRANCH  85  87
ATOM     87  C   UNL     1       6.051  -4.803   5.592  1.00  0.00     0.041 A 
ATOM     88  C   UNL     1       4.788  -4.332   5.210  1.00  0.00     0.027 A 
ATOM     89  C   UNL     1       6.208  -6.171   5.672  1.00  0.00     0.027 A 
ATOM     90  C   UNL     1       3.910  -5.164   4.489  1.00  0.00     0.024 A 
ATOM     91  C   UNL     1       5.364  -7.013   4.924  1.00  0.00     0.024 A 
ATOM     92  C   UNL     1       4.289  -6.479   4.208  1.00  0.00     0.088 A 
BRANCH  92  93
ATOM     93  S   UNL     1       3.822  -7.189   2.592  1.00  0.00     0.264 S 
ATOM     94  O   UNL     1       2.950  -6.226   1.950  1.00  0.00    -0.201 OA
ATOM     95  O   UNL     1       5.051  -7.558   1.921  1.00  0.00    -0.201 OA
BRANCH  93  96
ATOM     96  N   UNL     1       2.933  -8.612   2.845  1.00  0.00    -0.266 N 
ATOM     97  C   UNL     1       3.553  -9.683   3.668  1.00  0.00     0.140 C 
ATOM     98  C   UNL     1       1.634  -8.390   3.361  1.00  0.00     0.055 A 
ATOM     99  C   UNL     1       2.741  -9.715   4.984  1.00  0.00     0.060 C 
ATOM    100  C   UNL     1       1.524  -8.913   4.637  1.00  0.00    -0.022 A 
ATOM    101  C   UNL     1       0.622  -7.679   2.742  1.00  0.00     0.027 A 
ATOM    102  C   UNL     1       0.422  -8.589   5.403  1.00  0.00     0.006 A 
ATOM    103  C   UNL     1      -0.499  -7.366   3.495  1.00  0.00     0.002 A 
ATOM    104  C   UNL     1      -0.581  -7.792   4.830  1.00  0.00     0.000 A 
ENDBRANCH  93  96
ENDBRANCH  92  93
ENDBRANCH  85  87
ENDBRANCH  79  83
ENDBRANCH  74  77
ENDBRANCH  72  73
ENDBRANCH  71  72
ENDBRANCH   1  71
TORSDOF 20
