REMARK SMILES CCOc1cc2nccc(Nc3ccc(C(=O)NCCCCCCNC(=O)c4ccc(-c5c6nc(c(-c7ccc(S(=O)(=O)[O-])cc7)c7ccc([nH]7)c(-c7ccc(S(=O)(=O)[O-])cc7)c7nc(c(-c8ccc(S(=O)(=O)[O-])cc8)c8ccc5[nH]8)C=C7)C=C6)cc4)cc3)c2cc1OCC
REMARK SMILES IDX 21 1 20 2 19 3 18 4 16 5 17 6 15 8 12 9 13 10 89 11 14 12
REMARK SMILES IDX 88 13 11 14 10 16 4 17 5 18 92 19 6 20 91 21 7 22 90 23 8 24
REMARK SMILES IDX 9 25 3 26 2 27 1 28 93 29 94 30 95 31 22 32 23 33 24 34
REMARK SMILES IDX 25 35 26 36 27 38 28 39 29 40 87 41 30 42 86 43 31 44 32 45
REMARK SMILES IDX 33 46 80 47 34 48 85 49 79 50 81 51 35 52 84 53 78 54 77 55
REMARK SMILES IDX 36 57 66 58 47 59 65 60 48 61 51 62 64 63 82 64 49 65 50 66
REMARK SMILES IDX 63 68 83 69 52 70 37 71 38 72 46 73 39 74 45 75 40 76 41 77
REMARK SMILES IDX 42 78 43 79 44 80 67 81 68 82 76 83 69 84 75 85 70 86 71 87
REMARK SMILES IDX 72 88 73 89 74 90 53 91 54 92 62 93 55 94 61 95 56 96 57 97
REMARK SMILES IDX 58 98 59 99 60 100
REMARK H PARENT 18 7 11 15 25 37 81 56 51 67
REMARK Flexibility Score: inf
ROOT
ATOM      1  C   UNL     1      15.296  -0.950   4.237  1.00  0.00     0.002 C 
ENDROOT
BRANCH   1   2
ATOM      2  C   UNL     1      13.799  -0.798   3.941  1.00  0.00     0.021 C 
BRANCH   2   3
ATOM      3  C   UNL     1      13.279   0.603   4.263  1.00  0.00     0.116 C 
BRANCH   3   4
ATOM      4  N   UNL     1      13.656   1.507   3.195  1.00  0.00    -0.352 N 
ATOM      5  C   UNL     1      12.948   2.024   2.144  1.00  0.00     0.251 C 
ATOM      6  O   UNL     1      13.549   2.723   1.329  1.00  0.00    -0.269 OA
ATOM      7  H   UNL     1      14.594   1.804   3.232  1.00  0.00     0.163 HD
BRANCH   5   8
ATOM      8  C   UNL     1      11.477   1.857   2.016  1.00  0.00     0.039 A 
ATOM      9  C   UNL     1       8.667   1.837   1.900  1.00  0.00     0.038 A 
ATOM     10  C   UNL     1       9.392   2.925   1.403  1.00  0.00     0.027 A 
ATOM     11  C   UNL     1       9.358   0.739   2.409  1.00  0.00     0.027 A 
ATOM     12  C   UNL     1      10.782   2.941   1.470  1.00  0.00     0.016 A 
ATOM     13  C   UNL     1      10.758   0.726   2.413  1.00  0.00     0.016 A 
BRANCH   9  14
ATOM     14  N   UNL     1       7.272   1.900   1.883  1.00  0.00    -0.355 N 
ATOM     15  H   UNL     1       6.893   2.104   0.998  1.00  0.00     0.167 HD
BRANCH  14  16
ATOM     16  C   UNL     1       6.300   1.727   2.895  1.00  0.00     0.050 A 
ATOM     17  C   UNL     1       2.248   1.268   1.793  1.00  0.00     0.163 A 
ATOM     18  C   UNL     1       2.619   1.385   3.141  1.00  0.00     0.079 A 
ATOM     19  C   UNL     1       3.238   1.213   0.815  1.00  0.00     0.161 A 
ATOM     20  C   UNL     1       3.958   1.491   3.530  1.00  0.00     0.076 A 
ATOM     21  C   UNL     1       4.568   1.348   1.186  1.00  0.00     0.063 A 
ATOM     22  N   UNL     1       4.277   1.599   4.832  1.00  0.00    -0.256 NA
ATOM     23  C   UNL     1       4.949   1.518   2.527  1.00  0.00     0.028 A 
ATOM     24  C   UNL     1       5.585   1.720   5.164  1.00  0.00     0.114 A 
ATOM     25  C   UNL     1       6.620   1.781   4.247  1.00  0.00     0.047 A 
BRANCH  17  26
ATOM     26  O   UNL     1       0.944   1.353   1.390  1.00  0.00    -0.490 OA
BRANCH  26  27
ATOM     27  C   UNL     1       0.065   0.371   1.942  1.00  0.00     0.226 C 
ATOM     28  C   UNL     1      -0.990   0.074   0.883  1.00  0.00     0.049 C 
ENDBRANCH  26  27
ENDBRANCH  17  26
BRANCH  19  29
ATOM     29  O   UNL     1       3.070   1.064  -0.532  1.00  0.00    -0.490 OA
BRANCH  29  30
ATOM     30  C   UNL     1       2.145   0.068  -0.962  1.00  0.00     0.226 C 
ATOM     31  C   UNL     1       2.377  -1.315  -0.365  1.00  0.00     0.049 C 
ENDBRANCH  29  30
ENDBRANCH  19  29
ENDBRANCH  14  16
ENDBRANCH   9  14
ENDBRANCH   5   8
ENDBRANCH   3   4
ENDBRANCH   2   3
ENDBRANCH   1   2
BRANCH   1  32
ATOM     32  C   UNL     1      15.667  -0.779   5.716  1.00  0.00     0.002 C 
BRANCH  32  33
ATOM     33  C   UNL     1      14.910  -1.705   6.672  1.00  0.00     0.021 C 
BRANCH  33  34
ATOM     34  C   UNL     1      15.149  -3.187   6.412  1.00  0.00     0.116 C 
BRANCH  34  35
ATOM     35  N   UNL     1      16.538  -3.547   6.647  1.00  0.00    -0.352 N 
ATOM     36  C   UNL     1      17.049  -4.513   7.477  1.00  0.00     0.251 C 
ATOM     37  H   UNL     1      17.204  -3.026   6.143  1.00  0.00     0.163 HD
ATOM     38  O   UNL     1      18.243  -4.516   7.755  1.00  0.00    -0.269 OA
BRANCH  36  39
ATOM     39  C   UNL     1      16.148  -5.543   8.034  1.00  0.00     0.039 A 
ATOM     40  C   UNL     1      16.280  -5.908   9.376  1.00  0.00     0.014 A 
ATOM     41  C   UNL     1      15.191  -6.163   7.226  1.00  0.00     0.014 A 
ATOM     42  C   UNL     1      15.427  -6.872   9.916  1.00  0.00     0.010 A 
ATOM     43  C   UNL     1      14.293  -7.067   7.784  1.00  0.00     0.010 A 
ATOM     44  C   UNL     1      14.414  -7.445   9.129  1.00  0.00    -0.014 A 
BRANCH  44  45
ATOM     45  C   UNL     1      13.501  -8.478   9.680  1.00  0.00     0.031 A 
ATOM     46  C   UNL     1      13.528  -9.874   9.115  1.00  0.00     0.074 A 
ATOM     47  C   UNL     1      12.627  -8.155  10.655  1.00  0.00     0.049 A 
ATOM     48  N   UNL     1      12.764 -10.896   9.405  1.00  0.00    -0.248 NA
ATOM     49  C   UNL     1      14.529 -10.152   8.070  1.00  0.00     0.031 C 
ATOM     50  C   UNL     1      12.489  -6.831  11.268  1.00  0.00     0.029 A 
ATOM     51  N   UNL     1      11.686  -8.917  11.300  1.00  0.00    -0.354 N 
ATOM     52  C   UNL     1      13.190 -11.932   8.581  1.00  0.00     0.074 A 
ATOM     53  C   UNL     1      14.232 -11.399   7.733  1.00  0.00     0.031 C 
ATOM     54  C   UNL     1      11.540  -6.883  12.218  1.00  0.00     0.029 A 
ATOM     55  C   UNL     1      10.973  -8.227  12.253  1.00  0.00     0.049 A 
ATOM     56  H   UNL     1      11.535  -9.869  11.099  1.00  0.00     0.167 HD
ATOM     57  C   UNL     1      12.773 -13.220   8.552  1.00  0.00     0.031 A 
ATOM     58  C   UNL     1       9.972  -8.632  13.058  1.00  0.00     0.031 A 
ATOM     59  C   UNL     1      11.745 -13.752   9.405  1.00  0.00     0.049 A 
ATOM     60  C   UNL     1       9.504 -10.063  12.978  1.00  0.00     0.074 A 
ATOM     61  C   UNL     1      11.260 -15.047   9.463  1.00  0.00     0.029 A 
ATOM     62  N   UNL     1      11.055 -13.022  10.360  1.00  0.00    -0.354 N 
ATOM     63  N   UNL     1       9.941 -11.034  12.212  1.00  0.00    -0.248 NA
ATOM     64  C   UNL     1       8.418 -10.456  13.887  1.00  0.00     0.031 C 
ATOM     65  C   UNL     1      10.249 -15.091  10.428  1.00  0.00     0.029 A 
ATOM     66  C   UNL     1      10.147 -13.839  11.011  1.00  0.00     0.049 A 
ATOM     67  H   UNL     1      11.191 -12.066  10.548  1.00  0.00     0.167 HD
ATOM     68  C   UNL     1       9.215 -12.162  12.580  1.00  0.00     0.074 A 
ATOM     69  C   UNL     1       8.320 -11.755  13.643  1.00  0.00     0.031 C 
ATOM     70  C   UNL     1       9.284 -13.422  12.085  1.00  0.00     0.031 A 
BRANCH  57  71
ATOM     71  C   UNL     1      13.447 -14.151   7.579  1.00  0.00    -0.014 A 
ATOM     72  C   UNL     1      14.779 -14.559   7.782  1.00  0.00     0.010 A 
ATOM     73  C   UNL     1      12.729 -14.678   6.491  1.00  0.00     0.010 A 
ATOM     74  C   UNL     1      15.388 -15.455   6.901  1.00  0.00     0.020 A 
ATOM     75  C   UNL     1      13.326 -15.598   5.623  1.00  0.00     0.020 A 
ATOM     76  C   UNL     1      14.656 -15.972   5.828  1.00  0.00     0.054 A 
BRANCH  76  77
ATOM     77  S   UNL     1      15.458 -17.174   4.733  1.00  0.00     0.124 S 
ATOM     78  O   UNL     1      16.411 -16.335   4.011  1.00  0.00    -0.237 OA
ATOM     79  O   UNL     1      16.045 -18.122   5.676  1.00  0.00    -0.237 OA
ATOM     80  O   UNL     1      14.358 -17.700   3.929  1.00  0.00    -0.744 OA
ENDBRANCH  76  77
ENDBRANCH  57  71
BRANCH  58  81
ATOM     81  C   UNL     1       9.337  -7.684  14.016  1.00  0.00    -0.014 A 
ATOM     82  C   UNL     1       9.474  -7.870  15.403  1.00  0.00     0.010 A 
ATOM     83  C   UNL     1       8.549  -6.618  13.546  1.00  0.00     0.010 A 
ATOM     84  C   UNL     1       8.792  -7.044  16.301  1.00  0.00     0.020 A 
ATOM     85  C   UNL     1       7.893  -5.768  14.441  1.00  0.00     0.020 A 
ATOM     86  C   UNL     1       7.998  -6.003  15.813  1.00  0.00     0.054 A 
BRANCH  86  87
ATOM     87  S   UNL     1       7.110  -4.949  16.993  1.00  0.00     0.124 S 
ATOM     88  O   UNL     1       6.029  -5.828  17.427  1.00  0.00    -0.237 OA
ATOM     89  O   UNL     1       8.134  -4.662  17.994  1.00  0.00    -0.237 OA
ATOM     90  O   UNL     1       6.701  -3.803  16.184  1.00  0.00    -0.744 OA
ENDBRANCH  86  87
ENDBRANCH  58  81
BRANCH  70  91
ATOM     91  C   UNL     1       8.422 -14.472  12.736  1.00  0.00    -0.014 A 
ATOM     92  C   UNL     1       7.027 -14.488  12.568  1.00  0.00     0.010 A 
ATOM     93  C   UNL     1       9.034 -15.489  13.493  1.00  0.00     0.010 A 
ATOM     94  C   UNL     1       6.255 -15.481  13.178  1.00  0.00     0.020 A 
ATOM     95  C   UNL     1       8.270 -16.500  14.077  1.00  0.00     0.020 A 
ATOM     96  C   UNL     1       6.882 -16.480  13.929  1.00  0.00     0.054 A 
BRANCH  96  97
ATOM     97  S   UNL     1       5.862 -17.779  14.678  1.00  0.00     0.124 S 
ATOM     98  O   UNL     1       5.223 -17.065  15.780  1.00  0.00    -0.237 OA
ATOM     99  O   UNL     1       4.977 -18.164  13.581  1.00  0.00    -0.237 OA
ATOM    100  O   UNL     1       6.832 -18.797  15.075  1.00  0.00    -0.744 OA
ENDBRANCH  96  97
ENDBRANCH  70  91
ENDBRANCH  44  45
ENDBRANCH  36  39
ENDBRANCH  34  35
ENDBRANCH  33  34
ENDBRANCH  32  33
ENDBRANCH   1  32
TORSDOF 22
