REMARK SMILES Cc1c(Cl)cccc1-n1ncc2c1NC(=O)C[C@@H]2c1ccc(C(=O)NCCCCCCNC(=O)c2ccc(-c3c4nc(c(-c5ccc(S(=O)(=O)[O-])cc5)c5ccc([nH]5)c(-c5ccc(S(=O)(=O)[O-])cc5)c5nc(c(-c6ccc(S(=O)(=O)[O-])cc6)c6ccc3[nH]6)C=C5)C=C4)cc2)cc1
REMARK SMILES IDX 29 1 28 2 27 3 26 4 25 5 23 6 24 7 22 9 19 10 20 11 96 12
REMARK SMILES IDX 21 13 95 14 18 15 9 16 10 17 13 18 11 19 12 20 14 21 15 22
REMARK SMILES IDX 17 24 16 25 8 26 1 27 2 28 3 29 4 30 5 31 7 32 6 33 30 34
REMARK SMILES IDX 31 35 32 36 33 37 34 39 35 40 36 41 94 42 37 43 93 44 38 45
REMARK SMILES IDX 39 46 40 47 87 48 41 49 92 50 86 51 88 52 42 53 91 54 85 55
REMARK SMILES IDX 84 56 43 58 73 59 54 60 72 61 55 62 58 63 71 64 89 65 56 66
REMARK SMILES IDX 57 67 70 69 90 70 59 71 44 72 45 73 53 74 46 75 52 76 47 77
REMARK SMILES IDX 48 78 49 79 50 80 51 81 74 82 75 83 83 84 76 85 82 86 77 87
REMARK SMILES IDX 78 88 79 89 80 90 81 91 60 92 61 93 69 94 62 95 68 96 63 97
REMARK SMILES IDX 64 98 65 99 66 100 67 101
REMARK H PARENT 25 8 14 23 32 38 88 57 58 68
REMARK Flexibility Score: inf
ROOT
ATOM      1  C   UNL     1     -13.385   7.776  -0.424  1.00  0.00     0.002 C 
ENDROOT
BRANCH   1   2
ATOM      2  C   UNL     1     -12.125   8.428  -1.020  1.00  0.00     0.002 C 
BRANCH   2   3
ATOM      3  C   UNL     1     -10.806   8.059  -0.330  1.00  0.00     0.021 C 
BRANCH   3   4
ATOM      4  C   UNL     1     -10.581   6.551  -0.237  1.00  0.00     0.116 C 
BRANCH   4   5
ATOM      5  N   UNL     1     -10.251   6.021  -1.544  1.00  0.00    -0.352 N 
ATOM      6  C   UNL     1      -9.062   5.604  -2.080  1.00  0.00     0.251 C 
ATOM      7  O   UNL     1      -9.054   5.186  -3.236  1.00  0.00    -0.269 OA
ATOM      8  H   UNL     1     -11.018   5.947  -2.156  1.00  0.00     0.163 HD
BRANCH   6   9
ATOM      9  C   UNL     1      -7.824   5.527  -1.266  1.00  0.00     0.039 A 
ATOM     10  C   UNL     1      -5.552   5.070   0.352  1.00  0.00    -0.040 A 
ATOM     11  C   UNL     1      -5.874   4.201  -0.705  1.00  0.00     0.005 A 
ATOM     12  C   UNL     1      -6.363   6.202   0.542  1.00  0.00     0.005 A 
ATOM     13  C   UNL     1      -6.988   4.435  -1.510  1.00  0.00     0.014 A 
ATOM     14  C   UNL     1      -7.467   6.445  -0.279  1.00  0.00     0.014 A 
BRANCH  10  15
ATOM     15  C   UNL     1      -4.390   4.875   1.316  1.00  0.00     0.064 C 
ATOM     16  N   UNL     1      -2.084   2.344   0.067  1.00  0.00    -0.217 N 
ATOM     17  N   UNL     1      -1.750   3.323  -0.805  1.00  0.00    -0.174 NA
ATOM     18  C   UNL     1      -3.052   2.771   0.952  1.00  0.00     0.140 A 
ATOM     19  C   UNL     1      -2.524   4.358  -0.467  1.00  0.00     0.142 A 
ATOM     20  C   UNL     1      -3.365   4.062   0.627  1.00  0.00     0.023 A 
ATOM     21  N   UNL     1      -3.619   2.132   2.028  1.00  0.00    -0.310 N 
ATOM     22  C   UNL     1      -4.541   2.814   2.873  1.00  0.00     0.226 C 
ATOM     23  H   UNL     1      -3.387   1.194   2.217  1.00  0.00     0.171 HD
ATOM     24  C   UNL     1      -4.849   4.275   2.652  1.00  0.00     0.113 C 
ATOM     25  O   UNL     1      -4.972   2.158   3.804  1.00  0.00    -0.275 OA
BRANCH  16  26
ATOM     26  C   UNL     1      -1.480   1.067   0.030  1.00  0.00     0.071 A 
ATOM     27  C   UNL     1       0.872   2.103  -0.007  1.00  0.00     0.048 C 
ATOM     28  C   UNL     1      -0.076   0.928  -0.036  1.00  0.00    -0.007 A 
ATOM     29  C   UNL     1       0.442  -0.382  -0.070  1.00  0.00     0.046 A 
ATOM     30  Cl  UNL     1       2.144  -0.685  -0.137  1.00  0.00    -0.084 Cl
ATOM     31  C   UNL     1      -0.400  -1.499  -0.025  1.00  0.00     0.021 A 
ATOM     32  C   UNL     1      -2.324  -0.059   0.079  1.00  0.00     0.029 A 
ATOM     33  C   UNL     1      -1.781  -1.340   0.047  1.00  0.00     0.004 A 
ENDBRANCH  16  26
ENDBRANCH  10  15
ENDBRANCH   6   9
ENDBRANCH   4   5
ENDBRANCH   3   4
ENDBRANCH   2   3
ENDBRANCH   1   2
BRANCH   1  34
ATOM     34  C   UNL     1     -13.562   7.902   1.098  1.00  0.00     0.021 C 
BRANCH  34  35
ATOM     35  C   UNL     1     -13.817   9.326   1.554  1.00  0.00     0.116 C 
BRANCH  35  36
ATOM     36  N   UNL     1     -15.112   9.846   1.088  1.00  0.00    -0.352 N 
ATOM     37  C   UNL     1     -15.665  11.116   1.236  1.00  0.00     0.251 C 
ATOM     38  H   UNL     1     -15.671   9.200   0.598  1.00  0.00     0.163 HD
ATOM     39  O   UNL     1     -16.864  11.292   1.137  1.00  0.00    -0.269 OA
BRANCH  37  40
ATOM     40  C   UNL     1     -14.750  12.242   1.502  1.00  0.00     0.039 A 
ATOM     41  C   UNL     1     -15.058  13.355   2.289  1.00  0.00     0.014 A 
ATOM     42  C   UNL     1     -13.489  12.113   0.958  1.00  0.00     0.014 A 
ATOM     43  C   UNL     1     -14.057  14.309   2.489  1.00  0.00     0.010 A 
ATOM     44  C   UNL     1     -12.464  12.752   1.566  1.00  0.00     0.010 A 
ATOM     45  C   UNL     1     -12.757  13.993   2.079  1.00  0.00    -0.014 A 
BRANCH  45  46
ATOM     46  C   UNL     1     -11.614  14.883   2.135  1.00  0.00     0.031 A 
ATOM     47  C   UNL     1     -11.172  15.215   3.501  1.00  0.00     0.074 A 
ATOM     48  C   UNL     1     -10.827  15.099   1.053  1.00  0.00     0.049 A 
ATOM     49  N   UNL     1     -11.310  16.339   4.115  1.00  0.00    -0.248 NA
ATOM     50  C   UNL     1     -10.668  14.121   4.345  1.00  0.00     0.031 C 
ATOM     51  C   UNL     1     -10.912  14.520  -0.300  1.00  0.00     0.029 A 
ATOM     52  N   UNL     1      -9.676  15.811   0.983  1.00  0.00    -0.354 N 
ATOM     53  C   UNL     1     -10.706  16.163   5.351  1.00  0.00     0.074 A 
ATOM     54  C   UNL     1     -10.543  14.741   5.520  1.00  0.00     0.031 C 
ATOM     55  C   UNL     1      -9.747  14.723  -0.959  1.00  0.00     0.029 A 
ATOM     56  C   UNL     1      -8.905  15.585  -0.151  1.00  0.00     0.049 A 
ATOM     57  H   UNL     1      -9.404  16.444   1.687  1.00  0.00     0.167 HD
ATOM     58  C   UNL     1     -10.145  17.205   6.025  1.00  0.00     0.031 A 
ATOM     59  C   UNL     1      -7.648  16.048  -0.377  1.00  0.00     0.031 A 
ATOM     60  C   UNL     1     -10.478  18.471   5.418  1.00  0.00     0.049 A 
ATOM     61  C   UNL     1      -7.462  17.211   0.534  1.00  0.00     0.074 A 
ATOM     62  C   UNL     1     -11.660  19.137   5.159  1.00  0.00     0.029 A 
ATOM     63  N   UNL     1      -9.543  19.021   4.567  1.00  0.00    -0.354 N 
ATOM     64  N   UNL     1      -8.178  18.301   0.448  1.00  0.00    -0.248 NA
ATOM     65  C   UNL     1      -6.862  16.968   1.838  1.00  0.00     0.031 C 
ATOM     66  C   UNL     1     -11.495  19.674   3.846  1.00  0.00     0.029 A 
ATOM     67  C   UNL     1     -10.199  19.381   3.414  1.00  0.00     0.049 A 
ATOM     68  H   UNL     1      -8.583  19.136   4.752  1.00  0.00     0.167 HD
ATOM     69  C   UNL     1      -8.473  18.647   1.761  1.00  0.00     0.074 A 
ATOM     70  C   UNL     1      -7.562  17.838   2.574  1.00  0.00     0.031 C 
ATOM     71  C   UNL     1      -9.615  19.328   2.085  1.00  0.00     0.031 A 
BRANCH  58  72
ATOM     72  C   UNL     1      -8.996  17.057   6.984  1.00  0.00    -0.014 A 
ATOM     73  C   UNL     1      -8.596  18.173   7.744  1.00  0.00     0.010 A 
ATOM     74  C   UNL     1      -8.138  15.938   6.986  1.00  0.00     0.010 A 
ATOM     75  C   UNL     1      -7.370  18.186   8.421  1.00  0.00     0.020 A 
ATOM     76  C   UNL     1      -6.937  15.922   7.694  1.00  0.00     0.020 A 
ATOM     77  C   UNL     1      -6.543  17.062   8.379  1.00  0.00     0.054 A 
BRANCH  77  78
ATOM     78  S   UNL     1      -4.912  17.128   9.156  1.00  0.00     0.124 S 
ATOM     79  O   UNL     1      -4.231  18.128   8.340  1.00  0.00    -0.237 OA
ATOM     80  O   UNL     1      -5.236  17.532  10.521  1.00  0.00    -0.237 OA
ATOM     81  O   UNL     1      -4.412  15.761   9.017  1.00  0.00    -0.744 OA
ENDBRANCH  77  78
ENDBRANCH  58  72
BRANCH  59  82
ATOM     82  C   UNL     1      -6.522  15.294  -0.997  1.00  0.00    -0.014 A 
ATOM     83  C   UNL     1      -5.324  15.924  -1.385  1.00  0.00     0.010 A 
ATOM     84  C   UNL     1      -6.526  13.883  -0.957  1.00  0.00     0.010 A 
ATOM     85  C   UNL     1      -4.163  15.173  -1.665  1.00  0.00     0.020 A 
ATOM     86  C   UNL     1      -5.379  13.130  -1.236  1.00  0.00     0.020 A 
ATOM     87  C   UNL     1      -4.193  13.778  -1.567  1.00  0.00     0.054 A 
BRANCH  87  88
ATOM     88  S   UNL     1      -2.658  12.816  -1.743  1.00  0.00     0.124 S 
ATOM     89  O   UNL     1      -2.379  12.930  -3.171  1.00  0.00    -0.237 OA
ATOM     90  O   UNL     1      -1.736  13.519  -0.857  1.00  0.00    -0.237 OA
ATOM     91  O   UNL     1      -3.038  11.476  -1.291  1.00  0.00    -0.744 OA
ENDBRANCH  87  88
ENDBRANCH  59  82
BRANCH  71  92
ATOM     92  C   UNL     1     -10.475  19.872   0.959  1.00  0.00    -0.014 A 
ATOM     93  C   UNL     1     -11.141  19.053   0.022  1.00  0.00     0.010 A 
ATOM     94  C   UNL     1     -10.771  21.245   0.963  1.00  0.00     0.010 A 
ATOM     95  C   UNL     1     -12.061  19.596  -0.891  1.00  0.00     0.020 A 
ATOM     96  C   UNL     1     -11.696  21.791   0.066  1.00  0.00     0.020 A 
ATOM     97  C   UNL     1     -12.333  20.966  -0.861  1.00  0.00     0.054 A 
BRANCH  97  98
ATOM     98  S   UNL     1     -13.564  21.658  -2.004  1.00  0.00     0.124 S 
ATOM     99  O   UNL     1     -12.905  21.519  -3.300  1.00  0.00    -0.237 OA
ATOM    100  O   UNL     1     -14.725  20.797  -1.793  1.00  0.00    -0.237 OA
ATOM    101  O   UNL     1     -13.732  23.035  -1.541  1.00  0.00    -0.744 OA
ENDBRANCH  97  98
ENDBRANCH  71  92
ENDBRANCH  45  46
ENDBRANCH  37  40
ENDBRANCH  35  36
ENDBRANCH  34  35
ENDBRANCH   1  34
TORSDOF 18
