REMARK SMILES O=C(NCCCCCCNC(=O)[C@@]1(Cc2cn3ccccc3n2)CCC[NH2+]C1)c1ccc(-c2c3nc(c(-c4ccc(S(=O)(=O)[O-])cc4)c4ccc([nH]4)c(-c4ccc(S(=O)(=O)[O-])cc4)c4nc(c(-c5ccc(S(=O)(=O)[O-])cc5)c5ccc2[nH]5)C=C4)C=C3)cc1
REMARK SMILES IDX 6 1 5 2 4 3 3 4 1 5 2 6 29 8 30 9 88 10 31 11 87 12 32 13
REMARK SMILES IDX 33 14 34 15 81 16 35 17 86 18 80 19 82 20 36 21 85 22 79 23
REMARK SMILES IDX 78 24 37 26 67 27 48 28 66 29 49 30 52 31 65 32 83 33 50 34
REMARK SMILES IDX 51 35 64 37 84 38 53 39 38 40 39 41 47 42 40 43 46 44 41 45
REMARK SMILES IDX 42 46 43 47 44 48 45 49 68 50 69 51 77 52 70 53 76 54 71 55
REMARK SMILES IDX 72 56 73 57 74 58 75 59 54 60 55 61 63 62 56 63 62 64 57 65
REMARK SMILES IDX 58 66 59 67 60 68 61 69 7 70 8 71 9 72 10 73 11 74 12 76
REMARK SMILES IDX 13 77 24 78 28 79 25 80 27 81 26 82 14 85 15 86 16 87 23 88
REMARK SMILES IDX 17 89 22 90 18 91 21 92 19 93 20 94
REMARK H PARENT 3 7 82 25 52 36 10 75 27 83 27 84
REMARK Flexibility Score: inf
ROOT
ATOM      1  C   UNL     1      13.041   7.502  -8.288  1.00  0.00     0.002 C 
ENDROOT
BRANCH   1   2
ATOM      2  C   UNL     1      13.146   8.546  -7.175  1.00  0.00     0.021 C 
BRANCH   2   3
ATOM      3  C   UNL     1      14.441   8.484  -6.377  1.00  0.00     0.116 C 
BRANCH   3   4
ATOM      4  N   UNL     1      15.585   8.921  -7.159  1.00  0.00    -0.352 N 
ATOM      5  O   UNL     1      17.283  10.292  -7.735  1.00  0.00    -0.269 OA
ATOM      6  C   UNL     1      16.495   9.911  -6.874  1.00  0.00     0.251 C 
ATOM      7  H   UNL     1      15.728   8.444  -8.008  1.00  0.00     0.163 HD
BRANCH   6   8
ATOM      8  C   UNL     1      16.507  10.525  -5.527  1.00  0.00     0.039 A 
ATOM      9  C   UNL     1      16.407   9.723  -4.389  1.00  0.00     0.014 A 
ATOM     10  C   UNL     1      16.627  11.912  -5.401  1.00  0.00     0.014 A 
ATOM     11  C   UNL     1      16.290  10.315  -3.138  1.00  0.00     0.010 A 
ATOM     12  C   UNL     1      16.603  12.500  -4.131  1.00  0.00     0.010 A 
ATOM     13  C   UNL     1      16.412  11.707  -2.990  1.00  0.00    -0.014 A 
BRANCH  13  14
ATOM     14  C   UNL     1      16.425  12.275  -1.617  1.00  0.00     0.031 A 
ATOM     15  C   UNL     1      15.335  13.187  -1.127  1.00  0.00     0.074 A 
ATOM     16  C   UNL     1      17.415  11.892  -0.785  1.00  0.00     0.049 A 
ATOM     17  N   UNL     1      15.161  13.681   0.073  1.00  0.00    -0.248 NA
ATOM     18  C   UNL     1      14.314  13.604  -2.100  1.00  0.00     0.031 C 
ATOM     19  C   UNL     1      18.541  11.030  -1.160  1.00  0.00     0.029 A 
ATOM     20  N   UNL     1      17.619  12.140   0.547  1.00  0.00    -0.354 N 
ATOM     21  C   UNL     1      14.021  14.472   0.000  1.00  0.00     0.074 A 
ATOM     22  C   UNL     1      13.557  14.414  -1.370  1.00  0.00     0.031 C 
ATOM     23  C   UNL     1      19.276  10.767  -0.071  1.00  0.00     0.029 A 
ATOM     24  C   UNL     1      18.713  11.488   1.064  1.00  0.00     0.049 A 
ATOM     25  H   UNL     1      17.038  12.729   1.082  1.00  0.00     0.167 HD
ATOM     26  C   UNL     1      13.413  15.176   0.987  1.00  0.00     0.031 A 
ATOM     27  C   UNL     1      19.217  11.472   2.312  1.00  0.00     0.031 A 
ATOM     28  C   UNL     1      13.885  15.236   2.348  1.00  0.00     0.049 A 
ATOM     29  C   UNL     1      18.520  12.255   3.384  1.00  0.00     0.074 A 
ATOM     30  C   UNL     1      13.339  15.922   3.420  1.00  0.00     0.029 A 
ATOM     31  N   UNL     1      15.013  14.586   2.826  1.00  0.00    -0.354 N 
ATOM     32  N   UNL     1      17.433  12.982   3.294  1.00  0.00    -0.248 NA
ATOM     33  C   UNL     1      19.117  12.215   4.724  1.00  0.00     0.031 C 
ATOM     34  C   UNL     1      14.158  15.716   4.537  1.00  0.00     0.029 A 
ATOM     35  C   UNL     1      15.186  14.862   4.173  1.00  0.00     0.049 A 
ATOM     36  H   UNL     1      15.604  14.012   2.287  1.00  0.00     0.167 HD
ATOM     37  C   UNL     1      17.215  13.490   4.568  1.00  0.00     0.074 A 
ATOM     38  C   UNL     1      18.261  12.953   5.416  1.00  0.00     0.031 C 
ATOM     39  C   UNL     1      16.244  14.335   4.995  1.00  0.00     0.031 A 
BRANCH  26  40
ATOM     40  C   UNL     1      12.171  15.951   0.632  1.00  0.00    -0.014 A 
ATOM     41  C   UNL     1      10.950  15.291   0.399  1.00  0.00     0.010 A 
ATOM     42  C   UNL     1      12.206  17.357   0.594  1.00  0.00     0.010 A 
ATOM     43  C   UNL     1       9.795  16.022   0.107  1.00  0.00     0.020 A 
ATOM     44  C   UNL     1      11.048  18.093   0.324  1.00  0.00     0.020 A 
ATOM     45  C   UNL     1       9.852  17.419   0.069  1.00  0.00     0.054 A 
BRANCH  45  46
ATOM     46  S   UNL     1       8.329  18.342  -0.279  1.00  0.00     0.124 S 
ATOM     47  O   UNL     1       8.156  18.108  -1.710  1.00  0.00    -0.237 OA
ATOM     48  O   UNL     1       7.351  17.687   0.586  1.00  0.00    -0.237 OA
ATOM     49  O   UNL     1       8.662  19.715   0.092  1.00  0.00    -0.744 OA
ENDBRANCH  45  46
ENDBRANCH  26  40
BRANCH  27  50
ATOM     50  C   UNL     1      20.457  10.702   2.595  1.00  0.00    -0.014 A 
ATOM     51  C   UNL     1      20.422   9.538   3.381  1.00  0.00     0.010 A 
ATOM     52  C   UNL     1      21.684  11.126   2.051  1.00  0.00     0.010 A 
ATOM     53  C   UNL     1      21.596   8.820   3.631  1.00  0.00     0.020 A 
ATOM     54  C   UNL     1      22.852  10.395   2.273  1.00  0.00     0.020 A 
ATOM     55  C   UNL     1      22.803   9.254   3.075  1.00  0.00     0.054 A 
BRANCH  55  56
ATOM     56  S   UNL     1      24.307   8.282   3.364  1.00  0.00     0.124 S 
ATOM     57  O   UNL     1      24.677   8.694   4.714  1.00  0.00    -0.237 OA
ATOM     58  O   UNL     1      23.831   6.908   3.228  1.00  0.00    -0.237 OA
ATOM     59  O   UNL     1      25.207   8.727   2.302  1.00  0.00    -0.744 OA
ENDBRANCH  55  56
ENDBRANCH  27  50
BRANCH  39  60
ATOM     60  C   UNL     1      16.277  14.719   6.449  1.00  0.00    -0.014 A 
ATOM     61  C   UNL     1      17.259  15.597   6.942  1.00  0.00     0.010 A 
ATOM     62  C   UNL     1      15.314  14.198   7.330  1.00  0.00     0.010 A 
ATOM     63  C   UNL     1      17.308  15.908   8.303  1.00  0.00     0.020 A 
ATOM     64  C   UNL     1      15.344  14.527   8.687  1.00  0.00     0.020 A 
ATOM     65  C   UNL     1      16.354  15.363   9.168  1.00  0.00     0.054 A 
BRANCH  65  66
ATOM     66  S   UNL     1      16.432  15.783  10.931  1.00  0.00     0.124 S 
ATOM     67  O   UNL     1      17.528  14.937  11.395  1.00  0.00    -0.237 OA
ATOM     68  O   UNL     1      16.709  17.217  10.910  1.00  0.00    -0.237 OA
ATOM     69  O   UNL     1      15.108  15.418  11.430  1.00  0.00    -0.744 OA
ENDBRANCH  65  66
ENDBRANCH  39  60
ENDBRANCH  13  14
ENDBRANCH   6   8
ENDBRANCH   3   4
ENDBRANCH   2   3
ENDBRANCH   1   2
BRANCH   1  70
ATOM     70  C   UNL     1      13.102   6.041  -7.824  1.00  0.00     0.002 C 
BRANCH  70  71
ATOM     71  C   UNL     1      12.183   5.685  -6.646  1.00  0.00     0.021 C 
BRANCH  71  72
ATOM     72  C   UNL     1      10.700   5.955  -6.916  1.00  0.00     0.116 C 
BRANCH  72  73
ATOM     73  N   UNL     1      10.117   4.884  -7.699  1.00  0.00    -0.355 N 
ATOM     74  C   UNL     1       9.477   3.727  -7.406  1.00  0.00     0.232 C 
ATOM     75  H   UNL     1      10.206   5.032  -8.668  1.00  0.00     0.163 HD
ATOM     76  O   UNL     1       9.335   2.976  -8.384  1.00  0.00    -0.274 OA
BRANCH  74  77
ATOM     77  C   UNL     1       8.832   3.345  -6.046  1.00  0.00     0.104 C 
ATOM     78  C   UNL     1       9.119   1.820  -5.883  1.00  0.00     0.029 C 
ATOM     79  C   UNL     1       9.414   4.078  -4.820  1.00  0.00     0.277 C 
ATOM     80  C   UNL     1       8.921   1.258  -4.477  1.00  0.00     0.063 C 
ATOM     81  N   UNL     1       9.116   3.505  -3.504  1.00  0.00    -0.345 N 
ATOM     82  C   UNL     1       9.564   2.124  -3.405  1.00  0.00     0.260 C 
ATOM     83  H   UNL     1       9.587   4.057  -2.788  1.00  0.00     0.346 HD
ATOM     84  H   UNL     1       8.105   3.521  -3.371  1.00  0.00     0.346 HD
BRANCH  77  85
ATOM     85  C   UNL     1       7.316   3.648  -6.282  1.00  0.00     0.080 C 
BRANCH  85  86
ATOM     86  C   UNL     1       6.401   3.400  -5.135  1.00  0.00     0.061 A 
ATOM     87  C   UNL     1       6.160   4.208  -4.042  1.00  0.00     0.116 A 
ATOM     88  N   UNL     1       5.693   2.222  -5.030  1.00  0.00    -0.234 NA
ATOM     89  N   UNL     1       5.520   3.402  -3.139  1.00  0.00    -0.307 N 
ATOM     90  C   UNL     1       5.200   2.226  -3.808  1.00  0.00     0.136 A 
ATOM     91  C   UNL     1       5.268   3.615  -1.787  1.00  0.00     0.093 A 
ATOM     92  C   UNL     1       4.511   1.227  -3.064  1.00  0.00     0.048 A 
ATOM     93  C   UNL     1       4.671   2.645  -1.073  1.00  0.00     0.018 A 
ATOM     94  C   UNL     1       4.269   1.420  -1.752  1.00  0.00     0.005 A 
ENDBRANCH  85  86
ENDBRANCH  77  85
ENDBRANCH  74  77
ENDBRANCH  72  73
ENDBRANCH  71  72
ENDBRANCH  70  71
ENDBRANCH   1  70
TORSDOF 18
