REMARK SMILES O=C(CNS(=O)(=O)c1ccccc1)N[C@@H](CO)C(=O)NCCCCCCNC(=O)c1ccc(-c2c3nc(c(-c4ccc(S(=O)(=O)[O-])cc4)c4ccc([nH]4)c(-c4ccc(S(=O)(=O)[O-])cc4)c4nc(c(-c5ccc(S(=O)(=O)[O-])cc5)c5ccc2[nH]5)C=C4)C=C3)cc1
REMARK SMILES IDX 22 1 21 2 20 3 18 4 19 5 15 7 14 8 1 9 2 10 3 12 4 13 5 15
REMARK SMILES IDX 6 16 7 17 8 18 9 19 13 20 10 21 12 22 11 23 16 24 17 25
REMARK SMILES IDX 23 27 24 28 25 29 26 30 27 31 28 32 29 34 30 35 31 36 89 37
REMARK SMILES IDX 32 38 88 39 33 40 34 41 35 42 82 43 36 44 87 45 81 46 83 47
REMARK SMILES IDX 37 48 86 49 80 50 79 51 38 53 68 54 49 55 67 56 50 57 53 58
REMARK SMILES IDX 66 59 84 60 51 61 52 62 65 64 85 65 54 66 39 67 40 68 48 69
REMARK SMILES IDX 41 70 47 71 42 72 43 73 44 74 45 75 46 76 69 77 70 78 78 79
REMARK SMILES IDX 71 80 77 81 72 82 73 83 74 84 75 85 76 86 55 87 56 88 64 89
REMARK SMILES IDX 57 90 63 91 58 92 59 93 60 94 61 95 62 96
REMARK H PARENT 20 6 14 11 4 14 17 26 27 33 83 52 53 63
REMARK Flexibility Score: inf
ROOT
ATOM      1  C   UNL     1       6.217   1.514  -2.620  1.00  0.00     0.021 C 
ENDROOT
BRANCH   1   2
ATOM      2  C   UNL     1       5.155   2.486  -2.111  1.00  0.00     0.116 C 
BRANCH   2   3
ATOM      3  N   UNL     1       3.960   2.458  -2.933  1.00  0.00    -0.354 N 
ATOM      4  C   UNL     1       2.642   2.418  -2.597  1.00  0.00     0.244 C 
ATOM      5  O   UNL     1       1.831   2.659  -3.499  1.00  0.00    -0.273 OA
ATOM      6  H   UNL     1       4.133   2.469  -3.902  1.00  0.00     0.163 HD
BRANCH   4   7
ATOM      7  C   UNL     1       2.148   2.167  -1.162  1.00  0.00     0.197 C 
BRANCH   7   8
ATOM      8  N   UNL     1       2.724   0.969  -0.550  1.00  0.00    -0.341 N 
ATOM      9  O   UNL     1       0.834   0.368   0.590  1.00  0.00    -0.274 OA
ATOM     10  C   UNL     1       1.981   0.116   0.234  1.00  0.00     0.235 C 
ATOM     11  H   UNL     1       3.675   0.767  -0.704  1.00  0.00     0.164 HD
BRANCH  10  12
ATOM     12  C   UNL     1       2.702  -1.163   0.652  1.00  0.00     0.198 C 
BRANCH  12  13
ATOM     13  N   UNL     1       3.888  -1.409  -0.203  1.00  0.00    -0.202 NA
ATOM     14  H   UNL     1       4.486  -0.584  -0.153  1.00  0.00     0.141 HD
BRANCH  13  15
ATOM     15  S   UNL     1       4.826  -2.757   0.211  1.00  0.00     0.241 S 
ATOM     16  O   UNL     1       3.910  -3.782   0.659  1.00  0.00    -0.207 OA
ATOM     17  O   UNL     1       5.716  -2.958  -0.909  1.00  0.00    -0.207 OA
BRANCH  15  18
ATOM     18  C   UNL     1       5.806  -2.231   1.587  1.00  0.00     0.082 A 
ATOM     19  C   UNL     1       6.247  -3.199   2.495  1.00  0.00     0.022 A 
ATOM     20  C   UNL     1       6.097  -0.879   1.787  1.00  0.00     0.022 A 
ATOM     21  C   UNL     1       6.991  -2.809   3.608  1.00  0.00     0.001 A 
ATOM     22  C   UNL     1       6.832  -0.497   2.910  1.00  0.00     0.001 A 
ATOM     23  C   UNL     1       7.279  -1.460   3.817  1.00  0.00     0.000 A 
ENDBRANCH  15  18
ENDBRANCH  13  15
ENDBRANCH  12  13
ENDBRANCH  10  12
ENDBRANCH   7   8
BRANCH   7  24
ATOM     24  C   UNL     1       2.246   3.428  -0.292  1.00  0.00     0.191 C 
BRANCH  24  25
ATOM     25  O   UNL     1       3.551   3.644   0.243  1.00  0.00    -0.394 OA
ATOM     26  H   UNL     1       3.791   2.901   0.819  1.00  0.00     0.210 HD
ENDBRANCH  24  25
ENDBRANCH   7  24
ENDBRANCH   4   7
ENDBRANCH   2   3
ENDBRANCH   1   2
BRANCH   1  27
ATOM     27  C   UNL     1       6.794   1.842  -4.003  1.00  0.00     0.002 C 
BRANCH  27  28
ATOM     28  C   UNL     1       7.414   3.234  -4.156  1.00  0.00     0.002 C 
BRANCH  28  29
ATOM     29  C   UNL     1       8.473   3.612  -3.118  1.00  0.00     0.021 C 
BRANCH  29  30
ATOM     30  C   UNL     1       9.637   2.635  -2.975  1.00  0.00     0.116 C 
BRANCH  30  31
ATOM     31  N   UNL     1      10.408   2.493  -4.197  1.00  0.00    -0.352 N 
ATOM     32  C   UNL     1      11.771   2.501  -4.370  1.00  0.00     0.251 C 
ATOM     33  H   UNL     1       9.879   2.375  -5.019  1.00  0.00     0.163 HD
ATOM     34  O   UNL     1      12.242   2.497  -5.505  1.00  0.00    -0.269 OA
BRANCH  32  35
ATOM     35  C   UNL     1      12.672   2.546  -3.196  1.00  0.00     0.039 A 
ATOM     36  C   UNL     1      13.748   3.438  -3.211  1.00  0.00     0.014 A 
ATOM     37  C   UNL     1      12.471   1.711  -2.093  1.00  0.00     0.014 A 
ATOM     38  C   UNL     1      14.586   3.537  -2.097  1.00  0.00     0.010 A 
ATOM     39  C   UNL     1      13.273   1.851  -0.960  1.00  0.00     0.010 A 
ATOM     40  C   UNL     1      14.338   2.764  -0.951  1.00  0.00    -0.014 A 
BRANCH  40  41
ATOM     41  C   UNL     1      15.180   2.902   0.265  1.00  0.00     0.031 A 
ATOM     42  C   UNL     1      16.048   1.761   0.721  1.00  0.00     0.074 A 
ATOM     43  C   UNL     1      15.120   4.035   0.994  1.00  0.00     0.049 A 
ATOM     44  N   UNL     1      16.801   1.673   1.787  1.00  0.00    -0.248 NA
ATOM     45  C   UNL     1      16.054   0.554  -0.121  1.00  0.00     0.031 C 
ATOM     46  C   UNL     1      14.293   5.202   0.680  1.00  0.00     0.029 A 
ATOM     47  N   UNL     1      15.764   4.386   2.154  1.00  0.00    -0.354 N 
ATOM     48  C   UNL     1      17.355   0.399   1.756  1.00  0.00     0.074 A 
ATOM     49  C   UNL     1      16.821  -0.264   0.585  1.00  0.00     0.031 C 
ATOM     50  C   UNL     1      14.495   6.147   1.613  1.00  0.00     0.029 A 
ATOM     51  C   UNL     1      15.438   5.643   2.607  1.00  0.00     0.049 A 
ATOM     52  H   UNL     1      16.399   3.795   2.618  1.00  0.00     0.167 HD
ATOM     53  C   UNL     1      18.240  -0.165   2.613  1.00  0.00     0.031 A 
ATOM     54  C   UNL     1      15.846   6.313   3.702  1.00  0.00     0.031 A 
ATOM     55  C   UNL     1      18.783   0.498   3.769  1.00  0.00     0.049 A 
ATOM     56  C   UNL     1      16.833   5.670   4.636  1.00  0.00     0.074 A 
ATOM     57  C   UNL     1      19.721   0.025   4.670  1.00  0.00     0.029 A 
ATOM     58  N   UNL     1      18.441   1.776   4.181  1.00  0.00    -0.354 N 
ATOM     59  N   UNL     1      17.380   4.481   4.561  1.00  0.00    -0.248 NA
ATOM     60  C   UNL     1      17.264   6.463   5.795  1.00  0.00     0.031 C 
ATOM     61  C   UNL     1      19.920   1.006   5.649  1.00  0.00     0.029 A 
ATOM     62  C   UNL     1      19.138   2.105   5.332  1.00  0.00     0.049 A 
ATOM     63  H   UNL     1      17.797   2.364   3.723  1.00  0.00     0.167 HD
ATOM     64  C   UNL     1      18.239   4.392   5.652  1.00  0.00     0.074 A 
ATOM     65  C   UNL     1      18.145   5.651   6.363  1.00  0.00     0.031 C 
ATOM     66  C   UNL     1      19.034   3.361   6.028  1.00  0.00     0.031 A 
BRANCH  53  67
ATOM     67  C   UNL     1      18.671  -1.579   2.330  1.00  0.00    -0.014 A 
ATOM     68  C   UNL     1      19.531  -1.871   1.256  1.00  0.00     0.010 A 
ATOM     69  C   UNL     1      18.233  -2.625   3.162  1.00  0.00     0.010 A 
ATOM     70  C   UNL     1      19.909  -3.190   0.991  1.00  0.00     0.020 A 
ATOM     71  C   UNL     1      18.629  -3.942   2.915  1.00  0.00     0.020 A 
ATOM     72  C   UNL     1      19.449  -4.219   1.819  1.00  0.00     0.054 A 
BRANCH  72  73
ATOM     73  S   UNL     1      19.960  -5.922   1.460  1.00  0.00     0.124 S 
ATOM     74  O   UNL     1      19.107  -6.258   0.323  1.00  0.00    -0.237 OA
ATOM     75  O   UNL     1      21.381  -5.776   1.157  1.00  0.00    -0.237 OA
ATOM     76  O   UNL     1      19.661  -6.640   2.697  1.00  0.00    -0.744 OA
ENDBRANCH  72  73
ENDBRANCH  53  67
BRANCH  54  77
ATOM     77  C   UNL     1      15.333   7.684   3.964  1.00  0.00    -0.014 A 
ATOM     78  C   UNL     1      16.162   8.803   3.768  1.00  0.00     0.010 A 
ATOM     79  C   UNL     1      14.009   7.879   4.394  1.00  0.00     0.010 A 
ATOM     80  C   UNL     1      15.681  10.092   4.012  1.00  0.00     0.020 A 
ATOM     81  C   UNL     1      13.517   9.168   4.618  1.00  0.00     0.020 A 
ATOM     82  C   UNL     1      14.360  10.266   4.435  1.00  0.00     0.054 A 
BRANCH  82  83
ATOM     83  S   UNL     1      13.735  11.950   4.692  1.00  0.00     0.124 S 
ATOM     84  O   UNL     1      14.313  12.294   5.987  1.00  0.00    -0.237 OA
ATOM     85  O   UNL     1      14.279  12.670   3.543  1.00  0.00    -0.237 OA
ATOM     86  O   UNL     1      12.284  11.778   4.677  1.00  0.00    -0.744 OA
ENDBRANCH  82  83
ENDBRANCH  54  77
BRANCH  66  87
ATOM     87  C   UNL     1      19.889   3.559   7.249  1.00  0.00    -0.014 A 
ATOM     88  C   UNL     1      19.332   3.521   8.539  1.00  0.00     0.010 A 
ATOM     89  C   UNL     1      21.277   3.736   7.104  1.00  0.00     0.010 A 
ATOM     90  C   UNL     1      20.145   3.684   9.663  1.00  0.00     0.020 A 
ATOM     91  C   UNL     1      22.096   3.877   8.226  1.00  0.00     0.020 A 
ATOM     92  C   UNL     1      21.523   3.864   9.499  1.00  0.00     0.054 A 
BRANCH  92  93
ATOM     93  S   UNL     1      22.567   4.028  10.974  1.00  0.00     0.124 S 
ATOM     94  O   UNL     1      22.311   5.409  11.374  1.00  0.00    -0.237 OA
ATOM     95  O   UNL     1      22.028   3.005  11.867  1.00  0.00    -0.237 OA
ATOM     96  O   UNL     1      23.914   3.761  10.474  1.00  0.00    -0.744 OA
ENDBRANCH  92  93
ENDBRANCH  66  87
ENDBRANCH  40  41
ENDBRANCH  32  35
ENDBRANCH  30  31
ENDBRANCH  29  30
ENDBRANCH  28  29
ENDBRANCH  27  28
ENDBRANCH   1  27
TORSDOF 23
