REMARK SMILES C[C@@H]1CCCCN1S(=O)(=O)c1ccc(CCC(=O)NCCCCCCNC(=O)c2ccc(-c3c4nc(c(-c5ccc(S(=O)(=O)[O-])cc5)c5ccc([nH]5)c(-c5ccc(S(=O)(=O)[O-])cc5)c5nc(c(-c6ccc(S(=O)(=O)[O-])cc6)c6ccc3[nH]6)C=C5)C=C4)cc2)cc1
REMARK SMILES IDX 22 1 21 2 20 3 19 4 17 5 18 6 16 8 15 9 14 10 11 11 12 12
REMARK SMILES IDX 90 13 13 14 89 15 8 16 9 17 10 18 7 19 1 20 2 21 3 22 4 23
REMARK SMILES IDX 6 24 5 25 23 26 24 27 25 28 26 29 27 30 28 32 29 33 30 34
REMARK SMILES IDX 88 35 31 36 87 37 32 38 33 39 34 40 81 41 35 42 86 43 80 44
REMARK SMILES IDX 82 45 36 46 85 47 79 48 78 49 37 51 67 52 48 53 66 54 49 55
REMARK SMILES IDX 52 56 65 57 83 58 50 59 51 60 64 62 84 63 53 64 38 65 39 66
REMARK SMILES IDX 47 67 40 68 46 69 41 70 42 71 43 72 44 73 45 74 68 75 69 76
REMARK SMILES IDX 77 77 70 78 76 79 71 80 72 81 73 82 74 83 75 84 54 85 55 86
REMARK SMILES IDX 63 87 56 88 62 89 57 90 58 91 59 92 60 93 61 94
REMARK H PARENT 19 7 26 31 82 50 52 61
REMARK Flexibility Score: inf
ROOT
ATOM      1  C   UNL     1       2.839  -5.696  -2.668  1.00  0.00     0.002 C 
ENDROOT
BRANCH   1   2
ATOM      2  C   UNL     1       3.580  -4.356  -2.708  1.00  0.00     0.021 C 
BRANCH   2   3
ATOM      3  C   UNL     1       5.107  -4.435  -2.628  1.00  0.00     0.116 C 
BRANCH   3   4
ATOM      4  N   UNL     1       5.690  -4.639  -3.948  1.00  0.00    -0.356 N 
ATOM      5  C   UNL     1       6.441  -3.810  -4.725  1.00  0.00     0.220 C 
ATOM      6  O   UNL     1       6.703  -4.169  -5.877  1.00  0.00    -0.275 OA
ATOM      7  H   UNL     1       5.511  -5.522  -4.343  1.00  0.00     0.163 HD
BRANCH   5   8
ATOM      8  C   UNL     1       6.980  -2.495  -4.194  1.00  0.00     0.105 C 
BRANCH   8   9
ATOM      9  C   UNL     1       6.229  -1.277  -4.751  1.00  0.00     0.045 C 
BRANCH   9  10
ATOM     10  C   UNL     1       4.986  -0.955  -3.957  1.00  0.00    -0.047 A 
ATOM     11  C   UNL     1       2.724  -0.822  -2.314  1.00  0.00     0.082 A 
ATOM     12  C   UNL     1       2.580  -1.103  -3.678  1.00  0.00     0.022 A 
ATOM     13  C   UNL     1       3.982  -0.499  -1.798  1.00  0.00     0.022 A 
ATOM     14  C   UNL     1       3.712  -1.174  -4.496  1.00  0.00     0.005 A 
ATOM     15  C   UNL     1       5.103  -0.536  -2.625  1.00  0.00     0.005 A 
BRANCH  11  16
ATOM     16  S   UNL     1       1.445  -1.348  -1.190  1.00  0.00     0.243 S 
ATOM     17  O   UNL     1       2.095  -1.921  -0.031  1.00  0.00    -0.207 OA
ATOM     18  O   UNL     1       0.537  -2.177  -1.962  1.00  0.00    -0.207 OA
BRANCH  16  19
ATOM     19  N   UNL     1       0.573   0.021  -0.704  1.00  0.00    -0.195 NA
ATOM     20  C   UNL     1       2.089   0.874   1.154  1.00  0.00     0.026 C 
ATOM     21  C   UNL     1       1.266   1.200  -0.093  1.00  0.00     0.070 C 
ATOM     22  C   UNL     1       0.235   2.299   0.266  1.00  0.00     0.020 C 
ATOM     23  C   UNL     1      -1.114   2.106  -0.413  1.00  0.00     0.003 C 
ATOM     24  C   UNL     1      -0.657  -0.345   0.046  1.00  0.00     0.103 C 
ATOM     25  C   UNL     1      -1.706   0.754  -0.044  1.00  0.00     0.017 C 
ENDBRANCH  16  19
ENDBRANCH  11  16
ENDBRANCH   9  10
ENDBRANCH   8   9
ENDBRANCH   5   8
ENDBRANCH   3   4
ENDBRANCH   2   3
ENDBRANCH   1   2
BRANCH   1  26
ATOM     26  C   UNL     1       2.783  -6.392  -1.301  1.00  0.00     0.002 C 
BRANCH  26  27
ATOM     27  C   UNL     1       2.212  -5.579  -0.129  1.00  0.00     0.021 C 
BRANCH  27  28
ATOM     28  C   UNL     1       0.773  -5.076  -0.285  1.00  0.00     0.116 C 
BRANCH  28  29
ATOM     29  N   UNL     1      -0.214  -6.141  -0.204  1.00  0.00    -0.352 N 
ATOM     30  C   UNL     1      -1.349  -6.262   0.563  1.00  0.00     0.251 C 
ATOM     31  H   UNL     1      -0.040  -6.906  -0.800  1.00  0.00     0.163 HD
ATOM     32  O   UNL     1      -1.978  -7.319   0.523  1.00  0.00    -0.269 OA
BRANCH  30  33
ATOM     33  C   UNL     1      -1.825  -5.173   1.458  1.00  0.00     0.039 A 
ATOM     34  C   UNL     1      -2.321  -5.519   2.720  1.00  0.00     0.014 A 
ATOM     35  C   UNL     1      -1.866  -3.836   1.063  1.00  0.00     0.014 A 
ATOM     36  C   UNL     1      -2.783  -4.530   3.601  1.00  0.00     0.010 A 
ATOM     37  C   UNL     1      -2.284  -2.846   1.968  1.00  0.00     0.010 A 
ATOM     38  C   UNL     1      -2.731  -3.170   3.255  1.00  0.00    -0.014 A 
BRANCH  38  39
ATOM     39  C   UNL     1      -3.067  -2.111   4.259  1.00  0.00     0.031 A 
ATOM     40  C   UNL     1      -4.179  -1.109   4.049  1.00  0.00     0.074 A 
ATOM     41  C   UNL     1      -2.323  -2.014   5.382  1.00  0.00     0.049 A 
ATOM     42  N   UNL     1      -4.641  -0.207   4.884  1.00  0.00    -0.248 NA
ATOM     43  C   UNL     1      -4.831  -1.083   2.732  1.00  0.00     0.031 C 
ATOM     44  C   UNL     1      -1.136  -2.819   5.684  1.00  0.00     0.029 A 
ATOM     45  N   UNL     1      -2.462  -1.208   6.489  1.00  0.00    -0.354 N 
ATOM     46  C   UNL     1      -5.627   0.492   4.196  1.00  0.00     0.074 A 
ATOM     47  C   UNL     1      -5.654  -0.050   2.853  1.00  0.00     0.031 C 
ATOM     48  C   UNL     1      -0.701  -2.519   6.918  1.00  0.00     0.029 A 
ATOM     49  C   UNL     1      -1.560  -1.487   7.490  1.00  0.00     0.049 A 
ATOM     50  H   UNL     1      -3.142  -0.500   6.558  1.00  0.00     0.167 HD
ATOM     51  C   UNL     1      -6.455   1.472   4.640  1.00  0.00     0.031 A 
ATOM     52  C   UNL     1      -1.449  -1.002   8.742  1.00  0.00     0.031 A 
ATOM     53  C   UNL     1      -6.462   2.000   5.982  1.00  0.00     0.049 A 
ATOM     54  C   UNL     1      -2.438   0.011   9.246  1.00  0.00     0.074 A 
ATOM     55  C   UNL     1      -7.331   2.925   6.540  1.00  0.00     0.029 A 
ATOM     56  N   UNL     1      -5.567   1.651   6.979  1.00  0.00    -0.354 N 
ATOM     57  N   UNL     1      -3.437   0.574   8.611  1.00  0.00    -0.248 NA
ATOM     58  C   UNL     1      -2.297   0.432  10.648  1.00  0.00     0.031 C 
ATOM     59  C   UNL     1      -6.941   3.159   7.864  1.00  0.00     0.029 A 
ATOM     60  C   UNL     1      -5.856   2.347   8.144  1.00  0.00     0.049 A 
ATOM     61  H   UNL     1      -4.833   1.003   6.877  1.00  0.00     0.167 HD
ATOM     62  C   UNL     1      -4.060   1.395   9.546  1.00  0.00     0.074 A 
ATOM     63  C   UNL     1      -3.338   1.240  10.791  1.00  0.00     0.031 C 
ATOM     64  C   UNL     1      -5.136   2.203   9.382  1.00  0.00     0.031 A 
BRANCH  51  65
ATOM     65  C   UNL     1      -7.466   2.028   3.667  1.00  0.00    -0.014 A 
ATOM     66  C   UNL     1      -8.566   1.256   3.253  1.00  0.00     0.010 A 
ATOM     67  C   UNL     1      -7.360   3.359   3.221  1.00  0.00     0.010 A 
ATOM     68  C   UNL     1      -9.519   1.787   2.380  1.00  0.00     0.020 A 
ATOM     69  C   UNL     1      -8.326   3.904   2.368  1.00  0.00     0.020 A 
ATOM     70  C   UNL     1      -9.390   3.107   1.940  1.00  0.00     0.054 A 
BRANCH  70  71
ATOM     71  S   UNL     1     -10.659   3.783   0.832  1.00  0.00     0.124 S 
ATOM     72  O   UNL     1     -10.308   3.158  -0.441  1.00  0.00    -0.237 OA
ATOM     73  O   UNL     1     -11.901   3.314   1.440  1.00  0.00    -0.237 OA
ATOM     74  O   UNL     1     -10.443   5.226   0.899  1.00  0.00    -0.744 OA
ENDBRANCH  70  71
ENDBRANCH  51  65
BRANCH  52  75
ATOM     75  C   UNL     1      -0.393  -1.529   9.648  1.00  0.00    -0.014 A 
ATOM     76  C   UNL     1      -0.734  -2.404  10.696  1.00  0.00     0.010 A 
ATOM     77  C   UNL     1       0.951  -1.159   9.470  1.00  0.00     0.010 A 
ATOM     78  C   UNL     1       0.248  -2.877  11.569  1.00  0.00     0.020 A 
ATOM     79  C   UNL     1       1.939  -1.651  10.327  1.00  0.00     0.020 A 
ATOM     80  C   UNL     1       1.579  -2.495  11.380  1.00  0.00     0.054 A 
BRANCH  80  81
ATOM     81  S   UNL     1       2.847  -3.152  12.499  1.00  0.00     0.124 S 
ATOM     82  O   UNL     1       2.667  -2.316  13.682  1.00  0.00    -0.237 OA
ATOM     83  O   UNL     1       2.451  -4.550  12.645  1.00  0.00    -0.237 OA
ATOM     84  O   UNL     1       4.091  -2.939  11.763  1.00  0.00    -0.744 OA
ENDBRANCH  80  81
ENDBRANCH  52  75
BRANCH  64  85
ATOM     85  C   UNL     1      -5.615   2.963  10.591  1.00  0.00    -0.014 A 
ATOM     86  C   UNL     1      -4.876   4.037  11.119  1.00  0.00     0.010 A 
ATOM     87  C   UNL     1      -6.822   2.594  11.212  1.00  0.00     0.010 A 
ATOM     88  C   UNL     1      -5.305   4.690  12.279  1.00  0.00     0.020 A 
ATOM     89  C   UNL     1      -7.268   3.261  12.357  1.00  0.00     0.020 A 
ATOM     90  C   UNL     1      -6.493   4.290  12.897  1.00  0.00     0.054 A 
BRANCH  90  91
ATOM     91  S   UNL     1      -7.032   5.146  14.403  1.00  0.00     0.124 S 
ATOM     92  O   UNL     1      -6.175   4.540  15.419  1.00  0.00    -0.237 OA
ATOM     93  O   UNL     1      -6.750   6.547  14.099  1.00  0.00    -0.237 OA
ATOM     94  O   UNL     1      -8.450   4.811  14.502  1.00  0.00    -0.744 OA
ENDBRANCH  90  91
ENDBRANCH  64  85
ENDBRANCH  38  39
ENDBRANCH  30  33
ENDBRANCH  28  29
ENDBRANCH  27  28
ENDBRANCH  26  27
ENDBRANCH   1  26
TORSDOF 20
