REMARK SMILES C[C@H]1CCC[C@@H]1n1c(SCC(=O)NCCCCCCNC(=O)c2ccc(-c3c4nc(c(-c5ccc(S(=O)(=O)[O-])cc5)c5ccc([nH]5)c(-c5ccc(S(=O)(=O)[O-])cc5)c5nc(c(-c6ccc(S(=O)(=O)[O-])cc6)c6ccc3[nH]6)C=C5)C=C4)cc2)nc2cnccc21
REMARK SMILES IDX 16 1 15 2 14 3 13 4 11 5 12 6 10 8 9 9 8 10 7 11 89 12 83 13
REMARK SMILES IDX 84 14 88 15 85 16 87 17 86 18 6 19 1 20 2 21 3 22 4 23 5 24
REMARK SMILES IDX 17 25 18 26 19 27 20 28 21 29 22 31 23 32 24 33 82 34 25 35
REMARK SMILES IDX 81 36 26 37 27 38 28 39 75 40 29 41 80 42 74 43 76 44 30 45
REMARK SMILES IDX 79 46 73 47 72 48 31 50 61 51 42 52 60 53 43 54 46 55 59 56
REMARK SMILES IDX 77 57 44 58 45 59 58 61 78 62 47 63 32 64 33 65 41 66 34 67
REMARK SMILES IDX 40 68 35 69 36 70 37 71 38 72 39 73 62 74 63 75 71 76 64 77
REMARK SMILES IDX 70 78 65 79 66 80 67 81 68 82 69 83 48 84 49 85 57 86 50 87
REMARK SMILES IDX 56 88 51 89 52 90 53 91 54 92 55 93
REMARK H PARENT 13 7 20 30 76 49 46 60
REMARK Flexibility Score: inf
ROOT
ATOM      1  C   UNL     1      -0.307   3.735  -5.306  1.00  0.00     0.002 C 
ENDROOT
BRANCH   1   2
ATOM      2  C   UNL     1      -0.829   4.472  -4.064  1.00  0.00     0.021 C 
BRANCH   2   3
ATOM      3  C   UNL     1      -2.193   4.017  -3.566  1.00  0.00     0.116 C 
BRANCH   3   4
ATOM      4  N   UNL     1      -2.186   2.620  -3.214  1.00  0.00    -0.355 N 
ATOM      5  C   UNL     1      -2.620   2.029  -2.080  1.00  0.00     0.230 C 
ATOM      6  O   UNL     1      -2.865   0.819  -2.155  1.00  0.00    -0.274 OA
ATOM      7  H   UNL     1      -1.814   2.013  -3.894  1.00  0.00     0.163 HD
BRANCH   5   8
ATOM      8  C   UNL     1      -2.937   2.794  -0.821  1.00  0.00     0.178 C 
BRANCH   8   9
ATOM      9  S   UNL     1      -1.728   3.647   0.173  1.00  0.00    -0.078 SA
BRANCH   9  10
ATOM     10  C   UNL     1      -0.039   3.273   0.073  1.00  0.00     0.169 A 
ATOM     11  N   UNL     1       0.665   2.087   0.324  1.00  0.00    -0.315 N 
ATOM     12  C   UNL     1       2.020   2.441   0.377  1.00  0.00     0.072 A 
ATOM     13  N   UNL     1       0.771   4.313   0.161  1.00  0.00    -0.221 NA
ATOM     14  C   UNL     1       2.018   3.832   0.427  1.00  0.00     0.108 A 
ATOM     15  C   UNL     1       3.239   1.753   0.460  1.00  0.00     0.049 A 
ATOM     16  C   UNL     1       3.200   4.523   0.729  1.00  0.00     0.141 A 
ATOM     17  C   UNL     1       4.364   2.517   0.746  1.00  0.00     0.113 A 
ATOM     18  N   UNL     1       4.367   3.853   0.914  1.00  0.00    -0.262 NA
BRANCH  11  19
ATOM     19  C   UNL     1       0.101   0.811   0.778  1.00  0.00     0.093 C 
ATOM     20  C   UNL     1       1.825  -0.464   2.248  1.00  0.00     0.010 C 
ATOM     21  C   UNL     1       1.023  -0.423   0.950  1.00  0.00     0.009 C 
ATOM     22  C   UNL     1       0.067  -1.618   0.885  1.00  0.00     0.005 C 
ATOM     23  C   UNL     1      -0.902  -1.247  -0.208  1.00  0.00     0.002 C 
ATOM     24  C   UNL     1      -0.937   0.271  -0.198  1.00  0.00     0.026 C 
ENDBRANCH  11  19
ENDBRANCH   9  10
ENDBRANCH   8   9
ENDBRANCH   5   8
ENDBRANCH   3   4
ENDBRANCH   2   3
ENDBRANCH   1   2
BRANCH   1  25
ATOM     25  C   UNL     1      -1.228   3.740  -6.531  1.00  0.00     0.002 C 
BRANCH  25  26
ATOM     26  C   UNL     1      -1.738   5.117  -6.973  1.00  0.00     0.021 C 
BRANCH  26  27
ATOM     27  C   UNL     1      -0.648   6.176  -7.136  1.00  0.00     0.116 C 
BRANCH  27  28
ATOM     28  N   UNL     1       0.357   5.822  -8.114  1.00  0.00    -0.352 N 
ATOM     29  C   UNL     1       0.491   6.013  -9.459  1.00  0.00     0.251 C 
ATOM     30  H   UNL     1       1.116   5.334  -7.721  1.00  0.00     0.163 HD
ATOM     31  O   UNL     1       1.574   5.674  -9.946  1.00  0.00    -0.269 OA
BRANCH  29  32
ATOM     32  C   UNL     1      -0.576   6.527 -10.362  1.00  0.00     0.039 A 
ATOM     33  C   UNL     1      -1.842   6.959  -9.968  1.00  0.00     0.014 A 
ATOM     34  C   UNL     1      -0.281   6.482 -11.739  1.00  0.00     0.014 A 
ATOM     35  C   UNL     1      -2.824   7.220 -10.917  1.00  0.00     0.010 A 
ATOM     36  C   UNL     1      -1.253   6.761 -12.692  1.00  0.00     0.010 A 
ATOM     37  C   UNL     1      -2.543   7.066 -12.275  1.00  0.00    -0.014 A 
BRANCH  37  38
ATOM     38  C   UNL     1      -3.643   7.243 -13.215  1.00  0.00     0.031 A 
ATOM     39  C   UNL     1      -4.299   8.581 -13.215  1.00  0.00     0.074 A 
ATOM     40  C   UNL     1      -4.028   6.284 -14.079  1.00  0.00     0.049 A 
ATOM     41  N   UNL     1      -5.526   8.871 -12.925  1.00  0.00    -0.248 NA
ATOM     42  C   UNL     1      -3.454   9.751 -13.490  1.00  0.00     0.031 C 
ATOM     43  C   UNL     1      -3.361   5.021 -14.408  1.00  0.00     0.029 A 
ATOM     44  N   UNL     1      -5.084   6.304 -14.935  1.00  0.00    -0.354 N 
ATOM     45  C   UNL     1      -5.659  10.245 -13.114  1.00  0.00     0.074 A 
ATOM     46  C   UNL     1      -4.329  10.748 -13.361  1.00  0.00     0.031 C 
ATOM     47  C   UNL     1      -3.889   4.523 -15.550  1.00  0.00     0.029 A 
ATOM     48  C   UNL     1      -5.029   5.340 -15.929  1.00  0.00     0.049 A 
ATOM     49  H   UNL     1      -5.824   6.948 -14.855  1.00  0.00     0.167 HD
ATOM     50  C   UNL     1      -6.869  10.868 -13.193  1.00  0.00     0.031 A 
ATOM     51  C   UNL     1      -5.824   5.269 -17.024  1.00  0.00     0.031 A 
ATOM     52  C   UNL     1      -7.935  10.049 -12.687  1.00  0.00     0.049 A 
ATOM     53  C   UNL     1      -7.066   6.018 -16.707  1.00  0.00     0.074 A 
ATOM     54  C   UNL     1      -8.253   9.536 -11.446  1.00  0.00     0.029 A 
ATOM     55  N   UNL     1      -8.691   9.341 -13.591  1.00  0.00    -0.354 N 
ATOM     56  N   UNL     1      -7.918   5.645 -15.793  1.00  0.00    -0.248 NA
ATOM     57  C   UNL     1      -7.147   7.415 -17.105  1.00  0.00     0.031 C 
ATOM     58  C   UNL     1      -8.783   8.241 -11.712  1.00  0.00     0.029 A 
ATOM     59  C   UNL     1      -8.806   8.065 -13.098  1.00  0.00     0.049 A 
ATOM     60  H   UNL     1      -9.075   9.683 -14.430  1.00  0.00     0.167 HD
ATOM     61  C   UNL     1      -8.352   6.825 -15.207  1.00  0.00     0.074 A 
ATOM     62  C   UNL     1      -7.915   7.882 -16.117  1.00  0.00     0.031 C 
ATOM     63  C   UNL     1      -8.788   6.864 -13.912  1.00  0.00     0.031 A 
BRANCH  50  64
ATOM     64  C   UNL     1      -7.124  12.133 -13.969  1.00  0.00    -0.014 A 
ATOM     65  C   UNL     1      -6.246  12.601 -14.967  1.00  0.00     0.010 A 
ATOM     66  C   UNL     1      -8.384  12.762 -13.883  1.00  0.00     0.010 A 
ATOM     67  C   UNL     1      -6.587  13.648 -15.824  1.00  0.00     0.020 A 
ATOM     68  C   UNL     1      -8.755  13.787 -14.768  1.00  0.00     0.020 A 
ATOM     69  C   UNL     1      -7.849  14.225 -15.731  1.00  0.00     0.054 A 
BRANCH  69  70
ATOM     70  S   UNL     1      -8.300  15.486 -16.949  1.00  0.00     0.124 S 
ATOM     71  O   UNL     1      -7.437  16.599 -16.564  1.00  0.00    -0.237 OA
ATOM     72  O   UNL     1      -7.964  14.834 -18.212  1.00  0.00    -0.237 OA
ATOM     73  O   UNL     1      -9.727  15.692 -16.717  1.00  0.00    -0.744 OA
ENDBRANCH  69  70
ENDBRANCH  50  64
BRANCH  51  74
ATOM     74  C   UNL     1      -5.355   5.057 -18.418  1.00  0.00    -0.014 A 
ATOM     75  C   UNL     1      -4.031   5.394 -18.772  1.00  0.00     0.010 A 
ATOM     76  C   UNL     1      -6.274   4.822 -19.458  1.00  0.00     0.010 A 
ATOM     77  C   UNL     1      -3.657   5.570 -20.107  1.00  0.00     0.020 A 
ATOM     78  C   UNL     1      -5.904   4.998 -20.802  1.00  0.00     0.020 A 
ATOM     79  C   UNL     1      -4.606   5.408 -21.113  1.00  0.00     0.054 A 
BRANCH  79  80
ATOM     80  S   UNL     1      -4.137   5.834 -22.815  1.00  0.00     0.124 S 
ATOM     81  O   UNL     1      -3.943   7.282 -22.720  1.00  0.00    -0.237 OA
ATOM     82  O   UNL     1      -2.911   5.055 -23.006  1.00  0.00    -0.237 OA
ATOM     83  O   UNL     1      -5.274   5.405 -23.610  1.00  0.00    -0.744 OA
ENDBRANCH  79  80
ENDBRANCH  51  74
BRANCH  63  84
ATOM     84  C   UNL     1      -8.987   5.562 -13.159  1.00  0.00    -0.014 A 
ATOM     85  C   UNL     1     -10.210   5.370 -12.491  1.00  0.00     0.010 A 
ATOM     86  C   UNL     1      -7.933   4.664 -12.895  1.00  0.00     0.010 A 
ATOM     87  C   UNL     1     -10.361   4.353 -11.544  1.00  0.00     0.020 A 
ATOM     88  C   UNL     1      -8.086   3.624 -11.963  1.00  0.00     0.020 A 
ATOM     89  C   UNL     1      -9.291   3.498 -11.270  1.00  0.00     0.054 A 
BRANCH  89  90
ATOM     90  S   UNL     1      -9.495   2.263  -9.956  1.00  0.00     0.124 S 
ATOM     91  O   UNL     1      -9.515   3.091  -8.752  1.00  0.00    -0.237 OA
ATOM     92  O   UNL     1     -10.768   1.633 -10.298  1.00  0.00    -0.237 OA
ATOM     93  O   UNL     1      -8.323   1.401 -10.093  1.00  0.00    -0.744 OA
ENDBRANCH  89  90
ENDBRANCH  63  84
ENDBRANCH  37  38
ENDBRANCH  29  32
ENDBRANCH  27  28
ENDBRANCH  26  27
ENDBRANCH  25  26
ENDBRANCH   1  25
TORSDOF 19
