REMARK SMILES Cc1cc(OCC(=O)NCCCCCCNC(=O)c2ccc(-c3c4nc(c(-c5ccc(S(=O)(=O)[O-])cc5)c5ccc([nH]5)c(-c5ccc(S(=O)(=O)[O-])cc5)c5nc(c(-c6ccc(S(=O)(=O)[O-])cc6)c6ccc3[nH]6)C=C5)C=C4)cc2)nc(-n2nc(C)cc2C)n1
REMARK SMILES IDX 12 1 11 2 10 3 9 4 7 5 8 6 6 8 5 9 4 10 1 11 2 12 3 13 88 14
REMARK SMILES IDX 80 15 79 16 81 17 82 18 86 19 83 20 85 21 87 22 84 23 13 24
REMARK SMILES IDX 14 25 15 26 16 27 17 28 18 30 19 31 20 32 78 33 21 34 77 35
REMARK SMILES IDX 22 36 23 37 24 38 71 39 25 40 76 41 70 42 72 43 26 44 75 45
REMARK SMILES IDX 69 46 68 47 27 49 57 50 38 51 56 52 39 53 42 54 55 55 73 56
REMARK SMILES IDX 40 57 41 58 54 60 74 61 43 62 28 63 29 64 37 65 30 66 36 67
REMARK SMILES IDX 31 68 32 69 33 70 34 71 35 72 58 73 59 74 67 75 60 76 66 77
REMARK SMILES IDX 61 78 62 79 63 80 64 81 65 82 44 83 45 84 53 85 46 86 52 87
REMARK SMILES IDX 47 88 48 89 49 90 50 91 51 92
REMARK H PARENT 9 7 16 29 72 48 42 59
REMARK Flexibility Score: inf
ROOT
ATOM      1  C   UNL     1       1.937  -2.228   4.801  1.00  0.00     0.002 C 
ENDROOT
BRANCH   1   2
ATOM      2  C   UNL     1       2.574  -2.077   3.411  1.00  0.00     0.021 C 
BRANCH   2   3
ATOM      3  C   UNL     1       2.564  -3.346   2.558  1.00  0.00     0.116 C 
BRANCH   3   4
ATOM      4  N   UNL     1       1.210  -3.798   2.294  1.00  0.00    -0.353 N 
ATOM      5  C   UNL     1       0.552  -3.868   1.105  1.00  0.00     0.258 C 
ATOM      6  O   UNL     1      -0.624  -4.242   1.101  1.00  0.00    -0.271 OA
ATOM      7  H   UNL     1       0.699  -4.093   3.082  1.00  0.00     0.163 HD
BRANCH   5   8
ATOM      8  C   UNL     1       1.276  -3.518  -0.204  1.00  0.00     0.331 C 
BRANCH   8   9
ATOM      9  O   UNL     1       1.821  -2.224  -0.370  1.00  0.00    -0.467 OA
BRANCH   9  10
ATOM     10  C   UNL     1       0.993  -1.145  -0.272  1.00  0.00     0.218 A 
ATOM     11  C   UNL     1      -2.531   0.040   0.122  1.00  0.00     0.067 C 
ATOM     12  C   UNL     1      -1.034  -0.016   0.069  1.00  0.00     0.047 A 
ATOM     13  C   UNL     1      -0.380  -1.201  -0.194  1.00  0.00     0.092 A 
ATOM     14  N   UNL     1      -0.376   1.145   0.235  1.00  0.00    -0.216 NA
ATOM     15  C   UNL     1       0.961   1.129   0.025  1.00  0.00     0.254 A 
ATOM     16  N   UNL     1       1.669   0.013  -0.236  1.00  0.00    -0.175 NA
BRANCH  15  17
ATOM     17  N   UNL     1       1.645   2.394   0.054  1.00  0.00    -0.203 N 
ATOM     18  N   UNL     1       2.648   2.689  -0.827  1.00  0.00    -0.170 NA
ATOM     19  C   UNL     1       1.353   3.484   0.865  1.00  0.00     0.045 A 
ATOM     20  C   UNL     1       2.848   4.004  -0.686  1.00  0.00     0.060 A 
ATOM     21  C   UNL     1       2.098   4.537   0.380  1.00  0.00     0.049 A 
ATOM     22  C   UNL     1       0.461   3.406   2.048  1.00  0.00     0.067 C 
ATOM     23  C   UNL     1       3.772   4.728  -1.593  1.00  0.00     0.069 C 
ENDBRANCH  15  17
ENDBRANCH   9  10
ENDBRANCH   8   9
ENDBRANCH   5   8
ENDBRANCH   3   4
ENDBRANCH   2   3
ENDBRANCH   1   2
BRANCH   1  24
ATOM     24  C   UNL     1       2.518  -3.342   5.678  1.00  0.00     0.002 C 
BRANCH  24  25
ATOM     25  C   UNL     1       4.028  -3.270   5.912  1.00  0.00     0.021 C 
BRANCH  25  26
ATOM     26  C   UNL     1       4.514  -1.983   6.570  1.00  0.00     0.116 C 
BRANCH  26  27
ATOM     27  N   UNL     1       3.994  -1.820   7.920  1.00  0.00    -0.352 N 
ATOM     28  C   UNL     1       4.673  -1.586   9.090  1.00  0.00     0.251 C 
ATOM     29  H   UNL     1       3.016  -1.888   8.006  1.00  0.00     0.163 HD
ATOM     30  O   UNL     1       4.082  -1.659  10.166  1.00  0.00    -0.269 OA
BRANCH  28  31
ATOM     31  C   UNL     1       6.118  -1.270   9.057  1.00  0.00     0.039 A 
ATOM     32  C   UNL     1       6.970  -1.895   9.971  1.00  0.00     0.014 A 
ATOM     33  C   UNL     1       6.633  -0.362   8.128  1.00  0.00     0.014 A 
ATOM     34  C   UNL     1       8.346  -1.658   9.909  1.00  0.00     0.010 A 
ATOM     35  C   UNL     1       8.010  -0.188   8.017  1.00  0.00     0.010 A 
ATOM     36  C   UNL     1       8.882  -0.831   8.909  1.00  0.00    -0.014 A 
BRANCH  36  37
ATOM     37  C   UNL     1      10.349  -0.631   8.775  1.00  0.00     0.031 A 
ATOM     38  C   UNL     1      10.949   0.738   8.957  1.00  0.00     0.074 A 
ATOM     39  C   UNL     1      11.135  -1.671   8.430  1.00  0.00     0.049 A 
ATOM     40  N   UNL     1      12.197   1.113   8.839  1.00  0.00    -0.248 NA
ATOM     41  C   UNL     1      10.024   1.832   9.293  1.00  0.00     0.031 C 
ATOM     42  C   UNL     1      10.672  -3.041   8.191  1.00  0.00     0.029 A 
ATOM     43  N   UNL     1      12.489  -1.739   8.216  1.00  0.00    -0.354 N 
ATOM     44  C   UNL     1      12.204   2.485   9.067  1.00  0.00     0.074 A 
ATOM     45  C   UNL     1      10.830   2.883   9.280  1.00  0.00     0.031 C 
ATOM     46  C   UNL     1      11.728  -3.818   7.902  1.00  0.00     0.029 A 
ATOM     47  C   UNL     1      12.935  -2.998   7.884  1.00  0.00     0.049 A 
ATOM     48  H   UNL     1      13.086  -0.960   8.294  1.00  0.00     0.167 HD
ATOM     49  C   UNL     1      13.259   3.334   9.113  1.00  0.00     0.031 A 
ATOM     50  C   UNL     1      14.173  -3.442   7.592  1.00  0.00     0.031 A 
ATOM     51  C   UNL     1      14.626   2.932   8.903  1.00  0.00     0.049 A 
ATOM     52  C   UNL     1      15.324  -2.474   7.620  1.00  0.00     0.074 A 
ATOM     53  C   UNL     1      15.771   3.705   8.985  1.00  0.00     0.029 A 
ATOM     54  N   UNL     1      15.032   1.652   8.558  1.00  0.00    -0.354 N 
ATOM     55  N   UNL     1      15.320  -1.195   7.911  1.00  0.00    -0.248 NA
ATOM     56  C   UNL     1      16.651  -3.012   7.288  1.00  0.00     0.031 C 
ATOM     57  C   UNL     1      16.862   2.908   8.626  1.00  0.00     0.029 A 
ATOM     58  C   UNL     1      16.407   1.620   8.391  1.00  0.00     0.049 A 
ATOM     59  H   UNL     1      14.432   0.879   8.448  1.00  0.00     0.167 HD
ATOM     60  C   UNL     1      16.646  -0.783   7.831  1.00  0.00     0.074 A 
ATOM     61  C   UNL     1      17.425  -1.952   7.476  1.00  0.00     0.031 C 
ATOM     62  C   UNL     1      17.171   0.450   8.036  1.00  0.00     0.031 A 
BRANCH  49  63
ATOM     63  C   UNL     1      12.972   4.789   9.385  1.00  0.00    -0.014 A 
ATOM     64  C   UNL     1      12.492   5.220  10.636  1.00  0.00     0.010 A 
ATOM     65  C   UNL     1      13.213   5.747   8.382  1.00  0.00     0.010 A 
ATOM     66  C   UNL     1      12.210   6.570  10.861  1.00  0.00     0.020 A 
ATOM     67  C   UNL     1      12.965   7.103   8.614  1.00  0.00     0.020 A 
ATOM     68  C   UNL     1      12.444   7.503   9.847  1.00  0.00     0.054 A 
BRANCH  68  69
ATOM     69  S   UNL     1      12.076   9.249  10.170  1.00  0.00     0.124 S 
ATOM     70  O   UNL     1      10.616   9.251  10.185  1.00  0.00    -0.237 OA
ATOM     71  O   UNL     1      12.717   9.477  11.463  1.00  0.00    -0.237 OA
ATOM     72  O   UNL     1      12.687   9.948   9.043  1.00  0.00    -0.744 OA
ENDBRANCH  68  69
ENDBRANCH  49  63
BRANCH  50  73
ATOM     73  C   UNL     1      14.392  -4.880   7.269  1.00  0.00    -0.014 A 
ATOM     74  C   UNL     1      15.100  -5.709   8.156  1.00  0.00     0.010 A 
ATOM     75  C   UNL     1      13.889  -5.430   6.076  1.00  0.00     0.010 A 
ATOM     76  C   UNL     1      15.317  -7.056   7.849  1.00  0.00     0.020 A 
ATOM     77  C   UNL     1      14.077  -6.783   5.780  1.00  0.00     0.020 A 
ATOM     78  C   UNL     1      14.800  -7.585   6.664  1.00  0.00     0.054 A 
BRANCH  78  79
ATOM     79  S   UNL     1      15.053  -9.347   6.312  1.00  0.00     0.124 S 
ATOM     80  O   UNL     1      16.478  -9.394   6.002  1.00  0.00    -0.237 OA
ATOM     81  O   UNL     1      14.656  -9.978   7.568  1.00  0.00    -0.237 OA
ATOM     82  O   UNL     1      14.158  -9.602   5.185  1.00  0.00    -0.744 OA
ENDBRANCH  78  79
ENDBRANCH  50  73
BRANCH  62  83
ATOM     83  C   UNL     1      18.667   0.597   7.923  1.00  0.00    -0.014 A 
ATOM     84  C   UNL     1      19.321   0.514   6.681  1.00  0.00     0.010 A 
ATOM     85  C   UNL     1      19.423   0.876   9.077  1.00  0.00     0.010 A 
ATOM     86  C   UNL     1      20.708   0.676   6.601  1.00  0.00     0.020 A 
ATOM     87  C   UNL     1      20.803   1.071   8.996  1.00  0.00     0.020 A 
ATOM     88  C   UNL     1      21.440   0.955   7.760  1.00  0.00     0.054 A 
BRANCH  88  89
ATOM     89  S   UNL     1      23.231   1.205   7.621  1.00  0.00     0.124 S 
ATOM     90  O   UNL     1      23.708  -0.150   7.359  1.00  0.00    -0.237 OA
ATOM     91  O   UNL     1      23.337   2.137   6.501  1.00  0.00    -0.237 OA
ATOM     92  O   UNL     1      23.606   1.757   8.921  1.00  0.00    -0.744 OA
ENDBRANCH  88  89
ENDBRANCH  62  83
ENDBRANCH  36  37
ENDBRANCH  28  31
ENDBRANCH  26  27
ENDBRANCH  25  26
ENDBRANCH  24  25
ENDBRANCH   1  24
TORSDOF 19
