REMARK SMILES CCN1C(=O)[C@H](CC(=O)Nc2ccc(C(=O)NCCCCCCNC(=O)c3ccc(-c4c5nc(c(-c6ccc(S(=O)(=O)[O-])cc6)c6ccc([nH]6)c(-c6ccc(S(=O)(=O)[O-])cc6)c6nc(c(-c7ccc(S(=O)(=O)[O-])cc7)c7ccc4[nH]7)C=C6)C=C5)cc3)cc2)S/C1=[NH+]\c1ccc(Cl)cc1
REMARK SMILES IDX 20 1 19 2 18 3 17 4 15 5 16 6 14 8 11 9 12 10 88 11 13 12
REMARK SMILES IDX 87 13 10 14 8 15 9 16 7 18 6 19 3 20 4 21 90 22 5 23 89 24
REMARK SMILES IDX 91 25 2 27 1 28 92 29 93 30 98 31 94 32 97 33 95 34 96 35
REMARK SMILES IDX 21 36 22 37 23 38 24 39 25 40 26 42 27 43 28 44 86 45 29 46
REMARK SMILES IDX 85 47 30 48 31 49 32 50 79 51 33 52 84 53 78 54 80 55 34 56
REMARK SMILES IDX 83 57 77 58 76 59 35 61 65 62 46 63 64 64 47 65 50 66 63 67
REMARK SMILES IDX 81 68 48 69 49 70 62 72 82 73 51 74 36 75 37 76 45 77 38 78
REMARK SMILES IDX 44 79 39 80 40 81 41 82 42 83 43 84 66 85 67 86 75 87 68 88
REMARK SMILES IDX 74 89 69 90 70 91 71 92 72 93 73 94 52 95 53 96 61 97 54 98
REMARK SMILES IDX 60 99 55 100 56 101 57 102 58 103 59 104
REMARK H PARENT 17 7 10 17 91 26 24 41 80 60 50 71
REMARK Flexibility Score: inf
ROOT
ATOM      1  C   UNL     1       0.155   4.779  -1.000  1.00  0.00     0.002 C 
ENDROOT
BRANCH   1   2
ATOM      2  C   UNL     1       0.208   3.249  -1.003  1.00  0.00     0.021 C 
BRANCH   2   3
ATOM      3  C   UNL     1       1.602   2.612  -0.924  1.00  0.00     0.116 C 
BRANCH   3   4
ATOM      4  N   UNL     1       2.060   2.393   0.444  1.00  0.00    -0.352 N 
ATOM      5  C   UNL     1       2.482   1.267   1.117  1.00  0.00     0.251 C 
ATOM      6  O   UNL     1       2.776   1.371   2.308  1.00  0.00    -0.269 OA
ATOM      7  H   UNL     1       2.070   3.210   0.994  1.00  0.00     0.163 HD
BRANCH   5   8
ATOM      8  C   UNL     1       2.518  -0.086   0.496  1.00  0.00     0.039 A 
ATOM      9  C   UNL     1       2.181  -2.651  -0.658  1.00  0.00     0.041 A 
ATOM     10  C   UNL     1       1.932  -2.436   0.704  1.00  0.00     0.027 A 
ATOM     11  C   UNL     1       2.760  -1.612  -1.383  1.00  0.00     0.027 A 
ATOM     12  C   UNL     1       2.095  -1.169   1.277  1.00  0.00     0.016 A 
ATOM     13  C   UNL     1       2.933  -0.337  -0.810  1.00  0.00     0.016 A 
BRANCH   9  14
ATOM     14  N   UNL     1       1.762  -3.896  -1.164  1.00  0.00    -0.326 N 
ATOM     15  C   UNL     1       1.585  -4.440  -2.398  1.00  0.00     0.226 C 
ATOM     16  O   UNL     1       1.110  -5.581  -2.447  1.00  0.00    -0.275 OA
ATOM     17  H   UNL     1       1.543  -4.532  -0.445  1.00  0.00     0.169 HD
BRANCH  15  18
ATOM     18  C   UNL     1       1.934  -3.736  -3.681  1.00  0.00     0.128 C 
BRANCH  18  19
ATOM     19  C   UNL     1       0.867  -2.795  -4.226  1.00  0.00     0.183 C 
ATOM     20  N   UNL     1       0.033  -0.788  -3.186  1.00  0.00    -0.190 N 
ATOM     21  C   UNL     1      -0.085  -2.164  -3.233  1.00  0.00     0.324 C 
ATOM     22  C   UNL     1       0.883  -0.201  -4.094  1.00  0.00     0.319 C 
ATOM     23  O   UNL     1      -0.905  -2.816  -2.595  1.00  0.00    -0.245 OA
ATOM     24  S   UNL     1       1.638  -1.407  -5.105  1.00  0.00    -0.022 SA
ATOM     25  N   UNL     1       1.056   1.081  -4.164  1.00  0.00    -0.235 N 
ATOM     26  H   UNL     1       0.678   1.663  -3.467  1.00  0.00     0.313 HD
BRANCH  20  27
ATOM     27  C   UNL     1      -0.931  -0.018  -2.407  1.00  0.00     0.243 C 
ATOM     28  C   UNL     1      -0.885  -0.249  -0.903  1.00  0.00     0.054 C 
ENDBRANCH  20  27
BRANCH  25  29
ATOM     29  C   UNL     1       1.781   1.646  -5.229  1.00  0.00     0.125 A 
ATOM     30  C   UNL     1       3.049   2.204  -5.039  1.00  0.00     0.053 A 
ATOM     31  C   UNL     1       1.181   1.747  -6.492  1.00  0.00     0.053 A 
ATOM     32  C   UNL     1       3.714   2.829  -6.104  1.00  0.00     0.025 A 
ATOM     33  C   UNL     1       1.843   2.361  -7.558  1.00  0.00     0.025 A 
ATOM     34  C   UNL     1       3.107   2.904  -7.358  1.00  0.00     0.041 A 
ATOM     35  Cl  UNL     1       3.909   3.697  -8.655  1.00  0.00    -0.084 Cl
ENDBRANCH  25  29
ENDBRANCH  18  19
ENDBRANCH  15  18
ENDBRANCH   9  14
ENDBRANCH   5   8
ENDBRANCH   3   4
ENDBRANCH   2   3
ENDBRANCH   1   2
BRANCH   1  36
ATOM     36  C   UNL     1       0.832   5.471  -2.192  1.00  0.00     0.002 C 
BRANCH  36  37
ATOM     37  C   UNL     1       0.324   5.085  -3.588  1.00  0.00     0.021 C 
BRANCH  37  38
ATOM     38  C   UNL     1      -1.136   5.428  -3.883  1.00  0.00     0.116 C 
BRANCH  38  39
ATOM     39  N   UNL     1      -1.391   6.861  -3.819  1.00  0.00    -0.352 N 
ATOM     40  C   UNL     1      -1.759   7.741  -4.810  1.00  0.00     0.251 C 
ATOM     41  H   UNL     1      -1.283   7.263  -2.927  1.00  0.00     0.163 HD
ATOM     42  O   UNL     1      -1.707   8.949  -4.603  1.00  0.00    -0.269 OA
BRANCH  40  43
ATOM     43  C   UNL     1      -2.213   7.239  -6.126  1.00  0.00     0.039 A 
ATOM     44  C   UNL     1      -1.732   7.842  -7.293  1.00  0.00     0.014 A 
ATOM     45  C   UNL     1      -3.138   6.196  -6.209  1.00  0.00     0.014 A 
ATOM     46  C   UNL     1      -2.123   7.350  -8.543  1.00  0.00     0.010 A 
ATOM     47  C   UNL     1      -3.477   5.667  -7.452  1.00  0.00     0.010 A 
ATOM     48  C   UNL     1      -2.969   6.234  -8.632  1.00  0.00    -0.014 A 
BRANCH  48  49
ATOM     49  C   UNL     1      -3.341   5.626  -9.937  1.00  0.00     0.031 A 
ATOM     50  C   UNL     1      -4.781   5.607 -10.373  1.00  0.00     0.074 A 
ATOM     51  C   UNL     1      -2.402   5.002 -10.677  1.00  0.00     0.049 A 
ATOM     52  N   UNL     1      -5.329   4.992 -11.389  1.00  0.00    -0.248 NA
ATOM     53  C   UNL     1      -5.735   6.357  -9.539  1.00  0.00     0.031 C 
ATOM     54  C   UNL     1      -0.974   4.937 -10.358  1.00  0.00     0.029 A 
ATOM     55  N   UNL     1      -2.512   4.283 -11.842  1.00  0.00    -0.354 N 
ATOM     56  C   UNL     1      -6.691   5.258 -11.303  1.00  0.00     0.074 A 
ATOM     57  C   UNL     1      -6.891   6.056 -10.113  1.00  0.00     0.031 C 
ATOM     58  C   UNL     1      -0.341   4.231 -11.309  1.00  0.00     0.029 A 
ATOM     59  C   UNL     1      -1.322   3.745 -12.275  1.00  0.00     0.049 A 
ATOM     60  H   UNL     1      -3.363   4.165 -12.323  1.00  0.00     0.167 HD
ATOM     61  C   UNL     1      -7.684   4.881 -12.144  1.00  0.00     0.031 A 
ATOM     62  C   UNL     1      -1.053   2.933 -13.317  1.00  0.00     0.031 A 
ATOM     63  C   UNL     1      -7.476   4.094 -13.331  1.00  0.00     0.049 A 
ATOM     64  C   UNL     1      -2.177   2.498 -14.220  1.00  0.00     0.074 A 
ATOM     65  C   UNL     1      -8.409   3.699 -14.273  1.00  0.00     0.029 A 
ATOM     66  N   UNL     1      -6.253   3.582 -13.737  1.00  0.00    -0.354 N 
ATOM     67  N   UNL     1      -3.452   2.797 -14.148  1.00  0.00    -0.248 NA
ATOM     68  C   UNL     1      -1.828   1.621 -15.348  1.00  0.00     0.031 C 
ATOM     69  C   UNL     1      -7.761   2.898 -15.217  1.00  0.00     0.029 A 
ATOM     70  C   UNL     1      -6.412   2.853 -14.903  1.00  0.00     0.049 A 
ATOM     71  H   UNL     1      -5.399   3.716 -13.267  1.00  0.00     0.167 HD
ATOM     72  C   UNL     1      -4.050   2.178 -15.241  1.00  0.00     0.074 A 
ATOM     73  C   UNL     1      -2.998   1.488 -15.959  1.00  0.00     0.031 C 
ATOM     74  C   UNL     1      -5.351   2.188 -15.618  1.00  0.00     0.031 A 
BRANCH  61  75
ATOM     75  C   UNL     1      -9.091   5.301 -11.803  1.00  0.00    -0.014 A 
ATOM     76  C   UNL     1      -9.488   6.649 -11.876  1.00  0.00     0.010 A 
ATOM     77  C   UNL     1     -10.044   4.327 -11.451  1.00  0.00     0.010 A 
ATOM     78  C   UNL     1     -10.797   7.020 -11.557  1.00  0.00     0.020 A 
ATOM     79  C   UNL     1     -11.363   4.690 -11.163  1.00  0.00     0.020 A 
ATOM     80  C   UNL     1     -11.726   6.038 -11.200  1.00  0.00     0.054 A 
BRANCH  80  81
ATOM     81  S   UNL     1     -13.422   6.548 -10.811  1.00  0.00     0.124 S 
ATOM     82  O   UNL     1     -13.247   7.212  -9.521  1.00  0.00    -0.237 OA
ATOM     83  O   UNL     1     -13.756   7.427 -11.928  1.00  0.00    -0.237 OA
ATOM     84  O   UNL     1     -14.163   5.290 -10.767  1.00  0.00    -0.744 OA
ENDBRANCH  80  81
ENDBRANCH  61  75
BRANCH  62  85
ATOM     85  C   UNL     1       0.345   2.479 -13.562  1.00  0.00    -0.014 A 
ATOM     86  C   UNL     1       1.059   2.941 -14.682  1.00  0.00     0.010 A 
ATOM     87  C   UNL     1       0.975   1.591 -12.670  1.00  0.00     0.010 A 
ATOM     88  C   UNL     1       2.368   2.508 -14.916  1.00  0.00     0.020 A 
ATOM     89  C   UNL     1       2.295   1.182 -12.883  1.00  0.00     0.020 A 
ATOM     90  C   UNL     1       2.978   1.633 -14.013  1.00  0.00     0.054 A 
BRANCH  90  91
ATOM     91  S   UNL     1       4.691   1.116 -14.320  1.00  0.00     0.124 S 
ATOM     92  O   UNL     1       4.537   0.229 -15.470  1.00  0.00    -0.237 OA
ATOM     93  O   UNL     1       5.361   2.386 -14.585  1.00  0.00    -0.237 OA
ATOM     94  O   UNL     1       5.079   0.461 -13.073  1.00  0.00    -0.744 OA
ENDBRANCH  90  91
ENDBRANCH  62  85
BRANCH  74  95
ATOM     95  C   UNL     1      -5.724   1.483 -16.896  1.00  0.00    -0.014 A 
ATOM     96  C   UNL     1      -5.785   0.081 -16.970  1.00  0.00     0.010 A 
ATOM     97  C   UNL     1      -6.134   2.248 -18.005  1.00  0.00     0.010 A 
ATOM     98  C   UNL     1      -6.248  -0.543 -18.132  1.00  0.00     0.020 A 
ATOM     99  C   UNL     1      -6.622   1.628 -19.157  1.00  0.00     0.020 A 
ATOM    100  C   UNL     1      -6.674   0.234 -19.214  1.00  0.00     0.054 A 
BRANCH 100 101
ATOM    101  S   UNL     1      -7.364  -0.600 -20.670  1.00  0.00     0.124 S 
ATOM    102  O   UNL     1      -6.176  -1.205 -21.266  1.00  0.00    -0.237 OA
ATOM    103  O   UNL     1      -8.317  -1.536 -20.079  1.00  0.00    -0.237 OA
ATOM    104  O   UNL     1      -7.963   0.487 -21.442  1.00  0.00    -0.744 OA
ENDBRANCH 100 101
ENDBRANCH  74  95
ENDBRANCH  48  49
ENDBRANCH  40  43
ENDBRANCH  38  39
ENDBRANCH  37  38
ENDBRANCH  36  37
ENDBRANCH   1  36
TORSDOF 21
