REMARK SMILES Cc1ccc(C(=O)N2CCCC[C@@H]2C(=O)NCCCCCCNC(=O)c2ccc(-c3c4nc(c(-c5ccc(S(=O)(=O)[O-])cc5)c5ccc([nH]5)c(-c5ccc(S(=O)(=O)[O-])cc5)c5nc(c(-c6ccc(S(=O)(=O)[O-])cc6)c6ccc3[nH]6)C=C5)C=C4)cc2)cc1S(=O)(=O)N1CCCCC1
REMARK SMILES IDX 19 1 18 2 17 3 16 4 14 5 15 6 13 8 8 9 9 10 10 11 12 12
REMARK SMILES IDX 11 13 6 14 7 15 5 16 1 17 2 18 3 19 87 20 4 21 86 22 88 23
REMARK SMILES IDX 89 24 90 25 91 26 92 27 96 28 93 29 95 30 94 31 20 32 21 33
REMARK SMILES IDX 22 34 23 35 24 36 25 38 26 39 27 40 85 41 28 42 84 43 29 44
REMARK SMILES IDX 30 45 31 46 78 47 32 48 83 49 77 50 79 51 33 52 82 53 76 54
REMARK SMILES IDX 75 55 34 57 64 58 45 59 63 60 46 61 49 62 62 63 80 64 47 65
REMARK SMILES IDX 48 66 61 68 81 69 50 70 35 71 36 72 44 73 37 74 43 75 38 76
REMARK SMILES IDX 39 77 40 78 41 79 42 80 65 81 66 82 74 83 67 84 73 85 68 86
REMARK SMILES IDX 69 87 70 88 71 89 72 90 51 91 52 92 60 93 53 94 59 95 54 96
REMARK SMILES IDX 55 97 56 98 57 99 58 100
REMARK H PARENT 16 7 23 37 79 56 49 67
REMARK Flexibility Score: inf
ROOT
ATOM      1  C   UNL     1      -5.024  -1.642  -4.747  1.00  0.00     0.002 C 
ENDROOT
BRANCH   1   2
ATOM      2  C   UNL     1      -5.612  -0.654  -3.730  1.00  0.00     0.021 C 
BRANCH   2   3
ATOM      3  C   UNL     1      -4.760  -0.406  -2.485  1.00  0.00     0.116 C 
BRANCH   3   4
ATOM      4  N   UNL     1      -3.526   0.279  -2.814  1.00  0.00    -0.354 N 
ATOM      5  C   UNL     1      -2.995   1.427  -2.312  1.00  0.00     0.242 C 
ATOM      6  O   UNL     1      -1.981   1.870  -2.860  1.00  0.00    -0.273 OA
ATOM      7  H   UNL     1      -2.985  -0.156  -3.512  1.00  0.00     0.163 HD
BRANCH   5   8
ATOM      8  C   UNL     1      -3.688   2.236  -1.185  1.00  0.00     0.174 C 
ATOM      9  N   UNL     1      -4.125   1.450   0.001  1.00  0.00    -0.327 N 
ATOM     10  C   UNL     1      -5.131   2.057   0.871  1.00  0.00     0.120 C 
ATOM     11  C   UNL     1      -6.293   2.689   0.131  1.00  0.00     0.022 C 
ATOM     12  C   UNL     1      -4.846   3.003  -1.866  1.00  0.00     0.035 C 
ATOM     13  C   UNL     1      -5.780   3.694  -0.885  1.00  0.00     0.004 C 
BRANCH   9  14
ATOM     14  C   UNL     1      -3.372   0.450   0.632  1.00  0.00     0.254 C 
ATOM     15  O   UNL     1      -3.826  -0.251   1.538  1.00  0.00    -0.269 OA
BRANCH  14  16
ATOM     16  C   UNL     1      -1.960   0.200   0.279  1.00  0.00     0.041 A 
ATOM     17  C   UNL     1       2.187  -0.893  -0.166  1.00  0.00     0.046 C 
ATOM     18  C   UNL     1       0.798  -0.354  -0.040  1.00  0.00    -0.031 A 
ATOM     19  C   UNL     1      -0.185  -1.377  -0.064  1.00  0.00     0.005 A 
ATOM     20  C   UNL     1       0.367   0.977   0.116  1.00  0.00     0.086 A 
ATOM     21  C   UNL     1      -1.542  -1.111   0.097  1.00  0.00     0.014 A 
ATOM     22  C   UNL     1      -1.015   1.226   0.306  1.00  0.00     0.035 A 
BRANCH  20  23
ATOM     23  S   UNL     1       1.298   2.518   0.140  1.00  0.00     0.243 S 
ATOM     24  O   UNL     1       0.929   3.221  -1.072  1.00  0.00    -0.207 OA
ATOM     25  O   UNL     1       1.016   3.106   1.437  1.00  0.00    -0.207 OA
BRANCH  23  26
ATOM     26  N   UNL     1       2.970   2.277   0.080  1.00  0.00    -0.198 NA
ATOM     27  C   UNL     1       3.629   1.880   1.338  1.00  0.00     0.102 C 
ATOM     28  C   UNL     1       3.558   1.993  -1.248  1.00  0.00     0.102 C 
ATOM     29  C   UNL     1       5.141   1.778   1.229  1.00  0.00     0.017 C 
ATOM     30  C   UNL     1       5.071   1.832  -1.236  1.00  0.00     0.017 C 
ATOM     31  C   UNL     1       5.577   1.057  -0.032  1.00  0.00     0.003 C 
ENDBRANCH  23  26
ENDBRANCH  20  23
ENDBRANCH  14  16
ENDBRANCH   9  14
ENDBRANCH   5   8
ENDBRANCH   3   4
ENDBRANCH   2   3
ENDBRANCH   1   2
BRANCH   1  32
ATOM     32  C   UNL     1      -4.626  -3.025  -4.212  1.00  0.00     0.002 C 
BRANCH  32  33
ATOM     33  C   UNL     1      -5.666  -3.738  -3.346  1.00  0.00     0.021 C 
BRANCH  33  34
ATOM     34  C   UNL     1      -6.963  -4.061  -4.078  1.00  0.00     0.116 C 
BRANCH  34  35
ATOM     35  N   UNL     1      -7.155  -5.484  -4.308  1.00  0.00    -0.352 N 
ATOM     36  C   UNL     1      -8.347  -6.110  -4.643  1.00  0.00     0.251 C 
ATOM     37  H   UNL     1      -6.362  -6.059  -4.217  1.00  0.00     0.163 HD
ATOM     38  O   UNL     1      -8.570  -7.283  -4.431  1.00  0.00    -0.269 OA
BRANCH  36  39
ATOM     39  C   UNL     1      -9.288  -5.298  -5.445  1.00  0.00     0.039 A 
ATOM     40  C   UNL     1      -9.361  -5.580  -6.815  1.00  0.00     0.014 A 
ATOM     41  C   UNL     1      -9.832  -4.132  -4.916  1.00  0.00     0.014 A 
ATOM     42  C   UNL     1      -9.838  -4.608  -7.688  1.00  0.00     0.010 A 
ATOM     43  C   UNL     1     -10.217  -3.136  -5.791  1.00  0.00     0.010 A 
ATOM     44  C   UNL     1     -10.179  -3.357  -7.176  1.00  0.00    -0.014 A 
BRANCH  44  45
ATOM     45  C   UNL     1     -10.456  -2.191  -8.004  1.00  0.00     0.031 A 
ATOM     46  C   UNL     1     -11.848  -1.723  -8.177  1.00  0.00     0.074 A 
ATOM     47  C   UNL     1      -9.442  -1.466  -8.527  1.00  0.00     0.049 A 
ATOM     48  N   UNL     1     -12.245  -0.971  -9.147  1.00  0.00    -0.248 NA
ATOM     49  C   UNL     1     -12.925  -2.112  -7.272  1.00  0.00     0.031 C 
ATOM     50  C   UNL     1      -9.526  -0.113  -9.072  1.00  0.00     0.029 A 
ATOM     51  N   UNL     1      -8.159  -1.887  -8.877  1.00  0.00    -0.354 N 
ATOM     52  C   UNL     1     -13.501  -0.515  -8.819  1.00  0.00     0.074 A 
ATOM     53  C   UNL     1     -13.917  -1.327  -7.698  1.00  0.00     0.031 C 
ATOM     54  C   UNL     1      -8.508   0.067  -9.927  1.00  0.00     0.029 A 
ATOM     55  C   UNL     1      -7.841  -1.215 -10.071  1.00  0.00     0.049 A 
ATOM     56  H   UNL     1      -7.591  -2.526  -8.388  1.00  0.00     0.167 HD
ATOM     57  C   UNL     1     -13.995   0.602  -9.424  1.00  0.00     0.031 A 
ATOM     58  C   UNL     1      -7.584  -1.845 -11.255  1.00  0.00     0.031 A 
ATOM     59  C   UNL     1     -13.096   1.121 -10.454  1.00  0.00     0.049 A 
ATOM     60  C   UNL     1      -8.502  -1.418 -12.389  1.00  0.00     0.074 A 
ATOM     61  C   UNL     1     -12.243   2.211 -10.537  1.00  0.00     0.029 A 
ATOM     62  N   UNL     1     -12.788   0.316 -11.540  1.00  0.00    -0.354 N 
ATOM     63  N   UNL     1      -9.500  -0.588 -12.260  1.00  0.00    -0.248 NA
ATOM     64  C   UNL     1      -8.430  -1.978 -13.738  1.00  0.00     0.031 C 
ATOM     65  C   UNL     1     -11.432   2.058 -11.697  1.00  0.00     0.029 A 
ATOM     66  C   UNL     1     -11.797   0.881 -12.320  1.00  0.00     0.049 A 
ATOM     67  H   UNL     1     -13.220  -0.548 -11.730  1.00  0.00     0.167 HD
ATOM     68  C   UNL     1     -10.224  -0.539 -13.425  1.00  0.00     0.074 A 
ATOM     69  C   UNL     1      -9.508  -1.425 -14.325  1.00  0.00     0.031 C 
ATOM     70  C   UNL     1     -11.377   0.188 -13.531  1.00  0.00     0.031 A 
BRANCH  57  71
ATOM     71  C   UNL     1     -15.178   1.372  -8.878  1.00  0.00    -0.014 A 
ATOM     72  C   UNL     1     -15.245   2.769  -9.057  1.00  0.00     0.010 A 
ATOM     73  C   UNL     1     -16.227   0.792  -8.139  1.00  0.00     0.010 A 
ATOM     74  C   UNL     1     -16.227   3.554  -8.435  1.00  0.00     0.020 A 
ATOM     75  C   UNL     1     -17.192   1.567  -7.477  1.00  0.00     0.020 A 
ATOM     76  C   UNL     1     -17.176   2.950  -7.617  1.00  0.00     0.054 A 
BRANCH  76  77
ATOM     77  S   UNL     1     -18.370   3.990  -6.737  1.00  0.00     0.124 S 
ATOM     78  O   UNL     1     -17.505   4.915  -6.009  1.00  0.00    -0.237 OA
ATOM     79  O   UNL     1     -19.142   4.574  -7.829  1.00  0.00    -0.237 OA
ATOM     80  O   UNL     1     -19.100   3.042  -5.896  1.00  0.00    -0.744 OA
ENDBRANCH  76  77
ENDBRANCH  57  71
BRANCH  58  81
ATOM     81  C   UNL     1      -7.000  -3.208 -11.095  1.00  0.00    -0.014 A 
ATOM     82  C   UNL     1      -5.690  -3.300 -10.575  1.00  0.00     0.010 A 
ATOM     83  C   UNL     1      -7.840  -4.333 -11.023  1.00  0.00     0.010 A 
ATOM     84  C   UNL     1      -5.295  -4.420  -9.839  1.00  0.00     0.020 A 
ATOM     85  C   UNL     1      -7.440  -5.462 -10.293  1.00  0.00     0.020 A 
ATOM     86  C   UNL     1      -6.200  -5.463  -9.647  1.00  0.00     0.054 A 
BRANCH  86  87
ATOM     87  S   UNL     1      -5.803  -6.722  -8.393  1.00  0.00     0.124 S 
ATOM     88  O   UNL     1      -4.535  -7.257  -8.877  1.00  0.00    -0.237 OA
ATOM     89  O   UNL     1      -5.725  -5.924  -7.170  1.00  0.00    -0.237 OA
ATOM     90  O   UNL     1      -6.940  -7.634  -8.465  1.00  0.00    -0.744 OA
ENDBRANCH  86  87
ENDBRANCH  58  81
BRANCH  70  91
ATOM     91  C   UNL     1     -12.267   0.294 -14.753  1.00  0.00    -0.014 A 
ATOM     92  C   UNL     1     -11.818   0.160 -16.075  1.00  0.00     0.010 A 
ATOM     93  C   UNL     1     -13.630   0.646 -14.583  1.00  0.00     0.010 A 
ATOM     94  C   UNL     1     -12.702   0.285 -17.161  1.00  0.00     0.020 A 
ATOM     95  C   UNL     1     -14.515   0.791 -15.654  1.00  0.00     0.020 A 
ATOM     96  C   UNL     1     -14.047   0.590 -16.943  1.00  0.00     0.054 A 
BRANCH  96  97
ATOM     97  S   UNL     1     -15.163   0.753 -18.358  1.00  0.00     0.124 S 
ATOM     98  O   UNL     1     -14.485   1.755 -19.177  1.00  0.00    -0.237 OA
ATOM     99  O   UNL     1     -15.167  -0.603 -18.901  1.00  0.00    -0.237 OA
ATOM    100  O   UNL     1     -16.425   1.188 -17.765  1.00  0.00    -0.744 OA
ENDBRANCH  96  97
ENDBRANCH  70  91
ENDBRANCH  44  45
ENDBRANCH  36  39
ENDBRANCH  34  35
ENDBRANCH  33  34
ENDBRANCH  32  33
ENDBRANCH   1  32
TORSDOF 20
