REMARK SMILES N#C/C(=C/c1cccc(OCC(=O)NCCCCCCNC(=O)c2ccc(-c3c4nc(c(-c5ccc(S(=O)(=O)[O-])cc5)c5ccc([nH]5)c(-c5ccc(S(=O)(=O)[O-])cc5)c5nc(c(-c6ccc(S(=O)(=O)[O-])cc6)c6ccc3[nH]6)C=C5)C=C4)cc2)c1)c1nc2ccccc2[nH]1
REMARK SMILES IDX 17 1 16 2 15 3 14 4 12 5 13 6 11 8 10 9 9 10 5 11 6 12 84 13
REMARK SMILES IDX 7 14 8 15 4 16 3 17 2 18 1 19 85 20 86 21 93 22 87 23 92 24
REMARK SMILES IDX 88 26 91 27 89 28 90 29 18 30 19 31 20 32 21 33 22 34 23 36
REMARK SMILES IDX 24 37 25 38 83 39 26 40 82 41 27 42 28 43 29 44 76 45 30 46
REMARK SMILES IDX 81 47 75 48 77 49 31 50 80 51 74 52 73 53 32 55 62 56 43 57
REMARK SMILES IDX 61 58 44 59 47 60 60 61 78 62 45 63 46 64 59 66 79 67 48 68
REMARK SMILES IDX 33 69 34 70 42 71 35 72 41 73 36 74 37 75 38 76 39 77 40 78
REMARK SMILES IDX 63 79 64 80 72 81 65 82 71 83 66 84 67 85 68 86 69 87 70 88
REMARK SMILES IDX 49 89 50 90 58 91 51 92 57 93 52 94 53 95 54 96 55 97 56 98
REMARK H PARENT 14 7 93 25 21 35 77 54 47 65
REMARK Flexibility Score: inf
ROOT
ATOM      1  C   UNL     1      10.053   1.868   3.070  1.00  0.00     0.002 C 
ENDROOT
BRANCH   1   2
ATOM      2  C   UNL     1      10.495   0.626   2.290  1.00  0.00     0.021 C 
BRANCH   2   3
ATOM      3  C   UNL     1      10.149  -0.724   2.917  1.00  0.00     0.116 C 
BRANCH   3   4
ATOM      4  N   UNL     1       8.724  -0.953   3.085  1.00  0.00    -0.353 N 
ATOM      5  C   UNL     1       7.953  -1.911   2.486  1.00  0.00     0.257 C 
ATOM      6  O   UNL     1       6.808  -2.126   2.893  1.00  0.00    -0.271 OA
ATOM      7  H   UNL     1       8.258  -0.347   3.705  1.00  0.00     0.163 HD
BRANCH   5   8
ATOM      8  C   UNL     1       8.534  -2.736   1.333  1.00  0.00     0.329 C 
BRANCH   8   9
ATOM      9  O   UNL     1       9.053  -2.009   0.232  1.00  0.00    -0.484 OA
BRANCH   9  10
ATOM     10  C   UNL     1       8.183  -1.275  -0.527  1.00  0.00     0.120 A 
ATOM     11  C   UNL     1       6.017  -0.412  -1.219  1.00  0.00    -0.021 A 
ATOM     12  C   UNL     1       6.644   0.375  -2.189  1.00  0.00     0.008 A 
ATOM     13  C   UNL     1       6.792  -1.256  -0.407  1.00  0.00     0.054 A 
ATOM     14  C   UNL     1       8.030   0.339  -2.330  1.00  0.00     0.004 A 
ATOM     15  C   UNL     1       8.794  -0.480  -1.499  1.00  0.00     0.046 A 
BRANCH  11  16
ATOM     16  C   UNL     1       4.553  -0.358  -1.078  1.00  0.00     0.031 C 
ATOM     17  C   UNL     1       3.877   0.010   0.026  1.00  0.00     0.095 C 
BRANCH  17  18
ATOM     18  C   UNL     1       2.357   0.010   0.026  1.00  0.00     0.103 C 
ATOM     19  N   UNL     1       1.096   0.010   0.026  1.00  0.00    -0.192 NA
ENDBRANCH  17  18
BRANCH  17  20
ATOM     20  C   UNL     1       4.518   0.479   1.206  1.00  0.00     0.149 A 
ATOM     21  N   UNL     1       5.303   1.520   1.407  1.00  0.00    -0.228 NA
ATOM     22  N   UNL     1       4.305  -0.198   2.387  1.00  0.00    -0.337 N 
ATOM     23  C   UNL     1       5.619   1.499   2.744  1.00  0.00     0.089 A 
ATOM     24  C   UNL     1       5.011   0.427   3.382  1.00  0.00     0.066 A 
ATOM     25  H   UNL     1       3.740  -0.997   2.497  1.00  0.00     0.168 HD
ATOM     26  C   UNL     1       6.432   2.360   3.491  1.00  0.00     0.030 A 
ATOM     27  C   UNL     1       5.187   0.134   4.736  1.00  0.00     0.028 A 
ATOM     28  C   UNL     1       6.645   2.079   4.848  1.00  0.00     0.002 A 
ATOM     29  C   UNL     1       6.036   0.980   5.456  1.00  0.00     0.002 A 
ENDBRANCH  17  20
ENDBRANCH  11  16
ENDBRANCH   9  10
ENDBRANCH   8   9
ENDBRANCH   5   8
ENDBRANCH   3   4
ENDBRANCH   2   3
ENDBRANCH   1   2
BRANCH   1  30
ATOM     30  C   UNL     1      10.355   1.886   4.571  1.00  0.00     0.002 C 
BRANCH  30  31
ATOM     31  C   UNL     1      11.836   1.932   4.939  1.00  0.00     0.021 C 
BRANCH  31  32
ATOM     32  C   UNL     1      12.569   3.195   4.500  1.00  0.00     0.116 C 
BRANCH  32  33
ATOM     33  N   UNL     1      12.033   4.418   5.085  1.00  0.00    -0.352 N 
ATOM     34  C   UNL     1      12.721   5.552   5.454  1.00  0.00     0.251 C 
ATOM     35  H   UNL     1      11.060   4.435   5.234  1.00  0.00     0.163 HD
ATOM     36  O   UNL     1      12.150   6.482   6.014  1.00  0.00    -0.269 OA
BRANCH  34  37
ATOM     37  C   UNL     1      14.175   5.604   5.203  1.00  0.00     0.039 A 
ATOM     38  C   UNL     1      15.042   5.851   6.270  1.00  0.00     0.014 A 
ATOM     39  C   UNL     1      14.674   5.306   3.933  1.00  0.00     0.014 A 
ATOM     40  C   UNL     1      16.418   5.711   6.080  1.00  0.00     0.010 A 
ATOM     41  C   UNL     1      16.037   5.092   3.767  1.00  0.00     0.010 A 
ATOM     42  C   UNL     1      16.922   5.284   4.840  1.00  0.00    -0.014 A 
BRANCH  42  43
ATOM     43  C   UNL     1      18.369   5.021   4.638  1.00  0.00     0.031 A 
ATOM     44  C   UNL     1      19.145   5.837   3.641  1.00  0.00     0.074 A 
ATOM     45  C   UNL     1      18.961   3.997   5.286  1.00  0.00     0.049 A 
ATOM     46  N   UNL     1      20.389   5.707   3.259  1.00  0.00    -0.248 NA
ATOM     47  C   UNL     1      18.417   6.919   2.957  1.00  0.00     0.031 C 
ATOM     48  C   UNL     1      18.302   3.096   6.235  1.00  0.00     0.029 A 
ATOM     49  N   UNL     1      20.253   3.535   5.237  1.00  0.00    -0.354 N 
ATOM     50  C   UNL     1      20.583   6.667   2.273  1.00  0.00     0.074 A 
ATOM     51  C   UNL     1      19.316   7.338   2.080  1.00  0.00     0.031 C 
ATOM     52  C   UNL     1      19.199   2.212   6.700  1.00  0.00     0.029 A 
ATOM     53  C   UNL     1      20.487   2.457   6.059  1.00  0.00     0.049 A 
ATOM     54  H   UNL     1      20.947   3.938   4.666  1.00  0.00     0.167 HD
ATOM     55  C   UNL     1      21.717   6.978   1.603  1.00  0.00     0.031 A 
ATOM     56  C   UNL     1      21.612   1.747   6.272  1.00  0.00     0.031 A 
ATOM     57  C   UNL     1      22.982   6.330   1.821  1.00  0.00     0.049 A 
ATOM     58  C   UNL     1      22.868   2.132   5.540  1.00  0.00     0.074 A 
ATOM     59  C   UNL     1      24.207   6.617   1.246  1.00  0.00     0.029 A 
ATOM     60  N   UNL     1      23.185   5.268   2.689  1.00  0.00    -0.354 N 
ATOM     61  N   UNL     1      23.047   3.088   4.659  1.00  0.00    -0.248 NA
ATOM     62  C   UNL     1      24.076   1.351   5.839  1.00  0.00     0.031 C 
ATOM     63  C   UNL     1      25.145   5.705   1.740  1.00  0.00     0.029 A 
ATOM     64  C   UNL     1      24.512   4.879   2.657  1.00  0.00     0.049 A 
ATOM     65  H   UNL     1      22.488   4.853   3.247  1.00  0.00     0.167 HD
ATOM     66  C   UNL     1      24.394   3.041   4.319  1.00  0.00     0.074 A 
ATOM     67  C   UNL     1      24.985   1.971   5.097  1.00  0.00     0.031 C 
ATOM     68  C   UNL     1      25.081   3.814   3.443  1.00  0.00     0.031 A 
BRANCH  55  69
ATOM     69  C   UNL     1      21.634   8.072   0.573  1.00  0.00    -0.014 A 
ATOM     70  C   UNL     1      21.454   9.414   0.954  1.00  0.00     0.010 A 
ATOM     71  C   UNL     1      21.757   7.759  -0.793  1.00  0.00     0.010 A 
ATOM     72  C   UNL     1      21.348  10.417  -0.013  1.00  0.00     0.020 A 
ATOM     73  C   UNL     1      21.680   8.763  -1.763  1.00  0.00     0.020 A 
ATOM     74  C   UNL     1      21.455  10.083  -1.367  1.00  0.00     0.054 A 
BRANCH  74  75
ATOM     75  S   UNL     1      21.326  11.406  -2.601  1.00  0.00     0.124 S 
ATOM     76  O   UNL     1      19.890  11.673  -2.605  1.00  0.00    -0.237 OA
ATOM     77  O   UNL     1      22.160  12.461  -2.031  1.00  0.00    -0.237 OA
ATOM     78  O   UNL     1      21.849  10.793  -3.820  1.00  0.00    -0.744 OA
ENDBRANCH  74  75
ENDBRANCH  55  69
BRANCH  56  79
ATOM     79  C   UNL     1      21.610   0.622   7.245  1.00  0.00    -0.014 A 
ATOM     80  C   UNL     1      22.257   0.757   8.487  1.00  0.00     0.010 A 
ATOM     81  C   UNL     1      20.954  -0.585   6.945  1.00  0.00     0.010 A 
ATOM     82  C   UNL     1      22.264  -0.299   9.402  1.00  0.00     0.020 A 
ATOM     83  C   UNL     1      20.938  -1.636   7.868  1.00  0.00     0.020 A 
ATOM     84  C   UNL     1      21.604  -1.490   9.087  1.00  0.00     0.054 A 
BRANCH  84  85
ATOM     85  S   UNL     1      21.579  -2.830  10.311  1.00  0.00     0.124 S 
ATOM     86  O   UNL     1      22.931  -3.369  10.198  1.00  0.00    -0.237 OA
ATOM     87  O   UNL     1      21.282  -2.119  11.553  1.00  0.00    -0.237 OA
ATOM     88  O   UNL     1      20.512  -3.706   9.835  1.00  0.00    -0.744 OA
ENDBRANCH  84  85
ENDBRANCH  56  79
BRANCH  68  89
ATOM     89  C   UNL     1      26.556   3.556   3.301  1.00  0.00    -0.014 A 
ATOM     90  C   UNL     1      27.033   2.432   2.606  1.00  0.00     0.010 A 
ATOM     91  C   UNL     1      27.474   4.487   3.819  1.00  0.00     0.010 A 
ATOM     92  C   UNL     1      28.407   2.229   2.454  1.00  0.00     0.020 A 
ATOM     93  C   UNL     1      28.848   4.300   3.648  1.00  0.00     0.020 A 
ATOM     94  C   UNL     1      29.305   3.165   2.976  1.00  0.00     0.054 A 
BRANCH  94  95
ATOM     95  S   UNL     1      31.083   2.907   2.722  1.00  0.00     0.124 S 
ATOM     96  O   UNL     1      31.379   1.857   3.693  1.00  0.00    -0.237 OA
ATOM     97  O   UNL     1      31.152   2.504   1.319  1.00  0.00    -0.237 OA
ATOM     98  O   UNL     1      31.667   4.213   3.018  1.00  0.00    -0.744 OA
ENDBRANCH  94  95
ENDBRANCH  68  89
ENDBRANCH  42  43
ENDBRANCH  34  37
ENDBRANCH  32  33
ENDBRANCH  31  32
ENDBRANCH  30  31
ENDBRANCH   1  30
TORSDOF 21
