REMARK SMILES COc1ccc(-c2ccc(/C=C3\SC(=S)N([C@H](Cc4ccccc4)C(=O)NCCCCCCNC(=O)c4ccc(-c5c6nc(c(-c7ccc(S(=O)(=O)[O-])cc7)c7ccc([nH]7)c(-c7ccc(S(=O)(=O)[O-])cc7)c7nc(c(-c8ccc(S(=O)(=O)[O-])cc8)c8ccc5[nH]8)C=C7)C=C6)cc4)C3=O)o2)cc1
REMARK SMILES IDX 30 1 29 2 28 3 27 4 25 5 26 6 17 8 16 9 11 10 12 11 13 12
REMARK SMILES IDX 97 13 14 14 98 15 15 16 10 17 7 18 8 19 99 20 9 21 6 22 3 23
REMARK SMILES IDX 4 24 101 25 5 26 100 27 2 28 1 29 18 30 19 31 20 32 24 33
REMARK SMILES IDX 21 34 23 35 22 36 31 37 32 38 33 39 34 40 35 41 36 43 37 44
REMARK SMILES IDX 38 45 96 46 39 47 95 48 40 49 41 50 42 51 89 52 43 53 94 54
REMARK SMILES IDX 88 55 90 56 44 57 93 58 87 59 86 60 45 62 75 63 56 64 74 65
REMARK SMILES IDX 57 66 60 67 73 68 91 69 58 70 59 71 72 73 92 74 61 75 46 76
REMARK SMILES IDX 47 77 55 78 48 79 54 80 49 81 50 82 51 83 52 84 53 85 76 86
REMARK SMILES IDX 77 87 85 88 78 89 84 90 79 91 80 92 81 93 82 94 83 95 62 96
REMARK SMILES IDX 63 97 71 98 64 99 70 100 65 101 66 102 67 103 68 104 69 105
REMARK H PARENT 27 7 34 42 90 61 60 72
REMARK Flexibility Score: inf
ROOT
ATOM      1  C   UNL     1       4.532  12.510   3.620  1.00  0.00     0.002 C 
ENDROOT
BRANCH   1   2
ATOM      2  C   UNL     1       3.302  12.083   2.808  1.00  0.00     0.021 C 
BRANCH   2   3
ATOM      3  C   UNL     1       2.196  13.130   2.756  1.00  0.00     0.116 C 
BRANCH   3   4
ATOM      4  N   UNL     1       2.563  14.276   1.935  1.00  0.00    -0.354 N 
ATOM      5  C   UNL     1       1.812  15.026   1.073  1.00  0.00     0.243 C 
ATOM      6  O   UNL     1       2.288  16.101   0.693  1.00  0.00    -0.273 OA
ATOM      7  H   UNL     1       3.504  14.555   2.013  1.00  0.00     0.163 HD
BRANCH   5   8
ATOM      8  C   UNL     1       0.425  14.563   0.565  1.00  0.00     0.185 C 
BRANCH   8   9
ATOM      9  N   UNL     1      -0.736  14.732   1.492  1.00  0.00    -0.280 N 
ATOM     10  C   UNL     1      -1.889  14.614   4.901  1.00  0.00     0.068 C 
ATOM     11  C   UNL     1      -1.862  14.692   3.566  1.00  0.00     0.084 C 
ATOM     12  S   UNL     1      -3.138  14.549   2.439  1.00  0.00    -0.054 SA
ATOM     13  C   UNL     1      -0.584  14.924   2.851  1.00  0.00     0.267 C 
ATOM     14  C   UNL     1      -2.053  14.726   1.065  1.00  0.00     0.149 C 
ATOM     15  O   UNL     1       0.423  15.289   3.443  1.00  0.00    -0.268 OA
ATOM     16  S   UNL     1      -2.657  14.852  -0.485  1.00  0.00    -0.052 S 
BRANCH  10  17
ATOM     17  C   UNL     1      -3.044  14.301   5.660  1.00  0.00     0.128 A 
ATOM     18  C   UNL     1      -4.553  14.500   7.277  1.00  0.00     0.134 A 
ATOM     19  C   UNL     1      -4.831  13.312   6.641  1.00  0.00     0.051 A 
ATOM     20  O   UNL     1      -3.475  15.094   6.695  1.00  0.00    -0.457 OA
ATOM     21  C   UNL     1      -3.881  13.192   5.601  1.00  0.00     0.051 A 
BRANCH  18  22
ATOM     22  C   UNL     1      -5.137  15.205   8.403  1.00  0.00     0.017 A 
ATOM     23  C   UNL     1      -6.305  16.570  10.569  1.00  0.00     0.118 A 
ATOM     24  C   UNL     1      -5.934  17.262   9.415  1.00  0.00     0.047 A 
ATOM     25  C   UNL     1      -6.106  15.191  10.634  1.00  0.00     0.047 A 
ATOM     26  C   UNL     1      -5.340  16.589   8.345  1.00  0.00     0.016 A 
ATOM     27  C   UNL     1      -5.530  14.512   9.553  1.00  0.00     0.016 A 
BRANCH  23  28
ATOM     28  O   UNL     1      -6.873  17.339  11.548  1.00  0.00    -0.497 OA
ATOM     29  C   UNL     1      -6.818  16.800  12.864  1.00  0.00     0.278 C 
ENDBRANCH  23  28
ENDBRANCH  18  22
ENDBRANCH  10  17
ENDBRANCH   8   9
BRANCH   8  30
ATOM     30  C   UNL     1       0.506  13.138  -0.057  1.00  0.00     0.071 C 
BRANCH  30  31
ATOM     31  C   UNL     1       0.742  13.128  -1.553  1.00  0.00    -0.045 A 
ATOM     32  C   UNL     1       1.994  13.473  -2.081  1.00  0.00     0.004 A 
ATOM     33  C   UNL     1      -0.281  12.748  -2.432  1.00  0.00     0.004 A 
ATOM     34  C   UNL     1       2.211  13.448  -3.460  1.00  0.00     0.000 A 
ATOM     35  C   UNL     1      -0.066  12.736  -3.810  1.00  0.00     0.000 A 
ATOM     36  C   UNL     1       1.180  13.085  -4.324  1.00  0.00     0.000 A 
ENDBRANCH  30  31
ENDBRANCH   8  30
ENDBRANCH   5   8
ENDBRANCH   3   4
ENDBRANCH   2   3
ENDBRANCH   1   2
BRANCH   1  37
ATOM     37  C   UNL     1       4.256  12.942   5.066  1.00  0.00     0.002 C 
BRANCH  37  38
ATOM     38  C   UNL     1       3.465  11.945   5.918  1.00  0.00     0.021 C 
BRANCH  38  39
ATOM     39  C   UNL     1       4.071  10.548   6.014  1.00  0.00     0.116 C 
BRANCH  39  40
ATOM     40  N   UNL     1       5.401  10.555   6.597  1.00  0.00    -0.352 N 
ATOM     41  C   UNL     1       5.935   9.725   7.550  1.00  0.00     0.251 C 
ATOM     42  H   UNL     1       6.005  11.256   6.261  1.00  0.00     0.163 HD
ATOM     43  O   UNL     1       7.038   9.972   8.029  1.00  0.00    -0.269 OA
BRANCH  41  44
ATOM     44  C   UNL     1       5.171   8.548   8.018  1.00  0.00     0.039 A 
ATOM     45  C   UNL     1       5.094   8.300   9.392  1.00  0.00     0.014 A 
ATOM     46  C   UNL     1       4.544   7.686   7.113  1.00  0.00     0.014 A 
ATOM     47  C   UNL     1       4.345   7.219   9.861  1.00  0.00     0.010 A 
ATOM     48  C   UNL     1       3.750   6.642   7.585  1.00  0.00     0.010 A 
ATOM     49  C   UNL     1       3.646   6.397   8.963  1.00  0.00    -0.014 A 
BRANCH  49  50
ATOM     50  C   UNL     1       2.801   5.277   9.449  1.00  0.00     0.031 A 
ATOM     51  C   UNL     1       3.178   3.854   9.139  1.00  0.00     0.074 A 
ATOM     52  C   UNL     1       1.663   5.544  10.119  1.00  0.00     0.049 A 
ATOM     53  N   UNL     1       2.541   2.751   9.433  1.00  0.00    -0.248 NA
ATOM     54  C   UNL     1       4.421   3.647   8.378  1.00  0.00     0.031 C 
ATOM     55  C   UNL     1       1.166   6.883  10.446  1.00  0.00     0.029 A 
ATOM     56  N   UNL     1       0.714   4.701  10.640  1.00  0.00    -0.354 N 
ATOM     57  C   UNL     1       3.292   1.721   8.879  1.00  0.00     0.074 A 
ATOM     58  C   UNL     1       4.411   2.335   8.197  1.00  0.00     0.031 C 
ATOM     59  C   UNL     1       0.015   6.769  11.128  1.00  0.00     0.029 A 
ATOM     60  C   UNL     1      -0.324   5.355  11.260  1.00  0.00     0.049 A 
ATOM     61  H   UNL     1       0.770   3.720  10.575  1.00  0.00     0.167 HD
ATOM     62  C   UNL     1       3.080   0.384   8.946  1.00  0.00     0.031 A 
ATOM     63  C   UNL     1      -1.427   4.874  11.865  1.00  0.00     0.031 A 
ATOM     64  C   UNL     1       1.976  -0.225   9.638  1.00  0.00     0.049 A 
ATOM     65  C   UNL     1      -1.635   3.387  11.938  1.00  0.00     0.074 A 
ATOM     66  C   UNL     1       1.705  -1.571   9.811  1.00  0.00     0.029 A 
ATOM     67  N   UNL     1       0.959   0.472  10.272  1.00  0.00    -0.354 N 
ATOM     68  N   UNL     1      -0.881   2.427  11.459  1.00  0.00    -0.248 NA
ATOM     69  C   UNL     1      -2.835   2.919  12.645  1.00  0.00     0.031 C 
ATOM     70  C   UNL     1       0.503  -1.688  10.517  1.00  0.00     0.029 A 
ATOM     71  C   UNL     1       0.049  -0.415  10.823  1.00  0.00     0.049 A 
ATOM     72  H   UNL     1       0.894   1.453  10.324  1.00  0.00     0.167 HD
ATOM     73  C   UNL     1      -1.505   1.239  11.824  1.00  0.00     0.074 A 
ATOM     74  C   UNL     1      -2.690   1.602  12.575  1.00  0.00     0.031 C 
ATOM     75  C   UNL     1      -1.128  -0.036  11.562  1.00  0.00     0.031 A 
BRANCH  62  76
ATOM     76  C   UNL     1       4.067  -0.507   8.240  1.00  0.00    -0.014 A 
ATOM     77  C   UNL     1       5.373  -0.678   8.734  1.00  0.00     0.010 A 
ATOM     78  C   UNL     1       3.679  -1.198   7.078  1.00  0.00     0.010 A 
ATOM     79  C   UNL     1       6.288  -1.483   8.052  1.00  0.00     0.020 A 
ATOM     80  C   UNL     1       4.584  -2.025   6.406  1.00  0.00     0.020 A 
ATOM     81  C   UNL     1       5.890  -2.145   6.886  1.00  0.00     0.054 A 
BRANCH  81  82
ATOM     82  S   UNL     1       7.096  -3.186   6.018  1.00  0.00     0.124 S 
ATOM     83  O   UNL     1       7.927  -2.188   5.350  1.00  0.00    -0.237 OA
ATOM     84  O   UNL     1       7.741  -3.911   7.109  1.00  0.00    -0.237 OA
ATOM     85  O   UNL     1       6.271  -4.005   5.133  1.00  0.00    -0.744 OA
ENDBRANCH  81  82
ENDBRANCH  62  76
BRANCH  63  86
ATOM     86  C   UNL     1      -2.409   5.816  12.465  1.00  0.00    -0.014 A 
ATOM     87  C   UNL     1      -2.491   5.966  13.860  1.00  0.00     0.010 A 
ATOM     88  C   UNL     1      -3.243   6.594  11.642  1.00  0.00     0.010 A 
ATOM     89  C   UNL     1      -3.396   6.872  14.423  1.00  0.00     0.020 A 
ATOM     90  C   UNL     1      -4.132   7.517  12.199  1.00  0.00     0.020 A 
ATOM     91  C   UNL     1      -4.208   7.644  13.588  1.00  0.00     0.054 A 
BRANCH  91  92
ATOM     92  S   UNL     1      -5.324   8.869  14.331  1.00  0.00     0.124 S 
ATOM     93  O   UNL     1      -6.420   8.031  14.806  1.00  0.00    -0.237 OA
ATOM     94  O   UNL     1      -4.490   9.471  15.369  1.00  0.00    -0.237 OA
ATOM     95  O   UNL     1      -5.648   9.755  13.215  1.00  0.00    -0.744 OA
ENDBRANCH  91  92
ENDBRANCH  63  86
BRANCH  75  96
ATOM     96  C   UNL     1      -1.995  -1.137  12.111  1.00  0.00    -0.014 A 
ATOM     97  C   UNL     1      -3.239  -1.438  11.530  1.00  0.00     0.010 A 
ATOM     98  C   UNL     1      -1.534  -1.911  13.191  1.00  0.00     0.010 A 
ATOM     99  C   UNL     1      -4.021  -2.478  12.039  1.00  0.00     0.020 A 
ATOM    100  C   UNL     1      -2.303  -2.966  13.688  1.00  0.00     0.020 A 
ATOM    101  C   UNL     1      -3.549  -3.234  13.117  1.00  0.00     0.054 A 
BRANCH 101 102
ATOM    102  S   UNL     1      -4.561  -4.606  13.734  1.00  0.00     0.124 S 
ATOM    103  O   UNL     1      -5.585  -3.905  14.503  1.00  0.00    -0.237 OA
ATOM    104  O   UNL     1      -5.026  -5.244  12.505  1.00  0.00    -0.237 OA
ATOM    105  O   UNL     1      -3.622  -5.400  14.524  1.00  0.00    -0.744 OA
ENDBRANCH 101 102
ENDBRANCH  75  96
ENDBRANCH  49  50
ENDBRANCH  41  44
ENDBRANCH  39  40
ENDBRANCH  38  39
ENDBRANCH  37  38
ENDBRANCH   1  37
TORSDOF 22
