REMARK SMILES CCOc1cc(C[NH+]2CCC3(CC2)[C@H](C(=O)NCCCCCCNC(=O)c2ccc(-c4c5nc(c(-c6ccc(S(=O)(=O)[O-])cc6)c6ccc([nH]6)c(-c6ccc(S(=O)(=O)[O-])cc6)c6nc(c(-c7ccc(S(=O)(=O)[O-])cc7)c7ccc4[nH]7)C=C6)C=C5)cc2)CC(=O)N3C)ccc1OC
REMARK SMILES IDX 20 1 19 2 18 3 17 4 15 5 16 6 14 8 8 9 9 10 13 11 10 13
REMARK SMILES IDX 12 14 11 15 90 16 87 17 88 18 91 19 89 20 7 21 6 22 4 23
REMARK SMILES IDX 5 24 94 25 93 26 92 27 3 28 2 29 1 30 95 31 96 32 21 33
REMARK SMILES IDX 22 34 23 35 24 36 25 37 26 39 27 40 28 41 86 42 29 43 85 44
REMARK SMILES IDX 30 45 31 46 32 47 79 48 33 49 84 50 78 51 80 52 34 53 83 54
REMARK SMILES IDX 77 55 76 56 35 58 65 59 46 60 64 61 47 62 50 63 63 64 81 65
REMARK SMILES IDX 48 66 49 67 62 69 82 70 51 71 36 72 37 73 45 74 38 75 44 76
REMARK SMILES IDX 39 77 40 78 41 79 42 80 43 81 66 82 67 83 75 84 68 85 74 86
REMARK SMILES IDX 69 87 70 88 71 89 72 90 73 91 52 92 53 93 61 94 54 95 60 96
REMARK SMILES IDX 55 97 56 98 57 99 58 100 59 101
REMARK H PARENT 17 7 8 12 24 38 80 57 50 68
REMARK Flexibility Score: inf
ROOT
ATOM      1  C   UNL     1       5.134  -4.285  -5.226  1.00  0.00     0.002 C 
ENDROOT
BRANCH   1   2
ATOM      2  C   UNL     1       4.180  -3.283  -5.878  1.00  0.00     0.021 C 
BRANCH   2   3
ATOM      3  C   UNL     1       2.776  -3.236  -5.277  1.00  0.00     0.116 C 
BRANCH   3   4
ATOM      4  N   UNL     1       2.832  -2.862  -3.890  1.00  0.00    -0.356 N 
ATOM      5  C   UNL     1       2.365  -1.820  -3.183  1.00  0.00     0.226 C 
ATOM      6  O   UNL     1       2.647  -1.874  -1.982  1.00  0.00    -0.275 OA
ATOM      7  H   UNL     1       3.319  -3.514  -3.336  1.00  0.00     0.163 HD
BRANCH   5   8
ATOM      8  C   UNL     1       1.464  -0.698  -3.703  1.00  0.00     0.114 C 
ATOM      9  N   UNL     1       3.586   2.552  -5.465  1.00  0.00    -0.331 N 
ATOM     10  C   UNL     1       3.998   1.256  -5.959  1.00  0.00     0.265 C 
ATOM     11  C   UNL     1       2.143   2.708  -5.488  1.00  0.00     0.265 C 
ATOM     12  H   UNL     1       3.905   3.234  -6.153  1.00  0.00     0.348 HD
ATOM     13  C   UNL     1       3.335   0.086  -5.250  1.00  0.00     0.091 C 
ATOM     14  C   UNL     1       1.323   1.621  -4.779  1.00  0.00     0.091 C 
ATOM     15  C   UNL     1       1.824   0.160  -4.959  1.00  0.00     0.065 C 
ATOM     16  N   UNL     1       0.972  -0.484  -5.975  1.00  0.00    -0.339 N 
ATOM     17  C   UNL     1       0.061  -1.240  -3.942  1.00  0.00     0.116 C 
ATOM     18  C   UNL     1      -0.066  -1.244  -5.436  1.00  0.00     0.223 C 
ATOM     19  C   UNL     1       0.984  -0.184  -7.389  1.00  0.00     0.147 C 
ATOM     20  O   UNL     1      -0.955  -1.792  -6.053  1.00  0.00    -0.275 OA
BRANCH   9  21
ATOM     21  C   UNL     1       4.356   3.129  -4.358  1.00  0.00     0.299 C 
BRANCH  21  22
ATOM     22  C   UNL     1       4.278   2.435  -3.014  1.00  0.00     0.010 A 
ATOM     23  C   UNL     1       2.933   1.629  -1.151  1.00  0.00     0.161 A 
ATOM     24  C   UNL     1       3.121   2.513  -2.222  1.00  0.00     0.060 A 
ATOM     25  C   UNL     1       3.983   0.804  -0.731  1.00  0.00     0.160 A 
ATOM     26  C   UNL     1       5.200   0.859  -1.416  1.00  0.00     0.051 A 
ATOM     27  C   UNL     1       5.335   1.630  -2.571  1.00  0.00     0.013 A 
BRANCH  23  28
ATOM     28  O   UNL     1       1.672   1.315  -0.744  1.00  0.00    -0.490 OA
BRANCH  28  29
ATOM     29  C   UNL     1       0.818   2.314  -0.221  1.00  0.00     0.226 C 
ATOM     30  C   UNL     1      -0.175   1.540   0.638  1.00  0.00     0.049 C 
ENDBRANCH  28  29
ENDBRANCH  23  28
BRANCH  25  31
ATOM     31  O   UNL     1       3.982  -0.103   0.296  1.00  0.00    -0.493 OA
ATOM     32  C   UNL     1       2.743  -0.634   0.748  1.00  0.00     0.278 C 
ENDBRANCH  25  31
ENDBRANCH  21  22
ENDBRANCH   9  21
ENDBRANCH   5   8
ENDBRANCH   3   4
ENDBRANCH   2   3
ENDBRANCH   1   2
BRANCH   1  33
ATOM     33  C   UNL     1       4.605  -5.713  -5.127  1.00  0.00     0.002 C 
BRANCH  33  34
ATOM     34  C   UNL     1       4.013  -6.266  -6.421  1.00  0.00     0.021 C 
BRANCH  34  35
ATOM     35  C   UNL     1       4.888  -6.082  -7.650  1.00  0.00     0.116 C 
BRANCH  35  36
ATOM     36  N   UNL     1       6.153  -6.780  -7.531  1.00  0.00    -0.352 N 
ATOM     37  C   UNL     1       6.718  -7.634  -8.443  1.00  0.00     0.251 C 
ATOM     38  H   UNL     1       6.663  -6.624  -6.704  1.00  0.00     0.163 HD
ATOM     39  O   UNL     1       7.707  -8.298  -8.158  1.00  0.00    -0.269 OA
BRANCH  37  40
ATOM     40  C   UNL     1       6.080  -7.751  -9.768  1.00  0.00     0.039 A 
ATOM     41  C   UNL     1       5.691  -9.011 -10.220  1.00  0.00     0.014 A 
ATOM     42  C   UNL     1       5.798  -6.600 -10.514  1.00  0.00     0.014 A 
ATOM     43  C   UNL     1       4.985  -9.116 -11.417  1.00  0.00     0.010 A 
ATOM     44  C   UNL     1       5.025  -6.702 -11.665  1.00  0.00     0.010 A 
ATOM     45  C   UNL     1       4.628  -7.963 -12.138  1.00  0.00    -0.014 A 
BRANCH  45  46
ATOM     46  C   UNL     1       3.867  -8.064 -13.407  1.00  0.00     0.031 A 
ATOM     47  C   UNL     1       4.505  -7.619 -14.695  1.00  0.00     0.074 A 
ATOM     48  C   UNL     1       2.599  -8.520 -13.395  1.00  0.00     0.049 A 
ATOM     49  N   UNL     1       4.001  -7.608 -15.902  1.00  0.00    -0.248 NA
ATOM     50  C   UNL     1       5.879  -7.094 -14.616  1.00  0.00     0.031 C 
ATOM     51  C   UNL     1       1.861  -8.942 -12.201  1.00  0.00     0.029 A 
ATOM     52  N   UNL     1       1.706  -8.706 -14.419  1.00  0.00    -0.354 N 
ATOM     53  C   UNL     1       4.986  -7.063 -16.718  1.00  0.00     0.074 A 
ATOM     54  C   UNL     1       6.096  -6.706 -15.863  1.00  0.00     0.031 C 
ATOM     55  C   UNL     1       0.639  -9.364 -12.566  1.00  0.00     0.029 A 
ATOM     56  C   UNL     1       0.492  -9.206 -14.010  1.00  0.00     0.049 A 
ATOM     57  H   UNL     1       1.914  -8.501 -15.359  1.00  0.00     0.167 HD
ATOM     58  C   UNL     1       4.977  -6.897 -18.061  1.00  0.00     0.031 A 
ATOM     59  C   UNL     1      -0.617  -9.499 -14.717  1.00  0.00     0.031 A 
ATOM     60  C   UNL     1       3.875  -7.270 -18.907  1.00  0.00     0.049 A 
ATOM     61  C   UNL     1      -0.605  -9.298 -16.209  1.00  0.00     0.074 A 
ATOM     62  C   UNL     1       3.790  -7.199 -20.286  1.00  0.00     0.029 A 
ATOM     63  N   UNL     1       2.668  -7.780 -18.455  1.00  0.00    -0.354 N 
ATOM     64  N   UNL     1       0.366  -8.853 -16.971  1.00  0.00    -0.248 NA
ATOM     65  C   UNL     1      -1.831  -9.652 -16.937  1.00  0.00     0.031 C 
ATOM     66  C   UNL     1       2.508  -7.610 -20.663  1.00  0.00     0.029 A 
ATOM     67  C   UNL     1       1.819  -8.002 -19.526  1.00  0.00     0.049 A 
ATOM     68  H   UNL     1       2.446  -7.958 -17.512  1.00  0.00     0.167 HD
ATOM     69  C   UNL     1      -0.124  -8.899 -18.272  1.00  0.00     0.074 A 
ATOM     70  C   UNL     1      -1.469  -9.433 -18.193  1.00  0.00     0.031 C 
ATOM     71  C   UNL     1       0.484  -8.535 -19.428  1.00  0.00     0.031 A 
BRANCH  58  72
ATOM     72  C   UNL     1       6.193  -6.278 -18.699  1.00  0.00    -0.014 A 
ATOM     73  C   UNL     1       7.417  -6.970 -18.758  1.00  0.00     0.010 A 
ATOM     74  C   UNL     1       6.098  -5.006 -19.292  1.00  0.00     0.010 A 
ATOM     75  C   UNL     1       8.531  -6.386 -19.368  1.00  0.00     0.020 A 
ATOM     76  C   UNL     1       7.201  -4.432 -19.930  1.00  0.00     0.020 A 
ATOM     77  C   UNL     1       8.415  -5.121 -19.951  1.00  0.00     0.054 A 
BRANCH  77  78
ATOM     78  S   UNL     1       9.868  -4.406 -20.769  1.00  0.00     0.124 S 
ATOM     79  O   UNL     1      10.724  -4.080 -19.631  1.00  0.00    -0.237 OA
ATOM     80  O   UNL     1      10.333  -5.505 -21.611  1.00  0.00    -0.237 OA
ATOM     81  O   UNL     1       9.329  -3.256 -21.491  1.00  0.00    -0.744 OA
ENDBRANCH  77  78
ENDBRANCH  58  72
BRANCH  59  82
ATOM     82  C   UNL     1      -1.829 -10.018 -14.024  1.00  0.00    -0.014 A 
ATOM     83  C   UNL     1      -2.257 -11.343 -14.218  1.00  0.00     0.010 A 
ATOM     84  C   UNL     1      -2.564  -9.185 -13.160  1.00  0.00     0.010 A 
ATOM     85  C   UNL     1      -3.409 -11.818 -13.583  1.00  0.00     0.020 A 
ATOM     86  C   UNL     1      -3.698  -9.664 -12.499  1.00  0.00     0.020 A 
ATOM     87  C   UNL     1      -4.122 -10.975 -12.726  1.00  0.00     0.054 A 
BRANCH  87  88
ATOM     88  S   UNL     1      -5.592 -11.624 -11.884  1.00  0.00     0.124 S 
ATOM     89  O   UNL     1      -6.557 -11.704 -12.976  1.00  0.00    -0.237 OA
ATOM     90  O   UNL     1      -5.117 -12.903 -11.363  1.00  0.00    -0.237 OA
ATOM     91  O   UNL     1      -5.878 -10.613 -10.868  1.00  0.00    -0.744 OA
ENDBRANCH  87  88
ENDBRANCH  59  82
BRANCH  71  92
ATOM     92  C   UNL     1      -0.282  -8.733 -20.709  1.00  0.00    -0.014 A 
ATOM     93  C   UNL     1      -1.382  -7.921 -21.037  1.00  0.00     0.010 A 
ATOM     94  C   UNL     1       0.149  -9.708 -21.628  1.00  0.00     0.010 A 
ATOM     95  C   UNL     1      -2.057  -8.103 -22.247  1.00  0.00     0.020 A 
ATOM     96  C   UNL     1      -0.503  -9.871 -22.852  1.00  0.00     0.020 A 
ATOM     97  C   UNL     1      -1.612  -9.076 -23.148  1.00  0.00     0.054 A 
BRANCH  97  98
ATOM     98  S   UNL     1      -2.475  -9.258 -24.732  1.00  0.00     0.124 S 
ATOM     99  O   UNL     1      -3.729  -9.886 -24.324  1.00  0.00    -0.237 OA
ATOM    100  O   UNL     1      -2.586  -7.877 -25.196  1.00  0.00    -0.237 OA
ATOM    101  O   UNL     1      -1.582 -10.104 -25.519  1.00  0.00    -0.744 OA
ENDBRANCH  97  98
ENDBRANCH  71  92
ENDBRANCH  45  46
ENDBRANCH  37  40
ENDBRANCH  35  36
ENDBRANCH  34  35
ENDBRANCH  33  34
ENDBRANCH   1  33
TORSDOF 21
