REMARK SMILES O=C(NCCCCCCNC(=O)c1nccnc1C(=O)N1CCC(Cc2ccccc2)CC1)c1ccc(-c2c3nc(c(-c4ccc(S(=O)(=O)[O-])cc4)c4ccc([nH]4)c(-c4ccc(S(=O)(=O)[O-])cc4)c4nc(c(-c5ccc(S(=O)(=O)[O-])cc5)c5ccc2[nH]5)C=C4)C=C3)cc1
REMARK SMILES IDX 6 1 5 2 4 3 3 4 1 5 2 6 34 8 35 9 93 10 36 11 92 12 37 13
REMARK SMILES IDX 38 14 39 15 86 16 40 17 91 18 85 19 87 20 41 21 90 22 84 23
REMARK SMILES IDX 83 24 42 26 72 27 53 28 71 29 54 30 57 31 70 32 88 33 55 34
REMARK SMILES IDX 56 35 69 37 89 38 58 39 43 40 44 41 52 42 45 43 51 44 46 45
REMARK SMILES IDX 47 46 48 47 49 48 50 49 73 50 74 51 82 52 75 53 81 54 76 55
REMARK SMILES IDX 77 56 78 57 79 58 80 59 59 60 60 61 68 62 61 63 67 64 62 65
REMARK SMILES IDX 63 66 64 67 65 68 66 69 7 70 8 71 9 72 10 73 11 74 12 76
REMARK SMILES IDX 13 77 14 78 18 79 15 80 17 81 16 82 19 83 20 84 21 85 22 86
REMARK SMILES IDX 33 87 23 88 32 89 24 90 25 91 26 92 27 93 31 94 28 95 30 96
REMARK SMILES IDX 29 97
REMARK H PARENT 3 7 87 25 57 36 10 75
REMARK Flexibility Score: inf
ROOT
ATOM      1  C   UNL     1       4.210   0.597  -3.904  1.00  0.00     0.002 C 
ENDROOT
BRANCH   1   2
ATOM      2  C   UNL     1       4.631  -0.306  -2.745  1.00  0.00     0.021 C 
BRANCH   2   3
ATOM      3  C   UNL     1       4.426   0.279  -1.355  1.00  0.00     0.116 C 
BRANCH   3   4
ATOM      4  N   UNL     1       3.024   0.402  -0.996  1.00  0.00    -0.352 N 
ATOM      5  O   UNL     1       1.142  -0.018   0.175  1.00  0.00    -0.269 OA
ATOM      6  C   UNL     1       2.367  -0.090   0.109  1.00  0.00     0.251 C 
ATOM      7  H   UNL     1       2.467   0.908  -1.630  1.00  0.00     0.163 HD
BRANCH   6   8
ATOM      8  C   UNL     1       3.135  -0.730   1.202  1.00  0.00     0.039 A 
ATOM      9  C   UNL     1       4.317  -0.156   1.672  1.00  0.00     0.014 A 
ATOM     10  C   UNL     1       2.668  -1.923   1.764  1.00  0.00     0.014 A 
ATOM     11  C   UNL     1       5.105  -0.846   2.587  1.00  0.00     0.010 A 
ATOM     12  C   UNL     1       3.417  -2.570   2.754  1.00  0.00     0.010 A 
ATOM     13  C   UNL     1       4.659  -2.054   3.152  1.00  0.00    -0.014 A 
BRANCH  13  14
ATOM     14  C   UNL     1       5.490  -2.701   4.201  1.00  0.00     0.031 A 
ATOM     15  C   UNL     1       6.130  -4.047   3.984  1.00  0.00     0.074 A 
ATOM     16  C   UNL     1       5.721  -2.022   5.343  1.00  0.00     0.049 A 
ATOM     17  N   UNL     1       6.954  -4.697   4.768  1.00  0.00    -0.248 NA
ATOM     18  C   UNL     1       5.803  -4.758   2.739  1.00  0.00     0.031 C 
ATOM     19  C   UNL     1       5.137  -0.719   5.678  1.00  0.00     0.029 A 
ATOM     20  N   UNL     1       6.528  -2.308   6.413  1.00  0.00    -0.354 N 
ATOM     21  C   UNL     1       7.239  -5.893   4.119  1.00  0.00     0.074 A 
ATOM     22  C   UNL     1       6.476  -5.892   2.888  1.00  0.00     0.031 C 
ATOM     23  C   UNL     1       5.653  -0.291   6.839  1.00  0.00     0.029 A 
ATOM     24  C   UNL     1       6.556  -1.310   7.359  1.00  0.00     0.049 A 
ATOM     25  H   UNL     1       7.037  -3.146   6.497  1.00  0.00     0.167 HD
ATOM     26  C   UNL     1       8.066  -6.894   4.508  1.00  0.00     0.031 A 
ATOM     27  C   UNL     1       7.229  -1.221   8.521  1.00  0.00     0.031 A 
ATOM     28  C   UNL     1       8.818  -6.896   5.737  1.00  0.00     0.049 A 
ATOM     29  C   UNL     1       8.139  -2.342   8.925  1.00  0.00     0.074 A 
ATOM     30  C   UNL     1       9.683  -7.866   6.217  1.00  0.00     0.029 A 
ATOM     31  N   UNL     1       8.800  -5.879   6.679  1.00  0.00    -0.354 N 
ATOM     32  N   UNL     1       8.406  -3.455   8.284  1.00  0.00    -0.248 NA
ATOM     33  C   UNL     1       8.842  -2.195  10.205  1.00  0.00     0.031 C 
ATOM     34  C   UNL     1      10.159  -7.451   7.466  1.00  0.00     0.029 A 
ATOM     35  C   UNL     1       9.629  -6.201   7.742  1.00  0.00     0.049 A 
ATOM     36  H   UNL     1       8.275  -5.049   6.605  1.00  0.00     0.167 HD
ATOM     37  C   UNL     1       9.309  -4.142   9.085  1.00  0.00     0.074 A 
ATOM     38  C   UNL     1       9.571  -3.302  10.237  1.00  0.00     0.031 C 
ATOM     39  C   UNL     1       9.865  -5.362   8.889  1.00  0.00     0.031 A 
BRANCH  26  40
ATOM     40  C   UNL     1       8.198  -8.086   3.595  1.00  0.00    -0.014 A 
ATOM     41  C   UNL     1       8.926  -7.999   2.395  1.00  0.00     0.010 A 
ATOM     42  C   UNL     1       7.641  -9.323   3.970  1.00  0.00     0.010 A 
ATOM     43  C   UNL     1       9.070  -9.120   1.572  1.00  0.00     0.020 A 
ATOM     44  C   UNL     1       7.803 -10.452   3.159  1.00  0.00     0.020 A 
ATOM     45  C   UNL     1       8.505 -10.339   1.958  1.00  0.00     0.054 A 
BRANCH  45  46
ATOM     46  S   UNL     1       8.735 -11.784   0.884  1.00  0.00     0.124 S 
ATOM     47  O   UNL     1       7.821 -11.488  -0.216  1.00  0.00    -0.237 OA
ATOM     48  O   UNL     1      10.156 -11.717   0.555  1.00  0.00    -0.237 OA
ATOM     49  O   UNL     1       8.348 -12.910   1.731  1.00  0.00    -0.744 OA
ENDBRANCH  45  46
ENDBRANCH  26  40
BRANCH  27  50
ATOM     50  C   UNL     1       7.044  -0.027   9.388  1.00  0.00    -0.014 A 
ATOM     51  C   UNL     1       8.075   0.914   9.550  1.00  0.00     0.010 A 
ATOM     52  C   UNL     1       5.814   0.183  10.038  1.00  0.00     0.010 A 
ATOM     53  C   UNL     1       7.883   2.037  10.362  1.00  0.00     0.020 A 
ATOM     54  C   UNL     1       5.609   1.318  10.825  1.00  0.00     0.020 A 
ATOM     55  C   UNL     1       6.651   2.231  10.993  1.00  0.00     0.054 A 
BRANCH  55  56
ATOM     56  S   UNL     1       6.399   3.721  11.998  1.00  0.00     0.124 S 
ATOM     57  O   UNL     1       7.074   3.363  13.241  1.00  0.00    -0.237 OA
ATOM     58  O   UNL     1       7.048   4.758  11.199  1.00  0.00    -0.237 OA
ATOM     59  O   UNL     1       4.944   3.831  12.081  1.00  0.00    -0.744 OA
ENDBRANCH  55  56
ENDBRANCH  27  50
BRANCH  39  60
ATOM     60  C   UNL     1      10.817  -5.851   9.946  1.00  0.00    -0.014 A 
ATOM     61  C   UNL     1      10.346  -6.276  11.201  1.00  0.00     0.010 A 
ATOM     62  C   UNL     1      12.196  -5.892   9.678  1.00  0.00     0.010 A 
ATOM     63  C   UNL     1      11.245  -6.689  12.188  1.00  0.00     0.020 A 
ATOM     64  C   UNL     1      13.095  -6.329  10.654  1.00  0.00     0.020 A 
ATOM     65  C   UNL     1      12.615  -6.705  11.910  1.00  0.00     0.054 A 
BRANCH  65  66
ATOM     66  S   UNL     1      13.764  -7.255  13.201  1.00  0.00     0.124 S 
ATOM     67  O   UNL     1      13.825  -6.083  14.070  1.00  0.00    -0.237 OA
ATOM     68  O   UNL     1      13.085  -8.420  13.764  1.00  0.00    -0.237 OA
ATOM     69  O   UNL     1      14.991  -7.552  12.466  1.00  0.00    -0.744 OA
ENDBRANCH  65  66
ENDBRANCH  39  60
ENDBRANCH  13  14
ENDBRANCH   6   8
ENDBRANCH   3   4
ENDBRANCH   2   3
ENDBRANCH   1   2
BRANCH   1  70
ATOM     70  C   UNL     1       4.870   1.978  -3.954  1.00  0.00     0.002 C 
BRANCH  70  71
ATOM     71  C   UNL     1       6.397   2.001  -3.844  1.00  0.00     0.021 C 
BRANCH  71  72
ATOM     72  C   UNL     1       7.149   1.075  -4.799  1.00  0.00     0.116 C 
BRANCH  72  73
ATOM     73  N   UNL     1       6.865   1.343  -6.200  1.00  0.00    -0.351 N 
ATOM     74  C   UNL     1       7.724   1.788  -7.186  1.00  0.00     0.272 C 
ATOM     75  H   UNL     1       5.936   1.185  -6.484  1.00  0.00     0.163 HD
ATOM     76  O   UNL     1       7.318   1.935  -8.335  1.00  0.00    -0.267 OA
BRANCH  74  77
ATOM     77  C   UNL     1       9.124   2.097  -6.825  1.00  0.00     0.159 A 
ATOM     78  N   UNL     1       9.817   1.032  -6.301  1.00  0.00    -0.247 NA
ATOM     79  C   UNL     1       9.701   3.345  -7.012  1.00  0.00     0.159 A 
ATOM     80  C   UNL     1      11.106   1.265  -5.984  1.00  0.00     0.132 A 
ATOM     81  N   UNL     1      11.003   3.568  -6.635  1.00  0.00    -0.247 NA
ATOM     82  C   UNL     1      11.682   2.510  -6.133  1.00  0.00     0.132 A 
BRANCH  79  83
ATOM     83  C   UNL     1       9.115   4.421  -7.863  1.00  0.00     0.274 C 
ATOM     84  O   UNL     1       9.866   4.912  -8.713  1.00  0.00    -0.267 OA
ATOM     85  N   UNL     1       7.783   4.833  -7.771  1.00  0.00    -0.337 N 
ATOM     86  C   UNL     1       7.162   5.289  -9.009  1.00  0.00     0.120 C 
ATOM     87  C   UNL     1       6.900   4.738  -6.609  1.00  0.00     0.120 C 
ATOM     88  C   UNL     1       6.411   6.595  -8.819  1.00  0.00     0.025 C 
ATOM     89  C   UNL     1       6.078   6.020  -6.407  1.00  0.00     0.025 C 
ATOM     90  C   UNL     1       5.363   6.448  -7.706  1.00  0.00    -0.003 C 
BRANCH  90  91
ATOM     91  C   UNL     1       4.551   7.743  -7.504  1.00  0.00     0.039 C 
BRANCH  91  92
ATOM     92  C   UNL     1       3.852   8.215  -8.761  1.00  0.00    -0.048 A 
ATOM     93  C   UNL     1       4.264   9.394  -9.399  1.00  0.00     0.004 A 
ATOM     94  C   UNL     1       2.819   7.462  -9.337  1.00  0.00     0.004 A 
ATOM     95  C   UNL     1       3.667   9.802 -10.594  1.00  0.00     0.000 A 
ATOM     96  C   UNL     1       2.225   7.870 -10.534  1.00  0.00     0.000 A 
ATOM     97  C   UNL     1       2.650   9.039 -11.163  1.00  0.00     0.000 A 
ENDBRANCH  91  92
ENDBRANCH  90  91
ENDBRANCH  79  83
ENDBRANCH  74  77
ENDBRANCH  72  73
ENDBRANCH  71  72
ENDBRANCH  70  71
ENDBRANCH   1  70
TORSDOF 19
