REMARK SMILES Cc1c(C(=O)NCCCCCCNC(=O)c2ccc(-c3c4nc(c(-c5ccc(S(=O)(=O)[O-])cc5)c5ccc([nH]5)c(-c5ccc(S(=O)(=O)[O-])cc5)c5nc(c(-c6ccc(S(=O)(=O)[O-])cc6)c6ccc3[nH]6)C=C5)C=C4)cc2)cccc1-n1c(C)cc(/C=C2/C(=O)NC(=S)N=C2O)c1C
REMARK SMILES IDX 9 1 8 2 7 3 6 4 4 5 5 6 3 8 1 9 2 10 79 11 76 12 78 13 77 14
REMARK SMILES IDX 80 15 81 16 95 17 82 18 83 19 84 20 96 21 85 22 86 23 87 24
REMARK SMILES IDX 93 25 88 26 89 27 92 28 90 29 91 31 94 32 10 34 11 35 12 36
REMARK SMILES IDX 13 37 14 38 15 40 16 41 17 42 75 43 18 44 74 45 19 46 20 47
REMARK SMILES IDX 21 48 68 49 22 50 73 51 67 52 69 53 23 54 72 55 66 56 65 57
REMARK SMILES IDX 24 59 54 60 35 61 53 62 36 63 39 64 52 65 70 66 37 67 38 68
REMARK SMILES IDX 51 70 71 71 40 72 25 73 26 74 34 75 27 76 33 77 28 78 29 79
REMARK SMILES IDX 30 80 31 81 32 82 55 83 56 84 64 85 57 86 63 87 58 88 59 89
REMARK SMILES IDX 60 90 61 91 62 92 41 93 42 94 50 95 43 96 49 97 44 98 45 99
REMARK SMILES IDX 46 100 47 101 48 102
REMARK H PARENT 6 7 89 30 94 33 13 39 69 58 39 69
REMARK Flexibility Score: inf
ROOT
ATOM      1  C   UNL     1       5.534  -3.186   0.977  1.00  0.00     0.002 C 
ENDROOT
BRANCH   1   2
ATOM      2  C   UNL     1       4.289  -2.293   0.933  1.00  0.00     0.021 C 
BRANCH   2   3
ATOM      3  C   UNL     1       3.324  -2.551  -0.238  1.00  0.00     0.116 C 
BRANCH   3   4
ATOM      4  N   UNL     1       2.035  -3.006   0.254  1.00  0.00    -0.352 N 
ATOM      5  C   UNL     1       0.770  -2.502   0.358  1.00  0.00     0.251 C 
ATOM      6  O   UNL     1      -0.066  -3.298   0.807  1.00  0.00    -0.269 OA
ATOM      7  H   UNL     1       2.088  -3.923   0.607  1.00  0.00     0.163 HD
BRANCH   5   8
ATOM      8  C   UNL     1       0.275  -1.145  -0.054  1.00  0.00     0.044 A 
ATOM      9  C   UNL     1       2.303   0.281   0.601  1.00  0.00     0.047 C 
ATOM     10  C   UNL     1       0.913   0.108   0.067  1.00  0.00    -0.014 A 
ATOM     11  C   UNL     1       0.170   1.268  -0.291  1.00  0.00     0.049 A 
ATOM     12  C   UNL     1      -1.089  -1.163  -0.454  1.00  0.00     0.014 A 
ATOM     13  C   UNL     1      -1.174   1.222  -0.677  1.00  0.00     0.027 A 
ATOM     14  C   UNL     1      -1.809  -0.003  -0.747  1.00  0.00     0.003 A 
BRANCH  11  15
ATOM     15  N   UNL     1       0.729   2.561  -0.149  1.00  0.00    -0.318 N 
ATOM     16  C   UNL     1       1.418   3.243  -1.133  1.00  0.00     0.020 A 
ATOM     17  C   UNL     1       0.719   3.311   1.022  1.00  0.00     0.027 A 
ATOM     18  C   UNL     1       1.750   2.659  -2.460  1.00  0.00     0.065 C 
ATOM     19  C   UNL     1       1.739   4.483  -0.619  1.00  0.00     0.031 A 
ATOM     20  C   UNL     1       1.290   4.539   0.729  1.00  0.00    -0.003 A 
ATOM     21  C   UNL     1       0.207   2.727   2.300  1.00  0.00     0.065 C 
BRANCH  20  22
ATOM     22  C   UNL     1       1.593   5.629   1.603  1.00  0.00     0.029 C 
ATOM     23  C   UNL     1       0.924   6.176   2.635  1.00  0.00     0.102 C 
ATOM     24  C   UNL     1       1.659   7.206   3.417  1.00  0.00     0.262 C 
ATOM     25  C   UNL     1      -0.399   5.872   3.175  1.00  0.00     0.226 C 
ATOM     26  O   UNL     1       2.632   7.819   2.993  1.00  0.00    -0.269 OA
ATOM     27  N   UNL     1       1.146   7.419   4.669  1.00  0.00    -0.297 N 
ATOM     28  N   UNL     1      -0.853   6.198   4.328  1.00  0.00    -0.184 NA
ATOM     29  C   UNL     1      -0.036   6.920   5.161  1.00  0.00     0.203 C 
ATOM     30  H   UNL     1       1.677   7.984   5.276  1.00  0.00     0.172 HD
ATOM     31  S   UNL     1      -0.461   7.298   6.736  1.00  0.00    -0.038 S 
BRANCH  25  32
ATOM     32  O   UNL     1      -1.256   5.258   2.356  1.00  0.00    -0.493 OA
ATOM     33  H   UNL     1      -0.979   4.997   1.499  1.00  0.00     0.295 HD
ENDBRANCH  25  32
ENDBRANCH  20  22
ENDBRANCH  11  15
ENDBRANCH   5   8
ENDBRANCH   3   4
ENDBRANCH   2   3
ENDBRANCH   1   2
BRANCH   1  34
ATOM     34  C   UNL     1       6.415  -3.189  -0.281  1.00  0.00     0.002 C 
BRANCH  34  35
ATOM     35  C   UNL     1       6.767  -1.813  -0.844  1.00  0.00     0.021 C 
BRANCH  35  36
ATOM     36  C   UNL     1       7.780  -1.050   0.001  1.00  0.00     0.116 C 
BRANCH  36  37
ATOM     37  N   UNL     1       9.128  -1.117  -0.546  1.00  0.00    -0.352 N 
ATOM     38  C   UNL     1      10.162  -0.241  -0.253  1.00  0.00     0.251 C 
ATOM     39  H   UNL     1       9.322  -1.847  -1.178  1.00  0.00     0.163 HD
ATOM     40  O   UNL     1      11.050   0.056  -1.029  1.00  0.00    -0.269 OA
BRANCH  38  41
ATOM     41  C   UNL     1      10.220   0.197   1.156  1.00  0.00     0.039 A 
ATOM     42  C   UNL     1      11.105  -0.487   1.999  1.00  0.00     0.014 A 
ATOM     43  C   UNL     1       9.205   1.004   1.660  1.00  0.00     0.014 A 
ATOM     44  C   UNL     1      10.863  -0.502   3.367  1.00  0.00     0.010 A 
ATOM     45  C   UNL     1       8.914   0.912   3.005  1.00  0.00     0.010 A 
ATOM     46  C   UNL     1       9.710   0.117   3.845  1.00  0.00    -0.014 A 
BRANCH  46  47
ATOM     47  C   UNL     1       9.204  -0.048   5.199  1.00  0.00     0.031 A 
ATOM     48  C   UNL     1       9.363   1.057   6.169  1.00  0.00     0.074 A 
ATOM     49  C   UNL     1       8.472  -1.141   5.508  1.00  0.00     0.049 A 
ATOM     50  N   UNL     1       9.222   0.945   7.446  1.00  0.00    -0.248 NA
ATOM     51  C   UNL     1       9.773   2.396   5.754  1.00  0.00     0.031 C 
ATOM     52  C   UNL     1       7.593  -1.312   6.661  1.00  0.00     0.029 A 
ATOM     53  N   UNL     1       8.545  -2.420   4.949  1.00  0.00    -0.354 N 
ATOM     54  C   UNL     1       9.185   2.220   7.966  1.00  0.00     0.074 A 
ATOM     55  C   UNL     1       9.656   3.070   6.900  1.00  0.00     0.031 C 
ATOM     56  C   UNL     1       7.459  -2.625   6.905  1.00  0.00     0.029 A 
ATOM     57  C   UNL     1       8.380  -3.317   6.017  1.00  0.00     0.049 A 
ATOM     58  H   UNL     1       8.683  -2.645   4.000  1.00  0.00     0.167 HD
ATOM     59  C   UNL     1       8.601   2.427   9.182  1.00  0.00     0.031 A 
ATOM     60  C   UNL     1       9.342  -4.198   6.423  1.00  0.00     0.031 A 
ATOM     61  C   UNL     1       8.315   1.157   9.852  1.00  0.00     0.049 A 
ATOM     62  C   UNL     1       9.751  -3.990   7.869  1.00  0.00     0.074 A 
ATOM     63  C   UNL     1       7.157   0.419  10.035  1.00  0.00     0.029 A 
ATOM     64  N   UNL     1       9.373   0.317  10.182  1.00  0.00    -0.354 N 
ATOM     65  N   UNL     1       9.496  -2.905   8.548  1.00  0.00    -0.248 NA
ATOM     66  C   UNL     1      10.498  -4.969   8.654  1.00  0.00     0.031 C 
ATOM     67  C   UNL     1       7.537  -0.911  10.364  1.00  0.00     0.029 A 
ATOM     68  C   UNL     1       8.919  -0.966  10.423  1.00  0.00     0.049 A 
ATOM     69  H   UNL     1      10.316   0.597  10.236  1.00  0.00     0.167 HD
ATOM     70  C   UNL     1       9.998  -3.021   9.817  1.00  0.00     0.074 A 
ATOM     71  C   UNL     1      10.617  -4.335   9.835  1.00  0.00     0.031 C 
ATOM     72  C   UNL     1       9.864  -2.029  10.747  1.00  0.00     0.031 A 
BRANCH  59  73
ATOM     73  C   UNL     1       8.018   3.761   9.617  1.00  0.00    -0.014 A 
ATOM     74  C   UNL     1       7.020   3.795  10.615  1.00  0.00     0.010 A 
ATOM     75  C   UNL     1       8.324   5.001   9.024  1.00  0.00     0.010 A 
ATOM     76  C   UNL     1       6.310   4.968  10.928  1.00  0.00     0.020 A 
ATOM     77  C   UNL     1       7.613   6.177   9.308  1.00  0.00     0.020 A 
ATOM     78  C   UNL     1       6.594   6.150  10.248  1.00  0.00     0.054 A 
BRANCH  78  79
ATOM     79  S   UNL     1       5.619   7.638  10.586  1.00  0.00     0.124 S 
ATOM     80  O   UNL     1       4.267   7.213  10.232  1.00  0.00    -0.237 OA
ATOM     81  O   UNL     1       5.862   7.859  12.008  1.00  0.00    -0.237 OA
ATOM     82  O   UNL     1       6.198   8.643   9.696  1.00  0.00    -0.744 OA
ENDBRANCH  78  79
ENDBRANCH  59  73
BRANCH  60  83
ATOM     83  C   UNL     1      10.239  -4.674   5.331  1.00  0.00    -0.014 A 
ATOM     84  C   UNL     1       9.674  -5.528   4.359  1.00  0.00     0.010 A 
ATOM     85  C   UNL     1      11.407  -3.961   5.009  1.00  0.00     0.010 A 
ATOM     86  C   UNL     1      10.145  -5.520   3.043  1.00  0.00     0.020 A 
ATOM     87  C   UNL     1      11.886  -3.958   3.689  1.00  0.00     0.020 A 
ATOM     88  C   UNL     1      11.201  -4.675   2.703  1.00  0.00     0.054 A 
BRANCH  88  89
ATOM     89  S   UNL     1      11.533  -4.384   0.936  1.00  0.00     0.124 S 
ATOM     90  O   UNL     1      11.775  -5.733   0.436  1.00  0.00    -0.237 OA
ATOM     91  O   UNL     1      10.289  -3.757   0.486  1.00  0.00    -0.237 OA
ATOM     92  O   UNL     1      12.694  -3.501   0.956  1.00  0.00    -0.744 OA
ENDBRANCH  88  89
ENDBRANCH  60  83
BRANCH  72  93
ATOM     93  C   UNL     1      10.548  -1.980  12.093  1.00  0.00    -0.014 A 
ATOM     94  C   UNL     1      11.750  -2.641  12.390  1.00  0.00     0.010 A 
ATOM     95  C   UNL     1      10.034  -1.109  13.084  1.00  0.00     0.010 A 
ATOM     96  C   UNL     1      12.376  -2.487  13.637  1.00  0.00     0.020 A 
ATOM     97  C   UNL     1      10.673  -0.912  14.311  1.00  0.00     0.020 A 
ATOM     98  C   UNL     1      11.832  -1.625  14.590  1.00  0.00     0.054 A 
BRANCH  98  99
ATOM     99  S   UNL     1      12.683  -1.376  16.169  1.00  0.00     0.124 S 
ATOM    100  O   UNL     1      12.114  -2.442  16.988  1.00  0.00    -0.237 OA
ATOM    101  O   UNL     1      14.091  -1.544  15.813  1.00  0.00    -0.237 OA
ATOM    102  O   UNL     1      12.303  -0.019  16.550  1.00  0.00    -0.744 OA
ENDBRANCH  98  99
ENDBRANCH  72  93
ENDBRANCH  46  47
ENDBRANCH  38  41
ENDBRANCH  36  37
ENDBRANCH  35  36
ENDBRANCH  34  35
ENDBRANCH   1  34
TORSDOF 19
