REMARK SMILES CN1C(=O)C[C@@H](C(=O)NCCCCCCNC(=O)c2ccc(-c3c4nc(c(-c5ccc(S(=O)(=O)[O-])cc5)c5ccc([nH]5)c(-c5ccc(S(=O)(=O)[O-])cc5)c5nc(c(-c6ccc(S(=O)(=O)[O-])cc6)c6ccc3[nH]6)C=C5)C=C4)cc2)C12CCN(C(=O)c1cccc3ccccc13)CC2
REMARK SMILES IDX 13 1 12 2 11 3 10 4 9 5 7 6 8 7 6 9 1 10 2 11 3 12 79 13
REMARK SMILES IDX 4 14 5 15 80 16 96 17 81 18 95 19 82 20 83 21 84 22 85 23
REMARK SMILES IDX 86 24 94 25 87 26 89 27 93 28 88 29 90 30 92 31 91 32 14 33
REMARK SMILES IDX 15 34 16 35 17 36 18 38 19 39 20 40 78 41 21 42 77 43 22 44
REMARK SMILES IDX 23 45 24 46 71 47 25 48 76 49 70 50 72 51 26 52 75 53 69 54
REMARK SMILES IDX 68 55 27 57 57 58 38 59 56 60 39 61 42 62 55 63 73 64 40 65
REMARK SMILES IDX 41 66 54 68 74 69 43 70 28 71 29 72 37 73 30 74 36 75 31 76
REMARK SMILES IDX 32 77 33 78 34 79 35 80 58 81 59 82 67 83 60 84 66 85 61 86
REMARK SMILES IDX 62 87 63 88 64 89 65 90 44 91 45 92 53 93 46 94 52 95 47 96
REMARK SMILES IDX 48 97 49 98 50 99 51 100
REMARK H PARENT 9 8 16 37 72 56 42 67
REMARK Flexibility Score: inf
ROOT
ATOM      1  C   UNL     1      -2.443   3.535   4.097  1.00  0.00     0.002 C 
ENDROOT
BRANCH   1   2
ATOM      2  C   UNL     1      -2.961   2.642   2.972  1.00  0.00     0.002 C 
BRANCH   2   3
ATOM      3  C   UNL     1      -1.872   1.861   2.243  1.00  0.00     0.021 C 
BRANCH   3   4
ATOM      4  C   UNL     1      -1.076   0.890   3.124  1.00  0.00     0.116 C 
BRANCH   4   5
ATOM      5  N   UNL     1      -1.844  -0.269   3.547  1.00  0.00    -0.356 N 
ATOM      6  C   UNL     1      -1.677  -1.604   3.377  1.00  0.00     0.226 C 
ATOM      7  O   UNL     1      -2.525  -2.329   3.913  1.00  0.00    -0.275 OA
ATOM      8  H   UNL     1      -2.650  -0.037   4.062  1.00  0.00     0.163 HD
BRANCH   6   9
ATOM      9  C   UNL     1      -0.558  -2.267   2.564  1.00  0.00     0.113 C 
ATOM     10  C   UNL     1       1.086  -0.148  -0.047  1.00  0.00     0.147 C 
ATOM     11  N   UNL     1       0.739  -1.036   1.048  1.00  0.00    -0.339 N 
ATOM     12  C   UNL     1       1.502  -1.102   2.206  1.00  0.00     0.223 C 
ATOM     13  C   UNL     1      -0.433  -1.926   1.059  1.00  0.00     0.058 C 
ATOM     14  O   UNL     1       2.530  -0.494   2.437  1.00  0.00    -0.275 OA
ATOM     15  C   UNL     1       0.822  -2.026   3.175  1.00  0.00     0.116 C 
ATOM     16  C   UNL     1      -1.704  -1.294   0.468  1.00  0.00     0.051 C 
ATOM     17  C   UNL     1      -0.093  -3.179   0.196  1.00  0.00     0.051 C 
ATOM     18  C   UNL     1      -2.870  -2.275   0.385  1.00  0.00     0.122 C 
ATOM     19  C   UNL     1      -1.300  -4.081  -0.091  1.00  0.00     0.122 C 
ATOM     20  N   UNL     1      -2.468  -3.314  -0.531  1.00  0.00    -0.338 N 
ATOM     21  C   UNL     1      -2.989  -3.500  -1.807  1.00  0.00     0.254 C 
ATOM     22  O   UNL     1      -2.424  -4.205  -2.644  1.00  0.00    -0.269 OA
BRANCH  21  23
ATOM     23  C   UNL     1      -4.346  -3.003  -2.180  1.00  0.00     0.047 A 
ATOM     24  C   UNL     1      -5.285  -4.040  -2.324  1.00  0.00     0.014 A 
ATOM     25  C   UNL     1      -4.663  -1.678  -2.608  1.00  0.00    -0.006 A 
ATOM     26  C   UNL     1      -6.501  -3.812  -2.955  1.00  0.00     0.001 A 
ATOM     27  C   UNL     1      -5.893  -1.482  -3.292  1.00  0.00    -0.018 A 
ATOM     28  C   UNL     1      -3.865  -0.526  -2.409  1.00  0.00     0.009 A 
ATOM     29  C   UNL     1      -6.780  -2.553  -3.473  1.00  0.00     0.009 A 
ATOM     30  C   UNL     1      -6.237  -0.217  -3.798  1.00  0.00     0.009 A 
ATOM     31  C   UNL     1      -4.275   0.749  -2.815  1.00  0.00     0.001 A 
ATOM     32  C   UNL     1      -5.446   0.898  -3.541  1.00  0.00     0.001 A 
ENDBRANCH  21  23
ENDBRANCH   6   9
ENDBRANCH   4   5
ENDBRANCH   3   4
ENDBRANCH   2   3
ENDBRANCH   1   2
BRANCH   1  33
ATOM     33  C   UNL     1      -1.280   4.448   3.701  1.00  0.00     0.021 C 
BRANCH  33  34
ATOM     34  C   UNL     1      -1.546   5.320   2.478  1.00  0.00     0.116 C 
BRANCH  34  35
ATOM     35  N   UNL     1      -2.669   6.216   2.691  1.00  0.00    -0.352 N 
ATOM     36  C   UNL     1      -2.694   7.585   2.623  1.00  0.00     0.251 C 
ATOM     37  H   UNL     1      -3.525   5.783   2.914  1.00  0.00     0.163 HD
ATOM     38  O   UNL     1      -3.655   8.210   3.057  1.00  0.00    -0.269 OA
BRANCH  36  39
ATOM     39  C   UNL     1      -1.542   8.294   2.030  1.00  0.00     0.039 A 
ATOM     40  C   UNL     1      -0.993   9.384   2.707  1.00  0.00     0.014 A 
ATOM     41  C   UNL     1      -1.000   7.867   0.814  1.00  0.00     0.014 A 
ATOM     42  C   UNL     1       0.135  10.019   2.184  1.00  0.00     0.010 A 
ATOM     43  C   UNL     1       0.166   8.452   0.335  1.00  0.00     0.010 A 
ATOM     44  C   UNL     1       0.740   9.541   1.010  1.00  0.00    -0.014 A 
BRANCH  44  45
ATOM     45  C   UNL     1       1.964  10.175   0.458  1.00  0.00     0.031 A 
ATOM     46  C   UNL     1       1.921  10.834  -0.895  1.00  0.00     0.074 A 
ATOM     47  C   UNL     1       3.121  10.109   1.145  1.00  0.00     0.049 A 
ATOM     48  N   UNL     1       2.895  11.375  -1.579  1.00  0.00    -0.248 NA
ATOM     49  C   UNL     1       0.617  10.867  -1.580  1.00  0.00     0.031 C 
ATOM     50  C   UNL     1       3.296   9.473   2.454  1.00  0.00     0.029 A 
ATOM     51  N   UNL     1       4.374  10.577   0.836  1.00  0.00    -0.354 N 
ATOM     52  C   UNL     1       2.328  11.799  -2.775  1.00  0.00     0.074 A 
ATOM     53  C   UNL     1       0.937  11.404  -2.748  1.00  0.00     0.031 C 
ATOM     54  C   UNL     1       4.574   9.614   2.844  1.00  0.00     0.029 A 
ATOM     55  C   UNL     1       5.319  10.306   1.798  1.00  0.00     0.049 A 
ATOM     56  H   UNL     1       4.577  11.062   0.004  1.00  0.00     0.167 HD
ATOM     57  C   UNL     1       2.906  12.476  -3.795  1.00  0.00     0.031 A 
ATOM     58  C   UNL     1       6.640  10.573   1.828  1.00  0.00     0.031 A 
ATOM     59  C   UNL     1       4.288  12.876  -3.812  1.00  0.00     0.049 A 
ATOM     60  C   UNL     1       7.265  11.299   0.667  1.00  0.00     0.074 A 
ATOM     61  C   UNL     1       4.960  13.603  -4.779  1.00  0.00     0.029 A 
ATOM     62  N   UNL     1       5.210  12.584  -2.818  1.00  0.00    -0.354 N 
ATOM     63  N   UNL     1       6.699  11.741  -0.430  1.00  0.00    -0.248 NA
ATOM     64  C   UNL     1       8.707  11.572   0.753  1.00  0.00     0.031 C 
ATOM     65  C   UNL     1       6.301  13.701  -4.397  1.00  0.00     0.029 A 
ATOM     66  C   UNL     1       6.449  13.097  -3.159  1.00  0.00     0.049 A 
ATOM     67  H   UNL     1       5.012  12.086  -1.992  1.00  0.00     0.167 HD
ATOM     68  C   UNL     1       7.707  12.377  -1.147  1.00  0.00     0.074 A 
ATOM     69  C   UNL     1       8.914  12.273  -0.353  1.00  0.00     0.031 C 
ATOM     70  C   UNL     1       7.639  12.995  -2.352  1.00  0.00     0.031 A 
BRANCH  57  71
ATOM     71  C   UNL     1       2.046  12.830  -4.980  1.00  0.00    -0.014 A 
ATOM     72  C   UNL     1       1.023  13.790  -4.874  1.00  0.00     0.010 A 
ATOM     73  C   UNL     1       2.301  12.239  -6.231  1.00  0.00     0.010 A 
ATOM     74  C   UNL     1       0.249  14.126  -5.987  1.00  0.00     0.020 A 
ATOM     75  C   UNL     1       1.550  12.596  -7.355  1.00  0.00     0.020 A 
ATOM     76  C   UNL     1       0.519  13.528  -7.222  1.00  0.00     0.054 A 
BRANCH  76  77
ATOM     77  S   UNL     1      -0.476  14.016  -8.657  1.00  0.00     0.124 S 
ATOM     78  O   UNL     1      -1.770  13.412  -8.346  1.00  0.00    -0.237 OA
ATOM     79  O   UNL     1      -0.433  15.475  -8.594  1.00  0.00    -0.237 OA
ATOM     80  O   UNL     1       0.231  13.422  -9.789  1.00  0.00    -0.744 OA
ENDBRANCH  76  77
ENDBRANCH  57  71
BRANCH  58  81
ATOM     81  C   UNL     1       7.463  10.157   2.999  1.00  0.00    -0.014 A 
ATOM     82  C   UNL     1       8.024  11.118   3.857  1.00  0.00     0.010 A 
ATOM     83  C   UNL     1       7.701   8.793   3.254  1.00  0.00     0.010 A 
ATOM     84  C   UNL     1       8.833  10.728   4.928  1.00  0.00     0.020 A 
ATOM     85  C   UNL     1       8.482   8.397   4.344  1.00  0.00     0.020 A 
ATOM     86  C   UNL     1       9.057   9.369   5.164  1.00  0.00     0.054 A 
BRANCH  86  87
ATOM     87  S   UNL     1      10.091   8.885   6.575  1.00  0.00     0.124 S 
ATOM     88  O   UNL     1      11.423   9.271   6.122  1.00  0.00    -0.237 OA
ATOM     89  O   UNL     1       9.534   9.686   7.662  1.00  0.00    -0.237 OA
ATOM     90  O   UNL     1       9.860   7.447   6.690  1.00  0.00    -0.744 OA
ENDBRANCH  86  87
ENDBRANCH  58  81
BRANCH  70  91
ATOM     91  C   UNL     1       8.889  13.657  -2.869  1.00  0.00    -0.014 A 
ATOM     92  C   UNL     1       9.983  12.904  -3.329  1.00  0.00     0.010 A 
ATOM     93  C   UNL     1       8.937  15.061  -2.961  1.00  0.00     0.010 A 
ATOM     94  C   UNL     1      11.113  13.543  -3.846  1.00  0.00     0.020 A 
ATOM     95  C   UNL     1      10.051  15.703  -3.506  1.00  0.00     0.020 A 
ATOM     96  C   UNL     1      11.137  14.939  -3.935  1.00  0.00     0.054 A 
BRANCH  96  97
ATOM     97  S   UNL     1      12.592  15.741  -4.664  1.00  0.00     0.124 S 
ATOM     98  O   UNL     1      13.598  15.551  -3.623  1.00  0.00    -0.237 OA
ATOM     99  O   UNL     1      12.800  14.972  -5.888  1.00  0.00    -0.237 OA
ATOM    100  O   UNL     1      12.161  17.122  -4.869  1.00  0.00    -0.744 OA
ENDBRANCH  96  97
ENDBRANCH  70  91
ENDBRANCH  44  45
ENDBRANCH  36  39
ENDBRANCH  34  35
ENDBRANCH  33  34
ENDBRANCH   1  33
TORSDOF 17
