REMARK SMILES COc1cccc([C@H]2C=C(C(=O)NCCCCCCNC(=O)c3ccc(-c4c5nc(c(-c6ccc(S(=O)(=O)[O-])cc6)c6ccc([nH]6)c(-c6ccc(S(=O)(=O)[O-])cc6)c6nc(c(-c7ccc(S(=O)(=O)[O-])cc7)c7ccc4[nH]7)C=C6)C=C5)cc3)Nc3nnnn32)c1OC
REMARK SMILES IDX 17 1 16 2 15 3 14 4 13 5 11 6 12 7 10 9 8 10 9 11 88 12
REMARK SMILES IDX 84 13 87 14 83 15 85 16 86 17 7 19 3 20 4 21 89 22 5 23 6 24
REMARK SMILES IDX 2 25 1 26 90 27 91 28 18 29 19 30 20 31 21 32 22 34 23 35
REMARK SMILES IDX 24 36 82 37 25 38 81 39 26 40 27 41 28 42 75 43 29 44 80 45
REMARK SMILES IDX 74 46 76 47 30 48 79 49 73 50 72 51 31 53 61 54 42 55 60 56
REMARK SMILES IDX 43 57 46 58 59 59 77 60 44 61 45 62 58 64 78 65 47 66 32 67
REMARK SMILES IDX 33 68 41 69 34 70 40 71 35 72 36 73 37 74 38 75 39 76 62 77
REMARK SMILES IDX 63 78 71 79 64 80 70 81 65 82 66 83 67 84 68 85 69 86 48 87
REMARK SMILES IDX 49 88 57 89 50 90 56 91 51 92 52 93 53 94 54 95 55 96
REMARK H PARENT 13 8 83 18 20 33 76 52 46 63
REMARK Flexibility Score: inf
ROOT
ATOM      1  C   UNL     1       5.357  -6.917  -3.993  1.00  0.00     0.002 C 
ENDROOT
BRANCH   1   2
ATOM      2  C   UNL     1       6.415  -6.090  -4.726  1.00  0.00     0.002 C 
BRANCH   2   3
ATOM      3  C   UNL     1       5.967  -4.723  -5.235  1.00  0.00     0.021 C 
BRANCH   3   4
ATOM      4  C   UNL     1       5.319  -3.803  -4.212  1.00  0.00     0.116 C 
BRANCH   4   5
ATOM      5  N   UNL     1       6.212  -3.369  -3.155  1.00  0.00    -0.351 N 
ATOM      6  C   UNL     1       6.381  -2.155  -2.560  1.00  0.00     0.267 C 
ATOM      7  O   UNL     1       7.259  -2.036  -1.701  1.00  0.00    -0.268 OA
ATOM      8  H   UNL     1       6.800  -4.077  -2.806  1.00  0.00     0.163 HD
BRANCH   6   9
ATOM      9  C   UNL     1       5.605  -0.927  -2.970  1.00  0.00     0.105 C 
ATOM     10  C   UNL     1       3.776   0.349  -4.089  1.00  0.00     0.172 C 
ATOM     11  C   UNL     1       4.385  -0.938  -3.544  1.00  0.00     0.037 C 
ATOM     12  N   UNL     1       4.276   1.471  -3.304  1.00  0.00    -0.200 N 
ATOM     13  C   UNL     1       5.461   1.444  -2.618  1.00  0.00     0.248 A 
ATOM     14  N   UNL     1       3.600   2.599  -3.034  1.00  0.00    -0.043 NA
ATOM     15  N   UNL     1       6.171   0.296  -2.602  1.00  0.00    -0.319 N 
ATOM     16  N   UNL     1       5.609   2.607  -2.029  1.00  0.00    -0.090 NA
ATOM     17  N   UNL     1       4.443   3.311  -2.290  1.00  0.00    -0.022 NA
ATOM     18  H   UNL     1       7.115   0.321  -2.324  1.00  0.00     0.170 HD
BRANCH  10  19
ATOM     19  C   UNL     1       4.003   0.454  -5.616  1.00  0.00     0.027 A 
ATOM     20  C   UNL     1       4.643   1.616  -7.674  1.00  0.00     0.161 A 
ATOM     21  C   UNL     1       4.120   0.574  -8.442  1.00  0.00     0.050 A 
ATOM     22  C   UNL     1       4.643   1.539  -6.268  1.00  0.00     0.166 A 
ATOM     23  C   UNL     1       3.578  -0.544  -7.819  1.00  0.00     0.004 A 
ATOM     24  C   UNL     1       3.485  -0.586  -6.427  1.00  0.00     0.010 A 
BRANCH  20  25
ATOM     25  O   UNL     1       4.982   2.762  -8.344  1.00  0.00    -0.493 OA
ATOM     26  C   UNL     1       6.359   2.829  -8.693  1.00  0.00     0.278 C 
ENDBRANCH  20  25
BRANCH  22  27
ATOM     27  O   UNL     1       5.364   2.379  -5.468  1.00  0.00    -0.492 OA
ATOM     28  C   UNL     1       5.379   3.769  -5.752  1.00  0.00     0.278 C 
ENDBRANCH  22  27
ENDBRANCH  10  19
ENDBRANCH   6   9
ENDBRANCH   4   5
ENDBRANCH   3   4
ENDBRANCH   2   3
ENDBRANCH   1   2
BRANCH   1  29
ATOM     29  C   UNL     1       4.018  -7.093  -4.714  1.00  0.00     0.021 C 
BRANCH  29  30
ATOM     30  C   UNL     1       4.100  -7.635  -6.137  1.00  0.00     0.116 C 
BRANCH  30  31
ATOM     31  N   UNL     1       4.724  -8.944  -6.200  1.00  0.00    -0.352 N 
ATOM     32  C   UNL     1       4.258 -10.103  -6.767  1.00  0.00     0.251 C 
ATOM     33  H   UNL     1       5.609  -9.011  -5.774  1.00  0.00     0.163 HD
ATOM     34  O   UNL     1       4.853 -11.162  -6.569  1.00  0.00    -0.269 OA
BRANCH  32  35
ATOM     35  C   UNL     1       3.032 -10.086  -7.595  1.00  0.00     0.039 A 
ATOM     36  C   UNL     1       2.077 -11.087  -7.407  1.00  0.00     0.014 A 
ATOM     37  C   UNL     1       2.826  -9.092  -8.557  1.00  0.00     0.014 A 
ATOM     38  C   UNL     1       0.890 -11.059  -8.143  1.00  0.00     0.010 A 
ATOM     39  C   UNL     1       1.611  -9.024  -9.235  1.00  0.00     0.010 A 
ATOM     40  C   UNL     1       0.631 -10.008  -9.038  1.00  0.00    -0.014 A 
BRANCH  40  41
ATOM     41  C   UNL     1      -0.658  -9.924  -9.774  1.00  0.00     0.031 A 
ATOM     42  C   UNL     1      -0.682 -10.009 -11.277  1.00  0.00     0.074 A 
ATOM     43  C   UNL     1      -1.802  -9.716  -9.092  1.00  0.00     0.049 A 
ATOM     44  N   UNL     1      -1.700  -9.907 -12.092  1.00  0.00    -0.248 NA
ATOM     45  C   UNL     1       0.610 -10.213 -11.954  1.00  0.00     0.031 C 
ATOM     46  C   UNL     1      -1.909  -9.581  -7.636  1.00  0.00     0.029 A 
ATOM     47  N   UNL     1      -3.096  -9.578  -9.531  1.00  0.00    -0.354 N 
ATOM     48  C   UNL     1      -1.174 -10.021 -13.373  1.00  0.00     0.074 A 
ATOM     49  C   UNL     1       0.260 -10.146 -13.231  1.00  0.00     0.031 C 
ATOM     50  C   UNL     1      -3.198  -9.409  -7.303  1.00  0.00     0.029 A 
ATOM     51  C   UNL     1      -4.005  -9.375  -8.519  1.00  0.00     0.049 A 
ATOM     52  H   UNL     1      -3.349  -9.620 -10.481  1.00  0.00     0.167 HD
ATOM     53  C   UNL     1      -1.826 -10.039 -14.561  1.00  0.00     0.031 A 
ATOM     54  C   UNL     1      -5.337  -9.175  -8.562  1.00  0.00     0.031 A 
ATOM     55  C   UNL     1      -3.254  -9.921 -14.698  1.00  0.00     0.049 A 
ATOM     56  C   UNL     1      -6.035  -9.175  -9.895  1.00  0.00     0.074 A 
ATOM     57  C   UNL     1      -4.013  -9.979 -15.854  1.00  0.00     0.029 A 
ATOM     58  N   UNL     1      -4.137  -9.716 -13.649  1.00  0.00    -0.354 N 
ATOM     59  N   UNL     1      -5.525  -9.348 -11.091  1.00  0.00    -0.248 NA
ATOM     60  C   UNL     1      -7.489  -8.965  -9.882  1.00  0.00     0.031 C 
ATOM     61  C   UNL     1      -5.349  -9.748 -15.510  1.00  0.00     0.029 A 
ATOM     62  C   UNL     1      -5.431  -9.617 -14.133  1.00  0.00     0.049 A 
ATOM     63  H   UNL     1      -3.883  -9.652 -12.700  1.00  0.00     0.167 HD
ATOM     64  C   UNL     1      -6.602  -9.299 -11.971  1.00  0.00     0.074 A 
ATOM     65  C   UNL     1      -7.789  -9.096 -11.167  1.00  0.00     0.031 C 
ATOM     66  C   UNL     1      -6.606  -9.414 -13.322  1.00  0.00     0.031 A 
BRANCH  53  67
ATOM     67  C   UNL     1      -0.998 -10.186 -15.812  1.00  0.00    -0.014 A 
ATOM     68  C   UNL     1      -0.332 -11.390 -16.108  1.00  0.00     0.010 A 
ATOM     69  C   UNL     1      -0.923  -9.122 -16.730  1.00  0.00     0.010 A 
ATOM     70  C   UNL     1       0.424 -11.512 -17.277  1.00  0.00     0.020 A 
ATOM     71  C   UNL     1      -0.194  -9.252 -17.916  1.00  0.00     0.020 A 
ATOM     72  C   UNL     1       0.489 -10.441 -18.173  1.00  0.00     0.054 A 
BRANCH  72  73
ATOM     73  S   UNL     1       1.456 -10.640 -19.694  1.00  0.00     0.124 S 
ATOM     74  O   UNL     1       2.825 -10.635 -19.183  1.00  0.00    -0.237 OA
ATOM     75  O   UNL     1       0.983 -11.922 -20.209  1.00  0.00    -0.237 OA
ATOM     76  O   UNL     1       1.088  -9.475 -20.495  1.00  0.00    -0.744 OA
ENDBRANCH  72  73
ENDBRANCH  53  67
BRANCH  54  77
ATOM     77  C   UNL     1      -6.099  -8.963  -7.300  1.00  0.00    -0.014 A 
ATOM     78  C   UNL     1      -7.009  -9.932  -6.840  1.00  0.00     0.010 A 
ATOM     79  C   UNL     1      -5.916  -7.789  -6.546  1.00  0.00     0.010 A 
ATOM     80  C   UNL     1      -7.735  -9.722  -5.665  1.00  0.00     0.020 A 
ATOM     81  C   UNL     1      -6.616  -7.589  -5.354  1.00  0.00     0.020 A 
ATOM     82  C   UNL     1      -7.532  -8.552  -4.927  1.00  0.00     0.054 A 
BRANCH  82  83
ATOM     83  S   UNL     1      -8.452  -8.322  -3.380  1.00  0.00     0.124 S 
ATOM     84  O   UNL     1      -9.803  -8.060  -3.867  1.00  0.00    -0.237 OA
ATOM     85  O   UNL     1      -8.257  -9.602  -2.705  1.00  0.00    -0.237 OA
ATOM     86  O   UNL     1      -7.781  -7.186  -2.751  1.00  0.00    -0.744 OA
ENDBRANCH  82  83
ENDBRANCH  54  77
BRANCH  66  87
ATOM     87  C   UNL     1      -7.939  -9.363 -14.021  1.00  0.00    -0.014 A 
ATOM     88  C   UNL     1      -8.672  -8.166 -14.115  1.00  0.00     0.010 A 
ATOM     89  C   UNL     1      -8.439 -10.522 -14.642  1.00  0.00     0.010 A 
ATOM     90  C   UNL     1      -9.896  -8.139 -14.789  1.00  0.00     0.020 A 
ATOM     91  C   UNL     1      -9.646 -10.491 -15.345  1.00  0.00     0.020 A 
ATOM     92  C   UNL     1     -10.374  -9.302 -15.402  1.00  0.00     0.054 A 
BRANCH  92  93
ATOM     93  S   UNL     1     -11.942  -9.227 -16.310  1.00  0.00     0.124 S 
ATOM     94  O   UNL     1     -12.915  -9.114 -15.227  1.00  0.00    -0.237 OA
ATOM     95  O   UNL     1     -11.777  -8.033 -17.135  1.00  0.00    -0.237 OA
ATOM     96  O   UNL     1     -11.976 -10.488 -17.048  1.00  0.00    -0.744 OA
ENDBRANCH  92  93
ENDBRANCH  66  87
ENDBRANCH  40  41
ENDBRANCH  32  35
ENDBRANCH  30  31
ENDBRANCH  29  30
ENDBRANCH   1  29
TORSDOF 19
