REMARK SMILES NC(=O)c1cc(NC(=O)/C=C\C(=O)NCCCCCCNC(=O)c2ccc(-c3c4nc(c(-c5ccc(S(=O)(=O)[O-])cc5)c5ccc([nH]5)c(-c5ccc(S(=O)(=O)[O-])cc5)c5nc(c(-c6ccc(S(=O)(=O)[O-])cc6)c6ccc3[nH]6)C=C5)C=C4)cc2)ccc1N1CCOCC1
REMARK SMILES IDX 17 1 16 2 15 3 14 4 12 5 13 6 11 8 10 9 8 10 7 11 9 13 6 14
REMARK SMILES IDX 4 15 5 16 86 17 85 18 84 19 2 20 1 21 3 24 87 25 88 26 92 27
REMARK SMILES IDX 89 28 91 29 90 30 18 31 19 32 20 33 21 34 22 35 23 37 24 38
REMARK SMILES IDX 25 39 83 40 26 41 82 42 27 43 28 44 29 45 76 46 30 47 81 48
REMARK SMILES IDX 75 49 77 50 31 51 80 52 74 53 73 54 32 56 62 57 43 58 61 59
REMARK SMILES IDX 44 60 47 61 60 62 78 63 45 64 46 65 59 67 79 68 48 69 33 70
REMARK SMILES IDX 34 71 42 72 35 73 41 74 36 75 37 76 38 77 39 78 40 79 63 80
REMARK SMILES IDX 64 81 72 82 65 83 71 84 66 85 67 86 68 87 69 88 70 89 49 90
REMARK SMILES IDX 50 91 58 92 51 93 57 94 52 95 53 96 54 97 55 98 56 99
REMARK H PARENT 14 7 7 12 1 22 1 23 21 36 77 55 47 66
REMARK Flexibility Score: inf
ROOT
ATOM      1  C   UNL     1       2.384  -2.266   7.379  1.00  0.00     0.002 C 
ENDROOT
BRANCH   1   2
ATOM      2  C   UNL     1       0.993  -2.511   6.809  1.00  0.00     0.021 C 
BRANCH   2   3
ATOM      3  C   UNL     1       0.465  -1.391   5.866  1.00  0.00     0.116 C 
BRANCH   3   4
ATOM      4  N   UNL     1       1.213  -1.190   4.351  1.00  0.00    -0.353 N 
ATOM      5  C   UNL     1       1.323  -1.978   2.545  1.00  0.00     0.244 C 
ATOM      6  O   UNL     1       2.104  -1.728   1.584  1.00  0.00    -0.270 OA
ATOM      7  H   UNL     1       1.798  -0.399   4.388  1.00  0.00     0.163 HD
BRANCH   5   8
ATOM      8  C   UNL     1       0.238  -3.100   1.768  1.00  0.00     0.077 C 
ATOM      9  C   UNL     1      -0.488  -4.199   2.074  1.00  0.00     0.077 C 
BRANCH   9  10
ATOM     10  C   UNL     1      -0.474  -4.937   3.367  1.00  0.00     0.248 C 
ATOM     11  N   UNL     1       0.404  -4.442   4.272  1.00  0.00    -0.322 N 
ATOM     12  H   UNL     1       0.769  -5.011   4.988  1.00  0.00     0.170 HD
ATOM     13  O   UNL     1      -1.095  -5.979   3.520  1.00  0.00    -0.270 OA
BRANCH  11  14
ATOM     14  C   UNL     1       0.769  -3.115   4.162  1.00  0.00     0.042 A 
ATOM     15  C   UNL     1       0.081  -0.279   2.916  1.00  0.00     0.064 A 
ATOM     16  C   UNL     1      -0.498  -1.866   3.604  1.00  0.00     0.042 A 
ATOM     17  C   UNL     1       1.860   0.127   2.855  1.00  0.00     0.050 A 
ATOM     18  C   UNL     1       3.080  -1.086   3.509  1.00  0.00     0.029 A 
ATOM     19  C   UNL     1       2.545  -2.707   4.123  1.00  0.00     0.028 A 
BRANCH  15  20
ATOM     20  C   UNL     1      -0.803   0.154   1.817  1.00  0.00     0.250 C 
ATOM     21  N   UNL     1      -0.225   0.021   0.586  1.00  0.00    -0.366 N 
ATOM     22  H   UNL     1      -0.724   0.280  -0.222  1.00  0.00     0.159 HD
ATOM     23  H   UNL     1       0.690  -0.334   0.508  1.00  0.00     0.159 HD
ATOM     24  O   UNL     1      -1.976   0.443   1.982  1.00  0.00    -0.269 OA
ENDBRANCH  15  20
BRANCH  17  25
ATOM     25  N   UNL     1       2.362   1.211   2.117  1.00  0.00    -0.366 N 
ATOM     26  C   UNL     1       1.591   2.370   1.621  1.00  0.00     0.145 C 
ATOM     27  C   UNL     1       3.737   1.165   1.589  1.00  0.00     0.145 C 
ATOM     28  C   UNL     1       1.736   2.534   0.083  1.00  0.00     0.181 C 
ATOM     29  C   UNL     1       3.717   1.271   0.059  1.00  0.00     0.181 C 
ATOM     30  O   UNL     1       3.106   2.502  -0.354  1.00  0.00    -0.378 OA
ENDBRANCH  17  25
ENDBRANCH  11  14
ENDBRANCH   9  10
ENDBRANCH   5   8
ENDBRANCH   3   4
ENDBRANCH   2   3
ENDBRANCH   1   2
BRANCH   1  31
ATOM     31  C   UNL     1       2.312  -1.530   8.711  1.00  0.00     0.002 C 
BRANCH  31  32
ATOM     32  C   UNL     1       1.596  -2.316   9.817  1.00  0.00     0.021 C 
BRANCH  32  33
ATOM     33  C   UNL     1       2.189  -3.697  10.066  1.00  0.00     0.116 C 
BRANCH  33  34
ATOM     34  N   UNL     1       3.575  -3.571  10.489  1.00  0.00    -0.352 N 
ATOM     35  C   UNL     1       4.065  -3.793  11.750  1.00  0.00     0.251 C 
ATOM     36  H   UNL     1       4.225  -3.301   9.802  1.00  0.00     0.163 HD
ATOM     37  O   UNL     1       5.091  -3.246  12.133  1.00  0.00    -0.269 OA
BRANCH  35  38
ATOM     38  C   UNL     1       3.324  -4.728  12.615  1.00  0.00     0.039 A 
ATOM     39  C   UNL     1       3.114  -4.415  13.955  1.00  0.00     0.014 A 
ATOM     40  C   UNL     1       2.826  -5.915  12.064  1.00  0.00     0.014 A 
ATOM     41  C   UNL     1       2.398  -5.308  14.749  1.00  0.00     0.010 A 
ATOM     42  C   UNL     1       2.023  -6.745  12.829  1.00  0.00     0.010 A 
ATOM     43  C   UNL     1       1.844  -6.475  14.190  1.00  0.00    -0.014 A 
BRANCH  43  44
ATOM     44  C   UNL     1       1.137  -7.459  15.041  1.00  0.00     0.031 A 
ATOM     45  C   UNL     1       1.696  -8.849  15.191  1.00  0.00     0.074 A 
ATOM     46  C   UNL     1       0.002  -7.101  15.668  1.00  0.00     0.049 A 
ATOM     47  N   UNL     1       1.251  -9.839  15.921  1.00  0.00    -0.248 NA
ATOM     48  C   UNL     1       2.897  -9.184  14.404  1.00  0.00     0.031 C 
ATOM     49  C   UNL     1      -0.651  -5.793  15.558  1.00  0.00     0.029 A 
ATOM     50  N   UNL     1      -0.796  -7.799  16.536  1.00  0.00    -0.354 N 
ATOM     51  C   UNL     1       2.108 -10.905  15.674  1.00  0.00     0.074 A 
ATOM     52  C   UNL     1       3.054 -10.470  14.674  1.00  0.00     0.031 C 
ATOM     53  C   UNL     1      -1.717  -5.766  16.372  1.00  0.00     0.029 A 
ATOM     54  C   UNL     1      -1.853  -7.066  17.021  1.00  0.00     0.049 A 
ATOM     55  H   UNL     1      -0.628  -8.735  16.789  1.00  0.00     0.167 HD
ATOM     56  C   UNL     1       2.126 -12.128  16.252  1.00  0.00     0.031 A 
ATOM     57  C   UNL     1      -2.822  -7.406  17.891  1.00  0.00     0.031 A 
ATOM     58  C   UNL     1       1.179 -12.551  17.247  1.00  0.00     0.049 A 
ATOM     59  C   UNL     1      -2.797  -8.783  18.498  1.00  0.00     0.074 A 
ATOM     60  C   UNL     1       1.129 -13.752  17.930  1.00  0.00     0.029 A 
ATOM     61  N   UNL     1       0.110 -11.789  17.695  1.00  0.00    -0.354 N 
ATOM     62  N   UNL     1      -1.938  -9.756  18.305  1.00  0.00    -0.248 NA
ATOM     63  C   UNL     1      -3.862  -9.099  19.458  1.00  0.00     0.031 C 
ATOM     64  C   UNL     1      -0.015 -13.746  18.733  1.00  0.00     0.029 A 
ATOM     65  C   UNL     1      -0.625 -12.506  18.623  1.00  0.00     0.049 A 
ATOM     66  H   UNL     1      -0.096 -10.873  17.397  1.00  0.00     0.167 HD
ATOM     67  C   UNL     1      -2.337 -10.786  19.149  1.00  0.00     0.074 A 
ATOM     68  C   UNL     1      -3.502 -10.307  19.866  1.00  0.00     0.031 C 
ATOM     69  C   UNL     1      -1.786 -12.014  19.323  1.00  0.00     0.031 A 
BRANCH  56  70
ATOM     70  C   UNL     1       3.193 -13.097  15.807  1.00  0.00    -0.014 A 
ATOM     71  C   UNL     1       4.556 -12.863  16.073  1.00  0.00     0.010 A 
ATOM     72  C   UNL     1       2.823 -14.282  15.145  1.00  0.00     0.010 A 
ATOM     73  C   UNL     1       5.528 -13.773  15.651  1.00  0.00     0.020 A 
ATOM     74  C   UNL     1       3.789 -15.214  14.755  1.00  0.00     0.020 A 
ATOM     75  C   UNL     1       5.137 -14.946  14.997  1.00  0.00     0.054 A 
BRANCH  75  76
ATOM     76  S   UNL     1       6.418 -16.126  14.495  1.00  0.00     0.124 S 
ATOM     77  O   UNL     1       7.103 -15.395  13.431  1.00  0.00    -0.237 OA
ATOM     78  O   UNL     1       7.184 -16.306  15.726  1.00  0.00    -0.237 OA
ATOM     79  O   UNL     1       5.662 -17.296  14.057  1.00  0.00    -0.744 OA
ENDBRANCH  75  76
ENDBRANCH  56  70
BRANCH  57  80
ATOM     80  C   UNL     1      -3.883  -6.424  18.247  1.00  0.00    -0.014 A 
ATOM     81  C   UNL     1      -3.979  -5.903  19.550  1.00  0.00     0.010 A 
ATOM     82  C   UNL     1      -4.808  -6.001  17.275  1.00  0.00     0.010 A 
ATOM     83  C   UNL     1      -4.995  -5.000  19.880  1.00  0.00     0.020 A 
ATOM     84  C   UNL     1      -5.801  -5.070  17.590  1.00  0.00     0.020 A 
ATOM     85  C   UNL     1      -5.896  -4.586  18.895  1.00  0.00     0.054 A 
BRANCH  85  86
ATOM     86  S   UNL     1      -7.179  -3.382  19.335  1.00  0.00     0.124 S 
ATOM     87  O   UNL     1      -8.041  -4.163  20.216  1.00  0.00    -0.237 OA
ATOM     88  O   UNL     1      -6.406  -2.324  19.979  1.00  0.00    -0.237 OA
ATOM     89  O   UNL     1      -7.765  -3.019  18.046  1.00  0.00    -0.744 OA
ENDBRANCH  85  86
ENDBRANCH  57  80
BRANCH  69  90
ATOM     90  C   UNL     1      -2.401 -12.906  20.372  1.00  0.00    -0.014 A 
ATOM     91  C   UNL     1      -3.696 -13.435  20.232  1.00  0.00     0.010 A 
ATOM     92  C   UNL     1      -1.645 -13.241  21.512  1.00  0.00     0.010 A 
ATOM     93  C   UNL     1      -4.244 -14.235  21.238  1.00  0.00     0.020 A 
ATOM     94  C   UNL     1      -2.173 -14.075  22.498  1.00  0.00     0.020 A 
ATOM     95  C   UNL     1      -3.478 -14.549  22.366  1.00  0.00     0.054 A 
BRANCH  95  96
ATOM     96  S   UNL     1      -4.208 -15.599  23.650  1.00  0.00     0.124 S 
ATOM     97  O   UNL     1      -5.214 -14.714  24.231  1.00  0.00    -0.237 OA
ATOM     98  O   UNL     1      -4.729 -16.726  22.881  1.00  0.00    -0.237 OA
ATOM     99  O   UNL     1      -3.079 -15.916  24.523  1.00  0.00    -0.744 OA
ENDBRANCH  95  96
ENDBRANCH  69  90
ENDBRANCH  43  44
ENDBRANCH  35  38
ENDBRANCH  33  34
ENDBRANCH  32  33
ENDBRANCH  31  32
ENDBRANCH   1  31
TORSDOF 20
