REMARK SMILES C#CCN(CC(=O)NCCCCCCNC(=O)c1ccc(-c2c3nc(c(-c4ccc(S(=O)(=O)[O-])cc4)c4ccc([nH]4)c(-c4ccc(S(=O)(=O)[O-])cc4)c4nc(c(-c5ccc(S(=O)(=O)[O-])cc5)c5ccc2[nH]5)C=C4)C=C3)cc1)c1nnc(C)c2ccccc12
REMARK SMILES IDX 11 1 10 2 9 3 8 4 6 5 7 6 5 8 4 9 3 10 2 11 1 12 78 13 79 14
REMARK SMILES IDX 88 15 80 16 83 17 87 18 81 19 84 20 86 21 82 22 85 23 12 24
REMARK SMILES IDX 13 25 14 26 15 27 16 28 17 30 18 31 19 32 77 33 20 34 76 35
REMARK SMILES IDX 21 36 22 37 23 38 70 39 24 40 75 41 69 42 71 43 25 44 74 45
REMARK SMILES IDX 68 46 67 47 26 49 56 50 37 51 55 52 38 53 41 54 54 55 72 56
REMARK SMILES IDX 39 57 40 58 53 60 73 61 42 62 27 63 28 64 36 65 29 66 35 67
REMARK SMILES IDX 30 68 31 69 32 70 33 71 34 72 57 73 58 74 66 75 59 76 65 77
REMARK SMILES IDX 60 78 61 79 62 80 63 81 64 82 43 83 44 84 52 85 45 86 51 87
REMARK SMILES IDX 46 88 47 89 48 90 49 91 50 92
REMARK H PARENT 8 7 15 29 71 48 41 59
REMARK Flexibility Score: inf
ROOT
ATOM      1  C   UNL     1      -6.364   2.155   1.108  1.00  0.00     0.002 C 
ENDROOT
BRANCH   1   2
ATOM      2  C   UNL     1      -5.022   1.448   0.913  1.00  0.00     0.021 C 
BRANCH   2   3
ATOM      3  C   UNL     1      -5.187   0.166   0.103  1.00  0.00     0.116 C 
BRANCH   3   4
ATOM      4  N   UNL     1      -5.565   0.473  -1.256  1.00  0.00    -0.355 N 
ATOM      5  C   UNL     1      -4.714   0.591  -2.318  1.00  0.00     0.239 C 
ATOM      6  O   UNL     1      -5.148   0.998  -3.397  1.00  0.00    -0.273 OA
ATOM      7  H   UNL     1      -6.524   0.609  -1.433  1.00  0.00     0.163 HD
BRANCH   5   8
ATOM      8  C   UNL     1      -3.285   0.105  -2.128  1.00  0.00     0.219 C 
BRANCH   8   9
ATOM      9  N   UNL     1      -2.481   0.954  -1.165  1.00  0.00    -0.334 N 
BRANCH   9  10
ATOM     10  C   UNL     1      -1.823  -0.088   0.047  1.00  0.00     0.208 C 
BRANCH  10  11
ATOM     11  C   UNL     1      -0.303  -0.088   0.047  1.00  0.00    -0.085 C 
ATOM     12  C   UNL     1       1.001  -0.088   0.047  1.00  0.00     0.006 C 
ENDBRANCH  10  11
ENDBRANCH   9  10
BRANCH   9  13
ATOM     13  C   UNL     1      -1.782   1.859  -2.064  1.00  0.00     0.160 A 
ATOM     14  N   UNL     1      -0.936   1.222  -2.923  1.00  0.00    -0.132 NA
ATOM     15  C   UNL     1      -2.183   3.327  -2.506  1.00  0.00     0.028 A 
ATOM     16  N   UNL     1      -0.872   1.654  -4.223  1.00  0.00    -0.153 NA
ATOM     17  C   UNL     1      -1.213   3.724  -3.378  1.00  0.00     0.009 A 
ATOM     18  C   UNL     1      -3.159   4.515  -2.558  1.00  0.00     0.013 A 
ATOM     19  C   UNL     1      -1.228   2.914  -4.484  1.00  0.00     0.068 A 
ATOM     20  C   UNL     1      -0.723   5.046  -3.509  1.00  0.00     0.011 A 
ATOM     21  C   UNL     1      -2.878   5.813  -3.172  1.00  0.00     0.001 A 
ATOM     22  C   UNL     1      -2.392   3.084  -5.496  1.00  0.00     0.069 C 
ATOM     23  C   UNL     1      -1.581   6.114  -3.525  1.00  0.00     0.001 A 
ENDBRANCH   9  13
ENDBRANCH   8   9
ENDBRANCH   5   8
ENDBRANCH   3   4
ENDBRANCH   2   3
ENDBRANCH   1   2
BRANCH   1  24
ATOM     24  C   UNL     1      -7.426   1.256   1.749  1.00  0.00     0.002 C 
BRANCH  24  25
ATOM     25  C   UNL     1      -7.009   0.695   3.110  1.00  0.00     0.021 C 
BRANCH  25  26
ATOM     26  C   UNL     1      -6.732   1.782   4.138  1.00  0.00     0.116 C 
BRANCH  26  27
ATOM     27  N   UNL     1      -7.913   2.597   4.359  1.00  0.00    -0.352 N 
ATOM     28  C   UNL     1      -8.624   2.811   5.516  1.00  0.00     0.251 C 
ATOM     29  H   UNL     1      -8.255   3.066   3.564  1.00  0.00     0.163 HD
ATOM     30  O   UNL     1      -9.741   3.282   5.465  1.00  0.00    -0.269 OA
BRANCH  28  31
ATOM     31  C   UNL     1      -8.010   2.449   6.813  1.00  0.00     0.039 A 
ATOM     32  C   UNL     1      -8.821   1.885   7.796  1.00  0.00     0.014 A 
ATOM     33  C   UNL     1      -6.654   2.681   7.061  1.00  0.00     0.014 A 
ATOM     34  C   UNL     1      -8.260   1.525   9.019  1.00  0.00     0.010 A 
ATOM     35  C   UNL     1      -6.076   2.219   8.238  1.00  0.00     0.010 A 
ATOM     36  C   UNL     1      -6.877   1.655   9.238  1.00  0.00    -0.014 A 
BRANCH  36  37
ATOM     37  C   UNL     1      -6.272   1.194  10.513  1.00  0.00     0.031 A 
ATOM     38  C   UNL     1      -5.563   2.162  11.420  1.00  0.00     0.074 A 
ATOM     39  C   UNL     1      -6.359  -0.109  10.846  1.00  0.00     0.049 A 
ATOM     40  N   UNL     1      -5.016   1.939  12.588  1.00  0.00    -0.248 NA
ATOM     41  C   UNL     1      -5.432   3.552  10.954  1.00  0.00     0.031 C 
ATOM     42  C   UNL     1      -6.987  -1.150  10.028  1.00  0.00     0.029 A 
ATOM     43  N   UNL     1      -5.933  -0.780  11.964  1.00  0.00    -0.354 N 
ATOM     44  C   UNL     1      -4.474   3.153  12.991  1.00  0.00     0.074 A 
ATOM     45  C   UNL     1      -4.703   4.094  11.918  1.00  0.00     0.031 C 
ATOM     46  C   UNL     1      -6.955  -2.313  10.695  1.00  0.00     0.029 A 
ATOM     47  C   UNL     1      -6.247  -2.119  11.955  1.00  0.00     0.049 A 
ATOM     48  H   UNL     1      -5.449  -0.345  12.703  1.00  0.00     0.167 HD
ATOM     49  C   UNL     1      -3.857   3.460  14.157  1.00  0.00     0.031 A 
ATOM     50  C   UNL     1      -5.983  -3.090  12.851  1.00  0.00     0.031 A 
ATOM     51  C   UNL     1      -3.614   2.509  15.212  1.00  0.00     0.049 A 
ATOM     52  C   UNL     1      -5.253  -2.732  14.114  1.00  0.00     0.074 A 
ATOM     53  C   UNL     1      -3.036   2.730  16.450  1.00  0.00     0.029 A 
ATOM     54  N   UNL     1      -3.914   1.155  15.149  1.00  0.00    -0.354 N 
ATOM     55  N   UNL     1      -4.818  -1.560  14.512  1.00  0.00    -0.248 NA
ATOM     56  C   UNL     1      -4.992  -3.827  15.057  1.00  0.00     0.031 C 
ATOM     57  C   UNL     1      -2.898   1.497  17.094  1.00  0.00     0.029 A 
ATOM     58  C   UNL     1      -3.489   0.522  16.307  1.00  0.00     0.049 A 
ATOM     59  H   UNL     1      -4.363   0.710  14.394  1.00  0.00     0.167 HD
ATOM     60  C   UNL     1      -4.259  -1.772  15.768  1.00  0.00     0.074 A 
ATOM     61  C   UNL     1      -4.439  -3.178  16.070  1.00  0.00     0.031 C 
ATOM     62  C   UNL     1      -3.656  -0.882  16.596  1.00  0.00     0.031 A 
BRANCH  49  63
ATOM     63  C   UNL     1      -3.364   4.875  14.339  1.00  0.00    -0.014 A 
ATOM     64  C   UNL     1      -4.252   5.964  14.416  1.00  0.00     0.010 A 
ATOM     65  C   UNL     1      -1.984   5.113  14.482  1.00  0.00     0.010 A 
ATOM     66  C   UNL     1      -3.768   7.264  14.584  1.00  0.00     0.020 A 
ATOM     67  C   UNL     1      -1.498   6.406  14.693  1.00  0.00     0.020 A 
ATOM     68  C   UNL     1      -2.393   7.476  14.726  1.00  0.00     0.054 A 
BRANCH  68  69
ATOM     69  S   UNL     1      -1.797   9.170  14.975  1.00  0.00     0.124 S 
ATOM     70  O   UNL     1      -2.112   9.793  13.691  1.00  0.00    -0.237 OA
ATOM     71  O   UNL     1      -2.601   9.624  16.107  1.00  0.00    -0.237 OA
ATOM     72  O   UNL     1      -0.373   9.002  15.251  1.00  0.00    -0.744 OA
ENDBRANCH  68  69
ENDBRANCH  49  63
BRANCH  50  73
ATOM     73  C   UNL     1      -6.394  -4.494  12.569  1.00  0.00    -0.014 A 
ATOM     74  C   UNL     1      -7.350  -5.148  13.366  1.00  0.00     0.010 A 
ATOM     75  C   UNL     1      -5.821  -5.187  11.486  1.00  0.00     0.010 A 
ATOM     76  C   UNL     1      -7.708  -6.473  13.098  1.00  0.00     0.020 A 
ATOM     77  C   UNL     1      -6.208  -6.494  11.188  1.00  0.00     0.020 A 
ATOM     78  C   UNL     1      -7.142  -7.133  12.003  1.00  0.00     0.054 A 
BRANCH  78  79
ATOM     79  S   UNL     1      -7.671  -8.828  11.634  1.00  0.00     0.124 S 
ATOM     80  O   UNL     1      -7.142  -9.569  12.774  1.00  0.00    -0.237 OA
ATOM     81  O   UNL     1      -9.124  -8.695  11.581  1.00  0.00    -0.237 OA
ATOM     82  O   UNL     1      -7.032  -9.114  10.351  1.00  0.00    -0.744 OA
ENDBRANCH  78  79
ENDBRANCH  50  73
BRANCH  62  83
ATOM     83  C   UNL     1      -3.184  -1.394  17.935  1.00  0.00    -0.014 A 
ATOM     84  C   UNL     1      -2.156  -2.348  18.046  1.00  0.00     0.010 A 
ATOM     85  C   UNL     1      -3.776  -0.892  19.110  1.00  0.00     0.010 A 
ATOM     86  C   UNL     1      -1.775  -2.834  19.300  1.00  0.00     0.020 A 
ATOM     87  C   UNL     1      -3.362  -1.337  20.367  1.00  0.00     0.020 A 
ATOM     88  C   UNL     1      -2.379  -2.324  20.452  1.00  0.00     0.054 A 
BRANCH  88  89
ATOM     89  S   UNL     1      -1.849  -2.957  22.066  1.00  0.00     0.124 S 
ATOM     90  O   UNL     1      -2.333  -4.334  22.027  1.00  0.00    -0.237 OA
ATOM     91  O   UNL     1      -0.398  -2.798  22.006  1.00  0.00    -0.237 OA
ATOM     92  O   UNL     1      -2.529  -2.086  23.022  1.00  0.00    -0.744 OA
ENDBRANCH  88  89
ENDBRANCH  62  83
ENDBRANCH  36  37
ENDBRANCH  28  31
ENDBRANCH  26  27
ENDBRANCH  25  26
ENDBRANCH  24  25
ENDBRANCH   1  24
TORSDOF 20
