REMARK SMILES COc1ccc([C@H]2C[NH2+]C[C@@H]2C(=O)NCCCCCCNC(=O)c2ccc(-c3c4nc(c(-c5ccc(S(=O)(=O)[O-])cc5)c5ccc([nH]5)c(-c5ccc(S(=O)(=O)[O-])cc5)c5nc(c(-c6ccc(S(=O)(=O)[O-])cc6)c6ccc3[nH]6)C=C5)C=C4)cc2)cc1
REMARK SMILES IDX 18 1 17 2 16 3 15 4 14 5 12 6 13 7 11 9 7 10 8 11 9 12 10 13
REMARK SMILES IDX 6 16 3 17 4 18 85 19 5 20 84 21 2 22 1 23 19 24 20 25 21 26
REMARK SMILES IDX 22 27 23 29 24 30 25 31 83 32 26 33 82 34 27 35 28 36 29 37
REMARK SMILES IDX 76 38 30 39 81 40 75 41 77 42 31 43 80 44 74 45 73 46 32 48
REMARK SMILES IDX 62 49 43 50 61 51 44 52 47 53 60 54 78 55 45 56 46 57 59 59
REMARK SMILES IDX 79 60 48 61 33 62 34 63 42 64 35 65 41 66 36 67 37 68 38 69
REMARK SMILES IDX 39 70 40 71 63 72 64 73 72 74 65 75 71 76 66 77 67 78 68 79
REMARK SMILES IDX 69 80 70 81 49 82 50 83 58 84 51 85 57 86 52 87 53 88 54 89
REMARK SMILES IDX 55 90 56 91
REMARK H PARENT 14 8 9 14 9 15 21 28 77 47 47 58
REMARK Flexibility Score: inf
ROOT
ATOM      1  C   UNL     1       6.797  -1.858   2.616  1.00  0.00     0.002 C 
ENDROOT
BRANCH   1   2
ATOM      2  C   UNL     1       7.256  -3.244   2.157  1.00  0.00     0.002 C 
BRANCH   2   3
ATOM      3  C   UNL     1       6.658  -4.422   2.918  1.00  0.00     0.021 C 
BRANCH   3   4
ATOM      4  C   UNL     1       5.141  -4.432   3.022  1.00  0.00     0.116 C 
BRANCH   4   5
ATOM      5  N   UNL     1       4.463  -4.759   1.792  1.00  0.00    -0.356 N 
ATOM      6  C   UNL     1       3.374  -5.542   1.578  1.00  0.00     0.229 C 
ATOM      7  O   UNL     1       2.951  -5.589   0.416  1.00  0.00    -0.275 OA
ATOM      8  H   UNL     1       4.848  -4.352   0.983  1.00  0.00     0.163 HD
BRANCH   6   9
ATOM      9  C   UNL     1       2.670  -6.361   2.665  1.00  0.00     0.146 C 
ATOM     10  C   UNL     1       1.919  -5.573   3.749  1.00  0.00     0.092 C 
ATOM     11  C   UNL     1       2.812  -5.723   4.992  1.00  0.00     0.269 C 
ATOM     12  N   UNL     1       3.574  -6.971   4.837  1.00  0.00    -0.345 N 
ATOM     13  C   UNL     1       3.590  -7.319   3.408  1.00  0.00     0.274 C 
ATOM     14  H   UNL     1       3.128  -7.718   5.370  1.00  0.00     0.346 HD
ATOM     15  H   UNL     1       4.526  -6.851   5.184  1.00  0.00     0.346 HD
BRANCH  10  16
ATOM     16  C   UNL     1       0.533  -6.079   4.161  1.00  0.00    -0.038 A 
ATOM     17  C   UNL     1      -1.801  -7.097   5.378  1.00  0.00     0.118 A 
ATOM     18  C   UNL     1      -1.354  -5.814   5.685  1.00  0.00     0.047 A 
ATOM     19  C   UNL     1      -1.135  -7.836   4.403  1.00  0.00     0.047 A 
ATOM     20  C   UNL     1      -0.206  -5.305   5.076  1.00  0.00     0.008 A 
ATOM     21  C   UNL     1       0.026  -7.335   3.806  1.00  0.00     0.008 A 
BRANCH  17  22
ATOM     22  O   UNL     1      -2.898  -7.528   6.070  1.00  0.00    -0.497 OA
ATOM     23  C   UNL     1      -2.978  -8.939   6.253  1.00  0.00     0.278 C 
ENDBRANCH  17  22
ENDBRANCH  10  16
ENDBRANCH   6   9
ENDBRANCH   4   5
ENDBRANCH   3   4
ENDBRANCH   2   3
ENDBRANCH   1   2
BRANCH   1  24
ATOM     24  C   UNL     1       6.913  -1.575   4.117  1.00  0.00     0.021 C 
BRANCH  24  25
ATOM     25  C   UNL     1       8.288  -1.820   4.727  1.00  0.00     0.116 C 
BRANCH  25  26
ATOM     26  N   UNL     1       9.331  -1.056   4.065  1.00  0.00    -0.352 N 
ATOM     27  C   UNL     1      10.262  -0.201   4.600  1.00  0.00     0.251 C 
ATOM     28  H   UNL     1       9.376  -1.168   3.088  1.00  0.00     0.163 HD
ATOM     29  O   UNL     1      10.948   0.494   3.859  1.00  0.00    -0.269 OA
BRANCH  27  30
ATOM     30  C   UNL     1      10.420  -0.106   6.067  1.00  0.00     0.039 A 
ATOM     31  C   UNL     1      10.542   1.157   6.649  1.00  0.00     0.014 A 
ATOM     32  C   UNL     1      10.458  -1.254   6.865  1.00  0.00     0.014 A 
ATOM     33  C   UNL     1      10.647   1.272   8.037  1.00  0.00     0.010 A 
ATOM     34  C   UNL     1      10.486  -1.133   8.252  1.00  0.00     0.010 A 
ATOM     35  C   UNL     1      10.587   0.130   8.853  1.00  0.00    -0.014 A 
BRANCH  35  36
ATOM     36  C   UNL     1      10.626   0.242  10.334  1.00  0.00     0.031 A 
ATOM     37  C   UNL     1      11.763  -0.364  11.111  1.00  0.00     0.074 A 
ATOM     38  C   UNL     1       9.609   0.844  10.982  1.00  0.00     0.049 A 
ATOM     39  N   UNL     1      11.948  -0.404  12.406  1.00  0.00    -0.248 NA
ATOM     40  C   UNL     1      12.820  -1.033  10.334  1.00  0.00     0.031 C 
ATOM     41  C   UNL     1       8.431   1.439  10.345  1.00  0.00     0.029 A 
ATOM     42  N   UNL     1       9.400   1.054  12.322  1.00  0.00    -0.354 N 
ATOM     43  C   UNL     1      13.130  -1.109  12.599  1.00  0.00     0.074 A 
ATOM     44  C   UNL     1      13.591  -1.526  11.293  1.00  0.00     0.031 C 
ATOM     45  C   UNL     1       7.641   1.973  11.290  1.00  0.00     0.029 A 
ATOM     46  C   UNL     1       8.229   1.719  12.601  1.00  0.00     0.049 A 
ATOM     47  H   UNL     1      10.029   0.756  13.019  1.00  0.00     0.167 HD
ATOM     48  C   UNL     1      13.783  -1.370  13.757  1.00  0.00     0.031 A 
ATOM     49  C   UNL     1       7.683   2.077  13.780  1.00  0.00     0.031 A 
ATOM     50  C   UNL     1      13.321  -0.951  15.054  1.00  0.00     0.049 A 
ATOM     51  C   UNL     1       8.415   1.754  15.054  1.00  0.00     0.074 A 
ATOM     52  C   UNL     1      13.936  -1.122  16.282  1.00  0.00     0.029 A 
ATOM     53  N   UNL     1      12.130  -0.283  15.293  1.00  0.00    -0.354 N 
ATOM     54  N   UNL     1       9.565   1.144  15.211  1.00  0.00    -0.248 NA
ATOM     55  C   UNL     1       7.781   2.179  16.309  1.00  0.00     0.031 C 
ATOM     56  C   UNL     1      13.087  -0.613  17.270  1.00  0.00     0.029 A 
ATOM     57  C   UNL     1      11.977  -0.060  16.652  1.00  0.00     0.049 A 
ATOM     58  H   UNL     1      11.487  -0.007  14.600  1.00  0.00     0.167 HD
ATOM     59  C   UNL     1       9.807   1.139  16.581  1.00  0.00     0.074 A 
ATOM     60  C   UNL     1       8.691   1.821  17.204  1.00  0.00     0.031 C 
ATOM     61  C   UNL     1      10.860   0.619  17.260  1.00  0.00     0.031 A 
BRANCH  48  62
ATOM     62  C   UNL     1      15.067  -2.156  13.672  1.00  0.00    -0.014 A 
ATOM     63  C   UNL     1      16.221  -1.607  13.085  1.00  0.00     0.010 A 
ATOM     64  C   UNL     1      15.134  -3.448  14.227  1.00  0.00     0.010 A 
ATOM     65  C   UNL     1      17.403  -2.349  13.014  1.00  0.00     0.020 A 
ATOM     66  C   UNL     1      16.323  -4.181  14.188  1.00  0.00     0.020 A 
ATOM     67  C   UNL     1      17.446  -3.633  13.565  1.00  0.00     0.054 A 
BRANCH  67  68
ATOM     68  S   UNL     1      19.001  -4.563  13.478  1.00  0.00     0.124 S 
ATOM     69  O   UNL     1      19.078  -4.888  12.056  1.00  0.00    -0.237 OA
ATOM     70  O   UNL     1      19.982  -3.591  13.954  1.00  0.00    -0.237 OA
ATOM     71  O   UNL     1      18.775  -5.702  14.365  1.00  0.00    -0.744 OA
ENDBRANCH  67  68
ENDBRANCH  48  62
BRANCH  49  72
ATOM     72  C   UNL     1       6.377   2.793  13.808  1.00  0.00    -0.014 A 
ATOM     73  C   UNL     1       6.306   4.140  14.206  1.00  0.00     0.010 A 
ATOM     74  C   UNL     1       5.194   2.132  13.426  1.00  0.00     0.010 A 
ATOM     75  C   UNL     1       5.077   4.806  14.241  1.00  0.00     0.020 A 
ATOM     76  C   UNL     1       3.969   2.803  13.430  1.00  0.00     0.020 A 
ATOM     77  C   UNL     1       3.916   4.133  13.849  1.00  0.00     0.054 A 
BRANCH  77  78
ATOM     78  S   UNL     1       2.340   5.033  13.857  1.00  0.00     0.124 S 
ATOM     79  O   UNL     1       2.072   5.162  15.285  1.00  0.00    -0.237 OA
ATOM     80  O   UNL     1       2.682   6.271  13.161  1.00  0.00    -0.237 OA
ATOM     81  O   UNL     1       1.437   4.145  13.127  1.00  0.00    -0.744 OA
ENDBRANCH  77  78
ENDBRANCH  49  72
BRANCH  61  82
ATOM     82  C   UNL     1      10.878   0.798  18.756  1.00  0.00    -0.014 A 
ATOM     83  C   UNL     1       9.985   0.102  19.589  1.00  0.00     0.010 A 
ATOM     84  C   UNL     1      11.845   1.639  19.339  1.00  0.00     0.010 A 
ATOM     85  C   UNL     1      10.037   0.269  20.976  1.00  0.00     0.020 A 
ATOM     86  C   UNL     1      11.922   1.783  20.726  1.00  0.00     0.020 A 
ATOM     87  C   UNL     1      11.007   1.108  21.535  1.00  0.00     0.054 A 
BRANCH  87  88
ATOM     88  S   UNL     1      11.081   1.272  23.340  1.00  0.00     0.124 S 
ATOM     89  O   UNL     1       9.889   2.066  23.623  1.00  0.00    -0.237 OA
ATOM     90  O   UNL     1      11.033  -0.117  23.789  1.00  0.00    -0.237 OA
ATOM     91  O   UNL     1      12.353   1.952  23.575  1.00  0.00    -0.744 OA
ENDBRANCH  87  88
ENDBRANCH  61  82
ENDBRANCH  35  36
ENDBRANCH  27  30
ENDBRANCH  25  26
ENDBRANCH  24  25
ENDBRANCH   1  24
TORSDOF 18
