REMARK SMILES C[C@@H]1CC(=O)N(CC(C)(C)C(=O)NCCCCCCNC(=O)c2ccc(-c3c4nc(c(-c5ccc(S(=O)(=O)[O-])cc5)c5ccc([nH]5)c(-c5ccc(S(=O)(=O)[O-])cc5)c5nc(c(-c6ccc(S(=O)(=O)[O-])cc6)c6ccc3[nH]6)C=C5)C=C4)cc2)C1
REMARK SMILES IDX 17 1 16 2 15 3 14 4 13 5 11 6 12 7 8 9 9 10 10 11 7 12 6 13
REMARK SMILES IDX 1 14 2 15 3 16 83 17 4 18 5 19 18 20 19 21 20 22 21 23 22 25
REMARK SMILES IDX 23 26 24 27 82 28 25 29 81 30 26 31 27 32 28 33 75 34 29 35
REMARK SMILES IDX 80 36 74 37 76 38 30 39 79 40 73 41 72 42 31 44 61 45 42 46
REMARK SMILES IDX 60 47 43 48 46 49 59 50 77 51 44 52 45 53 58 55 78 56 47 57
REMARK SMILES IDX 32 58 33 59 41 60 34 61 40 62 35 63 36 64 37 65 38 66 39 67
REMARK SMILES IDX 62 68 63 69 71 70 64 71 70 72 65 73 66 74 67 75 68 76 69 77
REMARK SMILES IDX 48 78 49 79 57 80 50 81 56 82 51 83 52 84 53 85 54 86 55 87
REMARK H PARENT 13 8 20 24 76 43 46 54
REMARK Flexibility Score: inf
ROOT
ATOM      1  C   UNL     1      -4.882   0.520   6.580  1.00  0.00     0.002 C 
ENDROOT
BRANCH   1   2
ATOM      2  C   UNL     1      -4.395   1.954   6.809  1.00  0.00     0.002 C 
BRANCH   2   3
ATOM      3  C   UNL     1      -2.924   2.080   7.219  1.00  0.00     0.021 C 
BRANCH   3   4
ATOM      4  C   UNL     1      -1.946   1.411   6.258  1.00  0.00     0.116 C 
BRANCH   4   5
ATOM      5  N   UNL     1      -1.923   2.102   4.988  1.00  0.00    -0.356 N 
ATOM      6  C   UNL     1      -0.937   2.726   4.295  1.00  0.00     0.227 C 
ATOM      7  O   UNL     1      -1.325   3.349   3.304  1.00  0.00    -0.274 OA
ATOM      8  H   UNL     1      -2.797   2.124   4.535  1.00  0.00     0.163 HD
BRANCH   6   9
ATOM      9  C   UNL     1       0.545   2.672   4.725  1.00  0.00     0.061 C 
ATOM     10  C   UNL     1       1.005   1.225   4.984  1.00  0.00     0.023 C 
ATOM     11  C   UNL     1       0.736   3.513   6.003  1.00  0.00     0.023 C 
BRANCH   9  12
ATOM     12  C   UNL     1       1.451   3.326   3.624  1.00  0.00     0.135 C 
BRANCH  12  13
ATOM     13  N   UNL     1       1.299   2.815   2.267  1.00  0.00    -0.341 N 
ATOM     14  C   UNL     1       1.084   0.118  -0.217  1.00  0.00     0.010 C 
ATOM     15  C   UNL     1       0.677   1.234   0.722  1.00  0.00     0.015 C 
ATOM     16  C   UNL     1       0.548   2.607   0.057  1.00  0.00     0.105 C 
ATOM     17  C   UNL     1       1.692   1.504   1.818  1.00  0.00     0.123 C 
ATOM     18  C   UNL     1       0.758   3.555   1.216  1.00  0.00     0.222 C 
ATOM     19  O   UNL     1       0.537   4.758   1.190  1.00  0.00    -0.275 OA
ENDBRANCH  12  13
ENDBRANCH   9  12
ENDBRANCH   6   9
ENDBRANCH   4   5
ENDBRANCH   3   4
ENDBRANCH   2   3
ENDBRANCH   1   2
BRANCH   1  20
ATOM     20  C   UNL     1      -4.615  -0.447   7.736  1.00  0.00     0.021 C 
BRANCH  20  21
ATOM     21  C   UNL     1      -5.184  -0.004   9.079  1.00  0.00     0.116 C 
BRANCH  21  22
ATOM     22  N   UNL     1      -6.627   0.149   9.033  1.00  0.00    -0.352 N 
ATOM     23  C   UNL     1      -7.588  -0.381   9.854  1.00  0.00     0.251 C 
ATOM     24  H   UNL     1      -6.965   0.718   8.304  1.00  0.00     0.163 HD
ATOM     25  O   UNL     1      -8.769  -0.311   9.527  1.00  0.00    -0.269 OA
BRANCH  23  26
ATOM     26  C   UNL     1      -7.206  -1.046  11.120  1.00  0.00     0.039 A 
ATOM     27  C   UNL     1      -7.890  -2.202  11.500  1.00  0.00     0.014 A 
ATOM     28  C   UNL     1      -6.206  -0.521  11.946  1.00  0.00     0.014 A 
ATOM     29  C   UNL     1      -7.549  -2.848  12.689  1.00  0.00     0.010 A 
ATOM     30  C   UNL     1      -5.809  -1.215  13.087  1.00  0.00     0.010 A 
ATOM     31  C   UNL     1      -6.489  -2.375  13.482  1.00  0.00    -0.014 A 
BRANCH  31  32
ATOM     32  C   UNL     1      -6.100  -3.091  14.723  1.00  0.00     0.031 A 
ATOM     33  C   UNL     1      -6.241  -2.430  16.069  1.00  0.00     0.074 A 
ATOM     34  C   UNL     1      -5.606  -4.341  14.636  1.00  0.00     0.049 A 
ATOM     35  N   UNL     1      -6.029  -2.932  17.259  1.00  0.00    -0.248 NA
ATOM     36  C   UNL     1      -6.652  -1.018  16.079  1.00  0.00     0.031 C 
ATOM     37  C   UNL     1      -5.380  -5.075  13.388  1.00  0.00     0.029 A 
ATOM     38  N   UNL     1      -5.227  -5.226  15.614  1.00  0.00    -0.354 N 
ATOM     39  C   UNL     1      -6.274  -1.898  18.156  1.00  0.00     0.074 A 
ATOM     40  C   UNL     1      -6.584  -0.725  17.369  1.00  0.00     0.031 C 
ATOM     41  C   UNL     1      -4.968  -6.319  13.679  1.00  0.00     0.029 A 
ATOM     42  C   UNL     1      -4.860  -6.458  15.127  1.00  0.00     0.049 A 
ATOM     43  H   UNL     1      -5.218  -5.000  16.572  1.00  0.00     0.167 HD
ATOM     44  C   UNL     1      -6.264  -1.924  19.512  1.00  0.00     0.031 A 
ATOM     45  C   UNL     1      -4.496  -7.582  15.774  1.00  0.00     0.031 A 
ATOM     46  C   UNL     1      -5.940  -3.092  20.290  1.00  0.00     0.049 A 
ATOM     47  C   UNL     1      -4.473  -7.586  17.277  1.00  0.00     0.074 A 
ATOM     48  C   UNL     1      -5.946  -3.242  21.665  1.00  0.00     0.029 A 
ATOM     49  N   UNL     1      -5.539  -4.311  19.759  1.00  0.00    -0.354 N 
ATOM     50  N   UNL     1      -4.780  -6.620  18.110  1.00  0.00    -0.248 NA
ATOM     51  C   UNL     1      -4.070  -8.840  17.924  1.00  0.00     0.031 C 
ATOM     52  C   UNL     1      -5.486  -4.529  21.968  1.00  0.00     0.029 A 
ATOM     53  C   UNL     1      -5.264  -5.207  20.779  1.00  0.00     0.049 A 
ATOM     54  H   UNL     1      -5.460  -4.509  18.798  1.00  0.00     0.167 HD
ATOM     55  C   UNL     1      -4.641  -7.162  19.384  1.00  0.00     0.074 A 
ATOM     56  C   UNL     1      -4.236  -8.543  19.206  1.00  0.00     0.031 C 
ATOM     57  C   UNL     1      -4.842  -6.574  20.590  1.00  0.00     0.031 A 
BRANCH  44  58
ATOM     58  C   UNL     1      -6.587  -0.636  20.230  1.00  0.00    -0.014 A 
ATOM     59  C   UNL     1      -7.866  -0.053  20.151  1.00  0.00     0.010 A 
ATOM     60  C   UNL     1      -5.593   0.009  20.989  1.00  0.00     0.010 A 
ATOM     61  C   UNL     1      -8.123   1.183  20.753  1.00  0.00     0.020 A 
ATOM     62  C   UNL     1      -5.856   1.227  21.624  1.00  0.00     0.020 A 
ATOM     63  C   UNL     1      -7.111   1.820  21.477  1.00  0.00     0.054 A 
BRANCH  63  64
ATOM     64  S   UNL     1      -7.461   3.436  22.222  1.00  0.00     0.124 S 
ATOM     65  O   UNL     1      -7.497   4.306  21.049  1.00  0.00    -0.237 OA
ATOM     66  O   UNL     1      -8.746   3.215  22.880  1.00  0.00    -0.237 OA
ATOM     67  O   UNL     1      -6.332   3.654  23.123  1.00  0.00    -0.744 OA
ENDBRANCH  63  64
ENDBRANCH  44  58
BRANCH  45  68
ATOM     68  C   UNL     1      -4.191  -8.814  14.996  1.00  0.00    -0.014 A 
ATOM     69  C   UNL     1      -5.075  -9.907  15.024  1.00  0.00     0.010 A 
ATOM     70  C   UNL     1      -3.037  -8.889  14.195  1.00  0.00     0.010 A 
ATOM     71  C   UNL     1      -4.810 -11.053  14.270  1.00  0.00     0.020 A 
ATOM     72  C   UNL     1      -2.783 -10.022  13.416  1.00  0.00     0.020 A 
ATOM     73  C   UNL     1      -3.669 -11.100  13.464  1.00  0.00     0.054 A 
BRANCH  73  74
ATOM     74  S   UNL     1      -3.387 -12.569  12.437  1.00  0.00     0.124 S 
ATOM     75  O   UNL     1      -3.037 -13.575  13.434  1.00  0.00    -0.237 OA
ATOM     76  O   UNL     1      -4.680 -12.747  11.783  1.00  0.00    -0.237 OA
ATOM     77  O   UNL     1      -2.300 -12.161  11.549  1.00  0.00    -0.744 OA
ENDBRANCH  73  74
ENDBRANCH  45  68
BRANCH  57  78
ATOM     78  C   UNL     1      -4.660  -7.436  21.814  1.00  0.00    -0.014 A 
ATOM     79  C   UNL     1      -3.394  -7.910  22.201  1.00  0.00     0.010 A 
ATOM     80  C   UNL     1      -5.782  -7.765  22.598  1.00  0.00     0.010 A 
ATOM     81  C   UNL     1      -3.262  -8.743  23.316  1.00  0.00     0.020 A 
ATOM     82  C   UNL     1      -5.649  -8.567  23.733  1.00  0.00     0.020 A 
ATOM     83  C   UNL     1      -4.392  -9.071  24.072  1.00  0.00     0.054 A 
BRANCH  83  84
ATOM     84  S   UNL     1      -4.194 -10.148  25.517  1.00  0.00     0.124 S 
ATOM     85  O   UNL     1      -3.959 -11.449  24.896  1.00  0.00    -0.237 OA
ATOM     86  O   UNL     1      -3.044  -9.560  26.200  1.00  0.00    -0.237 OA
ATOM     87  O   UNL     1      -5.465 -10.015  26.225  1.00  0.00    -0.744 OA
ENDBRANCH  83  84
ENDBRANCH  57  78
ENDBRANCH  31  32
ENDBRANCH  23  26
ENDBRANCH  21  22
ENDBRANCH  20  21
ENDBRANCH   1  20
TORSDOF 18
