REMARK SMILES [NH3+]CCOCC(=O)N1C[C@@H](C(=O)NCCCCCCNC(=O)c2ccc(-c3c4nc(c(-c5ccc(S(=O)(=O)[O-])cc5)c5ccc([nH]5)c(-c5ccc(S(=O)(=O)[O-])cc5)c5nc(c(-c6ccc(S(=O)(=O)[O-])cc6)c6ccc3[nH]6)C=C5)C=C4)cc2)Oc2ccccc21
REMARK SMILES IDX 15 1 14 2 13 3 11 4 12 5 10 7 8 8 9 9 89 10 84 11 88 12
REMARK SMILES IDX 83 13 85 14 87 15 86 16 6 17 7 18 5 19 4 20 3 21 2 22 1 23
REMARK SMILES IDX 16 27 17 28 18 29 19 30 20 31 21 32 22 34 23 35 24 36 82 37
REMARK SMILES IDX 25 38 81 39 26 40 27 41 28 42 75 43 29 44 80 45 74 46 76 47
REMARK SMILES IDX 30 48 79 49 73 50 72 51 31 53 61 54 42 55 60 56 43 57 46 58
REMARK SMILES IDX 59 59 77 60 44 61 45 62 58 64 78 65 47 66 32 67 33 68 41 69
REMARK SMILES IDX 34 70 40 71 35 72 36 73 37 74 38 75 39 76 62 77 63 78 71 79
REMARK SMILES IDX 64 80 70 81 65 82 66 83 67 84 68 85 69 86 48 87 49 88 57 89
REMARK SMILES IDX 50 90 56 91 51 92 52 93 53 94 54 95 55 96
REMARK H PARENT 13 6 1 24 1 25 1 26 20 33 76 52 46 63
REMARK Flexibility Score: inf
ROOT
ATOM      1  C   UNL     1       7.242  -2.755   0.568  1.00  0.00     0.021 C 
ENDROOT
BRANCH   1   2
ATOM      2  C   UNL     1       5.824  -2.540   0.042  1.00  0.00     0.116 C 
BRANCH   2   3
ATOM      3  N   UNL     1       5.577  -3.160  -1.243  1.00  0.00    -0.353 N 
ATOM      4  C   UNL     1       4.808  -4.217  -1.615  1.00  0.00     0.262 C 
ATOM      5  O   UNL     1       4.611  -4.335  -2.834  1.00  0.00    -0.271 OA
ATOM      6  H   UNL     1       6.056  -2.733  -1.990  1.00  0.00     0.163 HD
BRANCH   4   7
ATOM      7  C   UNL     1       4.157  -5.235  -0.645  1.00  0.00     0.281 C 
ATOM      8  N   UNL     1       2.871  -3.997   1.077  1.00  0.00    -0.303 N 
ATOM      9  C   UNL     1       2.782  -4.801  -0.136  1.00  0.00     0.181 C 
ATOM     10  C   UNL     1       3.852  -4.443   2.018  1.00  0.00     0.086 A 
ATOM     11  C   UNL     1       4.827  -5.374   1.617  1.00  0.00     0.144 A 
ATOM     12  C   UNL     1       3.905  -3.948   3.328  1.00  0.00     0.030 A 
ATOM     13  O   UNL     1       4.985  -5.834   0.338  1.00  0.00    -0.477 OA
ATOM     14  C   UNL     1       5.798  -5.826   2.514  1.00  0.00     0.049 A 
ATOM     15  C   UNL     1       4.899  -4.378   4.213  1.00  0.00     0.002 A 
ATOM     16  C   UNL     1       5.840  -5.322   3.810  1.00  0.00     0.004 A 
BRANCH   8  17
ATOM     17  C   UNL     1       2.166  -2.806   1.230  1.00  0.00     0.253 C 
ATOM     18  O   UNL     1       2.635  -1.803   1.774  1.00  0.00    -0.272 OA
BRANCH  17  19
ATOM     19  C   UNL     1       0.707  -2.792   0.728  1.00  0.00     0.260 C 
BRANCH  19  20
ATOM     20  O   UNL     1       0.410  -2.849  -0.651  1.00  0.00    -0.366 OA
BRANCH  20  21
ATOM     21  C   UNL     1       1.019  -1.844  -1.461  1.00  0.00     0.222 C 
BRANCH  21  22
ATOM     22  C   UNL     1       0.417  -0.439  -1.309  1.00  0.00     0.287 C 
BRANCH  22  23
ATOM     23  N   UNL     1       0.986   0.356  -0.222  1.00  0.00    -0.356 N 
ATOM     24  H   UNL     1       0.530   1.269  -0.194  1.00  0.00     0.344 HD
ATOM     25  H   UNL     1       1.986   0.480  -0.379  1.00  0.00     0.344 HD
ATOM     26  H   UNL     1       0.838  -0.125   0.665  1.00  0.00     0.344 HD
ENDBRANCH  22  23
ENDBRANCH  21  22
ENDBRANCH  20  21
ENDBRANCH  19  20
ENDBRANCH  17  19
ENDBRANCH   8  17
ENDBRANCH   4   7
ENDBRANCH   2   3
ENDBRANCH   1   2
BRANCH   1  27
ATOM     27  C   UNL     1       8.096  -1.481   0.555  1.00  0.00     0.002 C 
BRANCH  27  28
ATOM     28  C   UNL     1       7.529  -0.293   1.347  1.00  0.00     0.002 C 
BRANCH  28  29
ATOM     29  C   UNL     1       7.216  -0.561   2.822  1.00  0.00     0.021 C 
BRANCH  29  30
ATOM     30  C   UNL     1       8.405  -1.018   3.663  1.00  0.00     0.116 C 
BRANCH  30  31
ATOM     31  N   UNL     1       9.511  -0.073   3.606  1.00  0.00    -0.352 N 
ATOM     32  C   UNL     1      10.146   0.610   4.611  1.00  0.00     0.251 C 
ATOM     33  H   UNL     1       9.857   0.103   2.702  1.00  0.00     0.163 HD
ATOM     34  O   UNL     1      10.913   1.526   4.330  1.00  0.00    -0.269 OA
BRANCH  32  35
ATOM     35  C   UNL     1       9.912   0.252   6.027  1.00  0.00     0.039 A 
ATOM     36  C   UNL     1       9.777   1.277   6.968  1.00  0.00     0.014 A 
ATOM     37  C   UNL     1       9.877  -1.083   6.437  1.00  0.00     0.014 A 
ATOM     38  C   UNL     1       9.556   0.963   8.311  1.00  0.00     0.010 A 
ATOM     39  C   UNL     1       9.594  -1.396   7.764  1.00  0.00     0.010 A 
ATOM     40  C   UNL     1       9.437  -0.377   8.716  1.00  0.00    -0.014 A 
BRANCH  40  41
ATOM     41  C   UNL     1       9.150  -0.730  10.129  1.00  0.00     0.031 A 
ATOM     42  C   UNL     1      10.166  -1.481  10.945  1.00  0.00     0.074 A 
ATOM     43  C   UNL     1       7.948  -0.427  10.659  1.00  0.00     0.049 A 
ATOM     44  N   UNL     1      10.071  -1.930  12.171  1.00  0.00    -0.248 NA
ATOM     45  C   UNL     1      11.449  -1.789  10.291  1.00  0.00     0.031 C 
ATOM     46  C   UNL     1       6.865   0.269   9.958  1.00  0.00     0.029 A 
ATOM     47  N   UNL     1       7.432  -0.672  11.906  1.00  0.00    -0.354 N 
ATOM     48  C   UNL     1      11.270  -2.586  12.429  1.00  0.00     0.074 A 
ATOM     49  C   UNL     1      12.058  -2.516  11.217  1.00  0.00     0.031 C 
ATOM     50  C   UNL     1       5.824   0.413  10.793  1.00  0.00     0.029 A 
ATOM     51  C   UNL     1       6.147  -0.211  12.072  1.00  0.00     0.049 A 
ATOM     52  H   UNL     1       7.934  -1.134  12.616  1.00  0.00     0.167 HD
ATOM     53  C   UNL     1      11.683  -3.178  13.575  1.00  0.00     0.031 A 
ATOM     54  C   UNL     1       5.318  -0.289  13.131  1.00  0.00     0.031 A 
ATOM     55  C   UNL     1      10.900  -3.236  14.781  1.00  0.00     0.049 A 
ATOM     56  C   UNL     1       5.797  -0.957  14.390  1.00  0.00     0.074 A 
ATOM     57  C   UNL     1      11.252  -3.767  16.010  1.00  0.00     0.029 A 
ATOM     58  N   UNL     1       9.609  -2.748  14.911  1.00  0.00    -0.354 N 
ATOM     59  N   UNL     1       6.957  -1.521  14.633  1.00  0.00    -0.248 NA
ATOM     60  C   UNL     1       4.861  -0.990  15.522  1.00  0.00     0.031 C 
ATOM     61  C   UNL     1      10.155  -3.643  16.869  1.00  0.00     0.029 A 
ATOM     62  C   UNL     1       9.141  -2.984  16.192  1.00  0.00     0.049 A 
ATOM     63  H   UNL     1       9.101  -2.299  14.197  1.00  0.00     0.167 HD
ATOM     64  C   UNL     1       6.899  -1.951  15.954  1.00  0.00     0.074 A 
ATOM     65  C   UNL     1       5.596  -1.571  16.460  1.00  0.00     0.031 C 
ATOM     66  C   UNL     1       7.840  -2.601  16.681  1.00  0.00     0.031 A 
BRANCH  53  67
ATOM     67  C   UNL     1      13.047  -3.820  13.574  1.00  0.00    -0.014 A 
ATOM     68  C   UNL     1      14.217  -3.041  13.525  1.00  0.00     0.010 A 
ATOM     69  C   UNL     1      13.161  -5.220  13.661  1.00  0.00     0.010 A 
ATOM     70  C   UNL     1      15.474  -3.650  13.519  1.00  0.00     0.020 A 
ATOM     71  C   UNL     1      14.418  -5.832  13.684  1.00  0.00     0.020 A 
ATOM     72  C   UNL     1      15.567  -5.043  13.594  1.00  0.00     0.054 A 
BRANCH  72  73
ATOM     73  S   UNL     1      17.212  -5.807  13.600  1.00  0.00     0.124 S 
ATOM     74  O   UNL     1      17.623  -5.646  12.208  1.00  0.00    -0.237 OA
ATOM     75  O   UNL     1      17.941  -4.991  14.568  1.00  0.00    -0.237 OA
ATOM     76  O   UNL     1      16.954  -7.183  14.018  1.00  0.00    -0.744 OA
ENDBRANCH  72  73
ENDBRANCH  53  67
BRANCH  54  77
ATOM     77  C   UNL     1       3.952   0.296  13.048  1.00  0.00    -0.014 A 
ATOM     78  C   UNL     1       3.632   1.464  13.762  1.00  0.00     0.010 A 
ATOM     79  C   UNL     1       2.969  -0.303  12.239  1.00  0.00     0.010 A 
ATOM     80  C   UNL     1       2.349   2.013  13.683  1.00  0.00     0.020 A 
ATOM     81  C   UNL     1       1.693   0.258  12.136  1.00  0.00     0.020 A 
ATOM     82  C   UNL     1       1.388   1.407  12.869  1.00  0.00     0.054 A 
BRANCH  82  83
ATOM     83  S   UNL     1      -0.256   2.165  12.740  1.00  0.00     0.124 S 
ATOM     84  O   UNL     1      -0.854   1.810  14.023  1.00  0.00    -0.237 OA
ATOM     85  O   UNL     1       0.062   3.580  12.559  1.00  0.00    -0.237 OA
ATOM     86  O   UNL     1      -0.842   1.512  11.572  1.00  0.00    -0.744 OA
ENDBRANCH  82  83
ENDBRANCH  54  77
BRANCH  66  87
ATOM     87  C   UNL     1       7.511  -2.916  18.116  1.00  0.00    -0.014 A 
ATOM     88  C   UNL     1       6.592  -3.926  18.448  1.00  0.00     0.010 A 
ATOM     89  C   UNL     1       8.173  -2.224  19.147  1.00  0.00     0.010 A 
ATOM     90  C   UNL     1       6.318  -4.219  19.787  1.00  0.00     0.020 A 
ATOM     91  C   UNL     1       7.922  -2.532  20.486  1.00  0.00     0.020 A 
ATOM     92  C   UNL     1       6.986  -3.519  20.798  1.00  0.00     0.054 A 
BRANCH  92  93
ATOM     93  S   UNL     1       6.647  -3.948  22.527  1.00  0.00     0.124 S 
ATOM     94  O   UNL     1       5.329  -3.356  22.735  1.00  0.00    -0.237 OA
ATOM     95  O   UNL     1       6.684  -5.409  22.509  1.00  0.00    -0.237 OA
ATOM     96  O   UNL     1       7.739  -3.313  23.262  1.00  0.00    -0.744 OA
ENDBRANCH  92  93
ENDBRANCH  66  87
ENDBRANCH  40  41
ENDBRANCH  32  35
ENDBRANCH  30  31
ENDBRANCH  29  30
ENDBRANCH  28  29
ENDBRANCH  27  28
ENDBRANCH   1  27
TORSDOF 22
