REMARK SMILES O=C(CCN1C(=O)S/C(=C\c2ccccc2F)C1=O)Nc1ccc(C(=O)NCCCCCCNC(=O)c2ccc(-c3c4nc(c(-c5ccc(S(=O)(=O)[O-])cc5)c5ccc([nH]5)c(-c5ccc(S(=O)(=O)[O-])cc5)c5nc(c(-c6ccc(S(=O)(=O)[O-])cc6)c6ccc3[nH]6)C=C5)C=C4)cc2)c(O)c1
REMARK SMILES IDX 29 1 28 2 27 3 25 4 26 5 24 7 21 8 22 9 99 10 23 11 97 12
REMARK SMILES IDX 20 13 1 14 2 15 3 17 4 18 5 19 6 20 18 21 7 22 8 23 9 24
REMARK SMILES IDX 19 25 10 26 11 27 12 28 16 29 13 30 15 31 17 32 14 33 98 34
REMARK SMILES IDX 30 36 31 37 32 38 33 39 34 40 35 41 36 43 37 44 38 45 96 46
REMARK SMILES IDX 39 47 95 48 40 49 41 50 42 51 89 52 43 53 94 54 88 55 90 56
REMARK SMILES IDX 44 57 93 58 87 59 86 60 45 62 75 63 56 64 74 65 57 66 60 67
REMARK SMILES IDX 73 68 91 69 58 70 59 71 72 73 92 74 61 75 46 76 47 77 55 78
REMARK SMILES IDX 48 79 54 80 49 81 50 82 51 83 52 84 53 85 76 86 77 87 85 88
REMARK SMILES IDX 78 89 84 90 79 91 80 92 81 93 82 94 83 95 62 96 63 97 71 98
REMARK SMILES IDX 64 99 70 100 65 101 66 102 67 103 68 104 69 105
REMARK H PARENT 27 6 20 16 98 35 34 42 90 61 60 72
REMARK Flexibility Score: inf
ROOT
ATOM      1  C   UNL     1       1.251  -8.053  -2.947  1.00  0.00     0.021 C 
ENDROOT
BRANCH   1   2
ATOM      2  C   UNL     1       1.809  -6.687  -3.337  1.00  0.00     0.116 C 
BRANCH   2   3
ATOM      3  N   UNL     1       1.025  -5.990  -4.344  1.00  0.00    -0.352 N 
ATOM      4  C   UNL     1       0.772  -4.647  -4.504  1.00  0.00     0.255 C 
ATOM      5  O   UNL     1       0.027  -4.286  -5.413  1.00  0.00    -0.269 OA
ATOM      6  H   UNL     1       0.609  -6.572  -5.020  1.00  0.00     0.163 HD
BRANCH   4   7
ATOM      7  C   UNL     1       1.350  -3.624  -3.597  1.00  0.00     0.081 A 
ATOM      8  C   UNL     1       2.246  -1.659  -1.785  1.00  0.00     0.044 A 
ATOM      9  C   UNL     1       0.943  -1.612  -2.273  1.00  0.00     0.027 A 
ATOM     10  C   UNL     1       3.114  -2.650  -2.256  1.00  0.00     0.073 A 
ATOM     11  C   UNL     1       0.501  -2.586  -3.179  1.00  0.00     0.020 A 
ATOM     12  C   UNL     1       2.679  -3.604  -3.174  1.00  0.00     0.130 A 
BRANCH   8  13
ATOM     13  N   UNL     1       2.778  -0.751  -0.856  1.00  0.00    -0.326 N 
ATOM     14  O   UNL     1       0.892   0.299   0.013  1.00  0.00    -0.275 OA
ATOM     15  C   UNL     1       2.106   0.125  -0.029  1.00  0.00     0.226 C 
ATOM     16  H   UNL     1       3.760  -0.737  -0.785  1.00  0.00     0.169 HD
BRANCH  15  17
ATOM     17  C   UNL     1       3.044   0.929   0.858  1.00  0.00     0.122 C 
BRANCH  17  18
ATOM     18  C   UNL     1       3.842   0.085   1.861  1.00  0.00     0.140 C 
BRANCH  18  19
ATOM     19  N   UNL     1       4.873  -0.756   1.258  1.00  0.00    -0.268 N 
ATOM     20  C   UNL     1       5.980  -0.208   0.660  1.00  0.00     0.293 C 
ATOM     21  C   UNL     1       4.806  -2.134   1.300  1.00  0.00     0.268 C 
ATOM     22  O   UNL     1       6.233   0.979   0.551  1.00  0.00    -0.261 OA
ATOM     23  S   UNL     1       6.961  -1.468  -0.051  1.00  0.00    -0.022 SA
ATOM     24  C   UNL     1       5.937  -2.722   0.530  1.00  0.00     0.083 C 
ATOM     25  O   UNL     1       3.918  -2.791   1.822  1.00  0.00    -0.268 OA
ATOM     26  C   UNL     1       6.014  -4.038   0.285  1.00  0.00     0.032 C 
BRANCH  26  27
ATOM     27  C   UNL     1       7.027  -4.702  -0.548  1.00  0.00     0.012 A 
ATOM     28  C   UNL     1       6.613  -5.434  -1.670  1.00  0.00     0.011 A 
ATOM     29  C   UNL     1       8.393  -4.648  -0.251  1.00  0.00     0.130 A 
ATOM     30  C   UNL     1       7.555  -6.063  -2.490  1.00  0.00     0.001 A 
ATOM     31  C   UNL     1       9.335  -5.267  -1.068  1.00  0.00     0.040 A 
ATOM     32  F   UNL     1       8.821  -3.993   0.840  1.00  0.00    -0.206 F 
ATOM     33  C   UNL     1       8.915  -5.973  -2.194  1.00  0.00     0.003 A 
ENDBRANCH  26  27
ENDBRANCH  18  19
ENDBRANCH  17  18
ENDBRANCH  15  17
ENDBRANCH   8  13
BRANCH  12  34
ATOM     34  O   UNL     1       3.648  -4.450  -3.637  1.00  0.00    -0.507 OA
ATOM     35  H   UNL     1       3.431  -5.117  -4.257  1.00  0.00     0.293 HD
ENDBRANCH  12  34
ENDBRANCH   4   7
ENDBRANCH   2   3
ENDBRANCH   1   2
BRANCH   1  36
ATOM     36  C   UNL     1       1.146  -9.091  -4.070  1.00  0.00     0.002 C 
BRANCH  36  37
ATOM     37  C   UNL     1       2.405  -9.334  -4.906  1.00  0.00     0.002 C 
BRANCH  37  38
ATOM     38  C   UNL     1       3.681  -9.677  -4.135  1.00  0.00     0.021 C 
BRANCH  38  39
ATOM     39  C   UNL     1       3.569 -10.829  -3.142  1.00  0.00     0.116 C 
BRANCH  39  40
ATOM     40  N   UNL     1       3.160 -12.076  -3.764  1.00  0.00    -0.352 N 
ATOM     41  C   UNL     1       3.729 -13.323  -3.682  1.00  0.00     0.251 C 
ATOM     42  H   UNL     1       2.355 -12.018  -4.328  1.00  0.00     0.163 HD
ATOM     43  O   UNL     1       3.315 -14.229  -4.401  1.00  0.00    -0.269 OA
BRANCH  41  44
ATOM     44  C   UNL     1       4.856 -13.571  -2.754  1.00  0.00     0.039 A 
ATOM     45  C   UNL     1       5.950 -14.312  -3.208  1.00  0.00     0.014 A 
ATOM     46  C   UNL     1       4.837 -13.083  -1.444  1.00  0.00     0.014 A 
ATOM     47  C   UNL     1       7.049 -14.511  -2.370  1.00  0.00     0.010 A 
ATOM     48  C   UNL     1       5.967 -13.213  -0.639  1.00  0.00     0.010 A 
ATOM     49  C   UNL     1       7.083 -13.933  -1.090  1.00  0.00    -0.014 A 
BRANCH  49  50
ATOM     50  C   UNL     1       8.282 -14.063  -0.220  1.00  0.00     0.031 A 
ATOM     51  C   UNL     1       8.191 -14.771   1.104  1.00  0.00     0.074 A 
ATOM     52  C   UNL     1       9.441 -13.486  -0.595  1.00  0.00     0.049 A 
ATOM     53  N   UNL     1       9.120 -14.951   2.009  1.00  0.00    -0.248 NA
ATOM     54  C   UNL     1       6.880 -15.327   1.473  1.00  0.00     0.031 C 
ATOM     55  C   UNL     1       9.647 -12.728  -1.832  1.00  0.00     0.029 A 
ATOM     56  N   UNL     1      10.663 -13.438   0.030  1.00  0.00    -0.354 N 
ATOM     57  C   UNL     1       8.502 -15.619   3.060  1.00  0.00     0.074 A 
ATOM     58  C   UNL     1       7.109 -15.767   2.702  1.00  0.00     0.031 C 
ATOM     59  C   UNL     1      10.922 -12.314  -1.886  1.00  0.00     0.029 A 
ATOM     60  C   UNL     1      11.613 -12.733  -0.670  1.00  0.00     0.049 A 
ATOM     61  H   UNL     1      10.841 -13.868   0.897  1.00  0.00     0.167 HD
ATOM     62  C   UNL     1       9.047 -16.079   4.212  1.00  0.00     0.031 A 
ATOM     63  C   UNL     1      12.894 -12.442  -0.367  1.00  0.00     0.031 A 
ATOM     64  C   UNL     1      10.435 -15.926   4.563  1.00  0.00     0.049 A 
ATOM     65  C   UNL     1      13.480 -12.958   0.917  1.00  0.00     0.074 A 
ATOM     66  C   UNL     1      11.101 -16.417   5.673  1.00  0.00     0.029 A 
ATOM     67  N   UNL     1      11.368 -15.215   3.822  1.00  0.00    -0.354 N 
ATOM     68  N   UNL     1      12.901 -13.664   1.859  1.00  0.00    -0.248 NA
ATOM     69  C   UNL     1      14.893 -12.650   1.173  1.00  0.00     0.031 C 
ATOM     70  C   UNL     1      12.415 -15.941   5.640  1.00  0.00     0.029 A 
ATOM     71  C   UNL     1      12.593 -15.220   4.469  1.00  0.00     0.049 A 
ATOM     72  H   UNL     1      11.187 -14.772   2.961  1.00  0.00     0.167 HD
ATOM     73  C   UNL     1      13.886 -13.905   2.811  1.00  0.00     0.074 A 
ATOM     74  C   UNL     1      15.100 -13.284   2.320  1.00  0.00     0.031 C 
ATOM     75  C   UNL     1      13.793 -14.585   3.981  1.00  0.00     0.031 A 
BRANCH  62  76
ATOM     76  C   UNL     1       8.127 -16.765   5.192  1.00  0.00    -0.014 A 
ATOM     77  C   UNL     1       7.521 -18.000   4.893  1.00  0.00     0.010 A 
ATOM     78  C   UNL     1       7.876 -16.170   6.442  1.00  0.00     0.010 A 
ATOM     79  C   UNL     1       6.634 -18.592   5.797  1.00  0.00     0.020 A 
ATOM     80  C   UNL     1       7.019 -16.777   7.364  1.00  0.00     0.020 A 
ATOM     81  C   UNL     1       6.384 -17.973   7.025  1.00  0.00     0.054 A 
BRANCH  81  82
ATOM     82  S   UNL     1       5.223 -18.759   8.175  1.00  0.00     0.124 S 
ATOM     83  O   UNL     1       3.942 -18.538   7.507  1.00  0.00    -0.237 OA
ATOM     84  O   UNL     1       5.686 -20.144   8.200  1.00  0.00    -0.237 OA
ATOM     85  O   UNL     1       5.411 -18.019   9.420  1.00  0.00    -0.744 OA
ENDBRANCH  81  82
ENDBRANCH  62  76
BRANCH  63  86
ATOM     86  C   UNL     1      13.699 -11.622  -1.314  1.00  0.00    -0.014 A 
ATOM     87  C   UNL     1      14.733 -12.201  -2.070  1.00  0.00     0.010 A 
ATOM     88  C   UNL     1      13.393 -10.261  -1.503  1.00  0.00     0.010 A 
ATOM     89  C   UNL     1      15.443 -11.436  -3.001  1.00  0.00     0.020 A 
ATOM     90  C   UNL     1      14.080  -9.502  -2.453  1.00  0.00     0.020 A 
ATOM     91  C   UNL     1      15.103 -10.094  -3.195  1.00  0.00     0.054 A 
BRANCH  91  92
ATOM     92  S   UNL     1      15.972  -9.147  -4.476  1.00  0.00     0.124 S 
ATOM     93  O   UNL     1      17.296  -8.980  -3.887  1.00  0.00    -0.237 OA
ATOM     94  O   UNL     1      15.897 -10.040  -5.629  1.00  0.00    -0.237 OA
ATOM     95  O   UNL     1      15.178  -7.925  -4.593  1.00  0.00    -0.744 OA
ENDBRANCH  91  92
ENDBRANCH  63  86
BRANCH  75  96
ATOM     96  C   UNL     1      15.045 -14.717   4.810  1.00  0.00    -0.014 A 
ATOM     97  C   UNL     1      15.606 -13.613   5.476  1.00  0.00     0.010 A 
ATOM     98  C   UNL     1      15.637 -15.985   4.970  1.00  0.00     0.010 A 
ATOM     99  C   UNL     1      16.754 -13.768   6.258  1.00  0.00     0.020 A 
ATOM    100  C   UNL     1      16.765 -16.149   5.778  1.00  0.00     0.020 A 
ATOM    101  C   UNL     1      17.325 -15.036   6.406  1.00  0.00     0.054 A 
BRANCH 101 102
ATOM    102  S   UNL     1      18.789 -15.216   7.460  1.00  0.00     0.124 S 
ATOM    103  O   UNL     1      19.823 -14.567   6.659  1.00  0.00    -0.237 OA
ATOM    104  O   UNL     1      18.397 -14.507   8.675  1.00  0.00    -0.237 OA
ATOM    105  O   UNL     1      18.934 -16.663   7.610  1.00  0.00    -0.744 OA
ENDBRANCH 101 102
ENDBRANCH  75  96
ENDBRANCH  49  50
ENDBRANCH  41  44
ENDBRANCH  39  40
ENDBRANCH  38  39
ENDBRANCH  37  38
ENDBRANCH  36  37
ENDBRANCH   1  36
TORSDOF 22
