REMARK SMILES CC[NH+](CC)[C@](C)(C(=O)NCCCCCCNC(=O)c1ccc(-c2c3nc(c(-c4ccc(S(=O)(=O)[O-])cc4)c4ccc([nH]4)c(-c4ccc(S(=O)(=O)[O-])cc4)c4nc(c(-c5ccc(S(=O)(=O)[O-])cc5)c5ccc2[nH]5)C=C4)C=C3)cc1)c1cc(F)c(C)cc1F
REMARK SMILES IDX 14 1 13 2 12 3 11 4 10 5 8 6 9 7 6 9 7 10 3 11 2 13 1 14
REMARK SMILES IDX 4 15 5 16 80 17 81 18 87 19 82 20 86 21 88 22 83 23 84 24
REMARK SMILES IDX 85 25 15 26 16 27 17 28 18 29 19 31 20 32 21 33 79 34 22 35
REMARK SMILES IDX 78 36 23 37 24 38 25 39 72 40 26 41 77 42 71 43 73 44 27 45
REMARK SMILES IDX 76 46 70 47 69 48 28 50 58 51 39 52 57 53 40 54 43 55 56 56
REMARK SMILES IDX 74 57 41 58 42 59 55 61 75 62 44 63 29 64 30 65 38 66 31 67
REMARK SMILES IDX 37 68 32 69 33 70 34 71 35 72 36 73 59 74 60 75 68 76 61 77
REMARK SMILES IDX 67 78 62 79 63 80 64 81 65 82 66 83 45 84 46 85 54 86 47 87
REMARK SMILES IDX 53 88 48 89 49 90 50 91 51 92 52 93
REMARK H PARENT 10 8 3 12 17 30 73 49 43 60
REMARK Flexibility Score: inf
ROOT
ATOM      1  C   UNL     1       1.675   3.408   0.883  1.00  0.00     0.002 C 
ENDROOT
BRANCH   1   2
ATOM      2  C   UNL     1       0.807   2.337   1.556  1.00  0.00     0.002 C 
BRANCH   2   3
ATOM      3  C   UNL     1       0.153   1.317   0.619  1.00  0.00     0.021 C 
BRANCH   3   4
ATOM      4  C   UNL     1       1.119   0.620  -0.331  1.00  0.00     0.116 C 
BRANCH   4   5
ATOM      5  N   UNL     1       1.936  -0.373   0.332  1.00  0.00    -0.350 N 
ATOM      6  C   UNL     1       2.529  -1.542  -0.054  1.00  0.00     0.286 C 
ATOM      7  O   UNL     1       3.240  -2.019   0.846  1.00  0.00    -0.267 OA
ATOM      8  H   UNL     1       2.103  -0.157   1.278  1.00  0.00     0.163 HD
BRANCH   6   9
ATOM      9  C   UNL     1       2.271  -2.312  -1.442  1.00  0.00     0.202 C 
ATOM     10  C   UNL     1       0.725  -2.451  -1.565  1.00  0.00     0.096 C 
BRANCH   9  11
ATOM     11  N   UNL     1       2.917  -1.694  -2.677  1.00  0.00    -0.319 N 
ATOM     12  H   UNL     1       3.894  -1.952  -2.533  1.00  0.00     0.349 HD
BRANCH  11  13
ATOM     13  C   UNL     1       3.022  -0.239  -2.779  1.00  0.00     0.259 C 
ATOM     14  C   UNL     1       4.175   0.380  -1.992  1.00  0.00     0.071 C 
ENDBRANCH  11  13
BRANCH  11  15
ATOM     15  C   UNL     1       2.392  -2.292  -3.929  1.00  0.00     0.259 C 
ATOM     16  C   UNL     1       3.143  -1.933  -5.213  1.00  0.00     0.071 C 
ENDBRANCH  11  15
ENDBRANCH   9  11
BRANCH   9  17
ATOM     17  C   UNL     1       2.899  -3.753  -1.292  1.00  0.00     0.060 A 
ATOM     18  C   UNL     1       2.153  -4.940  -1.446  1.00  0.00     0.053 A 
ATOM     19  C   UNL     1       4.273  -3.910  -1.024  1.00  0.00     0.133 A 
ATOM     20  C   UNL     1       2.748  -6.194  -1.308  1.00  0.00     0.126 A 
ATOM     21  C   UNL     1       4.860  -5.171  -0.856  1.00  0.00     0.046 A 
ATOM     22  F   UNL     1       5.076  -2.839  -0.923  1.00  0.00    -0.206 F 
ATOM     23  F   UNL     1       1.992  -7.286  -1.492  1.00  0.00    -0.207 F 
ATOM     24  C   UNL     1       4.095  -6.332  -0.989  1.00  0.00    -0.012 A 
ATOM     25  C   UNL     1       4.686  -7.697  -0.828  1.00  0.00     0.047 C 
ENDBRANCH   9  17
ENDBRANCH   6   9
ENDBRANCH   4   5
ENDBRANCH   3   4
ENDBRANCH   2   3
ENDBRANCH   1   2
BRANCH   1  26
ATOM     26  C   UNL     1       1.036   4.156  -0.289  1.00  0.00     0.021 C 
BRANCH  26  27
ATOM     27  C   UNL     1      -0.320   4.790  -0.003  1.00  0.00     0.116 C 
BRANCH  27  28
ATOM     28  N   UNL     1      -0.281   5.728   1.100  1.00  0.00    -0.352 N 
ATOM     29  C   UNL     1      -0.854   6.978   1.196  1.00  0.00     0.251 C 
ATOM     30  H   UNL     1       0.225   5.432   1.891  1.00  0.00     0.163 HD
ATOM     31  O   UNL     1      -0.619   7.690   2.161  1.00  0.00    -0.269 OA
BRANCH  29  32
ATOM     32  C   UNL     1      -1.725   7.461   0.102  1.00  0.00     0.039 A 
ATOM     33  C   UNL     1      -1.499   8.737  -0.418  1.00  0.00     0.014 A 
ATOM     34  C   UNL     1      -2.742   6.655  -0.418  1.00  0.00     0.014 A 
ATOM     35  C   UNL     1      -2.252   9.182  -1.507  1.00  0.00     0.010 A 
ATOM     36  C   UNL     1      -3.446   7.074  -1.544  1.00  0.00     0.010 A 
ATOM     37  C   UNL     1      -3.206   8.339  -2.102  1.00  0.00    -0.014 A 
BRANCH  37  38
ATOM     38  C   UNL     1      -3.949   8.757  -3.317  1.00  0.00     0.031 A 
ATOM     39  C   UNL     1      -5.439   8.947  -3.264  1.00  0.00     0.074 A 
ATOM     40  C   UNL     1      -3.289   8.897  -4.484  1.00  0.00     0.049 A 
ATOM     41  N   UNL     1      -6.267   9.237  -4.235  1.00  0.00    -0.248 NA
ATOM     42  C   UNL     1      -6.087   8.765  -1.955  1.00  0.00     0.031 C 
ATOM     43  C   UNL     1      -1.848   8.705  -4.671  1.00  0.00     0.029 A 
ATOM     44  N   UNL     1      -3.744   9.223  -5.737  1.00  0.00    -0.354 N 
ATOM     45  C   UNL     1      -7.532   9.256  -3.660  1.00  0.00     0.074 A 
ATOM     46  C   UNL     1      -7.368   8.905  -2.266  1.00  0.00     0.031 C 
ATOM     47  C   UNL     1      -1.537   8.938  -5.957  1.00  0.00     0.029 A 
ATOM     48  C   UNL     1      -2.756   9.253  -6.693  1.00  0.00     0.049 A 
ATOM     49  H   UNL     1      -4.689   9.418  -5.932  1.00  0.00     0.167 HD
ATOM     50  C   UNL     1      -8.721   9.555  -4.237  1.00  0.00     0.031 A 
ATOM     51  C   UNL     1      -2.824   9.495  -8.017  1.00  0.00     0.031 A 
ATOM     52  C   UNL     1      -8.878   9.913  -5.622  1.00  0.00     0.049 A 
ATOM     53  C   UNL     1      -4.158   9.807  -8.638  1.00  0.00     0.074 A 
ATOM     54  C   UNL     1     -10.032  10.287  -6.287  1.00  0.00     0.029 A 
ATOM     55  N   UNL     1      -7.852   9.937  -6.555  1.00  0.00    -0.354 N 
ATOM     56  N   UNL     1      -5.335   9.882  -8.063  1.00  0.00    -0.248 NA
ATOM     57  C   UNL     1      -4.172  10.074 -10.082  1.00  0.00     0.031 C 
ATOM     58  C   UNL     1      -9.714  10.489  -7.634  1.00  0.00     0.029 A 
ATOM     59  C   UNL     1      -8.351  10.294  -7.796  1.00  0.00     0.049 A 
ATOM     60  H   UNL     1      -6.909   9.731  -6.363  1.00  0.00     0.167 HD
ATOM     61  C   UNL     1      -6.226  10.228  -9.073  1.00  0.00     0.074 A 
ATOM     62  C   UNL     1      -5.450  10.361 -10.289  1.00  0.00     0.031 C 
ATOM     63  C   UNL     1      -7.566  10.420  -8.998  1.00  0.00     0.031 A 
BRANCH  50  64
ATOM     64  C   UNL     1      -9.950   9.500  -3.368  1.00  0.00    -0.014 A 
ATOM     65  C   UNL     1     -10.171  10.457  -2.361  1.00  0.00     0.010 A 
ATOM     66  C   UNL     1     -10.915   8.499  -3.585  1.00  0.00     0.010 A 
ATOM     67  C   UNL     1     -11.314  10.390  -1.560  1.00  0.00     0.020 A 
ATOM     68  C   UNL     1     -12.072   8.445  -2.803  1.00  0.00     0.020 A 
ATOM     69  C   UNL     1     -12.255   9.381  -1.783  1.00  0.00     0.054 A 
BRANCH  69  70
ATOM     70  S   UNL     1     -13.738   9.328  -0.739  1.00  0.00     0.124 S 
ATOM     71  O   UNL     1     -13.196   8.836   0.525  1.00  0.00    -0.237 OA
ATOM     72  O   UNL     1     -14.177  10.721  -0.734  1.00  0.00    -0.237 OA
ATOM     73  O   UNL     1     -14.623   8.401  -1.440  1.00  0.00    -0.744 OA
ENDBRANCH  69  70
ENDBRANCH  50  64
BRANCH  51  74
ATOM     74  C   UNL     1      -1.587   9.456  -8.842  1.00  0.00    -0.014 A 
ATOM     75  C   UNL     1      -1.037  10.641  -9.361  1.00  0.00     0.010 A 
ATOM     76  C   UNL     1      -0.941   8.232  -9.099  1.00  0.00     0.010 A 
ATOM     77  C   UNL     1       0.127  10.603 -10.134  1.00  0.00     0.020 A 
ATOM     78  C   UNL     1       0.238   8.193  -9.849  1.00  0.00     0.020 A 
ATOM     79  C   UNL     1       0.758   9.379 -10.372  1.00  0.00     0.054 A 
BRANCH  79  80
ATOM     80  S   UNL     1       2.299   9.359 -11.331  1.00  0.00     0.124 S 
ATOM     81  O   UNL     1       1.812   9.580 -12.689  1.00  0.00    -0.237 OA
ATOM     82  O   UNL     1       3.053  10.462 -10.740  1.00  0.00    -0.237 OA
ATOM     83  O   UNL     1       2.846   8.030 -11.069  1.00  0.00    -0.744 OA
ENDBRANCH  79  80
ENDBRANCH  51  74
BRANCH  63  84
ATOM     84  C   UNL     1      -8.281  10.819 -10.261  1.00  0.00    -0.014 A 
ATOM     85  C   UNL     1      -8.508   9.891 -11.292  1.00  0.00     0.010 A 
ATOM     86  C   UNL     1      -8.793  12.124 -10.386  1.00  0.00     0.010 A 
ATOM     87  C   UNL     1      -9.213  10.268 -12.438  1.00  0.00     0.020 A 
ATOM     88  C   UNL     1      -9.521  12.496 -11.518  1.00  0.00     0.020 A 
ATOM     89  C   UNL     1      -9.718  11.568 -12.542  1.00  0.00     0.054 A 
BRANCH  89  90
ATOM     90  S   UNL     1     -10.680  12.015 -14.013  1.00  0.00     0.124 S 
ATOM     91  O   UNL     1      -9.642  12.130 -15.033  1.00  0.00    -0.237 OA
ATOM     92  O   UNL     1     -11.585  10.878 -14.162  1.00  0.00    -0.237 OA
ATOM     93  O   UNL     1     -11.326  13.271 -13.636  1.00  0.00    -0.744 OA
ENDBRANCH  89  90
ENDBRANCH  63  84
ENDBRANCH  37  38
ENDBRANCH  29  32
ENDBRANCH  27  28
ENDBRANCH  26  27
ENDBRANCH   1  26
TORSDOF 20
