REMARK SMILES Cc1ccc(NC(=O)C[C@H]2SC[C@H](C(=O)NCCCCCCNC(=O)c3ccc(-c4c5nc(c(-c6ccc(S(=O)(=O)[O-])cc6)c6ccc([nH]6)c(-c6ccc(S(=O)(=O)[O-])cc6)c6nc(c(-c7ccc(S(=O)(=O)[O-])cc7)c7ccc4[nH]7)C=C6)C=C5)cc3)NC2=O)cc1
REMARK SMILES IDX 19 1 18 2 17 3 16 4 14 5 15 6 13 8 10 9 11 10 87 11 12 12
REMARK SMILES IDX 86 13 88 14 9 16 7 17 6 18 8 20 5 21 1 22 2 23 3 24 90 25
REMARK SMILES IDX 4 26 89 27 20 28 21 29 22 30 23 31 24 32 25 34 26 35 27 36
REMARK SMILES IDX 85 37 28 38 84 39 29 40 30 41 31 42 78 43 32 44 83 45 77 46
REMARK SMILES IDX 79 47 33 48 82 49 76 50 75 51 34 53 64 54 45 55 63 56 46 57
REMARK SMILES IDX 49 58 62 59 80 60 47 61 48 62 61 64 81 65 50 66 35 67 36 68
REMARK SMILES IDX 44 69 37 70 43 71 38 72 39 73 40 74 41 75 42 76 65 77 66 78
REMARK SMILES IDX 74 79 67 80 73 81 68 82 69 83 70 84 71 85 72 86 51 87 52 88
REMARK SMILES IDX 60 89 53 90 59 91 54 92 55 93 56 94 57 95 58 96
REMARK H PARENT 16 7 86 15 6 19 23 33 79 52 49 63
REMARK Flexibility Score: inf
ROOT
ATOM      1  C   UNL     1      -8.871  -3.473  -0.991  1.00  0.00     0.002 C 
ENDROOT
BRANCH   1   2
ATOM      2  C   UNL     1      -7.401  -3.032  -0.917  1.00  0.00     0.021 C 
BRANCH   2   3
ATOM      3  C   UNL     1      -6.381  -4.085  -1.358  1.00  0.00     0.116 C 
BRANCH   3   4
ATOM      4  N   UNL     1      -6.536  -4.416  -2.764  1.00  0.00    -0.354 N 
ATOM      5  C   UNL     1      -5.715  -4.215  -3.830  1.00  0.00     0.243 C 
ATOM      6  O   UNL     1      -6.095  -4.628  -4.930  1.00  0.00    -0.273 OA
ATOM      7  H   UNL     1      -7.384  -4.865  -2.983  1.00  0.00     0.163 HD
BRANCH   5   8
ATOM      8  C   UNL     1      -4.330  -3.564  -3.686  1.00  0.00     0.181 C 
ATOM      9  C   UNL     1      -2.053  -2.714  -1.875  1.00  0.00     0.145 C 
ATOM     10  S   UNL     1      -2.714  -1.420  -3.014  1.00  0.00    -0.145 SA
ATOM     11  C   UNL     1      -2.182  -4.098  -2.529  1.00  0.00     0.234 C 
ATOM     12  C   UNL     1      -4.389  -2.112  -3.221  1.00  0.00     0.105 C 
ATOM     13  N   UNL     1      -3.437  -4.461  -2.952  1.00  0.00    -0.343 N 
ATOM     14  O   UNL     1      -1.288  -4.935  -2.602  1.00  0.00    -0.274 OA
ATOM     15  H   UNL     1      -3.752  -5.372  -2.751  1.00  0.00     0.164 HD
BRANCH   9  16
ATOM     16  C   UNL     1      -0.682  -2.278  -1.345  1.00  0.00     0.124 C 
BRANCH  16  17
ATOM     17  C   UNL     1       0.358  -3.335  -1.040  1.00  0.00     0.226 C 
ATOM     18  N   UNL     1       0.139  -4.398  -0.223  1.00  0.00    -0.326 N 
ATOM     19  H   UNL     1       0.885  -5.040  -0.210  1.00  0.00     0.169 HD
ATOM     20  O   UNL     1       1.480  -3.247  -1.557  1.00  0.00    -0.275 OA
BRANCH  18  21
ATOM     21  C   UNL     1      -0.926  -4.772   0.603  1.00  0.00     0.041 A 
ATOM     22  C   UNL     1      -4.209  -6.231   2.992  1.00  0.00     0.044 C 
ATOM     23  C   UNL     1      -3.047  -5.731   2.187  1.00  0.00    -0.051 A 
ATOM     24  C   UNL     1      -2.840  -4.356   2.022  1.00  0.00     0.005 A 
ATOM     25  C   UNL     1      -2.167  -6.624   1.572  1.00  0.00     0.005 A 
ATOM     26  C   UNL     1      -1.781  -3.878   1.241  1.00  0.00     0.026 A 
ATOM     27  C   UNL     1      -1.105  -6.146   0.803  1.00  0.00     0.026 A 
ENDBRANCH  18  21
ENDBRANCH  16  17
ENDBRANCH   9  16
ENDBRANCH   5   8
ENDBRANCH   3   4
ENDBRANCH   2   3
ENDBRANCH   1   2
BRANCH   1  28
ATOM     28  C   UNL     1      -9.239  -4.766  -0.247  1.00  0.00     0.002 C 
BRANCH  28  29
ATOM     29  C   UNL     1      -8.799  -4.850   1.216  1.00  0.00     0.021 C 
BRANCH  29  30
ATOM     30  C   UNL     1      -9.435  -3.788   2.108  1.00  0.00     0.116 C 
BRANCH  30  31
ATOM     31  N   UNL     1     -10.247  -4.346   3.178  1.00  0.00    -0.352 N 
ATOM     32  C   UNL     1     -10.801  -3.673   4.259  1.00  0.00     0.251 C 
ATOM     33  H   UNL     1     -10.424  -5.313   3.130  1.00  0.00     0.163 HD
ATOM     34  O   UNL     1     -11.294  -4.243   5.203  1.00  0.00    -0.269 OA
BRANCH  32  35
ATOM     35  C   UNL     1     -10.863  -2.198   4.147  1.00  0.00     0.039 A 
ATOM     36  C   UNL     1     -12.121  -1.626   3.927  1.00  0.00     0.014 A 
ATOM     37  C   UNL     1      -9.695  -1.457   3.996  1.00  0.00     0.014 A 
ATOM     38  C   UNL     1     -12.203  -0.343   3.392  1.00  0.00     0.010 A 
ATOM     39  C   UNL     1      -9.775  -0.218   3.389  1.00  0.00     0.010 A 
ATOM     40  C   UNL     1     -11.025   0.321   3.047  1.00  0.00    -0.014 A 
BRANCH  40  41
ATOM     41  C   UNL     1     -11.001   1.538   2.245  1.00  0.00     0.031 A 
ATOM     42  C   UNL     1     -10.752   2.851   2.881  1.00  0.00     0.074 A 
ATOM     43  C   UNL     1     -11.153   1.476   0.902  1.00  0.00     0.049 A 
ATOM     44  N   UNL     1     -11.198   3.974   2.421  1.00  0.00    -0.248 NA
ATOM     45  C   UNL     1     -10.000   2.991   4.124  1.00  0.00     0.031 C 
ATOM     46  C   UNL     1     -10.871   2.543  -0.055  1.00  0.00     0.029 A 
ATOM     47  N   UNL     1     -11.802   0.503   0.141  1.00  0.00    -0.354 N 
ATOM     48  C   UNL     1     -10.549   4.976   3.106  1.00  0.00     0.074 A 
ATOM     49  C   UNL     1      -9.887   4.320   4.211  1.00  0.00     0.031 C 
ATOM     50  C   UNL     1     -11.589   2.322  -1.166  1.00  0.00     0.029 A 
ATOM     51  C   UNL     1     -12.453   1.183  -0.901  1.00  0.00     0.049 A 
ATOM     52  H   UNL     1     -11.804  -0.468   0.303  1.00  0.00     0.167 HD
ATOM     53  C   UNL     1     -10.484   6.235   2.591  1.00  0.00     0.031 A 
ATOM     54  C   UNL     1     -13.797   1.138  -1.135  1.00  0.00     0.031 A 
ATOM     55  C   UNL     1     -11.190   6.357   1.322  1.00  0.00     0.049 A 
ATOM     56  C   UNL     1     -14.445   2.506  -1.157  1.00  0.00     0.074 A 
ATOM     57  C   UNL     1     -10.759   6.353   0.005  1.00  0.00     0.029 A 
ATOM     58  N   UNL     1     -12.572   6.223   1.286  1.00  0.00    -0.354 N 
ATOM     59  N   UNL     1     -13.874   3.586  -0.706  1.00  0.00    -0.248 NA
ATOM     60  C   UNL     1     -15.808   2.753  -1.621  1.00  0.00     0.031 C 
ATOM     61  C   UNL     1     -11.888   6.162  -0.827  1.00  0.00     0.029 A 
ATOM     62  C   UNL     1     -13.005   6.064  -0.017  1.00  0.00     0.049 A 
ATOM     63  H   UNL     1     -13.159   6.240   2.076  1.00  0.00     0.167 HD
ATOM     64  C   UNL     1     -14.751   4.637  -0.775  1.00  0.00     0.074 A 
ATOM     65  C   UNL     1     -15.944   4.069  -1.376  1.00  0.00     0.031 C 
ATOM     66  C   UNL     1     -14.418   5.877  -0.311  1.00  0.00     0.031 A 
BRANCH  53  67
ATOM     67  C   UNL     1      -9.483   7.246   3.095  1.00  0.00    -0.014 A 
ATOM     68  C   UNL     1      -8.808   8.075   2.176  1.00  0.00     0.010 A 
ATOM     69  C   UNL     1      -9.123   7.382   4.449  1.00  0.00     0.010 A 
ATOM     70  C   UNL     1      -7.753   8.909   2.566  1.00  0.00     0.020 A 
ATOM     71  C   UNL     1      -8.044   8.186   4.849  1.00  0.00     0.020 A 
ATOM     72  C   UNL     1      -7.354   8.935   3.898  1.00  0.00     0.054 A 
BRANCH  72  73
ATOM     73  S   UNL     1      -5.914   9.934   4.356  1.00  0.00     0.124 S 
ATOM     74  O   UNL     1      -4.888   9.450   3.435  1.00  0.00    -0.237 OA
ATOM     75  O   UNL     1      -6.387  11.294   4.114  1.00  0.00    -0.237 OA
ATOM     76  O   UNL     1      -5.688   9.593   5.760  1.00  0.00    -0.744 OA
ENDBRANCH  72  73
ENDBRANCH  53  67
BRANCH  54  77
ATOM     77  C   UNL     1     -14.466  -0.099  -0.651  1.00  0.00    -0.014 A 
ATOM     78  C   UNL     1     -14.177  -1.306  -1.321  1.00  0.00     0.010 A 
ATOM     79  C   UNL     1     -15.007  -0.148   0.645  1.00  0.00     0.010 A 
ATOM     80  C   UNL     1     -14.274  -2.528  -0.652  1.00  0.00     0.020 A 
ATOM     81  C   UNL     1     -15.109  -1.374   1.316  1.00  0.00     0.020 A 
ATOM     82  C   UNL     1     -14.685  -2.546   0.681  1.00  0.00     0.054 A 
BRANCH  82  83
ATOM     83  S   UNL     1     -14.467  -4.089   1.619  1.00  0.00     0.124 S 
ATOM     84  O   UNL     1     -15.369  -5.002   0.925  1.00  0.00    -0.237 OA
ATOM     85  O   UNL     1     -13.040  -4.355   1.440  1.00  0.00    -0.237 OA
ATOM     86  O   UNL     1     -14.864  -3.717   2.973  1.00  0.00    -0.744 OA
ENDBRANCH  82  83
ENDBRANCH  54  77
BRANCH  66  87
ATOM     87  C   UNL     1     -15.344   7.061  -0.157  1.00  0.00    -0.014 A 
ATOM     88  C   UNL     1     -16.741   6.970  -0.056  1.00  0.00     0.010 A 
ATOM     89  C   UNL     1     -14.776   8.348   0.018  1.00  0.00     0.010 A 
ATOM     90  C   UNL     1     -17.534   8.110   0.149  1.00  0.00     0.020 A 
ATOM     91  C   UNL     1     -15.552   9.483   0.266  1.00  0.00     0.020 A 
ATOM     92  C   UNL     1     -16.935   9.360   0.306  1.00  0.00     0.054 A 
BRANCH  92  93
ATOM     93  S   UNL     1     -17.961  10.815   0.636  1.00  0.00     0.124 S 
ATOM     94  O   UNL     1     -18.291  11.263  -0.714  1.00  0.00    -0.237 OA
ATOM     95  O   UNL     1     -19.076  10.264   1.403  1.00  0.00    -0.237 OA
ATOM     96  O   UNL     1     -17.073  11.696   1.390  1.00  0.00    -0.744 OA
ENDBRANCH  92  93
ENDBRANCH  66  87
ENDBRANCH  40  41
ENDBRANCH  32  35
ENDBRANCH  30  31
ENDBRANCH  29  30
ENDBRANCH  28  29
ENDBRANCH   1  28
TORSDOF 19
