REMARK SMILES Cc1ccc(Br)cc1S(=O)(=O)N[C@H]1C=C[C@H](C(=O)NCCCCCCNC(=O)c2ccc(-c3c4nc(c(-c5ccc(S(=O)(=O)[O-])cc5)c5ccc([nH]5)c(-c5ccc(S(=O)(=O)[O-])cc5)c5nc(c(-c6ccc(S(=O)(=O)[O-])cc6)c6ccc3[nH]6)C=C5)C=C4)cc2)C1
REMARK SMILES IDX 22 1 21 2 20 3 19 4 17 5 18 6 16 8 13 9 14 10 89 11 15 12
REMARK SMILES IDX 12 13 9 15 10 16 11 17 8 18 1 19 2 20 3 21 4 22 7 23 5 24
REMARK SMILES IDX 6 25 23 26 24 27 25 28 26 29 27 30 28 32 29 33 30 34 88 35
REMARK SMILES IDX 31 36 87 37 32 38 33 39 34 40 81 41 35 42 86 43 80 44 82 45
REMARK SMILES IDX 36 46 85 47 79 48 78 49 37 51 67 52 48 53 66 54 49 55 52 56
REMARK SMILES IDX 65 57 83 58 50 59 51 60 64 62 84 63 53 64 38 65 39 66 47 67
REMARK SMILES IDX 40 68 46 69 41 70 42 71 43 72 44 73 45 74 68 75 69 76 77 77
REMARK SMILES IDX 70 78 76 79 71 80 72 81 73 82 74 83 75 84 54 85 55 86 63 87
REMARK SMILES IDX 56 88 62 89 57 90 58 91 59 92 60 93 61 94
REMARK H PARENT 19 7 12 14 26 31 82 50 52 61
REMARK Flexibility Score: inf
ROOT
ATOM      1  C   UNL     1       3.237   1.024  -6.403  1.00  0.00     0.002 C 
ENDROOT
BRANCH   1   2
ATOM      2  C   UNL     1       3.694   1.343  -4.976  1.00  0.00     0.021 C 
BRANCH   2   3
ATOM      3  C   UNL     1       3.528   0.174  -4.011  1.00  0.00     0.116 C 
BRANCH   3   4
ATOM      4  N   UNL     1       4.584  -0.803  -4.180  1.00  0.00    -0.356 N 
ATOM      5  C   UNL     1       5.670  -1.158  -3.454  1.00  0.00     0.226 C 
ATOM      6  O   UNL     1       6.445  -1.955  -4.002  1.00  0.00    -0.274 OA
ATOM      7  H   UNL     1       4.491  -1.327  -5.009  1.00  0.00     0.163 HD
BRANCH   5   8
ATOM      8  C   UNL     1       6.016  -0.644  -2.052  1.00  0.00     0.103 C 
ATOM      9  C   UNL     1       5.090   1.440  -1.172  1.00  0.00     0.093 C 
ATOM     10  C   UNL     1       6.536   1.590  -1.519  1.00  0.00    -0.011 C 
ATOM     11  C   UNL     1       4.938  -0.088  -1.135  1.00  0.00     0.042 C 
ATOM     12  C   UNL     1       7.028   0.464  -2.053  1.00  0.00    -0.016 C 
BRANCH   9  13
ATOM     13  N   UNL     1       4.800   2.005   0.129  1.00  0.00    -0.204 NA
ATOM     14  H   UNL     1       4.986   1.277   0.818  1.00  0.00     0.142 HD
BRANCH  13  15
ATOM     15  S   UNL     1       3.256   2.596   0.442  1.00  0.00     0.241 S 
ATOM     16  O   UNL     1       2.862   3.347  -0.736  1.00  0.00    -0.207 OA
ATOM     17  O   UNL     1       3.300   3.201   1.748  1.00  0.00    -0.207 OA
BRANCH  15  18
ATOM     18  C   UNL     1       2.212   1.152   0.550  1.00  0.00     0.086 A 
ATOM     19  C   UNL     1       3.717  -0.099   2.238  1.00  0.00     0.046 C 
ATOM     20  C   UNL     1       2.545   0.011   1.305  1.00  0.00    -0.031 A 
ATOM     21  C   UNL     1       1.700  -1.113   1.217  1.00  0.00     0.006 A 
ATOM     22  C   UNL     1       0.533  -1.087   0.451  1.00  0.00     0.016 A 
ATOM     23  C   UNL     1       1.022   1.184  -0.200  1.00  0.00     0.037 A 
ATOM     24  C   UNL     1       0.188   0.070  -0.235  1.00  0.00     0.019 A 
ATOM     25  Br  UNL     1      -1.421   0.129  -1.224  1.00  0.00    -0.051 Br
ENDBRANCH  15  18
ENDBRANCH  13  15
ENDBRANCH   9  13
ENDBRANCH   5   8
ENDBRANCH   3   4
ENDBRANCH   2   3
ENDBRANCH   1   2
BRANCH   1  26
ATOM     26  C   UNL     1       1.770   0.597  -6.533  1.00  0.00     0.002 C 
BRANCH  26  27
ATOM     27  C   UNL     1       0.749   1.541  -5.890  1.00  0.00     0.021 C 
BRANCH  27  28
ATOM     28  C   UNL     1       0.822   2.990  -6.362  1.00  0.00     0.116 C 
BRANCH  28  29
ATOM     29  N   UNL     1       0.656   3.104  -7.801  1.00  0.00    -0.352 N 
ATOM     30  C   UNL     1      -0.182   3.912  -8.522  1.00  0.00     0.251 C 
ATOM     31  H   UNL     1       1.232   2.512  -8.337  1.00  0.00     0.163 HD
ATOM     32  O   UNL     1      -0.310   3.730  -9.729  1.00  0.00    -0.269 OA
BRANCH  30  33
ATOM     33  C   UNL     1      -0.939   4.991  -7.851  1.00  0.00     0.039 A 
ATOM     34  C   UNL     1      -2.279   5.183  -8.200  1.00  0.00     0.014 A 
ATOM     35  C   UNL     1      -0.327   5.836  -6.920  1.00  0.00     0.014 A 
ATOM     36  C   UNL     1      -3.014   6.203  -7.592  1.00  0.00     0.010 A 
ATOM     37  C   UNL     1      -1.077   6.815  -6.271  1.00  0.00     0.010 A 
ATOM     38  C   UNL     1      -2.422   7.017  -6.613  1.00  0.00    -0.014 A 
BRANCH  38  39
ATOM     39  C   UNL     1      -3.196   8.104  -5.963  1.00  0.00     0.031 A 
ATOM     40  C   UNL     1      -2.838   9.543  -6.219  1.00  0.00     0.074 A 
ATOM     41  C   UNL     1      -4.199   7.795  -5.119  1.00  0.00     0.049 A 
ATOM     42  N   UNL     1      -3.389  10.627  -5.738  1.00  0.00    -0.248 NA
ATOM     43  C   UNL     1      -1.698   9.795  -7.116  1.00  0.00     0.031 C 
ATOM     44  C   UNL     1      -4.614   6.437  -4.757  1.00  0.00     0.029 A 
ATOM     45  N   UNL     1      -5.051   8.603  -4.410  1.00  0.00    -0.354 N 
ATOM     46  C   UNL     1      -2.656  11.688  -6.258  1.00  0.00     0.074 A 
ATOM     47  C   UNL     1      -1.594  11.115  -7.057  1.00  0.00     0.031 C 
ATOM     48  C   UNL     1      -5.658   6.508  -3.915  1.00  0.00     0.029 A 
ATOM     49  C   UNL     1      -5.968   7.910  -3.657  1.00  0.00     0.049 A 
ATOM     50  H   UNL     1      -5.010   9.586  -4.439  1.00  0.00     0.167 HD
ATOM     51  C   UNL     1      -2.858  13.018  -6.102  1.00  0.00     0.031 A 
ATOM     52  C   UNL     1      -6.952   8.355  -2.852  1.00  0.00     0.031 A 
ATOM     53  C   UNL     1      -3.924  13.585  -5.321  1.00  0.00     0.049 A 
ATOM     54  C   UNL     1      -7.169   9.836  -2.709  1.00  0.00     0.074 A 
ATOM     55  C   UNL     1      -4.248  14.919  -5.144  1.00  0.00     0.029 A 
ATOM     56  N   UNL     1      -4.842  12.850  -4.587  1.00  0.00    -0.354 N 
ATOM     57  N   UNL     1      -6.503  10.823  -3.260  1.00  0.00    -0.248 NA
ATOM     58  C   UNL     1      -8.281  10.261  -1.848  1.00  0.00     0.031 C 
ATOM     59  C   UNL     1      -5.341  14.992  -4.273  1.00  0.00     0.029 A 
ATOM     60  C   UNL     1      -5.724  13.701  -3.943  1.00  0.00     0.049 A 
ATOM     61  H   UNL     1      -4.864  11.867  -4.531  1.00  0.00     0.167 HD
ATOM     62  C   UNL     1      -7.128  11.987  -2.827  1.00  0.00     0.074 A 
ATOM     63  C   UNL     1      -8.235  11.580  -1.984  1.00  0.00     0.031 C 
ATOM     64  C   UNL     1      -6.814  13.277  -3.102  1.00  0.00     0.031 A 
BRANCH  51  65
ATOM     65  C   UNL     1      -1.897  13.948  -6.793  1.00  0.00    -0.014 A 
ATOM     66  C   UNL     1      -1.917  14.102  -8.191  1.00  0.00     0.010 A 
ATOM     67  C   UNL     1      -0.976  14.694  -6.035  1.00  0.00     0.010 A 
ATOM     68  C   UNL     1      -1.002  14.948  -8.823  1.00  0.00     0.020 A 
ATOM     69  C   UNL     1      -0.076  15.561  -6.662  1.00  0.00     0.020 A 
ATOM     70  C   UNL     1      -0.082  15.667  -8.055  1.00  0.00     0.054 A 
BRANCH  70  71
ATOM     71  S   UNL     1       1.089  16.766  -8.898  1.00  0.00     0.124 S 
ATOM     72  O   UNL     1       2.056  15.815  -9.441  1.00  0.00    -0.237 OA
ATOM     73  O   UNL     1       0.248  17.438  -9.886  1.00  0.00    -0.237 OA
ATOM     74  O   UNL     1       1.592  17.623  -7.828  1.00  0.00    -0.744 OA
ENDBRANCH  70  71
ENDBRANCH  51  65
BRANCH  52  75
ATOM     75  C   UNL     1      -7.824   7.383  -2.142  1.00  0.00    -0.014 A 
ATOM     76  C   UNL     1      -9.150   7.178  -2.562  1.00  0.00     0.010 A 
ATOM     77  C   UNL     1      -7.327   6.642  -1.054  1.00  0.00     0.010 A 
ATOM     78  C   UNL     1      -9.969   6.261  -1.898  1.00  0.00     0.020 A 
ATOM     79  C   UNL     1      -8.137   5.708  -0.402  1.00  0.00     0.020 A 
ATOM     80  C   UNL     1      -9.457   5.531  -0.822  1.00  0.00     0.054 A 
BRANCH  80  81
ATOM     81  S   UNL     1     -10.519   4.304  -0.009  1.00  0.00     0.124 S 
ATOM     82  O   UNL     1     -11.382   5.146   0.812  1.00  0.00    -0.237 OA
ATOM     83  O   UNL     1     -11.167   3.645  -1.141  1.00  0.00    -0.237 OA
ATOM     84  O   UNL     1      -9.571   3.469   0.727  1.00  0.00    -0.744 OA
ENDBRANCH  80  81
ENDBRANCH  52  75
BRANCH  64  85
ATOM     85  C   UNL     1      -7.694  14.338  -2.500  1.00  0.00    -0.014 A 
ATOM     86  C   UNL     1      -7.621  14.650  -1.131  1.00  0.00     0.010 A 
ATOM     87  C   UNL     1      -8.581  15.056  -3.323  1.00  0.00     0.010 A 
ATOM     88  C   UNL     1      -8.448  15.636  -0.588  1.00  0.00     0.020 A 
ATOM     89  C   UNL     1      -9.392  16.059  -2.788  1.00  0.00     0.020 A 
ATOM     90  C   UNL     1      -9.333  16.330  -1.419  1.00  0.00     0.054 A 
BRANCH  90  91
ATOM     91  S   UNL     1     -10.378  17.626  -0.699  1.00  0.00     0.124 S 
ATOM     92  O   UNL     1     -11.426  16.843  -0.049  1.00  0.00    -0.237 OA
ATOM     93  O   UNL     1      -9.461  18.319   0.203  1.00  0.00    -0.237 OA
ATOM     94  O   UNL     1     -10.809  18.405  -1.857  1.00  0.00    -0.744 OA
ENDBRANCH  90  91
ENDBRANCH  64  85
ENDBRANCH  38  39
ENDBRANCH  30  33
ENDBRANCH  28  29
ENDBRANCH  27  28
ENDBRANCH  26  27
ENDBRANCH   1  26
TORSDOF 19
