REMARK SMILES Cc1cc([N+](=O)[O-])ccc1N1CCC(CC(=O)NCCCCCCNC(=O)c2ccc(-c3c4nc(c(-c5ccc(S(=O)(=O)[O-])cc5)c5ccc([nH]5)c(-c5ccc(S(=O)(=O)[O-])cc5)c5nc(c(-c6ccc(S(=O)(=O)[O-])cc6)c6ccc3[nH]6)C=C5)C=C4)cc2)CC1
REMARK SMILES IDX 21 1 20 2 19 3 18 4 16 5 17 6 15 8 14 9 11 10 12 11 89 12
REMARK SMILES IDX 13 13 88 14 10 15 1 16 2 17 3 18 4 19 9 20 8 21 5 22 6 23
REMARK SMILES IDX 7 24 22 25 23 26 24 27 25 28 26 29 27 31 28 32 29 33 87 34
REMARK SMILES IDX 30 35 86 36 31 37 32 38 33 39 80 40 34 41 85 42 79 43 81 44
REMARK SMILES IDX 35 45 84 46 78 47 77 48 36 50 66 51 47 52 65 53 48 54 51 55
REMARK SMILES IDX 64 56 82 57 49 58 50 59 63 61 83 62 52 63 37 64 38 65 46 66
REMARK SMILES IDX 39 67 45 68 40 69 41 70 42 71 43 72 44 73 67 74 68 75 76 76
REMARK SMILES IDX 69 77 75 78 70 79 71 80 72 81 73 82 74 83 53 84 54 85 62 86
REMARK SMILES IDX 55 87 61 88 56 89 57 90 58 91 59 92 60 93
REMARK H PARENT 18 7 25 30 81 49 51 60
REMARK Flexibility Score: inf
ROOT
ATOM      1  C   UNL     1      -0.850   6.012   4.790  1.00  0.00     0.002 C 
ENDROOT
BRANCH   1   2
ATOM      2  C   UNL     1      -0.330   5.678   3.405  1.00  0.00     0.021 C 
BRANCH   2   3
ATOM      3  C   UNL     1      -0.777   6.629   2.297  1.00  0.00     0.116 C 
BRANCH   3   4
ATOM      4  N   UNL     1       0.313   7.526   1.957  1.00  0.00    -0.356 N 
ATOM      5  C   UNL     1       1.234   7.462   0.953  1.00  0.00     0.220 C 
ATOM      6  O   UNL     1       2.198   8.230   1.000  1.00  0.00    -0.275 OA
ATOM      7  H   UNL     1       0.402   8.308   2.548  1.00  0.00     0.163 HD
BRANCH   5   8
ATOM      8  C   UNL     1       1.053   6.515  -0.226  1.00  0.00     0.103 C 
BRANCH   8   9
ATOM      9  C   UNL     1       1.780   5.151  -0.133  1.00  0.00     0.002 C 
ATOM     10  N   UNL     1       1.201   2.342  -0.229  1.00  0.00    -0.371 N 
ATOM     11  C   UNL     1       1.578   2.865   1.068  1.00  0.00     0.117 C 
ATOM     12  C   UNL     1       1.930   2.878  -1.364  1.00  0.00     0.117 C 
ATOM     13  C   UNL     1       1.251   4.343   1.054  1.00  0.00     0.025 C 
ATOM     14  C   UNL     1       1.616   4.379  -1.466  1.00  0.00     0.025 C 
BRANCH  10  15
ATOM     15  C   UNL     1       0.522   1.143  -0.254  1.00  0.00     0.040 A 
ATOM     16  C   UNL     1       2.646  -0.273  -0.108  1.00  0.00     0.047 C 
ATOM     17  C   UNL     1       1.151  -0.111  -0.171  1.00  0.00    -0.021 A 
ATOM     18  C   UNL     1       0.367  -1.282  -0.115  1.00  0.00     0.091 A 
ATOM     19  C   UNL     1      -1.031  -1.201  -0.113  1.00  0.00     0.269 A 
ATOM     20  C   UNL     1      -0.886   1.196  -0.249  1.00  0.00     0.033 A 
ATOM     21  C   UNL     1      -1.665   0.040  -0.175  1.00  0.00     0.088 A 
BRANCH  19  22
ATOM     22  N   UNL     1      -1.839  -2.425  -0.043  1.00  0.00     0.062 N 
ATOM     23  O   UNL     1      -1.247  -3.512  -0.061  1.00  0.00    -0.258 OA
ATOM     24  O   UNL     1      -3.072  -2.298   0.006  1.00  0.00    -0.258 OA
ENDBRANCH  19  22
ENDBRANCH  10  15
ENDBRANCH   8   9
ENDBRANCH   5   8
ENDBRANCH   3   4
ENDBRANCH   2   3
ENDBRANCH   1   2
BRANCH   1  25
ATOM     25  C   UNL     1      -2.367   5.940   4.963  1.00  0.00     0.002 C 
BRANCH  25  26
ATOM     26  C   UNL     1      -3.119   4.789   4.275  1.00  0.00     0.021 C 
BRANCH  26  27
ATOM     27  C   UNL     1      -2.587   3.386   4.517  1.00  0.00     0.116 C 
BRANCH  27  28
ATOM     28  N   UNL     1      -2.143   3.269   5.868  1.00  0.00    -0.352 N 
ATOM     29  C   UNL     1      -2.747   2.726   6.962  1.00  0.00     0.251 C 
ATOM     30  H   UNL     1      -1.249   3.643   6.038  1.00  0.00     0.163 HD
ATOM     31  O   UNL     1      -2.312   3.135   8.027  1.00  0.00    -0.269 OA
BRANCH  29  32
ATOM     32  C   UNL     1      -3.582   1.440   6.835  1.00  0.00     0.039 A 
ATOM     33  C   UNL     1      -3.642   0.873   8.116  1.00  0.00     0.014 A 
ATOM     34  C   UNL     1      -3.005   0.625   5.862  1.00  0.00     0.014 A 
ATOM     35  C   UNL     1      -2.510   0.194   8.545  1.00  0.00     0.010 A 
ATOM     36  C   UNL     1      -1.812   0.058   6.222  1.00  0.00     0.010 A 
ATOM     37  C   UNL     1      -1.529  -0.027   7.587  1.00  0.00    -0.014 A 
BRANCH  37  38
ATOM     38  C   UNL     1      -0.153  -0.322   7.894  1.00  0.00     0.031 A 
ATOM     39  C   UNL     1       0.163  -1.756   7.877  1.00  0.00     0.074 A 
ATOM     40  C   UNL     1       0.681   0.738   8.018  1.00  0.00     0.049 A 
ATOM     41  N   UNL     1       1.143  -2.317   8.479  1.00  0.00    -0.248 NA
ATOM     42  C   UNL     1      -0.732  -2.727   7.227  1.00  0.00     0.031 C 
ATOM     43  C   UNL     1       2.142   0.772   8.051  1.00  0.00     0.029 A 
ATOM     44  N   UNL     1       0.325   2.058   8.353  1.00  0.00    -0.354 N 
ATOM     45  C   UNL     1       1.212  -3.608   7.990  1.00  0.00     0.074 A 
ATOM     46  C   UNL     1      -0.059  -3.866   7.378  1.00  0.00     0.031 C 
ATOM     47  C   UNL     1       2.525   1.897   8.694  1.00  0.00     0.029 A 
ATOM     48  C   UNL     1       1.311   2.512   9.233  1.00  0.00     0.049 A 
ATOM     49  H   UNL     1      -0.460   2.559   8.033  1.00  0.00     0.167 HD
ATOM     50  C   UNL     1       2.427  -4.219   7.957  1.00  0.00     0.031 A 
ATOM     51  C   UNL     1       1.060   2.668  10.571  1.00  0.00     0.031 A 
ATOM     52  C   UNL     1       3.405  -3.374   8.643  1.00  0.00     0.049 A 
ATOM     53  C   UNL     1       1.890   1.661  11.361  1.00  0.00     0.074 A 
ATOM     54  C   UNL     1       4.296  -2.430   8.162  1.00  0.00     0.029 A 
ATOM     55  N   UNL     1       3.206  -3.084   9.990  1.00  0.00    -0.354 N 
ATOM     56  N   UNL     1       2.195   0.454  10.948  1.00  0.00    -0.248 NA
ATOM     57  C   UNL     1       2.512   1.993  12.639  1.00  0.00     0.031 C 
ATOM     58  C   UNL     1       4.517  -1.482   9.202  1.00  0.00     0.029 A 
ATOM     59  C   UNL     1       3.784  -1.869  10.314  1.00  0.00     0.049 A 
ATOM     60  H   UNL     1       2.722  -3.662  10.623  1.00  0.00     0.167 HD
ATOM     61  C   UNL     1       3.075  -0.117  11.833  1.00  0.00     0.074 A 
ATOM     62  C   UNL     1       3.225   0.880  12.882  1.00  0.00     0.031 C 
ATOM     63  C   UNL     1       3.662  -1.342  11.667  1.00  0.00     0.031 A 
BRANCH  50  64
ATOM     64  C   UNL     1       2.786  -5.361   7.029  1.00  0.00    -0.014 A 
ATOM     65  C   UNL     1       4.149  -5.616   6.775  1.00  0.00     0.010 A 
ATOM     66  C   UNL     1       1.869  -6.165   6.321  1.00  0.00     0.010 A 
ATOM     67  C   UNL     1       4.569  -6.575   5.842  1.00  0.00     0.020 A 
ATOM     68  C   UNL     1       2.273  -7.122   5.374  1.00  0.00     0.020 A 
ATOM     69  C   UNL     1       3.626  -7.319   5.138  1.00  0.00     0.054 A 
BRANCH  69  70
ATOM     70  S   UNL     1       4.194  -8.549   3.936  1.00  0.00     0.124 S 
ATOM     71  O   UNL     1       4.930  -7.732   2.975  1.00  0.00    -0.237 OA
ATOM     72  O   UNL     1       5.007  -9.439   4.761  1.00  0.00    -0.237 OA
ATOM     73  O   UNL     1       2.956  -9.137   3.427  1.00  0.00    -0.744 OA
ENDBRANCH  69  70
ENDBRANCH  50  64
BRANCH  51  74
ATOM     74  C   UNL     1      -0.336   3.098  10.944  1.00  0.00    -0.014 A 
ATOM     75  C   UNL     1      -0.793   4.384  10.565  1.00  0.00     0.010 A 
ATOM     76  C   UNL     1      -1.298   2.170  11.377  1.00  0.00     0.010 A 
ATOM     77  C   UNL     1      -2.168   4.686  10.492  1.00  0.00     0.020 A 
ATOM     78  C   UNL     1      -2.676   2.467  11.303  1.00  0.00     0.020 A 
ATOM     79  C   UNL     1      -3.107   3.703  10.807  1.00  0.00     0.054 A 
BRANCH  79  80
ATOM     80  S   UNL     1      -4.867   3.976  10.372  1.00  0.00     0.124 S 
ATOM     81  O   UNL     1      -5.251   5.055  11.277  1.00  0.00    -0.237 OA
ATOM     82  O   UNL     1      -4.841   4.341   8.957  1.00  0.00    -0.237 OA
ATOM     83  O   UNL     1      -5.496   2.684  10.648  1.00  0.00    -0.744 OA
ENDBRANCH  79  80
ENDBRANCH  51  74
BRANCH  63  84
ATOM     84  C   UNL     1       4.257  -2.152  12.797  1.00  0.00    -0.014 A 
ATOM     85  C   UNL     1       3.947  -1.933  14.147  1.00  0.00     0.010 A 
ATOM     86  C   UNL     1       5.032  -3.299  12.496  1.00  0.00     0.010 A 
ATOM     87  C   UNL     1       4.461  -2.756  15.154  1.00  0.00     0.020 A 
ATOM     88  C   UNL     1       5.489  -4.170  13.487  1.00  0.00     0.020 A 
ATOM     89  C   UNL     1       5.233  -3.867  14.817  1.00  0.00     0.054 A 
BRANCH  89  90
ATOM     90  S   UNL     1       5.868  -4.928  16.133  1.00  0.00     0.124 S 
ATOM     91  O   UNL     1       7.025  -4.164  16.595  1.00  0.00    -0.237 OA
ATOM     92  O   UNL     1       4.746  -4.992  17.067  1.00  0.00    -0.237 OA
ATOM     93  O   UNL     1       6.176  -6.181  15.450  1.00  0.00    -0.744 OA
ENDBRANCH  89  90
ENDBRANCH  63  84
ENDBRANCH  37  38
ENDBRANCH  29  32
ENDBRANCH  27  28
ENDBRANCH  26  27
ENDBRANCH  25  26
ENDBRANCH   1  25
TORSDOF 19
