REMARK SMILES O=C(CSc1nc(O)cc(=O)[nH]1)Nc1cccc(C(=O)NCCCCCCNC(=O)c2ccc(-c3c4nc(c(-c5ccc(S(=O)(=O)[O-])cc5)c5ccc([nH]5)c(-c5ccc(S(=O)(=O)[O-])cc5)c5nc(c(-c6ccc(S(=O)(=O)[O-])cc6)c6ccc3[nH]6)C=C5)C=C4)cc2)c1
REMARK SMILES IDX 23 1 22 2 21 3 19 4 20 5 18 7 14 8 15 9 91 10 16 11 17 12
REMARK SMILES IDX 13 13 1 14 2 15 3 17 4 18 5 19 6 20 12 21 7 22 10 23 9 25
REMARK SMILES IDX 11 26 8 27 24 29 25 30 26 31 27 32 28 33 29 34 30 36 31 37
REMARK SMILES IDX 32 38 90 39 33 40 89 41 34 42 35 43 36 44 83 45 37 46 88 47
REMARK SMILES IDX 82 48 84 49 38 50 87 51 81 52 80 53 39 55 69 56 50 57 68 58
REMARK SMILES IDX 51 59 54 60 67 61 85 62 52 63 53 64 66 66 86 67 55 68 40 69
REMARK SMILES IDX 41 70 49 71 42 72 48 73 43 74 44 75 45 76 46 77 47 78 70 79
REMARK SMILES IDX 71 80 79 81 72 82 78 83 73 84 74 85 75 86 76 87 77 88 56 89
REMARK SMILES IDX 57 90 65 91 58 92 64 93 59 94 60 95 61 96 62 97 63 98
REMARK H PARENT 21 6 13 16 12 24 8 28 28 35 84 54 54 65
REMARK Flexibility Score: inf
ROOT
ATOM      1  C   UNL     1       0.388   2.140  -4.273  1.00  0.00     0.021 C 
ENDROOT
BRANCH   1   2
ATOM      2  C   UNL     1       0.062   0.966  -3.358  1.00  0.00     0.116 C 
BRANCH   2   3
ATOM      3  N   UNL     1      -0.747  -0.073  -3.983  1.00  0.00    -0.352 N 
ATOM      4  C   UNL     1      -0.654  -1.448  -3.898  1.00  0.00     0.251 C 
ATOM      5  O   UNL     1      -1.418  -2.148  -4.561  1.00  0.00    -0.269 OA
ATOM      6  H   UNL     1      -1.474   0.258  -4.559  1.00  0.00     0.163 HD
BRANCH   4   7
ATOM      7  C   UNL     1       0.400  -2.099  -3.075  1.00  0.00     0.041 A 
ATOM      8  C   UNL     1       2.001  -1.965  -1.261  1.00  0.00     0.041 A 
ATOM      9  C   UNL     1       2.655  -3.092  -1.773  1.00  0.00     0.026 A 
ATOM     10  C   UNL     1       0.814  -1.552  -1.860  1.00  0.00     0.040 A 
ATOM     11  C   UNL     1       2.143  -3.760  -2.892  1.00  0.00     0.003 A 
ATOM     12  C   UNL     1       1.032  -3.246  -3.562  1.00  0.00     0.014 A 
BRANCH   8  13
ATOM     13  N   UNL     1       2.635  -1.217  -0.245  1.00  0.00    -0.325 N 
ATOM     14  O   UNL     1       0.977   0.317   0.317  1.00  0.00    -0.274 OA
ATOM     15  C   UNL     1       2.132  -0.093   0.400  1.00  0.00     0.234 C 
ATOM     16  H   UNL     1       3.528  -1.524   0.036  1.00  0.00     0.169 HD
BRANCH  15  17
ATOM     17  C   UNL     1       3.173   0.727   1.151  1.00  0.00     0.178 C 
BRANCH  17  18
ATOM     18  S   UNL     1       4.350  -0.291   2.079  1.00  0.00    -0.078 SA
BRANCH  18  19
ATOM     19  C   UNL     1       3.232  -1.151   3.087  1.00  0.00     0.172 A 
ATOM     20  N   UNL     1       2.289  -0.573   3.748  1.00  0.00    -0.189 NA
ATOM     21  N   UNL     1       3.464  -2.485   3.068  1.00  0.00    -0.301 N 
ATOM     22  C   UNL     1       1.489  -1.401   4.484  1.00  0.00     0.218 A 
ATOM     23  C   UNL     1       2.667  -3.354   3.743  1.00  0.00     0.255 A 
ATOM     24  H   UNL     1       4.228  -2.833   2.554  1.00  0.00     0.172 HD
ATOM     25  C   UNL     1       1.596  -2.731   4.528  1.00  0.00     0.139 A 
ATOM     26  O   UNL     1       2.824  -4.566   3.697  1.00  0.00    -0.269 OA
BRANCH  22  27
ATOM     27  O   UNL     1       0.515  -0.786   5.226  1.00  0.00    -0.493 OA
ATOM     28  H   UNL     1       0.429   0.147   5.204  1.00  0.00     0.295 HD
ENDBRANCH  22  27
ENDBRANCH  18  19
ENDBRANCH  17  18
ENDBRANCH  15  17
ENDBRANCH   8  13
ENDBRANCH   4   7
ENDBRANCH   2   3
ENDBRANCH   1   2
BRANCH   1  29
ATOM     29  C   UNL     1      -0.794   3.009  -4.698  1.00  0.00     0.002 C 
BRANCH  29  30
ATOM     30  C   UNL     1      -1.644   3.592  -3.566  1.00  0.00     0.002 C 
BRANCH  30  31
ATOM     31  C   UNL     1      -0.888   4.360  -2.478  1.00  0.00     0.021 C 
BRANCH  31  32
ATOM     32  C   UNL     1       0.004   5.496  -2.968  1.00  0.00     0.116 C 
BRANCH  32  33
ATOM     33  N   UNL     1      -0.737   6.521  -3.682  1.00  0.00    -0.352 N 
ATOM     34  C   UNL     1      -0.756   7.881  -3.493  1.00  0.00     0.251 C 
ATOM     35  H   UNL     1      -1.311   6.191  -4.410  1.00  0.00     0.163 HD
ATOM     36  O   UNL     1      -1.581   8.565  -4.093  1.00  0.00    -0.269 OA
BRANCH  34  37
ATOM     37  C   UNL     1       0.199   8.524  -2.562  1.00  0.00     0.039 A 
ATOM     38  C   UNL     1      -0.262   9.543  -1.723  1.00  0.00     0.014 A 
ATOM     39  C   UNL     1       1.548   8.156  -2.534  1.00  0.00     0.014 A 
ATOM     40  C   UNL     1       0.618  10.160  -0.830  1.00  0.00     0.010 A 
ATOM     41  C   UNL     1       2.405   8.719  -1.589  1.00  0.00     0.010 A 
ATOM     42  C   UNL     1       1.954   9.738  -0.737  1.00  0.00    -0.014 A 
BRANCH  42  43
ATOM     43  C   UNL     1       2.893  10.368   0.228  1.00  0.00     0.031 A 
ATOM     44  C   UNL     1       4.099  11.123  -0.271  1.00  0.00     0.074 A 
ATOM     45  C   UNL     1       2.686  10.229   1.553  1.00  0.00     0.049 A 
ATOM     46  N   UNL     1       5.046  11.709   0.416  1.00  0.00    -0.248 NA
ATOM     47  C   UNL     1       4.278  11.209  -1.730  1.00  0.00     0.031 C 
ATOM     48  C   UNL     1       1.578   9.490   2.165  1.00  0.00     0.029 A 
ATOM     49  N   UNL     1       3.399  10.701   2.627  1.00  0.00    -0.354 N 
ATOM     50  C   UNL     1       5.938  12.216  -0.523  1.00  0.00     0.074 A 
ATOM     51  C   UNL     1       5.447  11.826  -1.826  1.00  0.00     0.031 C 
ATOM     52  C   UNL     1       1.672   9.582   3.502  1.00  0.00     0.029 A 
ATOM     53  C   UNL     1       2.865  10.350   3.845  1.00  0.00     0.049 A 
ATOM     54  H   UNL     1       4.218  11.240   2.534  1.00  0.00     0.167 HD
ATOM     55  C   UNL     1       7.054  12.958  -0.322  1.00  0.00     0.031 A 
ATOM     56  C   UNL     1       3.288  10.610   5.098  1.00  0.00     0.031 A 
ATOM     57  C   UNL     1       7.529  13.362   0.975  1.00  0.00     0.049 A 
ATOM     58  C   UNL     1       4.530  11.437   5.294  1.00  0.00     0.074 A 
ATOM     59  C   UNL     1       8.617  14.162   1.280  1.00  0.00     0.029 A 
ATOM     60  N   UNL     1       6.949  13.000   2.181  1.00  0.00    -0.354 N 
ATOM     61  N   UNL     1       5.323  11.962   4.389  1.00  0.00    -0.248 NA
ATOM     62  C   UNL     1       4.925  11.724   6.680  1.00  0.00     0.031 C 
ATOM     63  C   UNL     1       8.728  14.236   2.672  1.00  0.00     0.029 A 
ATOM     64  C   UNL     1       7.668  13.542   3.233  1.00  0.00     0.049 A 
ATOM     65  H   UNL     1       6.144  12.441   2.276  1.00  0.00     0.167 HD
ATOM     66  C   UNL     1       6.287  12.673   5.097  1.00  0.00     0.074 A 
ATOM     67  C   UNL     1       5.969  12.522   6.502  1.00  0.00     0.031 C 
ATOM     68  C   UNL     1       7.337  13.390   4.627  1.00  0.00     0.031 A 
BRANCH  55  69
ATOM     69  C   UNL     1       7.847  13.382  -1.531  1.00  0.00    -0.014 A 
ATOM     70  C   UNL     1       7.346  14.338  -2.434  1.00  0.00     0.010 A 
ATOM     71  C   UNL     1       9.142  12.868  -1.730  1.00  0.00     0.010 A 
ATOM     72  C   UNL     1       8.112  14.750  -3.527  1.00  0.00     0.020 A 
ATOM     73  C   UNL     1       9.923  13.300  -2.806  1.00  0.00     0.020 A 
ATOM     74  C   UNL     1       9.398  14.230  -3.705  1.00  0.00     0.054 A 
BRANCH  74  75
ATOM     75  S   UNL     1      10.388  14.820  -5.106  1.00  0.00     0.124 S 
ATOM     76  O   UNL     1       9.702  14.205  -6.239  1.00  0.00    -0.237 OA
ATOM     77  O   UNL     1      10.253  16.271  -5.002  1.00  0.00    -0.237 OA
ATOM     78  O   UNL     1      11.725  14.300  -4.830  1.00  0.00    -0.744 OA
ENDBRANCH  74  75
ENDBRANCH  55  69
BRANCH  56  79
ATOM     79  C   UNL     1       2.529  10.088   6.269  1.00  0.00    -0.014 A 
ATOM     80  C   UNL     1       1.847  10.964   7.134  1.00  0.00     0.010 A 
ATOM     81  C   UNL     1       2.498   8.707   6.535  1.00  0.00     0.010 A 
ATOM     82  C   UNL     1       1.180  10.472   8.260  1.00  0.00     0.020 A 
ATOM     83  C   UNL     1       1.804   8.208   7.641  1.00  0.00     0.020 A 
ATOM     84  C   UNL     1       1.164   9.097   8.507  1.00  0.00     0.054 A 
BRANCH  84  85
ATOM     85  S   UNL     1       0.273   8.477   9.961  1.00  0.00     0.124 S 
ATOM     86  O   UNL     1       1.150   8.890  11.052  1.00  0.00    -0.237 OA
ATOM     87  O   UNL     1      -1.004   9.182   9.872  1.00  0.00    -0.237 OA
ATOM     88  O   UNL     1       0.199   7.037   9.727  1.00  0.00    -0.744 OA
ENDBRANCH  84  85
ENDBRANCH  56  79
BRANCH  68  89
ATOM     89  C   UNL     1       8.190  14.116   5.634  1.00  0.00    -0.014 A 
ATOM     90  C   UNL     1       9.037  13.425   6.519  1.00  0.00     0.010 A 
ATOM     91  C   UNL     1       8.171  15.523   5.664  1.00  0.00     0.010 A 
ATOM     92  C   UNL     1       9.813  14.127   7.446  1.00  0.00     0.020 A 
ATOM     93  C   UNL     1       8.971  16.229   6.564  1.00  0.00     0.020 A 
ATOM     94  C   UNL     1       9.773  15.525   7.463  1.00  0.00     0.054 A 
BRANCH  94  95
ATOM     95  S   UNL     1      10.809  16.413   8.658  1.00  0.00     0.124 S 
ATOM     96  O   UNL     1      10.112  16.157   9.915  1.00  0.00    -0.237 OA
ATOM     97  O   UNL     1      12.104  15.753   8.511  1.00  0.00    -0.237 OA
ATOM     98  O   UNL     1      10.766  17.798   8.192  1.00  0.00    -0.744 OA
ENDBRANCH  94  95
ENDBRANCH  68  89
ENDBRANCH  42  43
ENDBRANCH  34  37
ENDBRANCH  32  33
ENDBRANCH  31  32
ENDBRANCH  30  31
ENDBRANCH  29  30
ENDBRANCH   1  29
TORSDOF 21
