REMARK SMILES COc1ccccc1OC1CCN(c2cccc(C(=O)NCCCCCCNC(=O)c3ccc(-c4c5nc(c(-c6ccc(S(=O)(=O)[O-])cc6)c6ccc([nH]6)c(-c6ccc(S(=O)(=O)[O-])cc6)c6nc(c(-c7ccc(S(=O)(=O)[O-])cc7)c7ccc4[nH]7)C=C6)C=C5)cc3)n2)CC1
REMARK SMILES IDX 24 1 23 2 22 3 21 4 19 5 20 6 18 8 14 9 15 10 91 11 16 12
REMARK SMILES IDX 17 13 13 14 10 15 11 16 93 17 12 18 92 19 9 20 8 21 3 22
REMARK SMILES IDX 4 23 5 24 7 25 6 26 2 27 1 28 25 29 26 30 27 31 28 32 29 33
REMARK SMILES IDX 30 35 31 36 32 37 90 38 33 39 89 40 34 41 35 42 36 43 83 44
REMARK SMILES IDX 37 45 88 46 82 47 84 48 38 49 87 50 81 51 80 52 39 54 69 55
REMARK SMILES IDX 50 56 68 57 51 58 54 59 67 60 85 61 52 62 53 63 66 65 86 66
REMARK SMILES IDX 55 67 40 68 41 69 49 70 42 71 48 72 43 73 44 74 45 75 46 76
REMARK SMILES IDX 47 77 70 78 71 79 79 80 72 81 78 82 73 83 74 84 75 85 76 86
REMARK SMILES IDX 77 87 56 88 57 89 65 90 58 91 64 92 59 93 60 94 61 95 62 96
REMARK SMILES IDX 63 97
REMARK H PARENT 21 7 28 34 84 53 54 64
REMARK Flexibility Score: inf
ROOT
ATOM      1  C   UNL     1      -6.263   5.497  -3.968  1.00  0.00     0.002 C 
ENDROOT
BRANCH   1   2
ATOM      2  C   UNL     1      -5.983   4.720  -2.685  1.00  0.00     0.021 C 
BRANCH   2   3
ATOM      3  C   UNL     1      -5.457   3.309  -2.898  1.00  0.00     0.116 C 
BRANCH   3   4
ATOM      4  N   UNL     1      -4.044   3.282  -3.188  1.00  0.00    -0.351 N 
ATOM      5  C   UNL     1      -2.978   2.729  -2.520  1.00  0.00     0.269 C 
ATOM      6  O   UNL     1      -1.862   2.964  -2.994  1.00  0.00    -0.268 OA
ATOM      7  H   UNL     1      -3.797   3.748  -4.019  1.00  0.00     0.163 HD
BRANCH   5   8
ATOM      8  C   UNL     1      -3.106   1.882  -1.281  1.00  0.00     0.130 A 
ATOM      9  C   UNL     1      -1.890   0.942   0.449  1.00  0.00     0.129 A 
ATOM     10  C   UNL     1      -3.004   0.264   0.918  1.00  0.00     0.047 A 
ATOM     11  N   UNL     1      -1.954   1.806  -0.574  1.00  0.00    -0.226 NA
ATOM     12  C   UNL     1      -4.199   0.377   0.231  1.00  0.00     0.006 A 
ATOM     13  C   UNL     1      -4.224   1.131  -0.936  1.00  0.00     0.034 A 
BRANCH   9  14
ATOM     14  N   UNL     1      -0.640   0.591   0.905  1.00  0.00    -0.356 N 
ATOM     15  C   UNL     1       3.010  -0.385   0.568  1.00  0.00     0.177 C 
ATOM     16  C   UNL     1       2.487   1.484   0.699  1.00  0.00     0.066 C 
ATOM     17  C   UNL     1       1.600  -1.698   0.304  1.00  0.00     0.066 C 
ATOM     18  C   UNL     1       0.626   1.918   1.059  1.00  0.00     0.122 C 
ATOM     19  C   UNL     1      -0.233  -1.197   0.699  1.00  0.00     0.122 C 
BRANCH  15  20
ATOM     20  O   UNL     1       3.623  -0.721   1.849  1.00  0.00    -0.486 OA
BRANCH  20  21
ATOM     21  C   UNL     1       2.666  -0.596   2.837  1.00  0.00     0.161 A 
ATOM     22  C   UNL     1       1.374  -0.170   2.500  1.00  0.00     0.160 A 
ATOM     23  C   UNL     1       0.405  -0.053   3.496  1.00  0.00     0.050 A 
ATOM     24  C   UNL     1       0.726  -0.386   4.813  1.00  0.00     0.004 A 
ATOM     25  C   UNL     1       2.994  -0.920   4.147  1.00  0.00     0.050 A 
ATOM     26  C   UNL     1       2.014  -0.820   5.137  1.00  0.00     0.004 A 
BRANCH  22  27
ATOM     27  O   UNL     1       1.252   0.038   1.139  1.00  0.00    -0.493 OA
ATOM     28  C   UNL     1       0.969   0.341  -0.664  1.00  0.00     0.278 C 
ENDBRANCH  22  27
ENDBRANCH  20  21
ENDBRANCH  15  20
ENDBRANCH   9  14
ENDBRANCH   5   8
ENDBRANCH   3   4
ENDBRANCH   2   3
ENDBRANCH   1   2
BRANCH   1  29
ATOM     29  C   UNL     1      -7.137   4.769  -4.996  1.00  0.00     0.002 C 
BRANCH  29  30
ATOM     30  C   UNL     1      -8.423   4.147  -4.441  1.00  0.00     0.021 C 
BRANCH  30  31
ATOM     31  C   UNL     1      -9.350   5.135  -3.744  1.00  0.00     0.116 C 
BRANCH  31  32
ATOM     32  N   UNL     1      -9.773   6.191  -4.646  1.00  0.00    -0.352 N 
ATOM     33  C   UNL     1     -11.042   6.552  -5.019  1.00  0.00     0.251 C 
ATOM     34  H   UNL     1      -9.047   6.723  -5.046  1.00  0.00     0.163 HD
ATOM     35  O   UNL     1     -11.211   7.284  -5.989  1.00  0.00    -0.269 OA
BRANCH  33  36
ATOM     36  C   UNL     1     -12.198   6.050  -4.249  1.00  0.00     0.039 A 
ATOM     37  C   UNL     1     -13.340   5.632  -4.934  1.00  0.00     0.014 A 
ATOM     38  C   UNL     1     -12.160   6.011  -2.851  1.00  0.00     0.014 A 
ATOM     39  C   UNL     1     -14.431   5.140  -4.217  1.00  0.00     0.010 A 
ATOM     40  C   UNL     1     -13.210   5.437  -2.146  1.00  0.00     0.010 A 
ATOM     41  C   UNL     1     -14.366   5.016  -2.819  1.00  0.00    -0.014 A 
BRANCH  41  42
ATOM     42  C   UNL     1     -15.507   4.469  -2.043  1.00  0.00     0.031 A 
ATOM     43  C   UNL     1     -16.216   5.333  -1.034  1.00  0.00     0.074 A 
ATOM     44  C   UNL     1     -15.873   3.184  -2.214  1.00  0.00     0.049 A 
ATOM     45  N   UNL     1     -17.220   5.031  -0.252  1.00  0.00    -0.248 NA
ATOM     46  C   UNL     1     -15.715   6.707  -0.860  1.00  0.00     0.031 C 
ATOM     47  C   UNL     1     -15.243   2.239  -3.140  1.00  0.00     0.029 A 
ATOM     48  N   UNL     1     -16.869   2.450  -1.621  1.00  0.00    -0.354 N 
ATOM     49  C   UNL     1     -17.456   6.165   0.518  1.00  0.00     0.074 A 
ATOM     50  C   UNL     1     -16.455   7.141   0.149  1.00  0.00     0.031 C 
ATOM     51  C   UNL     1     -15.898   1.069  -3.088  1.00  0.00     0.029 A 
ATOM     52  C   UNL     1     -16.959   1.161  -2.090  1.00  0.00     0.049 A 
ATOM     53  H   UNL     1     -17.464   2.813  -0.925  1.00  0.00     0.167 HD
ATOM     54  C   UNL     1     -18.427   6.381   1.436  1.00  0.00     0.031 A 
ATOM     55  C   UNL     1     -17.802   0.165  -1.756  1.00  0.00     0.031 A 
ATOM     56  C   UNL     1     -19.422   5.404   1.794  1.00  0.00     0.049 A 
ATOM     57  C   UNL     1     -18.856   0.421  -0.713  1.00  0.00     0.074 A 
ATOM     58  C   UNL     1     -20.489   5.543   2.664  1.00  0.00     0.029 A 
ATOM     59  N   UNL     1     -19.467   4.105   1.311  1.00  0.00    -0.354 N 
ATOM     60  N   UNL     1     -19.112   1.525  -0.051  1.00  0.00    -0.248 NA
ATOM     61  C   UNL     1     -19.742  -0.702  -0.380  1.00  0.00     0.031 C 
ATOM     62  C   UNL     1     -21.131   4.306   2.766  1.00  0.00     0.029 A 
ATOM     63  C   UNL     1     -20.518   3.419   1.895  1.00  0.00     0.049 A 
ATOM     64  H   UNL     1     -18.843   3.726   0.650  1.00  0.00     0.167 HD
ATOM     65  C   UNL     1     -20.215   1.240   0.747  1.00  0.00     0.074 A 
ATOM     66  C   UNL     1     -20.581  -0.135   0.476  1.00  0.00     0.031 C 
ATOM     67  C   UNL     1     -20.869   2.047   1.620  1.00  0.00     0.031 A 
BRANCH  54  68
ATOM     68  C   UNL     1     -18.441   7.715   2.140  1.00  0.00    -0.014 A 
ATOM     69  C   UNL     1     -18.723   8.910   1.452  1.00  0.00     0.010 A 
ATOM     70  C   UNL     1     -18.192   7.770   3.524  1.00  0.00     0.010 A 
ATOM     71  C   UNL     1     -18.701  10.137   2.122  1.00  0.00     0.020 A 
ATOM     72  C   UNL     1     -18.206   8.990   4.206  1.00  0.00     0.020 A 
ATOM     73  C   UNL     1     -18.439  10.169   3.495  1.00  0.00     0.054 A 
BRANCH  73  74
ATOM     74  S   UNL     1     -18.425  11.773   4.340  1.00  0.00     0.124 S 
ATOM     75  O   UNL     1     -17.206  12.381   3.812  1.00  0.00    -0.237 OA
ATOM     76  O   UNL     1     -19.675  12.381   3.890  1.00  0.00    -0.237 OA
ATOM     77  O   UNL     1     -18.381  11.420   5.757  1.00  0.00    -0.744 OA
ENDBRANCH  73  74
ENDBRANCH  54  68
BRANCH  55  78
ATOM     78  C   UNL     1     -17.704  -1.155  -2.438  1.00  0.00    -0.014 A 
ATOM     79  C   UNL     1     -18.724  -1.583  -3.308  1.00  0.00     0.010 A 
ATOM     80  C   UNL     1     -16.588  -1.987  -2.234  1.00  0.00     0.010 A 
ATOM     81  C   UNL     1     -18.638  -2.824  -3.945  1.00  0.00     0.020 A 
ATOM     82  C   UNL     1     -16.483  -3.214  -2.895  1.00  0.00     0.020 A 
ATOM     83  C   UNL     1     -17.515  -3.629  -3.739  1.00  0.00     0.054 A 
BRANCH  83  84
ATOM     84  S   UNL     1     -17.402  -5.212  -4.619  1.00  0.00     0.124 S 
ATOM     85  O   UNL     1     -18.436  -6.002  -3.957  1.00  0.00    -0.237 OA
ATOM     86  O   UNL     1     -17.686  -4.823  -5.998  1.00  0.00    -0.237 OA
ATOM     87  O   UNL     1     -16.029  -5.644  -4.371  1.00  0.00    -0.744 OA
ENDBRANCH  83  84
ENDBRANCH  55  78
BRANCH  67  88
ATOM     88  C   UNL     1     -22.081   1.480   2.315  1.00  0.00    -0.014 A 
ATOM     89  C   UNL     1     -21.970   0.469   3.285  1.00  0.00     0.010 A 
ATOM     90  C   UNL     1     -23.352   2.010   2.022  1.00  0.00     0.010 A 
ATOM     91  C   UNL     1     -23.111  -0.029   3.920  1.00  0.00     0.020 A 
ATOM     92  C   UNL     1     -24.490   1.541   2.682  1.00  0.00     0.020 A 
ATOM     93  C   UNL     1     -24.364   0.512   3.615  1.00  0.00     0.054 A 
BRANCH  93  94
ATOM     94  S   UNL     1     -25.823  -0.126   4.482  1.00  0.00     0.124 S 
ATOM     95  O   UNL     1     -25.966  -1.457   3.898  1.00  0.00    -0.237 OA
ATOM     96  O   UNL     1     -25.402  -0.094   5.880  1.00  0.00    -0.237 OA
ATOM     97  O   UNL     1     -26.878   0.824   4.133  1.00  0.00    -0.744 OA
ENDBRANCH  93  94
ENDBRANCH  67  88
ENDBRANCH  41  42
ENDBRANCH  33  36
ENDBRANCH  31  32
ENDBRANCH  30  31
ENDBRANCH  29  30
ENDBRANCH   1  29
TORSDOF 20
