REMARK SMILES O=C(NCCCCCCNC(=O)[C@H]1C[C@](O)(c2ccccc2Cl)[C@@H](c2ccccc2Cl)O1)c1ccc(-c2c3nc(c(-c4ccc(S(=O)(=O)[O-])cc4)c4ccc([nH]4)c(-c4ccc(S(=O)(=O)[O-])cc4)c4nc(c(-c5ccc(S(=O)(=O)[O-])cc5)c5ccc2[nH]5)C=C4)C=C3)cc1
REMARK SMILES IDX 5 1 4 2 3 3 1 4 2 5 33 7 34 8 92 9 35 10 91 11 36 12 37 13
REMARK SMILES IDX 38 14 85 15 39 16 90 17 84 18 86 19 40 20 89 21 83 22 82 23
REMARK SMILES IDX 41 25 71 26 52 27 70 28 53 29 56 30 69 31 87 32 54 33 55 34
REMARK SMILES IDX 68 36 88 37 57 38 42 39 43 40 51 41 44 42 50 43 45 44 46 45
REMARK SMILES IDX 47 46 48 47 49 48 72 49 73 50 81 51 74 52 80 53 75 54 76 55
REMARK SMILES IDX 77 56 78 57 79 58 58 59 59 60 67 61 60 62 66 63 61 64 62 65
REMARK SMILES IDX 63 66 64 67 65 68 6 69 7 70 8 71 9 72 10 73 11 74 12 76
REMARK SMILES IDX 13 77 14 78 32 79 15 80 24 81 17 82 18 83 22 84 19 85 21 86
REMARK SMILES IDX 23 87 20 88 16 89 25 91 26 92 30 93 27 94 29 95 31 96 28 97
REMARK H PARENT 3 6 86 24 56 35 10 75 16 90
REMARK Flexibility Score: inf
ROOT
ATOM      1  C   UNL     1       3.821  -1.560   3.431  1.00  0.00     0.021 C 
ENDROOT
BRANCH   1   2
ATOM      2  C   UNL     1       2.708  -0.523   3.354  1.00  0.00     0.116 C 
BRANCH   2   3
ATOM      3  N   UNL     1       2.366  -0.185   1.982  1.00  0.00    -0.352 N 
ATOM      4  O   UNL     1       1.066  -0.142   0.138  1.00  0.00    -0.269 OA
ATOM      5  C   UNL     1       1.147  -0.283   1.351  1.00  0.00     0.251 C 
ATOM      6  H   UNL     1       3.105   0.160   1.431  1.00  0.00     0.163 HD
BRANCH   5   7
ATOM      7  C   UNL     1      -0.060  -0.582   2.153  1.00  0.00     0.039 A 
ATOM      8  C   UNL     1      -0.295   0.091   3.356  1.00  0.00     0.014 A 
ATOM      9  C   UNL     1      -0.962  -1.546   1.698  1.00  0.00     0.014 A 
ATOM     10  C   UNL     1      -1.357  -0.293   4.166  1.00  0.00     0.010 A 
ATOM     11  C   UNL     1      -2.080  -1.867   2.473  1.00  0.00     0.010 A 
ATOM     12  C   UNL     1      -2.274  -1.259   3.723  1.00  0.00    -0.014 A 
BRANCH  12  13
ATOM     13  C   UNL     1      -3.476  -1.555   4.543  1.00  0.00     0.031 A 
ATOM     14  C   UNL     1      -3.707  -2.919   5.129  1.00  0.00     0.074 A 
ATOM     15  C   UNL     1      -4.373  -0.570   4.744  1.00  0.00     0.049 A 
ATOM     16  N   UNL     1      -4.715  -3.344   5.848  1.00  0.00    -0.248 NA
ATOM     17  C   UNL     1      -2.682  -3.941   4.870  1.00  0.00     0.031 C 
ATOM     18  C   UNL     1      -4.262   0.791   4.211  1.00  0.00     0.029 A 
ATOM     19  N   UNL     1      -5.551  -0.556   5.445  1.00  0.00    -0.354 N 
ATOM     20  C   UNL     1      -4.462  -4.685   6.108  1.00  0.00     0.074 A 
ATOM     21  C   UNL     1      -3.213  -5.010   5.449  1.00  0.00     0.031 C 
ATOM     22  C   UNL     1      -5.312   1.512   4.623  1.00  0.00     0.029 A 
ATOM     23  C   UNL     1      -6.206   0.651   5.389  1.00  0.00     0.049 A 
ATOM     24  H   UNL     1      -5.895  -1.335   5.940  1.00  0.00     0.167 HD
ATOM     25  C   UNL     1      -5.203  -5.563   6.828  1.00  0.00     0.031 A 
ATOM     26  C   UNL     1      -7.408   1.023   5.866  1.00  0.00     0.031 A 
ATOM     27  C   UNL     1      -6.452  -5.230   7.464  1.00  0.00     0.049 A 
ATOM     28  C   UNL     1      -8.227   0.026   6.630  1.00  0.00     0.074 A 
ATOM     29  C   UNL     1      -7.258  -6.035   8.251  1.00  0.00     0.029 A 
ATOM     30  N   UNL     1      -7.088  -4.000   7.373  1.00  0.00    -0.354 N 
ATOM     31  N   UNL     1      -7.943  -1.223   6.914  1.00  0.00    -0.248 NA
ATOM     32  C   UNL     1      -9.523   0.485   7.143  1.00  0.00     0.031 C 
ATOM     33  C   UNL     1      -8.411  -5.314   8.579  1.00  0.00     0.029 A 
ATOM     34  C   UNL     1      -8.292  -4.035   8.059  1.00  0.00     0.049 A 
ATOM     35  H   UNL     1      -6.735  -3.217   6.892  1.00  0.00     0.167 HD
ATOM     36  C   UNL     1      -9.019  -1.696   7.654  1.00  0.00     0.074 A 
ATOM     37  C   UNL     1      -9.950  -0.592   7.788  1.00  0.00     0.031 C 
ATOM     38  C   UNL     1      -9.215  -2.932   8.176  1.00  0.00     0.031 A 
BRANCH  25  39
ATOM     39  C   UNL     1      -4.702  -6.983   6.926  1.00  0.00    -0.014 A 
ATOM     40  C   UNL     1      -3.543  -7.305   7.656  1.00  0.00     0.010 A 
ATOM     41  C   UNL     1      -5.419  -8.018   6.296  1.00  0.00     0.010 A 
ATOM     42  C   UNL     1      -3.079  -8.624   7.704  1.00  0.00     0.020 A 
ATOM     43  C   UNL     1      -4.976  -9.342   6.367  1.00  0.00     0.020 A 
ATOM     44  C   UNL     1      -3.794  -9.632   7.050  1.00  0.00     0.054 A 
BRANCH  44  45
ATOM     45  S   UNL     1      -3.159 -11.331   7.115  1.00  0.00     0.124 S 
ATOM     46  O   UNL     1      -1.996 -11.250   6.235  1.00  0.00    -0.237 OA
ATOM     47  O   UNL     1      -2.860 -11.507   8.534  1.00  0.00    -0.237 OA
ATOM     48  O   UNL     1      -4.268 -12.136   6.610  1.00  0.00    -0.744 OA
ENDBRANCH  44  45
ENDBRANCH  25  39
BRANCH  26  49
ATOM     49  C   UNL     1      -7.901   2.400   5.595  1.00  0.00    -0.014 A 
ATOM     50  C   UNL     1      -7.975   3.355   6.621  1.00  0.00     0.010 A 
ATOM     51  C   UNL     1      -8.231   2.780   4.279  1.00  0.00     0.010 A 
ATOM     52  C   UNL     1      -8.370   4.666   6.337  1.00  0.00     0.020 A 
ATOM     53  C   UNL     1      -8.596   4.095   3.987  1.00  0.00     0.020 A 
ATOM     54  C   UNL     1      -8.670   5.029   5.020  1.00  0.00     0.054 A 
BRANCH  54  55
ATOM     55  S   UNL     1      -9.099   6.755   4.665  1.00  0.00     0.124 S 
ATOM     56  O   UNL     1     -10.441   6.857   5.230  1.00  0.00    -0.237 OA
ATOM     57  O   UNL     1      -8.055   7.491   5.375  1.00  0.00    -0.237 OA
ATOM     58  O   UNL     1      -9.024   6.834   3.208  1.00  0.00    -0.744 OA
ENDBRANCH  54  55
ENDBRANCH  26  49
BRANCH  38  59
ATOM     59  C   UNL     1     -10.476  -3.156   8.968  1.00  0.00    -0.014 A 
ATOM     60  C   UNL     1     -11.730  -3.242   8.338  1.00  0.00     0.010 A 
ATOM     61  C   UNL     1     -10.393  -3.349  10.360  1.00  0.00     0.010 A 
ATOM     62  C   UNL     1     -12.881  -3.497   9.088  1.00  0.00     0.020 A 
ATOM     63  C   UNL     1     -11.537  -3.633  11.108  1.00  0.00     0.020 A 
ATOM     64  C   UNL     1     -12.777  -3.696  10.469  1.00  0.00     0.054 A 
BRANCH  64  65
ATOM     65  S   UNL     1     -14.276  -4.088  11.410  1.00  0.00     0.124 S 
ATOM     66  O   UNL     1     -14.976  -2.807  11.416  1.00  0.00    -0.237 OA
ATOM     67  O   UNL     1     -14.894  -5.138  10.603  1.00  0.00    -0.237 OA
ATOM     68  O   UNL     1     -13.767  -4.526  12.707  1.00  0.00    -0.744 OA
ENDBRANCH  64  65
ENDBRANCH  38  59
ENDBRANCH  12  13
ENDBRANCH   5   7
ENDBRANCH   2   3
ENDBRANCH   1   2
BRANCH   1  69
ATOM     69  C   UNL     1       5.186  -1.053   2.972  1.00  0.00     0.002 C 
BRANCH  69  70
ATOM     70  C   UNL     1       5.704   0.173   3.731  1.00  0.00     0.002 C 
BRANCH  70  71
ATOM     71  C   UNL     1       5.757   0.033   5.264  1.00  0.00     0.021 C 
BRANCH  71  72
ATOM     72  C   UNL     1       6.604  -1.142   5.772  1.00  0.00     0.116 C 
BRANCH  72  73
ATOM     73  N   UNL     1       7.953  -1.033   5.261  1.00  0.00    -0.354 N 
ATOM     74  C   UNL     1       8.910  -0.205   5.782  1.00  0.00     0.249 C 
ATOM     75  H   UNL     1       8.199  -1.590   4.488  1.00  0.00     0.163 HD
ATOM     76  O   UNL     1       9.511   0.516   4.987  1.00  0.00    -0.272 OA
BRANCH  74  77
ATOM     77  C   UNL     1       9.208  -0.264   7.300  1.00  0.00     0.211 C 
ATOM     78  C   UNL     1       9.696  -1.655   7.709  1.00  0.00     0.085 C 
ATOM     79  O   UNL     1      10.219   0.679   7.681  1.00  0.00    -0.357 OA
ATOM     80  C   UNL     1      11.086  -1.455   8.316  1.00  0.00     0.124 C 
ATOM     81  C   UNL     1      11.467  -0.011   7.886  1.00  0.00     0.187 C 
BRANCH  80  82
ATOM     82  C   UNL     1      11.080  -1.806   9.823  1.00  0.00     0.005 A 
ATOM     83  C   UNL     1      11.172  -3.187  10.147  1.00  0.00     0.008 A 
ATOM     84  C   UNL     1      11.003  -0.922  10.918  1.00  0.00     0.047 A 
ATOM     85  C   UNL     1      11.294  -3.649  11.461  1.00  0.00     0.001 A 
ATOM     86  C   UNL     1      11.166  -1.389  12.237  1.00  0.00     0.021 A 
ATOM     87  Cl  UNL     1      10.623   0.760  10.814  1.00  0.00    -0.084 Cl
ATOM     88  C   UNL     1      11.326  -2.743  12.508  1.00  0.00     0.002 A 
ENDBRANCH  80  82
BRANCH  80  89
ATOM     89  O   UNL     1      11.991  -2.399   7.705  1.00  0.00    -0.382 OA
ATOM     90  H   UNL     1      12.039  -2.230   6.751  1.00  0.00     0.212 HD
ENDBRANCH  80  89
BRANCH  81  91
ATOM     91  C   UNL     1      12.356   0.254   6.671  1.00  0.00     0.003 A 
ATOM     92  C   UNL     1      12.188  -0.458   5.470  1.00  0.00     0.008 A 
ATOM     93  C   UNL     1      13.296   1.306   6.665  1.00  0.00     0.046 A 
ATOM     94  C   UNL     1      12.856  -0.091   4.298  1.00  0.00     0.000 A 
ATOM     95  C   UNL     1      13.987   1.653   5.497  1.00  0.00     0.021 A 
ATOM     96  Cl  UNL     1      13.678   2.235   8.077  1.00  0.00    -0.084 Cl
ATOM     97  C   UNL     1      13.750   0.971   4.308  1.00  0.00     0.002 A 
ENDBRANCH  81  91
ENDBRANCH  74  77
ENDBRANCH  72  73
ENDBRANCH  71  72
ENDBRANCH  70  71
ENDBRANCH  69  70
ENDBRANCH   1  69
TORSDOF 19
