REMARK SMILES CC(=O)Nc1ccc(/C=C2/CCc3oc(C(=O)NCCCCCCNC(=O)c4ccc(-c5c6nc(c(-c7ccc(S(=O)(=O)[O-])cc7)c7ccc([nH]7)c(-c7ccc(S(=O)(=O)[O-])cc7)c7nc(c(-c8ccc(S(=O)(=O)[O-])cc8)c8ccc5[nH]8)C=C7)C=C6)cc4)c(C)c3C2=O)cc1
REMARK SMILES IDX 22 1 21 2 20 3 19 4 18 5 16 6 17 7 15 9 9 10 10 11 11 12
REMARK SMILES IDX 91 13 12 14 90 15 92 16 13 17 88 18 14 19 89 20 8 21 5 22
REMARK SMILES IDX 6 23 94 24 7 25 93 26 4 27 1 28 2 29 3 30 23 32 24 33 25 34
REMARK SMILES IDX 26 35 27 37 28 38 29 39 87 40 30 41 86 42 31 43 32 44 33 45
REMARK SMILES IDX 80 46 34 47 85 48 79 49 81 50 35 51 84 52 78 53 77 54 36 56
REMARK SMILES IDX 66 57 47 58 65 59 48 60 51 61 64 62 82 63 49 64 50 65 63 67
REMARK SMILES IDX 83 68 52 69 37 70 38 71 46 72 39 73 45 74 40 75 41 76 42 77
REMARK SMILES IDX 43 78 44 79 67 80 68 81 76 82 69 83 75 84 70 85 71 86 72 87
REMARK SMILES IDX 73 88 74 89 53 90 54 91 62 92 55 93 61 94 56 95 57 96 58 97
REMARK SMILES IDX 59 98 60 99
REMARK H PARENT 18 8 4 31 25 36 81 55 51 66
REMARK Flexibility Score: inf
ROOT
ATOM      1  C   UNL     1       0.367  14.765  -3.051  1.00  0.00     0.002 C 
ENDROOT
BRANCH   1   2
ATOM      2  C   UNL     1       0.834  14.360  -4.460  1.00  0.00     0.002 C 
BRANCH   2   3
ATOM      3  C   UNL     1       1.755  13.143  -4.547  1.00  0.00     0.021 C 
BRANCH   3   4
ATOM      4  C   UNL     1       1.255  11.899  -3.820  1.00  0.00     0.116 C 
BRANCH   4   5
ATOM      5  N   UNL     1       0.088  11.307  -4.453  1.00  0.00    -0.349 N 
ATOM      6  C   UNL     1      -0.171  10.023  -4.887  1.00  0.00     0.287 C 
ATOM      7  O   UNL     1      -1.298   9.833  -5.353  1.00  0.00    -0.266 OA
ATOM      8  H   UNL     1      -0.654  11.938  -4.599  1.00  0.00     0.163 HD
BRANCH   6   9
ATOM      9  C   UNL     1       0.832   8.972  -4.792  1.00  0.00     0.195 A 
ATOM     10  C   UNL     1       4.037   4.574  -3.371  1.00  0.00     0.016 C 
ATOM     11  C   UNL     1       3.915   5.653  -4.170  1.00  0.00     0.001 C 
ATOM     12  C   UNL     1       4.842   6.858  -4.036  1.00  0.00     0.048 C 
ATOM     13  C   UNL     1       2.805   5.870  -5.172  1.00  0.00     0.192 C 
ATOM     14  C   UNL     1       4.071   8.087  -3.515  1.00  0.00     0.081 C 
ATOM     15  C   UNL     1       2.143   7.139  -4.925  1.00  0.00     0.067 A 
ATOM     16  O   UNL     1       2.518   5.098  -6.060  1.00  0.00    -0.289 OA
ATOM     17  C   UNL     1       2.745   8.111  -4.170  1.00  0.00     0.116 A 
ATOM     18  C   UNL     1       0.879   7.677  -5.319  1.00  0.00     0.012 A 
ATOM     19  O   UNL     1       1.959   9.188  -4.046  1.00  0.00    -0.455 OA
ATOM     20  C   UNL     1      -0.152   6.966  -6.121  1.00  0.00     0.049 C 
BRANCH  10  21
ATOM     21  C   UNL     1       3.190   3.378  -3.169  1.00  0.00    -0.025 A 
ATOM     22  C   UNL     1       1.639   1.074  -2.580  1.00  0.00     0.041 A 
ATOM     23  C   UNL     1       1.235   1.971  -3.561  1.00  0.00     0.027 A 
ATOM     24  C   UNL     1       2.841   1.301  -1.916  1.00  0.00     0.027 A 
ATOM     25  C   UNL     1       1.980   3.126  -3.818  1.00  0.00     0.010 A 
ATOM     26  C   UNL     1       3.611   2.435  -2.216  1.00  0.00     0.010 A 
BRANCH  22  27
ATOM     27  N   UNL     1       0.817  -0.038  -2.357  1.00  0.00    -0.326 N 
ATOM     28  C   UNL     1       1.007  -0.182   0.112  1.00  0.00     0.114 C 
ATOM     29  C   UNL     1       0.575  -0.745  -1.215  1.00  0.00     0.221 C 
ATOM     30  O   UNL     1      -0.071  -1.793  -1.278  1.00  0.00    -0.275 OA
ATOM     31  H   UNL     1       0.335  -0.361  -3.153  1.00  0.00     0.169 HD
ENDBRANCH  22  27
ENDBRANCH  10  21
ENDBRANCH   6   9
ENDBRANCH   4   5
ENDBRANCH   3   4
ENDBRANCH   2   3
ENDBRANCH   1   2
BRANCH   1  32
ATOM     32  C   UNL     1       1.447  14.945  -1.972  1.00  0.00     0.021 C 
BRANCH  32  33
ATOM     33  C   UNL     1       2.420  16.074  -2.254  1.00  0.00     0.116 C 
BRANCH  33  34
ATOM     34  N   UNL     1       1.804  17.408  -2.204  1.00  0.00    -0.352 N 
ATOM     35  C   UNL     1       2.405  18.642  -2.428  1.00  0.00     0.251 C 
ATOM     36  H   UNL     1       0.845  17.431  -1.984  1.00  0.00     0.163 HD
ATOM     37  O   UNL     1       1.893  19.680  -2.028  1.00  0.00    -0.269 OA
BRANCH  35  38
ATOM     38  C   UNL     1       3.674  18.663  -3.176  1.00  0.00     0.039 A 
ATOM     39  C   UNL     1       4.748  19.512  -2.887  1.00  0.00     0.014 A 
ATOM     40  C   UNL     1       3.779  17.720  -4.183  1.00  0.00     0.014 A 
ATOM     41  C   UNL     1       5.940  19.341  -3.595  1.00  0.00     0.010 A 
ATOM     42  C   UNL     1       5.011  17.346  -4.613  1.00  0.00     0.010 A 
ATOM     43  C   UNL     1       6.053  18.245  -4.459  1.00  0.00    -0.014 A 
BRANCH  43  44
ATOM     44  C   UNL     1       7.207  17.972  -5.298  1.00  0.00     0.031 A 
ATOM     45  C   UNL     1       8.468  17.633  -4.602  1.00  0.00     0.074 A 
ATOM     46  C   UNL     1       7.035  17.714  -6.616  1.00  0.00     0.049 A 
ATOM     47  N   UNL     1       9.572  18.299  -4.618  1.00  0.00    -0.248 NA
ATOM     48  C   UNL     1       8.488  16.466  -3.708  1.00  0.00     0.031 C 
ATOM     49  C   UNL     1       5.781  17.674  -7.393  1.00  0.00     0.029 A 
ATOM     50  N   UNL     1       7.942  17.256  -7.510  1.00  0.00    -0.354 N 
ATOM     51  C   UNL     1      10.490  17.551  -3.892  1.00  0.00     0.074 A 
ATOM     52  C   UNL     1       9.728  16.529  -3.217  1.00  0.00     0.031 C 
ATOM     53  C   UNL     1       5.975  16.977  -8.532  1.00  0.00     0.029 A 
ATOM     54  C   UNL     1       7.392  16.698  -8.657  1.00  0.00     0.049 A 
ATOM     55  H   UNL     1       8.914  17.313  -7.360  1.00  0.00     0.167 HD
ATOM     56  C   UNL     1      11.834  17.697  -4.066  1.00  0.00     0.031 A 
ATOM     57  C   UNL     1       8.055  16.023  -9.626  1.00  0.00     0.031 A 
ATOM     58  C   UNL     1      12.143  18.829  -4.903  1.00  0.00     0.049 A 
ATOM     59  C   UNL     1       9.478  16.438  -9.525  1.00  0.00     0.074 A 
ATOM     60  C   UNL     1      11.927  20.190  -4.808  1.00  0.00     0.029 A 
ATOM     61  N   UNL     1      12.380  18.577  -6.237  1.00  0.00    -0.354 N 
ATOM     62  N   UNL     1       9.871  17.667  -9.732  1.00  0.00    -0.248 NA
ATOM     63  C   UNL     1      10.380  15.632  -8.715  1.00  0.00     0.031 C 
ATOM     64  C   UNL     1      11.549  20.590  -6.125  1.00  0.00     0.029 A 
ATOM     65  C   UNL     1      11.627  19.471  -6.960  1.00  0.00     0.049 A 
ATOM     66  H   UNL     1      12.976  17.885  -6.604  1.00  0.00     0.167 HD
ATOM     67  C   UNL     1      10.811  17.918  -8.740  1.00  0.00     0.074 A 
ATOM     68  C   UNL     1      11.164  16.597  -8.217  1.00  0.00     0.031 C 
ATOM     69  C   UNL     1      10.998  19.176  -8.234  1.00  0.00     0.031 A 
BRANCH  56  70
ATOM     70  C   UNL     1      12.854  16.630  -3.775  1.00  0.00    -0.014 A 
ATOM     71  C   UNL     1      14.223  16.966  -3.815  1.00  0.00     0.010 A 
ATOM     72  C   UNL     1      12.529  15.260  -3.715  1.00  0.00     0.010 A 
ATOM     73  C   UNL     1      15.213  15.976  -3.858  1.00  0.00     0.020 A 
ATOM     74  C   UNL     1      13.509  14.266  -3.713  1.00  0.00     0.020 A 
ATOM     75  C   UNL     1      14.845  14.630  -3.825  1.00  0.00     0.054 A 
BRANCH  75  76
ATOM     76  S   UNL     1      16.118  13.359  -4.019  1.00  0.00     0.124 S 
ATOM     77  O   UNL     1      16.564  13.589  -5.390  1.00  0.00    -0.237 OA
ATOM     78  O   UNL     1      17.073  13.712  -2.973  1.00  0.00    -0.237 OA
ATOM     79  O   UNL     1      15.391  12.111  -3.798  1.00  0.00    -0.744 OA
ENDBRANCH  75  76
ENDBRANCH  56  70
BRANCH  57  80
ATOM     80  C   UNL     1       7.569  14.842 -10.382  1.00  0.00    -0.014 A 
ATOM     81  C   UNL     1       8.221  14.383 -11.539  1.00  0.00     0.010 A 
ATOM     82  C   UNL     1       6.587  14.002  -9.810  1.00  0.00     0.010 A 
ATOM     83  C   UNL     1       7.943  13.109 -12.069  1.00  0.00     0.020 A 
ATOM     84  C   UNL     1       6.300  12.737 -10.334  1.00  0.00     0.020 A 
ATOM     85  C   UNL     1       6.998  12.285 -11.449  1.00  0.00     0.054 A 
BRANCH  85  86
ATOM     86  S   UNL     1       6.777  10.573 -12.023  1.00  0.00     0.124 S 
ATOM     87  O   UNL     1       6.104  10.759 -13.304  1.00  0.00    -0.237 OA
ATOM     88  O   UNL     1       8.150  10.083 -12.093  1.00  0.00    -0.237 OA
ATOM     89  O   UNL     1       5.960   9.964 -10.973  1.00  0.00    -0.744 OA
ENDBRANCH  85  86
ENDBRANCH  57  80
BRANCH  69  90
ATOM     90  C   UNL     1      10.271  20.331  -8.900  1.00  0.00    -0.014 A 
ATOM     91  C   UNL     1       8.864  20.437  -8.930  1.00  0.00     0.010 A 
ATOM     92  C   UNL     1      11.023  21.431  -9.344  1.00  0.00     0.010 A 
ATOM     93  C   UNL     1       8.229  21.594  -9.406  1.00  0.00     0.020 A 
ATOM     94  C   UNL     1      10.397  22.596  -9.807  1.00  0.00     0.020 A 
ATOM     95  C   UNL     1       9.004  22.670  -9.842  1.00  0.00     0.054 A 
BRANCH  95  96
ATOM     96  S   UNL     1       8.178  24.186 -10.403  1.00  0.00     0.124 S 
ATOM     97  O   UNL     1       7.572  23.770 -11.665  1.00  0.00    -0.237 OA
ATOM     98  O   UNL     1       7.241  24.469  -9.319  1.00  0.00    -0.237 OA
ATOM     99  O   UNL     1       9.271  25.150 -10.532  1.00  0.00    -0.744 OA
ENDBRANCH  95  96
ENDBRANCH  69  90
ENDBRANCH  43  44
ENDBRANCH  35  38
ENDBRANCH  33  34
ENDBRANCH  32  33
ENDBRANCH   1  32
TORSDOF 18
