REMARK SMILES NS(=O)(=O)c1ccc(-n2nc(C(=O)NCCCCCCNC(=O)c3ccc(-c4c5nc(c(-c6ccc(S(=O)(=O)[O-])cc6)c6ccc([nH]6)c(-c6ccc(S(=O)(=O)[O-])cc6)c6nc(c(-c7ccc(S(=O)(=O)[O-])cc7)c7ccc4[nH]7)C=C6)C=C5)cc3)c(Cl)c2-c2ccc(Cl)cc2)cc1
REMARK SMILES IDX 17 1 16 2 15 3 14 4 12 5 13 6 11 8 9 9 10 10 86 11 84 12
REMARK SMILES IDX 85 13 8 14 5 15 6 16 95 17 7 18 94 19 2 20 3 21 4 22 1 23
REMARK SMILES IDX 87 26 88 27 93 28 89 29 92 30 90 31 91 32 18 33 19 34 20 35
REMARK SMILES IDX 21 36 22 37 23 39 24 40 25 41 83 42 26 43 82 44 27 45 28 46
REMARK SMILES IDX 29 47 76 48 30 49 81 50 75 51 77 52 31 53 80 54 74 55 73 56
REMARK SMILES IDX 32 58 62 59 43 60 61 61 44 62 47 63 60 64 78 65 45 66 46 67
REMARK SMILES IDX 59 69 79 70 48 71 33 72 34 73 42 74 35 75 41 76 36 77 37 78
REMARK SMILES IDX 38 79 39 80 40 81 63 82 64 83 72 84 65 85 71 86 66 87 67 88
REMARK SMILES IDX 68 89 69 90 70 91 49 92 50 93 58 94 51 95 57 96 52 97 53 98
REMARK SMILES IDX 54 99 55 100 56 101
REMARK H PARENT 14 7 1 24 1 25 21 38 77 57 47 68
REMARK Flexibility Score: inf
ROOT
ATOM      1  C   UNL     1       2.325  12.174   7.423  1.00  0.00     0.002 C 
ENDROOT
BRANCH   1   2
ATOM      2  C   UNL     1       1.742  10.981   6.661  1.00  0.00     0.021 C 
BRANCH   2   3
ATOM      3  C   UNL     1       2.390  10.700   5.298  1.00  0.00     0.116 C 
BRANCH   3   4
ATOM      4  N   UNL     1       3.471   9.736   5.418  1.00  0.00    -0.351 N 
ATOM      5  C   UNL     1       3.615   8.425   5.006  1.00  0.00     0.273 C 
ATOM      6  O   UNL     1       4.737   7.938   5.176  1.00  0.00    -0.267 OA
ATOM      7  H   UNL     1       4.261  10.088   5.888  1.00  0.00     0.163 HD
BRANCH   5   8
ATOM      8  C   UNL     1       2.538   7.683   4.319  1.00  0.00     0.169 A 
ATOM      9  N   UNL     1       1.670   6.330   2.887  1.00  0.00    -0.231 N 
ATOM     10  N   UNL     1       2.853   6.731   3.405  1.00  0.00    -0.160 NA
ATOM     11  C   UNL     1       0.614   7.072   3.366  1.00  0.00     0.094 A 
ATOM     12  C   UNL     1       1.132   7.721   4.470  1.00  0.00     0.100 A 
ATOM     13  Cl  UNL     1       0.184   8.382   5.715  1.00  0.00    -0.079 Cl
BRANCH   9  14
ATOM     14  C   UNL     1       1.584   5.215   2.025  1.00  0.00     0.065 A 
ATOM     15  C   UNL     1       1.077   2.969   0.471  1.00  0.00     0.082 A 
ATOM     16  C   UNL     1       1.614   2.810   1.753  1.00  0.00     0.024 A 
ATOM     17  C   UNL     1       0.823   4.246  -0.046  1.00  0.00     0.024 A 
ATOM     18  C   UNL     1       1.892   3.942   2.528  1.00  0.00     0.030 A 
ATOM     19  C   UNL     1       1.056   5.373   0.741  1.00  0.00     0.030 A 
BRANCH  15  20
ATOM     20  S   UNL     1       0.680   1.584  -0.555  1.00  0.00     0.238 S 
ATOM     21  O   UNL     1       1.411   1.720  -1.799  1.00  0.00    -0.207 OA
ATOM     22  O   UNL     1      -0.745   1.377  -0.516  1.00  0.00    -0.207 OA
BRANCH  20  23
ATOM     23  N   UNL     1       1.361   0.253   0.208  1.00  0.00    -0.225 NA
ATOM     24  H   UNL     1       1.167  -0.587  -0.337  1.00  0.00     0.137 HD
ATOM     25  H   UNL     1       0.959   0.154   1.141  1.00  0.00     0.137 HD
ENDBRANCH  20  23
ENDBRANCH  15  20
ENDBRANCH   9  14
BRANCH  11  26
ATOM     26  C   UNL     1      -0.781   7.000   2.962  1.00  0.00     0.002 A 
ATOM     27  C   UNL     1      -1.313   8.052   2.202  1.00  0.00     0.012 A 
ATOM     28  C   UNL     1      -1.632   6.029   3.499  1.00  0.00     0.012 A 
ATOM     29  C   UNL     1      -2.692   8.160   2.024  1.00  0.00     0.021 A 
ATOM     30  C   UNL     1      -3.012   6.141   3.323  1.00  0.00     0.021 A 
ATOM     31  C   UNL     1      -3.536   7.215   2.603  1.00  0.00     0.041 A 
ATOM     32  Cl  UNL     1      -5.239   7.404   2.459  1.00  0.00    -0.084 Cl
ENDBRANCH  11  26
ENDBRANCH   5   8
ENDBRANCH   3   4
ENDBRANCH   2   3
ENDBRANCH   1   2
BRANCH   1  33
ATOM     33  C   UNL     1       2.183  13.540   6.735  1.00  0.00     0.002 C 
BRANCH  33  34
ATOM     34  C   UNL     1       0.772  13.939   6.274  1.00  0.00     0.021 C 
BRANCH  34  35
ATOM     35  C   UNL     1      -0.207  14.166   7.416  1.00  0.00     0.116 C 
BRANCH  35  36
ATOM     36  N   UNL     1       0.146  15.330   8.233  1.00  0.00    -0.352 N 
ATOM     37  C   UNL     1      -0.511  15.839   9.337  1.00  0.00     0.251 C 
ATOM     38  H   UNL     1       0.960  15.813   7.960  1.00  0.00     0.163 HD
ATOM     39  O   UNL     1      -0.328  16.998   9.694  1.00  0.00    -0.269 OA
BRANCH  37  40
ATOM     40  C   UNL     1      -1.429  14.960  10.083  1.00  0.00     0.039 A 
ATOM     41  C   UNL     1      -2.627  15.429  10.630  1.00  0.00     0.014 A 
ATOM     42  C   UNL     1      -1.067  13.623  10.212  1.00  0.00     0.014 A 
ATOM     43  C   UNL     1      -3.486  14.517  11.241  1.00  0.00     0.010 A 
ATOM     44  C   UNL     1      -1.988  12.706  10.636  1.00  0.00     0.010 A 
ATOM     45  C   UNL     1      -3.162  13.150  11.225  1.00  0.00    -0.014 A 
BRANCH  45  46
ATOM     46  C   UNL     1      -4.084  12.138  11.723  1.00  0.00     0.031 A 
ATOM     47  C   UNL     1      -5.421  12.161  11.073  1.00  0.00     0.074 A 
ATOM     48  C   UNL     1      -3.687  11.108  12.504  1.00  0.00     0.049 A 
ATOM     49  N   UNL     1      -6.545  12.520  11.596  1.00  0.00    -0.248 NA
ATOM     50  C   UNL     1      -5.492  11.910   9.622  1.00  0.00     0.031 C 
ATOM     51  C   UNL     1      -2.328  10.757  12.939  1.00  0.00     0.029 A 
ATOM     52  N   UNL     1      -4.417  10.063  12.972  1.00  0.00    -0.354 N 
ATOM     53  C   UNL     1      -7.505  12.301  10.614  1.00  0.00     0.074 A 
ATOM     54  C   UNL     1      -6.783  12.143   9.377  1.00  0.00     0.031 C 
ATOM     55  C   UNL     1      -2.304   9.474  13.368  1.00  0.00     0.029 A 
ATOM     56  C   UNL     1      -3.666   8.977  13.414  1.00  0.00     0.049 A 
ATOM     57  H   UNL     1      -5.401  10.073  12.997  1.00  0.00     0.167 HD
ATOM     58  C   UNL     1      -8.793  11.988  10.936  1.00  0.00     0.031 A 
ATOM     59  C   UNL     1      -4.139   7.750  13.756  1.00  0.00     0.031 A 
ATOM     60  C   UNL     1      -9.069  12.247  12.328  1.00  0.00     0.049 A 
ATOM     61  C   UNL     1      -5.588   7.916  14.037  1.00  0.00     0.074 A 
ATOM     62  C   UNL     1      -8.981  13.359  13.144  1.00  0.00     0.029 A 
ATOM     63  N   UNL     1      -9.088  11.163  13.176  1.00  0.00    -0.354 N 
ATOM     64  N   UNL     1      -6.047   8.623  15.031  1.00  0.00    -0.248 NA
ATOM     65  C   UNL     1      -6.517   7.701  12.940  1.00  0.00     0.031 C 
ATOM     66  C   UNL     1      -8.436  12.869  14.368  1.00  0.00     0.029 A 
ATOM     67  C   UNL     1      -8.314  11.482  14.264  1.00  0.00     0.049 A 
ATOM     68  H   UNL     1      -9.567  10.315  13.030  1.00  0.00     0.167 HD
ATOM     69  C   UNL     1      -7.135   9.306  14.507  1.00  0.00     0.074 A 
ATOM     70  C   UNL     1      -7.427   8.633  13.239  1.00  0.00     0.031 C 
ATOM     71  C   UNL     1      -7.519  10.521  15.000  1.00  0.00     0.031 A 
BRANCH  58  72
ATOM     72  C   UNL     1      -9.656  11.066  10.107  1.00  0.00    -0.014 A 
ATOM     73  C   UNL     1     -10.991  10.844  10.504  1.00  0.00     0.010 A 
ATOM     74  C   UNL     1      -9.135  10.205   9.118  1.00  0.00     0.010 A 
ATOM     75  C   UNL     1     -11.736   9.776   9.987  1.00  0.00     0.020 A 
ATOM     76  C   UNL     1      -9.884   9.166   8.562  1.00  0.00     0.020 A 
ATOM     77  C   UNL     1     -11.171   8.938   9.026  1.00  0.00     0.054 A 
BRANCH  77  78
ATOM     78  S   UNL     1     -12.108   7.510   8.430  1.00  0.00     0.124 S 
ATOM     79  O   UNL     1     -12.193   6.686   9.631  1.00  0.00    -0.237 OA
ATOM     80  O   UNL     1     -13.358   8.125   7.991  1.00  0.00    -0.237 OA
ATOM     81  O   UNL     1     -11.271   6.976   7.358  1.00  0.00    -0.744 OA
ENDBRANCH  77  78
ENDBRANCH  58  72
BRANCH  59  82
ATOM     82  C   UNL     1      -3.528   6.413  13.529  1.00  0.00    -0.014 A 
ATOM     83  C   UNL     1      -4.088   5.261  14.117  1.00  0.00     0.010 A 
ATOM     84  C   UNL     1      -2.598   6.226  12.486  1.00  0.00     0.010 A 
ATOM     85  C   UNL     1      -3.800   3.978  13.620  1.00  0.00     0.020 A 
ATOM     86  C   UNL     1      -2.301   4.949  11.991  1.00  0.00     0.020 A 
ATOM     87  C   UNL     1      -2.929   3.832  12.538  1.00  0.00     0.054 A 
BRANCH  87  88
ATOM     88  S   UNL     1      -2.735   2.200  11.757  1.00  0.00     0.124 S 
ATOM     89  O   UNL     1      -1.973   1.462  12.760  1.00  0.00    -0.237 OA
ATOM     90  O   UNL     1      -4.118   1.769  11.570  1.00  0.00    -0.237 OA
ATOM     91  O   UNL     1      -2.011   2.494  10.521  1.00  0.00    -0.744 OA
ENDBRANCH  87  88
ENDBRANCH  59  82
BRANCH  71  92
ATOM     92  C   UNL     1      -6.919  10.997  16.307  1.00  0.00    -0.014 A 
ATOM     93  C   UNL     1      -5.539  11.175  16.536  1.00  0.00     0.010 A 
ATOM     94  C   UNL     1      -7.815  11.403  17.311  1.00  0.00     0.010 A 
ATOM     95  C   UNL     1      -5.073  11.704  17.753  1.00  0.00     0.020 A 
ATOM     96  C   UNL     1      -7.361  11.947  18.514  1.00  0.00     0.020 A 
ATOM     97  C   UNL     1      -5.991  12.080  18.738  1.00  0.00     0.054 A 
BRANCH  97  98
ATOM     98  S   UNL     1      -5.394  12.761  20.311  1.00  0.00     0.124 S 
ATOM     99  O   UNL     1      -4.718  11.618  20.916  1.00  0.00    -0.237 OA
ATOM    100  O   UNL     1      -4.523  13.854  19.884  1.00  0.00    -0.237 OA
ATOM    101  O   UNL     1      -6.616  13.187  20.993  1.00  0.00    -0.744 OA
ENDBRANCH  97  98
ENDBRANCH  71  92
ENDBRANCH  45  46
ENDBRANCH  37  40
ENDBRANCH  35  36
ENDBRANCH  34  35
ENDBRANCH  33  34
ENDBRANCH   1  33
TORSDOF 20
