REMARK SMILES CCCN(CCC)c1cc(C(=O)NCCCCCCNC(=O)c2ccc(-c3c4nc(c(-c5ccc(S(=O)(=O)[O-])cc5)c5ccc([nH]5)c(-c5ccc(S(=O)(=O)[O-])cc5)c5nc(c(-c6ccc(S(=O)(=O)[O-])cc6)c6ccc3[nH]6)C=C5)C=C4)cc2)cc(C(F)(F)F)c1
REMARK SMILES IDX 16 1 15 2 14 3 13 4 11 5 12 6 10 8 8 9 9 10 89 11 84 12
REMARK SMILES IDX 83 13 4 14 3 15 2 16 1 17 5 18 6 19 7 20 85 21 86 22 87 23
REMARK SMILES IDX 88 24 17 25 18 26 19 27 20 28 21 29 22 31 23 32 24 33 82 34
REMARK SMILES IDX 25 35 81 36 26 37 27 38 28 39 75 40 29 41 80 42 74 43 76 44
REMARK SMILES IDX 30 45 79 46 73 47 72 48 31 50 61 51 42 52 60 53 43 54 46 55
REMARK SMILES IDX 59 56 77 57 44 58 45 59 58 61 78 62 47 63 32 64 33 65 41 66
REMARK SMILES IDX 34 67 40 68 35 69 36 70 37 71 38 72 39 73 62 74 63 75 71 76
REMARK SMILES IDX 64 77 70 78 65 79 66 80 67 81 68 82 69 83 48 84 49 85 57 86
REMARK SMILES IDX 50 87 56 88 51 89 52 90 53 91 54 92 55 93
REMARK H PARENT 13 7 20 30 76 49 46 60
REMARK Flexibility Score: inf
ROOT
ATOM      1  C   UNL     1      -0.612  -2.384   8.720  1.00  0.00     0.002 C 
ENDROOT
BRANCH   1   2
ATOM      2  C   UNL     1      -0.815  -1.767   7.342  1.00  0.00     0.021 C 
BRANCH   2   3
ATOM      3  C   UNL     1       0.404  -1.698   6.434  1.00  0.00     0.116 C 
BRANCH   3   4
ATOM      4  N   UNL     1       1.027  -2.966   6.082  1.00  0.00    -0.352 N 
ATOM      5  C   UNL     1       1.708  -3.318   4.929  1.00  0.00     0.251 C 
ATOM      6  O   UNL     1       2.226  -4.429   4.842  1.00  0.00    -0.269 OA
ATOM      7  H   UNL     1       0.953  -3.674   6.761  1.00  0.00     0.163 HD
BRANCH   5   8
ATOM      8  C   UNL     1       1.687  -2.414   3.745  1.00  0.00     0.042 A 
ATOM      9  C   UNL     1       0.851  -2.220   1.469  1.00  0.00     0.038 A 
ATOM     10  C   UNL     1       1.399  -2.984   2.499  1.00  0.00     0.039 A 
ATOM     11  C   UNL     1       0.604  -0.877   1.754  1.00  0.00     0.039 A 
ATOM     12  C   UNL     1       1.080  -0.251   2.912  1.00  0.00     0.058 A 
ATOM     13  C   UNL     1       1.713  -1.030   3.876  1.00  0.00     0.027 A 
BRANCH   9  14
ATOM     14  N   UNL     1       0.511  -2.745   0.237  1.00  0.00    -0.372 N 
BRANCH  14  15
ATOM     15  C   UNL     1       1.200  -2.242  -0.961  1.00  0.00     0.116 C 
BRANCH  15  16
ATOM     16  C   UNL     1       0.471  -1.092  -1.676  1.00  0.00     0.018 C 
ATOM     17  C   UNL     1       0.871   0.314  -1.230  1.00  0.00     0.006 C 
ENDBRANCH  15  16
ENDBRANCH  14  15
BRANCH  14  18
ATOM     18  C   UNL     1      -0.499  -3.805   0.100  1.00  0.00     0.116 C 
BRANCH  18  19
ATOM     19  C   UNL     1       0.015  -5.199   0.479  1.00  0.00     0.018 C 
ATOM     20  C   UNL     1      -0.460  -5.659   1.857  1.00  0.00     0.006 C 
ENDBRANCH  18  19
ENDBRANCH  14  18
ENDBRANCH   9  14
BRANCH  12  21
ATOM     21  C   UNL     1       0.754   1.190   3.197  1.00  0.00     0.416 C 
ATOM     22  F   UNL     1      -0.342   1.302   3.998  1.00  0.00    -0.166 F 
ATOM     23  F   UNL     1       1.758   1.840   3.844  1.00  0.00    -0.166 F 
ATOM     24  F   UNL     1       0.482   1.918   2.081  1.00  0.00    -0.166 F 
ENDBRANCH  12  21
ENDBRANCH   5   8
ENDBRANCH   3   4
ENDBRANCH   2   3
ENDBRANCH   1   2
BRANCH   1  25
ATOM     25  C   UNL     1       0.566  -1.850   9.538  1.00  0.00     0.002 C 
BRANCH  25  26
ATOM     26  C   UNL     1       0.634  -0.333   9.733  1.00  0.00     0.021 C 
BRANCH  26  27
ATOM     27  C   UNL     1      -0.615   0.323  10.313  1.00  0.00     0.116 C 
BRANCH  27  28
ATOM     28  N   UNL     1      -0.963  -0.193  11.626  1.00  0.00    -0.352 N 
ATOM     29  C   UNL     1      -1.151   0.474  12.809  1.00  0.00     0.251 C 
ATOM     30  H   UNL     1      -1.083  -1.169  11.672  1.00  0.00     0.163 HD
ATOM     31  O   UNL     1      -1.284  -0.168  13.853  1.00  0.00    -0.269 OA
BRANCH  29  32
ATOM     32  C   UNL     1      -1.169   1.953  12.847  1.00  0.00     0.039 A 
ATOM     33  C   UNL     1      -0.477   2.610  13.868  1.00  0.00     0.014 A 
ATOM     34  C   UNL     1      -1.877   2.694  11.897  1.00  0.00     0.014 A 
ATOM     35  C   UNL     1      -0.442   4.006  13.900  1.00  0.00     0.010 A 
ATOM     36  C   UNL     1      -1.781   4.085  11.887  1.00  0.00     0.010 A 
ATOM     37  C   UNL     1      -1.065   4.757  12.889  1.00  0.00    -0.014 A 
BRANCH  37  38
ATOM     38  C   UNL     1      -0.971   6.241  12.865  1.00  0.00     0.031 A 
ATOM     39  C   UNL     1      -2.209   7.085  13.012  1.00  0.00     0.074 A 
ATOM     40  C   UNL     1       0.224   6.830  12.657  1.00  0.00     0.049 A 
ATOM     41  N   UNL     1      -2.327   8.388  12.973  1.00  0.00    -0.248 NA
ATOM     42  C   UNL     1      -3.483   6.374  13.207  1.00  0.00     0.031 C 
ATOM     43  C   UNL     1       1.494   6.124  12.463  1.00  0.00     0.029 A 
ATOM     44  N   UNL     1       0.568   8.156  12.568  1.00  0.00    -0.354 N 
ATOM     45  C   UNL     1      -3.684   8.651  13.124  1.00  0.00     0.074 A 
ATOM     46  C   UNL     1      -4.355   7.372  13.204  1.00  0.00     0.031 C 
ATOM     47  C   UNL     1       2.478   7.023  12.308  1.00  0.00     0.029 A 
ATOM     48  C   UNL     1       1.909   8.366  12.344  1.00  0.00     0.049 A 
ATOM     49  H   UNL     1      -0.084   8.889  12.657  1.00  0.00     0.167 HD
ATOM     50  C   UNL     1      -4.314   9.848  13.208  1.00  0.00     0.031 A 
ATOM     51  C   UNL     1       2.604   9.509  12.175  1.00  0.00     0.031 A 
ATOM     52  C   UNL     1      -3.642  11.119  13.134  1.00  0.00     0.049 A 
ATOM     53  C   UNL     1       1.877  10.825  12.242  1.00  0.00     0.074 A 
ATOM     54  C   UNL     1      -4.184  12.386  13.267  1.00  0.00     0.029 A 
ATOM     55  N   UNL     1      -2.286  11.288  12.899  1.00  0.00    -0.354 N 
ATOM     56  N   UNL     1       0.605  11.053  12.463  1.00  0.00    -0.248 NA
ATOM     57  C   UNL     1       2.682  12.039  12.042  1.00  0.00     0.031 C 
ATOM     58  C   UNL     1      -3.167  13.321  13.049  1.00  0.00     0.029 A 
ATOM     59  C   UNL     1      -1.979  12.637  12.846  1.00  0.00     0.049 A 
ATOM     60  H   UNL     1      -1.637  10.556  12.786  1.00  0.00     0.167 HD
ATOM     61  C   UNL     1       0.460  12.436  12.450  1.00  0.00     0.074 A 
ATOM     62  C   UNL     1       1.778  12.993  12.220  1.00  0.00     0.031 C 
ATOM     63  C   UNL     1      -0.663  13.178  12.611  1.00  0.00     0.031 A 
BRANCH  50  64
ATOM     64  C   UNL     1      -5.811   9.840  13.382  1.00  0.00    -0.014 A 
ATOM     65  C   UNL     1      -6.403   9.398  14.579  1.00  0.00     0.010 A 
ATOM     66  C   UNL     1      -6.637  10.325  12.351  1.00  0.00     0.010 A 
ATOM     67  C   UNL     1      -7.793   9.399  14.725  1.00  0.00     0.020 A 
ATOM     68  C   UNL     1      -8.027  10.357  12.505  1.00  0.00     0.020 A 
ATOM     69  C   UNL     1      -8.596   9.877  13.685  1.00  0.00     0.054 A 
BRANCH  69  70
ATOM     70  S   UNL     1     -10.396   9.886  13.913  1.00  0.00     0.124 S 
ATOM     71  O   UNL     1     -10.714   8.462  13.848  1.00  0.00    -0.237 OA
ATOM     72  O   UNL     1     -10.548  10.504  15.228  1.00  0.00    -0.237 OA
ATOM     73  O   UNL     1     -10.884  10.684  12.792  1.00  0.00    -0.744 OA
ENDBRANCH  69  70
ENDBRANCH  50  64
BRANCH  51  74
ATOM     74  C   UNL     1       4.072   9.458  11.926  1.00  0.00    -0.014 A 
ATOM     75  C   UNL     1       4.979   9.917  12.897  1.00  0.00     0.010 A 
ATOM     76  C   UNL     1       4.571   8.940  10.717  1.00  0.00     0.010 A 
ATOM     77  C   UNL     1       6.356   9.876  12.657  1.00  0.00     0.020 A 
ATOM     78  C   UNL     1       5.948   8.868  10.486  1.00  0.00     0.020 A 
ATOM     79  C   UNL     1       6.832   9.348  11.454  1.00  0.00     0.054 A 
BRANCH  79  80
ATOM     80  S   UNL     1       8.624   9.258  11.186  1.00  0.00     0.124 S 
ATOM     81  O   UNL     1       8.971  10.660  10.980  1.00  0.00    -0.237 OA
ATOM     82  O   UNL     1       9.098   8.664  12.434  1.00  0.00    -0.237 OA
ATOM     83  O   UNL     1       8.752   8.401  10.010  1.00  0.00    -0.744 OA
ENDBRANCH  79  80
ENDBRANCH  51  74
BRANCH  63  84
ATOM     84  C   UNL     1      -0.522  14.677  12.562  1.00  0.00    -0.014 A 
ATOM     85  C   UNL     1      -0.264  15.343  11.350  1.00  0.00     0.010 A 
ATOM     86  C   UNL     1      -0.719  15.434  13.731  1.00  0.00     0.010 A 
ATOM     87  C   UNL     1      -0.184  16.737  11.314  1.00  0.00     0.020 A 
ATOM     88  C   UNL     1      -0.670  16.830  13.693  1.00  0.00     0.020 A 
ATOM     89  C   UNL     1      -0.392  17.473  12.485  1.00  0.00     0.054 A 
BRANCH  89  90
ATOM     90  S   UNL     1      -0.344  19.284  12.396  1.00  0.00     0.124 S 
ATOM     91  O   UNL     1       1.080  19.541  12.201  1.00  0.00    -0.237 OA
ATOM     92  O   UNL     1      -1.198  19.570  11.246  1.00  0.00    -0.237 OA
ATOM     93  O   UNL     1      -0.883  19.709  13.686  1.00  0.00    -0.744 OA
ENDBRANCH  89  90
ENDBRANCH  63  84
ENDBRANCH  37  38
ENDBRANCH  29  32
ENDBRANCH  27  28
ENDBRANCH  26  27
ENDBRANCH  25  26
ENDBRANCH   1  25
TORSDOF 22
