REMARK SMILES CC1=Nc2c(c(C)nn2-c2ccc(F)cc2)[C@H](c2ccc(C(=O)NCCCCCCNC(=O)c3ccc(-c4c5nc(c(-c6ccc(S(=O)(=O)[O-])cc6)c6ccc([nH]6)c(-c6ccc(S(=O)(=O)[O-])cc6)c6nc(c(-c7ccc(S(=O)(=O)[O-])cc7)c7ccc4[nH]7)C=C6)C=C5)cc3)cc2)S1
REMARK SMILES IDX 28 1 27 2 26 3 25 4 24 5 22 6 23 7 21 9 18 10 19 11 95 12
REMARK SMILES IDX 20 13 94 14 17 15 1 16 2 17 3 18 96 19 4 20 5 21 9 22 6 23
REMARK SMILES IDX 8 24 7 25 10 26 11 27 16 28 12 29 15 30 13 31 14 32 29 33
REMARK SMILES IDX 30 34 31 35 32 36 33 38 34 39 35 40 93 41 36 42 92 43 37 44
REMARK SMILES IDX 38 45 39 46 86 47 40 48 91 49 85 50 87 51 41 52 90 53 84 54
REMARK SMILES IDX 83 55 42 57 72 58 53 59 71 60 54 61 57 62 70 63 88 64 55 65
REMARK SMILES IDX 56 66 69 68 89 69 58 70 43 71 44 72 52 73 45 74 51 75 46 76
REMARK SMILES IDX 47 77 48 78 49 79 50 80 73 81 74 82 82 83 75 84 81 85 76 86
REMARK SMILES IDX 77 87 78 88 79 89 80 90 59 91 60 92 68 93 61 94 67 95 62 96
REMARK SMILES IDX 63 97 64 98 65 99 66 100
REMARK H PARENT 24 8 31 37 87 56 57 67
REMARK Flexibility Score: inf
ROOT
ATOM      1  C   UNL     1      -1.616  -3.956   8.664  1.00  0.00     0.002 C 
ENDROOT
BRANCH   1   2
ATOM      2  C   UNL     1      -2.608  -3.986   7.488  1.00  0.00     0.002 C 
BRANCH   2   3
ATOM      3  C   UNL     1      -2.031  -3.571   6.128  1.00  0.00     0.021 C 
BRANCH   3   4
ATOM      4  C   UNL     1      -0.814  -4.396   5.711  1.00  0.00     0.116 C 
BRANCH   4   5
ATOM      5  N   UNL     1      -1.232  -5.715   5.280  1.00  0.00    -0.352 N 
ATOM      6  C   UNL     1      -1.254  -6.313   4.048  1.00  0.00     0.251 C 
ATOM      7  O   UNL     1      -1.643  -7.478   3.978  1.00  0.00    -0.269 OA
ATOM      8  H   UNL     1      -1.561  -6.289   6.009  1.00  0.00     0.163 HD
BRANCH   6   9
ATOM      9  C   UNL     1      -0.737  -5.643   2.828  1.00  0.00     0.039 A 
ATOM     10  C   UNL     1       0.419  -4.526   0.499  1.00  0.00    -0.030 A 
ATOM     11  C   UNL     1       0.477  -5.909   0.742  1.00  0.00     0.006 A 
ATOM     12  C   UNL     1      -0.272  -3.723   1.424  1.00  0.00     0.006 A 
ATOM     13  C   UNL     1      -0.102  -6.460   1.886  1.00  0.00     0.014 A 
ATOM     14  C   UNL     1      -0.865  -4.280   2.562  1.00  0.00     0.014 A 
BRANCH  10  15
ATOM     15  C   UNL     1       1.021  -3.975  -0.785  1.00  0.00     0.119 C 
ATOM     16  C   UNL     1       1.171   0.119  -0.213  1.00  0.00     0.075 C 
ATOM     17  C   UNL     1       0.854  -1.208  -0.853  1.00  0.00     0.074 C 
ATOM     18  N   UNL     1      -0.241  -1.304  -1.534  1.00  0.00    -0.227 NA
ATOM     19  S   UNL     1       2.030  -2.480  -0.542  1.00  0.00    -0.098 SA
ATOM     20  C   UNL     1      -0.613  -2.517  -2.009  1.00  0.00     0.161 A 
ATOM     21  C   UNL     1      -0.121  -3.762  -1.699  1.00  0.00     0.038 A 
ATOM     22  N   UNL     1      -1.719  -2.725  -2.822  1.00  0.00    -0.215 N 
ATOM     23  C   UNL     1      -0.964  -4.674  -2.382  1.00  0.00     0.067 A 
ATOM     24  N   UNL     1      -1.965  -4.049  -3.010  1.00  0.00    -0.171 NA
ATOM     25  C   UNL     1      -0.884  -6.156  -2.428  1.00  0.00     0.069 C 
BRANCH  22  26
ATOM     26  C   UNL     1      -2.496  -1.735  -3.462  1.00  0.00     0.067 A 
ATOM     27  C   UNL     1      -1.857  -0.636  -4.055  1.00  0.00     0.031 A 
ATOM     28  C   UNL     1      -3.892  -1.837  -3.463  1.00  0.00     0.031 A 
ATOM     29  C   UNL     1      -2.619   0.362  -4.654  1.00  0.00     0.041 A 
ATOM     30  C   UNL     1      -4.649  -0.801  -4.017  1.00  0.00     0.041 A 
ATOM     31  C   UNL     1      -4.007   0.279  -4.618  1.00  0.00     0.123 A 
ATOM     32  F   UNL     1      -4.728   1.259  -5.179  1.00  0.00    -0.207 F 
ENDBRANCH  22  26
ENDBRANCH  10  15
ENDBRANCH   6   9
ENDBRANCH   4   5
ENDBRANCH   3   4
ENDBRANCH   2   3
ENDBRANCH   1   2
BRANCH   1  33
ATOM     33  C   UNL     1      -0.808  -2.661   8.841  1.00  0.00     0.021 C 
BRANCH  33  34
ATOM     34  C   UNL     1      -1.657  -1.467   9.242  1.00  0.00     0.116 C 
BRANCH  34  35
ATOM     35  N   UNL     1      -2.226  -1.617  10.588  1.00  0.00    -0.352 N 
ATOM     36  C   UNL     1      -3.113  -0.790  11.249  1.00  0.00     0.251 C 
ATOM     37  H   UNL     1      -1.935  -2.414  11.086  1.00  0.00     0.163 HD
ATOM     38  O   UNL     1      -3.200  -0.818  12.479  1.00  0.00    -0.269 OA
BRANCH  36  39
ATOM     39  C   UNL     1      -3.965   0.109  10.458  1.00  0.00     0.039 A 
ATOM     40  C   UNL     1      -4.331   1.391  10.880  1.00  0.00     0.014 A 
ATOM     41  C   UNL     1      -4.377  -0.369   9.221  1.00  0.00     0.014 A 
ATOM     42  C   UNL     1      -5.072   2.190  10.010  1.00  0.00     0.010 A 
ATOM     43  C   UNL     1      -4.843   0.500   8.285  1.00  0.00     0.010 A 
ATOM     44  C   UNL     1      -5.318   1.728   8.708  1.00  0.00    -0.014 A 
BRANCH  44  45
ATOM     45  C   UNL     1      -6.011   2.514   7.701  1.00  0.00     0.031 A 
ATOM     46  C   UNL     1      -5.349   3.802   7.394  1.00  0.00     0.074 A 
ATOM     47  C   UNL     1      -6.990   1.992   6.926  1.00  0.00     0.049 A 
ATOM     48  N   UNL     1      -5.728   4.980   7.757  1.00  0.00    -0.248 NA
ATOM     49  C   UNL     1      -4.011   3.767   6.778  1.00  0.00     0.031 C 
ATOM     50  C   UNL     1      -7.495   0.610   6.891  1.00  0.00     0.029 A 
ATOM     51  N   UNL     1      -7.661   2.567   5.897  1.00  0.00    -0.354 N 
ATOM     52  C   UNL     1      -4.818   5.854   7.177  1.00  0.00     0.074 A 
ATOM     53  C   UNL     1      -3.673   5.057   6.817  1.00  0.00     0.031 C 
ATOM     54  C   UNL     1      -8.190   0.406   5.748  1.00  0.00     0.029 A 
ATOM     55  C   UNL     1      -8.333   1.676   5.064  1.00  0.00     0.049 A 
ATOM     56  H   UNL     1      -7.671   3.540   5.750  1.00  0.00     0.167 HD
ATOM     57  C   UNL     1      -5.201   7.093   6.759  1.00  0.00     0.031 A 
ATOM     58  C   UNL     1      -8.936   1.967   3.881  1.00  0.00     0.031 A 
ATOM     59  C   UNL     1      -6.519   7.429   7.244  1.00  0.00     0.049 A 
ATOM     60  C   UNL     1      -9.173   3.433   3.876  1.00  0.00     0.074 A 
ATOM     61  C   UNL     1      -7.101   7.525   8.492  1.00  0.00     0.029 A 
ATOM     62  N   UNL     1      -7.558   7.291   6.350  1.00  0.00    -0.354 N 
ATOM     63  N   UNL     1      -9.980   4.027   4.711  1.00  0.00    -0.248 NA
ATOM     64  C   UNL     1      -8.149   4.283   3.289  1.00  0.00     0.031 C 
ATOM     65  C   UNL     1      -8.399   6.954   8.336  1.00  0.00     0.029 A 
ATOM     66  C   UNL     1      -8.574   6.628   6.989  1.00  0.00     0.049 A 
ATOM     67  H   UNL     1      -7.570   7.612   5.420  1.00  0.00     0.167 HD
ATOM     68  C   UNL     1      -9.309   5.180   5.094  1.00  0.00     0.074 A 
ATOM     69  C   UNL     1      -8.230   5.330   4.116  1.00  0.00     0.031 C 
ATOM     70  C   UNL     1      -9.506   5.736   6.327  1.00  0.00     0.031 A 
BRANCH  57  71
ATOM     71  C   UNL     1      -4.593   7.799   5.572  1.00  0.00    -0.014 A 
ATOM     72  C   UNL     1      -5.017   9.110   5.279  1.00  0.00     0.010 A 
ATOM     73  C   UNL     1      -3.837   7.135   4.584  1.00  0.00     0.010 A 
ATOM     74  C   UNL     1      -4.754   9.697   4.035  1.00  0.00     0.020 A 
ATOM     75  C   UNL     1      -3.530   7.727   3.359  1.00  0.00     0.020 A 
ATOM     76  C   UNL     1      -4.021   8.993   3.080  1.00  0.00     0.054 A 
BRANCH  76  77
ATOM     77  S   UNL     1      -3.767   9.721   1.444  1.00  0.00     0.124 S 
ATOM     78  O   UNL     1      -5.128   9.752   0.917  1.00  0.00    -0.237 OA
ATOM     79  O   UNL     1      -3.183  11.018   1.773  1.00  0.00    -0.237 OA
ATOM     80  O   UNL     1      -2.860   8.781   0.790  1.00  0.00    -0.744 OA
ENDBRANCH  76  77
ENDBRANCH  57  71
BRANCH  58  81
ATOM     81  C   UNL     1      -9.011   1.138   2.649  1.00  0.00    -0.014 A 
ATOM     82  C   UNL     1      -9.873   1.478   1.588  1.00  0.00     0.010 A 
ATOM     83  C   UNL     1      -8.014   0.173   2.391  1.00  0.00     0.010 A 
ATOM     84  C   UNL     1      -9.704   0.924   0.304  1.00  0.00     0.020 A 
ATOM     85  C   UNL     1      -7.841  -0.385   1.116  1.00  0.00     0.020 A 
ATOM     86  C   UNL     1      -8.671   0.012   0.071  1.00  0.00     0.054 A 
BRANCH  86  87
ATOM     87  S   UNL     1      -8.351  -0.571  -1.622  1.00  0.00     0.124 S 
ATOM     88  O   UNL     1      -9.554  -1.342  -1.923  1.00  0.00    -0.237 OA
ATOM     89  O   UNL     1      -8.198   0.676  -2.365  1.00  0.00    -0.237 OA
ATOM     90  O   UNL     1      -7.128  -1.362  -1.492  1.00  0.00    -0.744 OA
ENDBRANCH  86  87
ENDBRANCH  58  81
BRANCH  70  91
ATOM     91  C   UNL     1     -10.668   5.244   7.163  1.00  0.00    -0.014 A 
ATOM     92  C   UNL     1     -10.804   3.922   7.637  1.00  0.00     0.010 A 
ATOM     93  C   UNL     1     -11.586   6.209   7.612  1.00  0.00     0.010 A 
ATOM     94  C   UNL     1     -11.846   3.577   8.514  1.00  0.00     0.020 A 
ATOM     95  C   UNL     1     -12.613   5.877   8.497  1.00  0.00     0.020 A 
ATOM     96  C   UNL     1     -12.747   4.560   8.937  1.00  0.00     0.054 A 
BRANCH  96  97
ATOM     97  S   UNL     1     -14.077   4.125  10.094  1.00  0.00     0.124 S 
ATOM     98  O   UNL     1     -14.930   3.259   9.286  1.00  0.00    -0.237 OA
ATOM     99  O   UNL     1     -13.359   3.465  11.182  1.00  0.00    -0.237 OA
ATOM    100  O   UNL     1     -14.667   5.416  10.448  1.00  0.00    -0.744 OA
ENDBRANCH  96  97
ENDBRANCH  70  91
ENDBRANCH  44  45
ENDBRANCH  36  39
ENDBRANCH  34  35
ENDBRANCH  33  34
ENDBRANCH   1  33
TORSDOF 18
