REMARK SMILES Cc1cc2c(cc1C)O[C@H](C(=O)NCCCCCCNC(=O)c1ccc(-c3c4nc(c(-c5ccc(S(=O)(=O)[O-])cc5)c5ccc([nH]5)c(-c5ccc(S(=O)(=O)[O-])cc5)c5nc(c(-c6ccc(S(=O)(=O)[O-])cc6)c6ccc3[nH]6)C=C5)C=C4)cc1)C2
REMARK SMILES IDX 18 1 17 2 16 3 15 4 14 5 13 6 11 7 12 8 10 10 1 11 2 12 3 13
REMARK SMILES IDX 7 14 4 15 6 16 8 17 5 18 83 19 9 20 19 21 20 22 21 23 22 25
REMARK SMILES IDX 23 26 24 27 82 28 25 29 81 30 26 31 27 32 28 33 75 34 29 35
REMARK SMILES IDX 80 36 74 37 76 38 30 39 79 40 73 41 72 42 31 44 61 45 42 46
REMARK SMILES IDX 60 47 43 48 46 49 59 50 77 51 44 52 45 53 58 55 78 56 47 57
REMARK SMILES IDX 32 58 33 59 41 60 34 61 40 62 35 63 36 64 37 65 38 66 39 67
REMARK SMILES IDX 62 68 63 69 71 70 64 71 70 72 65 73 66 74 67 75 68 76 69 77
REMARK SMILES IDX 48 78 49 79 57 80 50 81 56 82 51 83 52 84 53 85 54 86 55 87
REMARK H PARENT 13 9 20 24 76 43 46 54
REMARK Flexibility Score: inf
ROOT
ATOM      1  C   UNL     1      -7.216   4.955   5.985  1.00  0.00     0.021 C 
ENDROOT
BRANCH   1   2
ATOM      2  C   UNL     1      -6.732   3.997   7.075  1.00  0.00     0.002 C 
BRANCH   2   3
ATOM      3  C   UNL     1      -6.387   2.580   6.601  1.00  0.00     0.002 C 
BRANCH   3   4
ATOM      4  C   UNL     1      -5.307   2.507   5.514  1.00  0.00     0.021 C 
BRANCH   4   5
ATOM      5  C   UNL     1      -3.919   2.924   6.005  1.00  0.00     0.116 C 
BRANCH   5   6
ATOM      6  N   UNL     1      -3.338   1.899   6.861  1.00  0.00    -0.353 N 
ATOM      7  C   UNL     1      -2.545   0.844   6.473  1.00  0.00     0.261 C 
ATOM      8  O   UNL     1      -2.243  -0.017   7.299  1.00  0.00    -0.271 OA
ATOM      9  H   UNL     1      -3.534   1.969   7.823  1.00  0.00     0.163 HD
BRANCH   7  10
ATOM     10  C   UNL     1      -2.110   0.798   5.013  1.00  0.00     0.266 C 
ATOM     11  C   UNL     1       0.876  -0.308   0.011  1.00  0.00     0.044 C 
ATOM     12  C   UNL     1       0.452   0.302   1.320  1.00  0.00    -0.048 A 
ATOM     13  C   UNL     1      -0.208  -0.513   2.263  1.00  0.00     0.011 A 
ATOM     14  C   UNL     1       0.677   1.679   1.599  1.00  0.00    -0.045 A 
ATOM     15  C   UNL     1      -0.692   0.067   3.418  1.00  0.00    -0.001 A 
ATOM     16  C   UNL     1       0.191   2.234   2.793  1.00  0.00     0.050 A 
ATOM     17  C   UNL     1       1.346   2.615   0.629  1.00  0.00     0.045 C 
ATOM     18  C   UNL     1      -0.509   1.420   3.652  1.00  0.00     0.124 A 
ATOM     19  C   UNL     1      -1.460  -0.508   4.553  1.00  0.00     0.095 C 
ATOM     20  O   UNL     1      -1.151   1.863   4.779  1.00  0.00    -0.480 OA
ENDBRANCH   7  10
ENDBRANCH   5   6
ENDBRANCH   4   5
ENDBRANCH   3   4
ENDBRANCH   2   3
ENDBRANCH   1   2
BRANCH   1  21
ATOM     21  C   UNL     1      -8.441   4.486   5.207  1.00  0.00     0.116 C 
BRANCH  21  22
ATOM     22  N   UNL     1      -9.635   4.383   6.034  1.00  0.00    -0.352 N 
ATOM     23  C   UNL     1     -10.905   4.849   5.782  1.00  0.00     0.251 C 
ATOM     24  H   UNL     1      -9.517   3.915   6.892  1.00  0.00     0.163 HD
ATOM     25  O   UNL     1     -11.769   4.789   6.653  1.00  0.00    -0.269 OA
BRANCH  23  26
ATOM     26  C   UNL     1     -11.210   5.461   4.470  1.00  0.00     0.039 A 
ATOM     27  C   UNL     1     -10.799   4.846   3.286  1.00  0.00     0.014 A 
ATOM     28  C   UNL     1     -11.877   6.689   4.429  1.00  0.00     0.014 A 
ATOM     29  C   UNL     1     -10.897   5.537   2.082  1.00  0.00     0.010 A 
ATOM     30  C   UNL     1     -12.047   7.345   3.206  1.00  0.00     0.010 A 
ATOM     31  C   UNL     1     -11.508   6.801   2.030  1.00  0.00    -0.014 A 
BRANCH  31  32
ATOM     32  C   UNL     1     -11.562   7.534   0.737  1.00  0.00     0.031 A 
ATOM     33  C   UNL     1     -10.809   8.824   0.547  1.00  0.00     0.074 A 
ATOM     34  C   UNL     1     -12.248   7.002  -0.293  1.00  0.00     0.049 A 
ATOM     35  N   UNL     1     -10.696   9.554  -0.534  1.00  0.00    -0.248 NA
ATOM     36  C   UNL     1     -10.095   9.369   1.713  1.00  0.00     0.031 C 
ATOM     37  C   UNL     1     -13.008   5.752  -0.236  1.00  0.00     0.029 A 
ATOM     38  N   UNL     1     -12.391   7.421  -1.592  1.00  0.00    -0.354 N 
ATOM     39  C   UNL     1      -9.922  10.652  -0.174  1.00  0.00     0.074 A 
ATOM     40  C   UNL     1      -9.611  10.506   1.230  1.00  0.00     0.031 C 
ATOM     41  C   UNL     1     -13.485   5.474  -1.457  1.00  0.00     0.029 A 
ATOM     42  C   UNL     1     -13.118   6.553  -2.372  1.00  0.00     0.049 A 
ATOM     43  H   UNL     1     -12.010   8.262  -1.933  1.00  0.00     0.167 HD
ATOM     44  C   UNL     1      -9.503  11.681  -0.948  1.00  0.00     0.031 A 
ATOM     45  C   UNL     1     -13.460   6.609  -3.674  1.00  0.00     0.031 A 
ATOM     46  C   UNL     1      -9.793  11.809  -2.352  1.00  0.00     0.049 A 
ATOM     47  C   UNL     1     -13.004   7.769  -4.508  1.00  0.00     0.074 A 
ATOM     48  C   UNL     1      -9.358  12.789  -3.227  1.00  0.00     0.029 A 
ATOM     49  N   UNL     1     -10.589  10.942  -3.085  1.00  0.00    -0.354 N 
ATOM     50  N   UNL     1     -12.246   8.779  -4.157  1.00  0.00    -0.248 NA
ATOM     51  C   UNL     1     -13.447   7.803  -5.908  1.00  0.00     0.031 C 
ATOM     52  C   UNL     1      -9.944  12.553  -4.473  1.00  0.00     0.029 A 
ATOM     53  C   UNL     1     -10.690  11.387  -4.393  1.00  0.00     0.049 A 
ATOM     54  H   UNL     1     -11.019  10.131  -2.729  1.00  0.00     0.167 HD
ATOM     55  C   UNL     1     -12.120   9.572  -5.291  1.00  0.00     0.074 A 
ATOM     56  C   UNL     1     -12.863   8.913  -6.346  1.00  0.00     0.031 C 
ATOM     57  C   UNL     1     -11.449  10.740  -5.436  1.00  0.00     0.031 A 
BRANCH  44  58
ATOM     58  C   UNL     1      -8.690  12.773  -0.302  1.00  0.00    -0.014 A 
ATOM     59  C   UNL     1      -9.245  14.058  -0.160  1.00  0.00     0.010 A 
ATOM     60  C   UNL     1      -7.350  12.563   0.069  1.00  0.00     0.010 A 
ATOM     61  C   UNL     1      -8.474  15.117   0.325  1.00  0.00     0.020 A 
ATOM     62  C   UNL     1      -6.582  13.615   0.578  1.00  0.00     0.020 A 
ATOM     63  C   UNL     1      -7.144  14.890   0.685  1.00  0.00     0.054 A 
BRANCH  63  64
ATOM     64  S   UNL     1      -6.155  16.274   1.317  1.00  0.00     0.124 S 
ATOM     65  O   UNL     1      -5.791  16.978   0.091  1.00  0.00    -0.237 OA
ATOM     66  O   UNL     1      -7.096  16.970   2.191  1.00  0.00    -0.237 OA
ATOM     67  O   UNL     1      -5.051  15.612   2.011  1.00  0.00    -0.744 OA
ENDBRANCH  63  64
ENDBRANCH  44  58
BRANCH  45  68
ATOM     68  C   UNL     1     -14.260   5.491  -4.242  1.00  0.00    -0.014 A 
ATOM     69  C   UNL     1     -15.598   5.306  -3.846  1.00  0.00     0.010 A 
ATOM     70  C   UNL     1     -13.644   4.522  -5.053  1.00  0.00     0.010 A 
ATOM     71  C   UNL     1     -16.279   4.133  -4.176  1.00  0.00     0.020 A 
ATOM     72  C   UNL     1     -14.332   3.358  -5.408  1.00  0.00     0.020 A 
ATOM     73  C   UNL     1     -15.630   3.154  -4.933  1.00  0.00     0.054 A 
BRANCH  73  74
ATOM     74  S   UNL     1     -16.487   1.586  -5.249  1.00  0.00     0.124 S 
ATOM     75  O   UNL     1     -16.343   0.905  -3.965  1.00  0.00    -0.237 OA
ATOM     76  O   UNL     1     -17.841   2.021  -5.582  1.00  0.00    -0.237 OA
ATOM     77  O   UNL     1     -15.733   1.002  -6.355  1.00  0.00    -0.744 OA
ENDBRANCH  73  74
ENDBRANCH  45  68
BRANCH  57  78
ATOM     78  C   UNL     1     -11.490  11.422  -6.777  1.00  0.00    -0.014 A 
ATOM     79  C   UNL     1     -10.323  11.498  -7.559  1.00  0.00     0.010 A 
ATOM     80  C   UNL     1     -12.643  12.109  -7.196  1.00  0.00     0.010 A 
ATOM     81  C   UNL     1     -10.294  12.281  -8.716  1.00  0.00     0.020 A 
ATOM     82  C   UNL     1     -12.626  12.873  -8.367  1.00  0.00     0.020 A 
ATOM     83  C   UNL     1     -11.443  12.976  -9.104  1.00  0.00     0.054 A 
BRANCH  83  84
ATOM     84  S   UNL     1     -11.377  14.021 -10.585  1.00  0.00     0.124 S 
ATOM     85  O   UNL     1     -10.685  15.208 -10.093  1.00  0.00    -0.237 OA
ATOM     86  O   UNL     1     -10.623  13.198 -11.528  1.00  0.00    -0.237 OA
ATOM     87  O   UNL     1     -12.784  14.215 -10.930  1.00  0.00    -0.744 OA
ENDBRANCH  83  84
ENDBRANCH  57  78
ENDBRANCH  31  32
ENDBRANCH  23  26
ENDBRANCH  21  22
ENDBRANCH   1  21
TORSDOF 16
