REMARK SMILES C[C@@H](C(=O)NCCCCCCNC(=O)c1ccc(-c2c3nc(c(-c4ccc(S(=O)(=O)[O-])cc4)c4ccc([nH]4)c(-c4ccc(S(=O)(=O)[O-])cc4)c4nc(c(-c5ccc(S(=O)(=O)[O-])cc5)c5ccc2[nH]5)C=C4)C=C3)cc1)c1ccc(-c2cccc(OC(=O)NC3CC3)c2)c(F)c1
REMARK SMILES IDX 7 1 6 2 5 3 3 4 4 5 2 7 1 8 75 9 76 10 94 11 77 12 92 13
REMARK SMILES IDX 78 14 93 15 79 16 80 17 91 18 81 19 83 20 82 21 84 22 85 23
REMARK SMILES IDX 86 24 87 25 88 27 89 28 90 29 8 30 9 31 10 32 11 33 12 34
REMARK SMILES IDX 13 35 14 37 15 38 16 39 74 40 17 41 73 42 18 43 19 44 20 45
REMARK SMILES IDX 67 46 21 47 72 48 66 49 68 50 22 51 71 52 65 53 64 54 23 56
REMARK SMILES IDX 53 57 34 58 52 59 35 60 38 61 51 62 69 63 36 64 37 65 50 67
REMARK SMILES IDX 70 68 39 69 24 70 25 71 33 72 26 73 32 74 27 75 28 76 29 77
REMARK SMILES IDX 30 78 31 79 54 80 55 81 63 82 56 83 62 84 57 85 58 86 59 87
REMARK SMILES IDX 60 88 61 89 40 90 41 91 49 92 42 93 48 94 43 95 44 96 45 97
REMARK SMILES IDX 46 98 47 99
REMARK H PARENT 5 6 87 26 12 36 68 55 38 66
REMARK Flexibility Score: inf
ROOT
ATOM      1  C   UNL     1       4.375   1.275   0.538  1.00  0.00     0.021 C 
ENDROOT
BRANCH   1   2
ATOM      2  C   UNL     1       3.602   0.599   1.672  1.00  0.00     0.116 C 
BRANCH   2   3
ATOM      3  N   UNL     1       2.575   1.483   2.174  1.00  0.00    -0.356 N 
ATOM      4  C   UNL     1       1.232   1.488   1.959  1.00  0.00     0.227 C 
ATOM      5  O   UNL     1       0.621   2.449   2.432  1.00  0.00    -0.274 OA
ATOM      6  H   UNL     1       2.901   2.198   2.768  1.00  0.00     0.163 HD
BRANCH   4   7
ATOM      7  C   UNL     1       0.564   0.309   1.222  1.00  0.00     0.105 C 
ATOM      8  C   UNL     1       0.935   0.200  -0.258  1.00  0.00     0.023 C 
BRANCH   7   9
ATOM      9  C   UNL     1      -0.959   0.296   1.298  1.00  0.00    -0.033 A 
ATOM     10  C   UNL     1      -1.724   1.459   1.136  1.00  0.00     0.005 A 
ATOM     11  C   UNL     1      -1.628  -0.927   1.435  1.00  0.00     0.044 A 
ATOM     12  C   UNL     1      -3.117   1.416   1.188  1.00  0.00     0.012 A 
ATOM     13  C   UNL     1      -3.019  -0.966   1.454  1.00  0.00     0.131 A 
ATOM     14  C   UNL     1      -3.791   0.201   1.358  1.00  0.00     0.018 A 
ATOM     15  F   UNL     1      -3.613  -2.164   1.575  1.00  0.00    -0.206 F 
BRANCH  14  16
ATOM     16  C   UNL     1      -5.248   0.184   1.516  1.00  0.00    -0.012 A 
ATOM     17  C   UNL     1      -6.102   0.827   0.605  1.00  0.00     0.009 A 
ATOM     18  C   UNL     1      -5.810  -0.426   2.648  1.00  0.00     0.056 A 
ATOM     19  C   UNL     1      -7.480   0.865   0.824  1.00  0.00     0.004 A 
ATOM     20  C   UNL     1      -7.180  -0.382   2.868  1.00  0.00     0.133 A 
ATOM     21  C   UNL     1      -8.020   0.263   1.960  1.00  0.00     0.047 A 
BRANCH  20  22
ATOM     22  O   UNL     1      -7.819  -0.951   3.995  1.00  0.00    -0.410 OA
BRANCH  22  23
ATOM     23  C   UNL     1      -7.221  -1.740   4.973  1.00  0.00     0.412 C 
ATOM     24  O   UNL     1      -6.026  -2.005   5.070  1.00  0.00    -0.224 OA
ATOM     25  N   UNL     1      -8.104  -2.257   5.883  1.00  0.00    -0.318 N 
ATOM     26  H   UNL     1      -7.708  -2.858   6.555  1.00  0.00     0.167 HD
BRANCH  25  27
ATOM     27  C   UNL     1      -9.508  -2.057   6.005  1.00  0.00     0.085 C 
ATOM     28  C   UNL     1     -10.469  -1.681   4.913  1.00  0.00     0.027 C 
ATOM     29  C   UNL     1     -10.432  -3.091   5.414  1.00  0.00     0.027 C 
ENDBRANCH  25  27
ENDBRANCH  22  23
ENDBRANCH  20  22
ENDBRANCH  14  16
ENDBRANCH   7   9
ENDBRANCH   4   7
ENDBRANCH   2   3
ENDBRANCH   1   2
BRANCH   1  30
ATOM     30  C   UNL     1       5.105   2.558   0.959  1.00  0.00     0.002 C 
BRANCH  30  31
ATOM     31  C   UNL     1       6.062   2.393   2.143  1.00  0.00     0.002 C 
BRANCH  31  32
ATOM     32  C   UNL     1       7.108   1.291   1.966  1.00  0.00     0.021 C 
BRANCH  32  33
ATOM     33  C   UNL     1       8.000   1.465   0.742  1.00  0.00     0.116 C 
BRANCH  33  34
ATOM     34  N   UNL     1       8.805   2.673   0.828  1.00  0.00    -0.352 N 
ATOM     35  C   UNL     1      10.169   2.809   0.769  1.00  0.00     0.251 C 
ATOM     36  H   UNL     1       8.301   3.510   0.945  1.00  0.00     0.163 HD
ATOM     37  O   UNL     1      10.695   3.873   1.082  1.00  0.00    -0.269 OA
BRANCH  35  38
ATOM     38  C   UNL     1      11.000   1.661   0.347  1.00  0.00     0.039 A 
ATOM     39  C   UNL     1      12.145   1.351   1.083  1.00  0.00     0.014 A 
ATOM     40  C   UNL     1      10.644   0.889  -0.763  1.00  0.00     0.014 A 
ATOM     41  C   UNL     1      12.897   0.224   0.744  1.00  0.00     0.010 A 
ATOM     42  C   UNL     1      11.352  -0.275  -1.052  1.00  0.00     0.010 A 
ATOM     43  C   UNL     1      12.483  -0.622  -0.300  1.00  0.00    -0.014 A 
BRANCH  43  44
ATOM     44  C   UNL     1      13.206  -1.887  -0.591  1.00  0.00     0.031 A 
ATOM     45  C   UNL     1      13.886  -2.090  -1.919  1.00  0.00     0.074 A 
ATOM     46  C   UNL     1      13.200  -2.877   0.325  1.00  0.00     0.049 A 
ATOM     47  N   UNL     1      14.527  -3.142  -2.360  1.00  0.00    -0.248 NA
ATOM     48  C   UNL     1      13.823  -0.979  -2.883  1.00  0.00     0.031 C 
ATOM     49  C   UNL     1      12.539  -2.817   1.633  1.00  0.00     0.029 A 
ATOM     50  N   UNL     1      13.761  -4.130   0.298  1.00  0.00    -0.354 N 
ATOM     51  C   UNL     1      14.931  -2.826  -3.653  1.00  0.00     0.074 A 
ATOM     52  C   UNL     1      14.428  -1.502  -3.942  1.00  0.00     0.031 C 
ATOM     53  C   UNL     1      12.757  -3.968   2.290  1.00  0.00     0.029 A 
ATOM     54  C   UNL     1      13.528  -4.866   1.437  1.00  0.00     0.049 A 
ATOM     55  H   UNL     1      14.282  -4.470  -0.465  1.00  0.00     0.167 HD
ATOM     56  C   UNL     1      15.667  -3.568  -4.514  1.00  0.00     0.031 A 
ATOM     57  C   UNL     1      13.880  -6.127   1.756  1.00  0.00     0.031 A 
ATOM     58  C   UNL     1      16.178  -4.881  -4.216  1.00  0.00     0.049 A 
ATOM     59  C   UNL     1      14.681  -6.933   0.769  1.00  0.00     0.074 A 
ATOM     60  C   UNL     1      16.990  -5.682  -5.000  1.00  0.00     0.029 A 
ATOM     61  N   UNL     1      15.923  -5.589  -3.052  1.00  0.00    -0.354 N 
ATOM     62  N   UNL     1      15.125  -6.582  -0.415  1.00  0.00    -0.248 NA
ATOM     63  C   UNL     1      15.036  -8.303   1.163  1.00  0.00     0.031 C 
ATOM     64  C   UNL     1      17.169  -6.901  -4.341  1.00  0.00     0.029 A 
ATOM     65  C   UNL     1      16.530  -6.832  -3.114  1.00  0.00     0.049 A 
ATOM     66  H   UNL     1      15.389  -5.257  -2.294  1.00  0.00     0.167 HD
ATOM     67  C   UNL     1      15.836  -7.678  -0.891  1.00  0.00     0.074 A 
ATOM     68  C   UNL     1      15.783  -8.692   0.140  1.00  0.00     0.031 C 
ATOM     69  C   UNL     1      16.474  -7.832  -2.078  1.00  0.00     0.031 A 
BRANCH  56  70
ATOM     70  C   UNL     1      15.971  -2.989  -5.871  1.00  0.00    -0.014 A 
ATOM     71  C   UNL     1      16.876  -1.924  -6.023  1.00  0.00     0.010 A 
ATOM     72  C   UNL     1      15.419  -3.586  -7.020  1.00  0.00     0.010 A 
ATOM     73  C   UNL     1      17.212  -1.457  -7.297  1.00  0.00     0.020 A 
ATOM     74  C   UNL     1      15.774  -3.141  -8.296  1.00  0.00     0.020 A 
ATOM     75  C   UNL     1      16.665  -2.074  -8.426  1.00  0.00     0.054 A 
BRANCH  75  76
ATOM     76  S   UNL     1      17.176  -1.492 -10.066  1.00  0.00     0.124 S 
ATOM     77  O   UNL     1      16.541  -0.178 -10.132  1.00  0.00    -0.237 OA
ATOM     78  O   UNL     1      18.632  -1.481  -9.960  1.00  0.00    -0.237 OA
ATOM     79  O   UNL     1      16.627  -2.494 -10.977  1.00  0.00    -0.744 OA
ENDBRANCH  75  76
ENDBRANCH  56  70
BRANCH  57  80
ATOM     80  C   UNL     1      13.467  -6.718   3.060  1.00  0.00    -0.014 A 
ATOM     81  C   UNL     1      14.424  -7.055   4.034  1.00  0.00     0.010 A 
ATOM     82  C   UNL     1      12.109  -6.979   3.322  1.00  0.00     0.010 A 
ATOM     83  C   UNL     1      14.036  -7.679   5.224  1.00  0.00     0.020 A 
ATOM     84  C   UNL     1      11.714  -7.569   4.525  1.00  0.00     0.020 A 
ATOM     85  C   UNL     1      12.683  -7.935   5.460  1.00  0.00     0.054 A 
BRANCH  85  86
ATOM     86  S   UNL     1      12.200  -8.738   7.013  1.00  0.00     0.124 S 
ATOM     87  O   UNL     1      12.659 -10.107   6.802  1.00  0.00    -0.237 OA
ATOM     88  O   UNL     1      12.940  -7.967   8.009  1.00  0.00    -0.237 OA
ATOM     89  O   UNL     1      10.750  -8.562   7.051  1.00  0.00    -0.744 OA
ENDBRANCH  85  86
ENDBRANCH  57  80
BRANCH  69  90
ATOM     90  C   UNL     1      17.199  -9.131  -2.314  1.00  0.00    -0.014 A 
ATOM     91  C   UNL     1      16.498 -10.334  -2.513  1.00  0.00     0.010 A 
ATOM     92  C   UNL     1      18.604  -9.136  -2.389  1.00  0.00     0.010 A 
ATOM     93  C   UNL     1      17.192 -11.524  -2.746  1.00  0.00     0.020 A 
ATOM     94  C   UNL     1      19.299 -10.318  -2.656  1.00  0.00     0.020 A 
ATOM     95  C   UNL     1      18.588 -11.508  -2.818  1.00  0.00     0.054 A 
BRANCH  95  96
ATOM     96  S   UNL     1      19.461 -13.060  -3.163  1.00  0.00     0.124 S 
ATOM     97  O   UNL     1      19.289 -13.791  -1.911  1.00  0.00    -0.237 OA
ATOM     98  O   UNL     1      18.725 -13.592  -4.308  1.00  0.00    -0.237 OA
ATOM     99  O   UNL     1      20.828 -12.633  -3.452  1.00  0.00    -0.744 OA
ENDBRANCH  95  96
ENDBRANCH  69  90
ENDBRANCH  43  44
ENDBRANCH  35  38
ENDBRANCH  33  34
ENDBRANCH  32  33
ENDBRANCH  31  32
ENDBRANCH  30  31
ENDBRANCH   1  30
TORSDOF 21
