REMARK SMILES COC(=O)c1ccccc1-c1ccc(/C=C(\C#N)C(=O)NCCCCCCNC(=O)c2ccc(-c3c4nc(c(-c5ccc(S(=O)(=O)[O-])cc5)c5ccc([nH]5)c(-c5ccc(S(=O)(=O)[O-])cc5)c5nc(c(-c6ccc(S(=O)(=O)[O-])cc6)c6ccc3[nH]6)C=C5)C=C4)cc2)o1
REMARK SMILES IDX 24 1 23 2 22 3 21 4 19 5 20 6 16 8 15 9 14 10 11 11 12 12
REMARK SMILES IDX 91 13 13 14 10 15 5 16 6 17 7 18 9 19 8 20 3 21 4 22 2 23
REMARK SMILES IDX 1 24 17 25 18 26 25 27 26 28 27 29 28 30 29 31 30 33 31 34
REMARK SMILES IDX 32 35 90 36 33 37 89 38 34 39 35 40 36 41 83 42 37 43 88 44
REMARK SMILES IDX 82 45 84 46 38 47 87 48 81 49 80 50 39 52 69 53 50 54 68 55
REMARK SMILES IDX 51 56 54 57 67 58 85 59 52 60 53 61 66 63 86 64 55 65 40 66
REMARK SMILES IDX 41 67 49 68 42 69 48 70 43 71 44 72 45 73 46 74 47 75 70 76
REMARK SMILES IDX 71 77 79 78 72 79 78 80 73 81 74 82 75 83 76 84 77 85 56 86
REMARK SMILES IDX 57 87 65 88 58 89 64 90 59 91 60 92 61 93 62 94 63 95
REMARK H PARENT 21 7 28 32 84 51 54 62
REMARK Flexibility Score: inf
ROOT
ATOM      1  C   UNL     1      -4.569  -8.261   1.933  1.00  0.00     0.002 C 
ENDROOT
BRANCH   1   2
ATOM      2  C   UNL     1      -3.932  -7.241   0.983  1.00  0.00     0.021 C 
BRANCH   2   3
ATOM      3  C   UNL     1      -4.965  -6.326   0.329  1.00  0.00     0.116 C 
BRANCH   3   4
ATOM      4  N   UNL     1      -5.290  -5.213   1.201  1.00  0.00    -0.351 N 
ATOM      5  C   UNL     1      -4.912  -3.910   1.229  1.00  0.00     0.262 C 
ATOM      6  O   UNL     1      -5.364  -3.231   2.157  1.00  0.00    -0.268 OA
ATOM      7  H   UNL     1      -5.916  -5.453   1.923  1.00  0.00     0.163 HD
BRANCH   5   8
ATOM      8  C   UNL     1      -4.027  -3.284   0.202  1.00  0.00     0.120 C 
ATOM      9  C   UNL     1      -3.916  -1.939   0.247  1.00  0.00     0.072 C 
BRANCH   9  10
ATOM     10  C   UNL     1      -3.170  -1.151  -0.679  1.00  0.00     0.129 A 
ATOM     11  C   UNL     1      -1.834  -0.631  -2.386  1.00  0.00     0.135 A 
ATOM     12  C   UNL     1      -2.154   0.560  -1.779  1.00  0.00     0.051 A 
ATOM     13  O   UNL     1      -2.464  -1.651  -1.750  1.00  0.00    -0.457 OA
ATOM     14  C   UNL     1      -3.004   0.230  -0.695  1.00  0.00     0.051 A 
BRANCH  11  15
ATOM     15  C   UNL     1      -0.956  -1.009  -3.483  1.00  0.00     0.032 A 
ATOM     16  C   UNL     1       0.411  -0.675  -3.499  1.00  0.00     0.071 A 
ATOM     17  C   UNL     1       1.208  -0.966  -4.617  1.00  0.00     0.016 A 
ATOM     18  C   UNL     1       0.655  -1.625  -5.714  1.00  0.00     0.001 A 
ATOM     19  C   UNL     1      -1.488  -1.691  -4.589  1.00  0.00     0.013 A 
ATOM     20  C   UNL     1      -0.688  -1.994  -5.696  1.00  0.00     0.001 A 
BRANCH  16  21
ATOM     21  C   UNL     1       1.068  -0.004  -2.360  1.00  0.00     0.338 C 
ATOM     22  O   UNL     1       1.765   0.996  -2.470  1.00  0.00    -0.246 OA
BRANCH  21  23
ATOM     23  O   UNL     1       0.809  -0.689  -1.222  1.00  0.00    -0.465 OA
ATOM     24  C   UNL     1       1.298  -0.070  -0.034  1.00  0.00     0.282 C 
ENDBRANCH  21  23
ENDBRANCH  16  21
ENDBRANCH  11  15
ENDBRANCH   9  10
BRANCH   8  25
ATOM     25  C   UNL     1      -3.346  -4.088  -0.894  1.00  0.00     0.105 C 
ATOM     26  N   UNL     1      -2.782  -4.755  -1.803  1.00  0.00    -0.192 NA
ENDBRANCH   8  25
ENDBRANCH   5   8
ENDBRANCH   3   4
ENDBRANCH   2   3
ENDBRANCH   1   2
BRANCH   1  27
ATOM     27  C   UNL     1      -5.610  -9.178   1.276  1.00  0.00     0.002 C 
BRANCH  27  28
ATOM     28  C   UNL     1      -5.119  -9.911   0.024  1.00  0.00     0.021 C 
BRANCH  28  29
ATOM     29  C   UNL     1      -3.945 -10.851   0.279  1.00  0.00     0.116 C 
BRANCH  29  30
ATOM     30  N   UNL     1      -4.305 -11.894   1.225  1.00  0.00    -0.352 N 
ATOM     31  C   UNL     1      -4.263 -13.255   1.073  1.00  0.00     0.251 C 
ATOM     32  H   UNL     1      -4.624 -11.578   2.101  1.00  0.00     0.163 HD
ATOM     33  O   UNL     1      -4.860 -13.977   1.867  1.00  0.00    -0.269 OA
BRANCH  31  34
ATOM     34  C   UNL     1      -3.498 -13.846  -0.044  1.00  0.00     0.039 A 
ATOM     35  C   UNL     1      -4.038 -14.932  -0.735  1.00  0.00     0.014 A 
ATOM     36  C   UNL     1      -2.235 -13.352  -0.383  1.00  0.00     0.014 A 
ATOM     37  C   UNL     1      -3.323 -15.504  -1.788  1.00  0.00     0.010 A 
ATOM     38  C   UNL     1      -1.557 -13.874  -1.479  1.00  0.00     0.010 A 
ATOM     39  C   UNL     1      -2.085 -14.967  -2.180  1.00  0.00    -0.014 A 
BRANCH  39  40
ATOM     40  C   UNL     1      -1.319 -15.555  -3.306  1.00  0.00     0.031 A 
ATOM     41  C   UNL     1       0.019 -16.197  -3.053  1.00  0.00     0.074 A 
ATOM     42  C   UNL     1      -1.806 -15.468  -4.559  1.00  0.00     0.049 A 
ATOM     43  N   UNL     1       0.850 -16.735  -3.909  1.00  0.00    -0.248 NA
ATOM     44  C   UNL     1       0.498 -16.215  -1.661  1.00  0.00     0.031 C 
ATOM     45  C   UNL     1      -3.071 -14.832  -4.934  1.00  0.00     0.029 A 
ATOM     46  N   UNL     1      -1.293 -15.915  -5.750  1.00  0.00    -0.354 N 
ATOM     47  C   UNL     1       1.952 -17.139  -3.164  1.00  0.00     0.074 A 
ATOM     48  C   UNL     1       1.708 -16.738  -1.796  1.00  0.00     0.031 C 
ATOM     49  C   UNL     1      -3.249 -14.957  -6.259  1.00  0.00     0.029 A 
ATOM     50  C   UNL     1      -2.097 -15.645  -6.832  1.00  0.00     0.049 A 
ATOM     51  H   UNL     1      -0.431 -16.384  -5.823  1.00  0.00     0.167 HD
ATOM     52  C   UNL     1       3.058 -17.803  -3.577  1.00  0.00     0.031 A 
ATOM     53  C   UNL     1      -1.925 -15.919  -8.139  1.00  0.00     0.031 A 
ATOM     54  C   UNL     1       3.290 -18.209  -4.938  1.00  0.00     0.049 A 
ATOM     55  C   UNL     1      -0.690 -16.660  -8.573  1.00  0.00     0.074 A 
ATOM     56  C   UNL     1       4.353 -18.930  -5.452  1.00  0.00     0.029 A 
ATOM     57  N   UNL     1       2.445 -17.929  -6.002  1.00  0.00    -0.354 N 
ATOM     58  N   UNL     1       0.313 -17.089  -7.844  1.00  0.00    -0.248 NA
ATOM     59  C   UNL     1      -0.572 -16.968 -10.005  1.00  0.00     0.031 C 
ATOM     60  C   UNL     1       4.175 -19.044  -6.835  1.00  0.00     0.029 A 
ATOM     61  C   UNL     1       2.971 -18.448  -7.173  1.00  0.00     0.049 A 
ATOM     62  H   UNL     1       1.596 -17.435  -5.934  1.00  0.00     0.167 HD
ATOM     63  C   UNL     1       1.166 -17.746  -8.724  1.00  0.00     0.074 A 
ATOM     64  C   UNL     1       0.553 -17.669 -10.035  1.00  0.00     0.031 C 
ATOM     65  C   UNL     1       2.347 -18.362  -8.469  1.00  0.00     0.031 A 
BRANCH  52  66
ATOM     66  C   UNL     1       4.104 -18.126  -2.541  1.00  0.00    -0.014 A 
ATOM     67  C   UNL     1       3.859 -19.076  -1.532  1.00  0.00     0.010 A 
ATOM     68  C   UNL     1       5.361 -17.497  -2.596  1.00  0.00     0.010 A 
ATOM     69  C   UNL     1       4.835 -19.358  -0.573  1.00  0.00     0.020 A 
ATOM     70  C   UNL     1       6.351 -17.799  -1.656  1.00  0.00     0.020 A 
ATOM     71  C   UNL     1       6.075 -18.715  -0.639  1.00  0.00     0.054 A 
BRANCH  71  72
ATOM     72  S   UNL     1       7.330 -19.117   0.607  1.00  0.00     0.124 S 
ATOM     73  O   UNL     1       6.798 -18.453   1.795  1.00  0.00    -0.237 OA
ATOM     74  O   UNL     1       7.297 -20.577   0.637  1.00  0.00    -0.237 OA
ATOM     75  O   UNL     1       8.556 -18.535   0.066  1.00  0.00    -0.744 OA
ENDBRANCH  71  72
ENDBRANCH  52  66
BRANCH  53  76
ATOM     76  C   UNL     1      -2.963 -15.514  -9.126  1.00  0.00    -0.014 A 
ATOM     77  C   UNL     1      -3.769 -16.480  -9.753  1.00  0.00     0.010 A 
ATOM     78  C   UNL     1      -3.161 -14.155  -9.433  1.00  0.00     0.010 A 
ATOM     79  C   UNL     1      -4.739 -16.098 -10.684  1.00  0.00     0.020 A 
ATOM     80  C   UNL     1      -4.149 -13.767 -10.342  1.00  0.00     0.020 A 
ATOM     81  C   UNL     1      -4.924 -14.742 -10.972  1.00  0.00     0.054 A 
BRANCH  81  82
ATOM     82  S   UNL     1      -6.221 -14.266 -12.148  1.00  0.00     0.124 S 
ATOM     83  O   UNL     1      -5.636 -14.666 -13.423  1.00  0.00    -0.237 OA
ATOM     84  O   UNL     1      -7.362 -15.059 -11.697  1.00  0.00    -0.237 OA
ATOM     85  O   UNL     1      -6.355 -12.825 -11.943  1.00  0.00    -0.744 OA
ENDBRANCH  81  82
ENDBRANCH  53  76
BRANCH  65  86
ATOM     86  C   UNL     1       3.035 -19.040  -9.624  1.00  0.00    -0.014 A 
ATOM     87  C   UNL     1       3.644 -18.299 -10.653  1.00  0.00     0.010 A 
ATOM     88  C   UNL     1       3.108 -20.445  -9.655  1.00  0.00     0.010 A 
ATOM     89  C   UNL     1       4.277 -18.953 -11.714  1.00  0.00     0.020 A 
ATOM     90  C   UNL     1       3.766 -21.101 -10.698  1.00  0.00     0.020 A 
ATOM     91  C   UNL     1       4.331 -20.351 -11.730  1.00  0.00     0.054 A 
BRANCH  91  92
ATOM     92  S   UNL     1       5.184 -21.176 -13.102  1.00  0.00     0.124 S 
ATOM     93  O   UNL     1       4.231 -21.009 -14.196  1.00  0.00    -0.237 OA
ATOM     94  O   UNL     1       6.420 -20.406 -13.222  1.00  0.00    -0.237 OA
ATOM     95  O   UNL     1       5.355 -22.547 -12.629  1.00  0.00    -0.744 OA
ENDBRANCH  91  92
ENDBRANCH  65  86
ENDBRANCH  39  40
ENDBRANCH  31  34
ENDBRANCH  29  30
ENDBRANCH  28  29
ENDBRANCH  27  28
ENDBRANCH   1  27
TORSDOF 21
