REMARK SMILES C=C1C[C@@]23CC[C@H]4[C@@](C)(CCC[C@@]4(C)C(=O)NCCCCCCNC(=O)c4ccc(-c5c6nc(c(-c7ccc(S(=O)(=O)[O-])cc7)c7ccc([nH]7)c(-c7ccc(S(=O)(=O)[O-])cc7)c7nc(c(-c8ccc(S(=O)(=O)[O-])cc8)c8ccc5[nH]8)C=C7)C=C6)cc4)[C@H]2CC[C@]1(O)C3
REMARK SMILES IDX 21 1 20 2 19 3 18 4 17 5 15 6 16 7 13 9 1 10 2 11 3 12 90 13
REMARK SMILES IDX 4 14 89 15 92 16 5 17 87 18 88 19 6 20 8 21 7 22 9 23 10 24
REMARK SMILES IDX 11 25 12 26 14 27 91 28 22 30 23 31 24 32 25 33 26 35 27 36
REMARK SMILES IDX 28 37 86 38 29 39 85 40 30 41 31 42 32 43 79 44 33 45 84 46
REMARK SMILES IDX 78 47 80 48 34 49 83 50 77 51 76 52 35 54 65 55 46 56 64 57
REMARK SMILES IDX 47 58 50 59 63 60 81 61 48 62 49 63 62 65 82 66 51 67 36 68
REMARK SMILES IDX 37 69 45 70 38 71 44 72 39 73 40 74 41 75 42 76 43 77 66 78
REMARK SMILES IDX 67 79 75 80 68 81 74 82 69 83 70 84 71 85 72 86 73 87 52 88
REMARK SMILES IDX 53 89 61 90 54 91 60 92 55 93 56 94 57 95 58 96 59 97
REMARK H PARENT 17 8 91 29 24 34 80 53 50 64
REMARK Flexibility Score: inf
ROOT
ATOM      1  C   UNL     1      -4.154  -8.038  -4.021  1.00  0.00     0.002 C 
ENDROOT
BRANCH   1   2
ATOM      2  C   UNL     1      -5.107  -7.325  -4.988  1.00  0.00     0.002 C 
BRANCH   2   3
ATOM      3  C   UNL     1      -5.251  -5.803  -4.791  1.00  0.00     0.021 C 
BRANCH   3   4
ATOM      4  C   UNL     1      -3.938  -5.029  -4.864  1.00  0.00     0.116 C 
BRANCH   4   5
ATOM      5  N   UNL     1      -3.293  -5.271  -6.135  1.00  0.00    -0.356 N 
ATOM      6  C   UNL     1      -2.596  -4.507  -7.000  1.00  0.00     0.226 C 
ATOM      7  O   UNL     1      -2.192  -5.118  -7.998  1.00  0.00    -0.274 OA
ATOM      8  H   UNL     1      -3.382  -6.203  -6.437  1.00  0.00     0.163 HD
BRANCH   6   9
ATOM      9  C   UNL     1      -2.339  -3.000  -6.820  1.00  0.00     0.050 C 
ATOM     10  C   UNL     1       1.487  -0.193  -0.138  1.00  0.00     0.011 C 
ATOM     11  C   UNL     1       0.853  -0.954  -1.042  1.00  0.00    -0.045 C 
ATOM     12  C   UNL     1       1.147  -0.968  -2.533  1.00  0.00     0.040 C 
ATOM     13  C   UNL     1      -0.440  -1.694  -0.818  1.00  0.00     0.086 C 
ATOM     14  C   UNL     1      -0.219  -1.387  -3.157  1.00  0.00    -0.020 C 
ATOM     15  C   UNL     1      -0.297  -3.226  -0.945  1.00  0.00     0.040 C 
ATOM     16  C   UNL     1      -1.201  -1.116  -1.990  1.00  0.00     0.047 C 
ATOM     17  C   UNL     1      -0.644  -0.524  -4.321  1.00  0.00     0.008 C 
ATOM     18  C   UNL     1      -0.347  -2.918  -3.478  1.00  0.00     0.002 C 
ATOM     19  C   UNL     1       0.256  -3.746  -2.311  1.00  0.00     0.008 C 
ATOM     20  C   UNL     1      -1.926  -1.138  -4.923  1.00  0.00     0.006 C 
ATOM     21  C   UNL     1      -0.411  -3.398  -5.015  1.00  0.00    -0.025 C 
ATOM     22  C   UNL     1      -1.529  -2.469  -5.618  1.00  0.00     0.010 C 
ATOM     23  C   UNL     1      -0.569  -4.937  -4.897  1.00  0.00     0.012 C 
ATOM     24  C   UNL     1       0.692  -3.281  -6.152  1.00  0.00     0.007 C 
ATOM     25  C   UNL     1       0.148  -3.022  -7.673  1.00  0.00     0.002 C 
ATOM     26  C   UNL     1      -1.365  -2.618  -7.986  1.00  0.00     0.017 C 
ATOM     27  C   UNL     1      -3.712  -2.303  -6.917  1.00  0.00     0.022 C 
BRANCH  13  28
ATOM     28  O   UNL     1      -1.095  -1.351   0.385  1.00  0.00    -0.386 OA
ATOM     29  H   UNL     1      -0.606  -1.722   1.137  1.00  0.00     0.211 HD
ENDBRANCH  13  28
ENDBRANCH   6   9
ENDBRANCH   4   5
ENDBRANCH   3   4
ENDBRANCH   2   3
ENDBRANCH   1   2
BRANCH   1  30
ATOM     30  C   UNL     1      -4.465  -7.833  -2.539  1.00  0.00     0.021 C 
BRANCH  30  31
ATOM     31  C   UNL     1      -5.907  -8.127  -2.149  1.00  0.00     0.116 C 
BRANCH  31  32
ATOM     32  N   UNL     1      -6.286  -9.507  -2.403  1.00  0.00    -0.352 N 
ATOM     33  C   UNL     1      -6.974 -10.373  -1.579  1.00  0.00     0.251 C 
ATOM     34  H   UNL     1      -6.016  -9.871  -3.276  1.00  0.00     0.163 HD
ATOM     35  O   UNL     1      -7.091 -11.545  -1.865  1.00  0.00    -0.269 OA
BRANCH  33  36
ATOM     36  C   UNL     1      -7.537  -9.838  -0.318  1.00  0.00     0.039 A 
ATOM     37  C   UNL     1      -7.238 -10.487   0.881  1.00  0.00     0.014 A 
ATOM     38  C   UNL     1      -8.302  -8.669  -0.324  1.00  0.00     0.014 A 
ATOM     39  C   UNL     1      -7.649  -9.919   2.088  1.00  0.00     0.010 A 
ATOM     40  C   UNL     1      -8.647  -8.068   0.881  1.00  0.00     0.010 A 
ATOM     41  C   UNL     1      -8.320  -8.685   2.099  1.00  0.00    -0.014 A 
BRANCH  41  42
ATOM     42  C   UNL     1      -8.672  -8.009   3.373  1.00  0.00     0.031 A 
ATOM     43  C   UNL     1     -10.114  -7.771   3.727  1.00  0.00     0.074 A 
ATOM     44  C   UNL     1      -7.691  -7.544   4.173  1.00  0.00     0.049 A 
ATOM     45  N   UNL     1     -10.616  -7.134   4.753  1.00  0.00    -0.248 NA
ATOM     46  C   UNL     1     -11.124  -8.298   2.793  1.00  0.00     0.031 C 
ATOM     47  C   UNL     1      -6.254  -7.681   3.920  1.00  0.00     0.029 A 
ATOM     48  N   UNL     1      -7.753  -6.854   5.358  1.00  0.00    -0.354 N 
ATOM     49  C   UNL     1     -11.995  -7.170   4.582  1.00  0.00     0.074 A 
ATOM     50  C   UNL     1     -12.249  -7.848   3.330  1.00  0.00     0.031 C 
ATOM     51  C   UNL     1      -5.574  -7.116   4.930  1.00  0.00     0.029 A 
ATOM     52  C   UNL     1      -6.520  -6.535   5.877  1.00  0.00     0.049 A 
ATOM     53  H   UNL     1      -8.601  -6.609   5.795  1.00  0.00     0.167 HD
ATOM     54  C   UNL     1     -12.963  -6.699   5.404  1.00  0.00     0.031 A 
ATOM     55  C   UNL     1      -6.187  -5.842   6.984  1.00  0.00     0.031 A 
ATOM     56  C   UNL     1     -12.703  -6.029   6.650  1.00  0.00     0.049 A 
ATOM     57  C   UNL     1      -7.280  -5.300   7.864  1.00  0.00     0.074 A 
ATOM     58  C   UNL     1     -13.615  -5.560   7.579  1.00  0.00     0.029 A 
ATOM     59  N   UNL     1     -11.441  -5.726   7.140  1.00  0.00    -0.354 N 
ATOM     60  N   UNL     1      -8.580  -5.405   7.721  1.00  0.00    -0.248 NA
ATOM     61  C   UNL     1      -6.863  -4.553   9.059  1.00  0.00     0.031 C 
ATOM     62  C   UNL     1     -12.907  -4.921   8.601  1.00  0.00     0.029 A 
ATOM     63  C   UNL     1     -11.552  -5.049   8.343  1.00  0.00     0.049 A 
ATOM     64  H   UNL     1     -10.593  -5.958   6.698  1.00  0.00     0.167 HD
ATOM     65  C   UNL     1      -9.135  -4.759   8.821  1.00  0.00     0.074 A 
ATOM     66  C   UNL     1      -8.030  -4.281   9.627  1.00  0.00     0.031 C 
ATOM     67  C   UNL     1     -10.442  -4.579   9.134  1.00  0.00     0.031 A 
BRANCH  54  68
ATOM     68  C   UNL     1     -14.394  -6.883   4.973  1.00  0.00    -0.014 A 
ATOM     69  C   UNL     1     -14.986  -8.159   4.942  1.00  0.00     0.010 A 
ATOM     70  C   UNL     1     -15.173  -5.761   4.636  1.00  0.00     0.010 A 
ATOM     71  C   UNL     1     -16.316  -8.313   4.543  1.00  0.00     0.020 A 
ATOM     72  C   UNL     1     -16.513  -5.907   4.265  1.00  0.00     0.020 A 
ATOM     73  C   UNL     1     -17.071  -7.186   4.205  1.00  0.00     0.054 A 
BRANCH  73  74
ATOM     74  S   UNL     1     -18.801  -7.415   3.713  1.00  0.00     0.124 S 
ATOM     75  O   UNL     1     -18.660  -8.026   2.393  1.00  0.00    -0.237 OA
ATOM     76  O   UNL     1     -19.317  -8.294   4.760  1.00  0.00    -0.237 OA
ATOM     77  O   UNL     1     -19.346  -6.060   3.716  1.00  0.00    -0.744 OA
ENDBRANCH  73  74
ENDBRANCH  54  68
BRANCH  55  78
ATOM     78  C   UNL     1      -4.753  -5.626   7.324  1.00  0.00    -0.014 A 
ATOM     79  C   UNL     1      -4.179  -6.267   8.436  1.00  0.00     0.010 A 
ATOM     80  C   UNL     1      -3.949  -4.788   6.529  1.00  0.00     0.010 A 
ATOM     81  C   UNL     1      -2.835  -6.059   8.758  1.00  0.00     0.020 A 
ATOM     82  C   UNL     1      -2.597  -4.601   6.830  1.00  0.00     0.020 A 
ATOM     83  C   UNL     1      -2.051  -5.229   7.951  1.00  0.00     0.054 A 
BRANCH  83  84
ATOM     84  S   UNL     1      -0.297  -5.014   8.364  1.00  0.00     0.124 S 
ATOM     85  O   UNL     1      -0.366  -4.176   9.557  1.00  0.00    -0.237 OA
ATOM     86  O   UNL     1       0.146  -6.389   8.580  1.00  0.00    -0.237 OA
ATOM     87  O   UNL     1       0.258  -4.368   7.176  1.00  0.00    -0.744 OA
ENDBRANCH  83  84
ENDBRANCH  55  78
BRANCH  67  88
ATOM     88  C   UNL     1     -10.758  -3.859  10.419  1.00  0.00    -0.014 A 
ATOM     89  C   UNL     1     -10.555  -2.474  10.547  1.00  0.00     0.010 A 
ATOM     90  C   UNL     1     -11.336  -4.570  11.487  1.00  0.00     0.010 A 
ATOM     91  C   UNL     1     -10.907  -1.816  11.729  1.00  0.00     0.020 A 
ATOM     92  C   UNL     1     -11.716  -3.911  12.659  1.00  0.00     0.020 A 
ATOM     93  C   UNL     1     -11.489  -2.538  12.775  1.00  0.00     0.054 A 
BRANCH  93  94
ATOM     94  S   UNL     1     -11.995  -1.648  14.273  1.00  0.00     0.124 S 
ATOM     95  O   UNL     1     -10.709  -1.338  14.892  1.00  0.00    -0.237 OA
ATOM     96  O   UNL     1     -12.724  -0.503  13.732  1.00  0.00    -0.237 OA
ATOM     97  O   UNL     1     -12.815  -2.618  14.994  1.00  0.00    -0.744 OA
ENDBRANCH  93  94
ENDBRANCH  67  88
ENDBRANCH  41  42
ENDBRANCH  33  36
ENDBRANCH  31  32
ENDBRANCH  30  31
ENDBRANCH   1  30
TORSDOF 17
