REMARK SMILES C[C@@H](Oc1ccc(C(C)(C)C)cc1)C(=O)Oc1cccc(C(=O)NCCCCCCNC(=O)c2ccc(-c3c4nc(c(-c5ccc(S(=O)(=O)[O-])cc5)c5ccc([nH]5)c(-c5ccc(S(=O)(=O)[O-])cc5)c5nc(c(-c6ccc(S(=O)(=O)[O-])cc6)c6ccc3[nH]6)C=C5)C=C4)cc2)c1
REMARK SMILES IDX 26 1 25 2 24 3 22 4 23 5 21 7 17 8 18 9 94 10 19 11 20 12
REMARK SMILES IDX 16 13 14 14 15 15 2 16 1 17 3 18 4 19 5 20 13 21 6 22 12 23
REMARK SMILES IDX 7 24 8 25 9 26 10 27 11 28 27 29 28 30 29 31 30 32 31 33
REMARK SMILES IDX 32 34 33 36 34 37 35 38 93 39 36 40 92 41 37 42 38 43 39 44
REMARK SMILES IDX 86 45 40 46 91 47 85 48 87 49 41 50 90 51 84 52 83 53 42 55
REMARK SMILES IDX 72 56 53 57 71 58 54 59 57 60 70 61 88 62 55 63 56 64 69 66
REMARK SMILES IDX 89 67 58 68 43 69 44 70 52 71 45 72 51 73 46 74 47 75 48 76
REMARK SMILES IDX 49 77 50 78 73 79 74 80 82 81 75 82 81 83 76 84 77 85 78 86
REMARK SMILES IDX 79 87 80 88 59 89 60 90 68 91 61 92 67 93 62 94 63 95 64 96
REMARK SMILES IDX 65 97 66 98
REMARK H PARENT 24 6 31 35 87 54 57 65
REMARK Flexibility Score: inf
ROOT
ATOM      1  C   UNL     1      -3.422   1.397   5.727  1.00  0.00     0.021 C 
ENDROOT
BRANCH   1   2
ATOM      2  C   UNL     1      -3.771   0.569   4.497  1.00  0.00     0.116 C 
BRANCH   2   3
ATOM      3  N   UNL     1      -5.199   0.484   4.213  1.00  0.00    -0.352 N 
ATOM      4  C   UNL     1      -5.880   0.543   3.013  1.00  0.00     0.251 C 
ATOM      5  O   UNL     1      -7.109   0.494   3.019  1.00  0.00    -0.269 OA
ATOM      6  H   UNL     1      -5.771   0.367   5.005  1.00  0.00     0.163 HD
BRANCH   4   7
ATOM      7  C   UNL     1      -5.166   0.729   1.718  1.00  0.00     0.043 A 
ATOM      8  C   UNL     1      -3.127   0.646   0.433  1.00  0.00     0.131 A 
ATOM      9  C   UNL     1      -3.711   1.429  -0.565  1.00  0.00     0.047 A 
ATOM     10  C   UNL     1      -3.891   0.208   1.506  1.00  0.00     0.061 A 
ATOM     11  C   UNL     1      -5.052   1.808  -0.449  1.00  0.00     0.005 A 
ATOM     12  C   UNL     1      -5.770   1.486   0.707  1.00  0.00     0.014 A 
BRANCH   8  13
ATOM     13  O   UNL     1      -1.722   0.448   0.349  1.00  0.00    -0.424 OA
BRANCH  13  14
ATOM     14  C   UNL     1      -0.930  -0.210   1.312  1.00  0.00     0.352 C 
ATOM     15  O   UNL     1      -1.347  -0.856   2.268  1.00  0.00    -0.247 OA
BRANCH  14  16
ATOM     16  C   UNL     1       0.558  -0.005   1.028  1.00  0.00     0.279 C 
ATOM     17  C   UNL     1       0.823  -0.315  -0.443  1.00  0.00     0.066 C 
BRANCH  16  18
ATOM     18  O   UNL     1       0.898   1.341   1.408  1.00  0.00    -0.479 OA
BRANCH  18  19
ATOM     19  C   UNL     1       2.235   1.516   1.656  1.00  0.00     0.120 A 
ATOM     20  C   UNL     1       2.667   1.818   2.944  1.00  0.00     0.047 A 
ATOM     21  C   UNL     1       3.156   1.521   0.617  1.00  0.00     0.047 A 
ATOM     22  C   UNL     1       4.032   2.056   3.192  1.00  0.00     0.008 A 
ATOM     23  C   UNL     1       4.514   1.732   0.868  1.00  0.00     0.008 A 
ATOM     24  C   UNL     1       4.991   1.997   2.161  1.00  0.00    -0.042 A 
BRANCH  24  25
ATOM     25  C   UNL     1       6.486   2.263   2.432  1.00  0.00    -0.013 C 
ATOM     26  C   UNL     1       6.681   3.757   2.760  1.00  0.00     0.016 C 
ATOM     27  C   UNL     1       6.997   1.414   3.616  1.00  0.00     0.016 C 
ATOM     28  C   UNL     1       7.396   1.932   1.224  1.00  0.00     0.016 C 
ENDBRANCH  24  25
ENDBRANCH  18  19
ENDBRANCH  16  18
ENDBRANCH  14  16
ENDBRANCH  13  14
ENDBRANCH   8  13
ENDBRANCH   4   7
ENDBRANCH   2   3
ENDBRANCH   1   2
BRANCH   1  29
ATOM     29  C   UNL     1      -3.846   0.817   7.074  1.00  0.00     0.002 C 
BRANCH  29  30
ATOM     30  C   UNL     1      -3.359  -0.601   7.384  1.00  0.00     0.002 C 
BRANCH  30  31
ATOM     31  C   UNL     1      -1.857  -0.853   7.225  1.00  0.00     0.021 C 
BRANCH  31  32
ATOM     32  C   UNL     1      -0.942   0.093   7.995  1.00  0.00     0.116 C 
BRANCH  32  33
ATOM     33  N   UNL     1      -1.171   0.049   9.430  1.00  0.00    -0.352 N 
ATOM     34  C   UNL     1      -0.282  -0.173  10.454  1.00  0.00     0.251 C 
ATOM     35  H   UNL     1      -2.103   0.201   9.710  1.00  0.00     0.163 HD
ATOM     36  O   UNL     1      -0.697  -0.343  11.595  1.00  0.00    -0.269 OA
BRANCH  34  37
ATOM     37  C   UNL     1       1.171  -0.225  10.178  1.00  0.00     0.039 A 
ATOM     38  C   UNL     1       1.934  -1.231  10.776  1.00  0.00     0.014 A 
ATOM     39  C   UNL     1       1.784   0.719   9.349  1.00  0.00     0.014 A 
ATOM     40  C   UNL     1       3.300  -1.325  10.498  1.00  0.00     0.010 A 
ATOM     41  C   UNL     1       3.128   0.579   9.013  1.00  0.00     0.010 A 
ATOM     42  C   UNL     1       3.903  -0.440   9.588  1.00  0.00    -0.014 A 
BRANCH  42  43
ATOM     43  C   UNL     1       5.338  -0.571   9.226  1.00  0.00     0.031 A 
ATOM     44  C   UNL     1       6.308   0.533   9.549  1.00  0.00     0.074 A 
ATOM     45  C   UNL     1       5.757  -1.657   8.548  1.00  0.00     0.049 A 
ATOM     46  N   UNL     1       7.584   0.619   9.269  1.00  0.00    -0.248 NA
ATOM     47  C   UNL     1       5.768   1.706  10.255  1.00  0.00     0.031 C 
ATOM     48  C   UNL     1       4.906  -2.773   8.130  1.00  0.00     0.029 A 
ATOM     49  N   UNL     1       7.002  -1.996   8.080  1.00  0.00    -0.354 N 
ATOM     50  C   UNL     1       7.995   1.857   9.751  1.00  0.00     0.074 A 
ATOM     51  C   UNL     1       6.820   2.510  10.286  1.00  0.00     0.031 C 
ATOM     52  C   UNL     1       5.655  -3.679   7.484  1.00  0.00     0.029 A 
ATOM     53  C   UNL     1       7.029  -3.192   7.404  1.00  0.00     0.049 A 
ATOM     54  H   UNL     1       7.800  -1.435   8.215  1.00  0.00     0.167 HD
ATOM     55  C   UNL     1       9.239   2.393   9.766  1.00  0.00     0.031 A 
ATOM     56  C   UNL     1       8.040  -3.825   6.776  1.00  0.00     0.031 A 
ATOM     57  C   UNL     1      10.403   1.741   9.225  1.00  0.00     0.049 A 
ATOM     58  C   UNL     1       9.412  -3.211   6.793  1.00  0.00     0.074 A 
ATOM     59  C   UNL     1      11.717   2.175   9.237  1.00  0.00     0.029 A 
ATOM     60  N   UNL     1      10.392   0.519   8.566  1.00  0.00    -0.354 N 
ATOM     61  N   UNL     1       9.797  -2.073   7.321  1.00  0.00    -0.248 NA
ATOM     62  C   UNL     1      10.489  -3.972   6.146  1.00  0.00     0.031 C 
ATOM     63  C   UNL     1      12.490   1.248   8.529  1.00  0.00     0.029 A 
ATOM     64  C   UNL     1      11.671   0.200   8.138  1.00  0.00     0.049 A 
ATOM     65  H   UNL     1       9.593  -0.038   8.423  1.00  0.00     0.167 HD
ATOM     66  C   UNL     1      11.166  -1.991   7.089  1.00  0.00     0.074 A 
ATOM     67  C   UNL     1      11.542  -3.203   6.388  1.00  0.00     0.031 C 
ATOM     68  C   UNL     1      12.031  -1.003   7.428  1.00  0.00     0.031 A 
BRANCH  55  69
ATOM     69  C   UNL     1       9.392   3.767  10.371  1.00  0.00    -0.014 A 
ATOM     70  C   UNL     1       9.185   3.988  11.746  1.00  0.00     0.010 A 
ATOM     71  C   UNL     1       9.749   4.855   9.553  1.00  0.00     0.010 A 
ATOM     72  C   UNL     1       9.263   5.279  12.277  1.00  0.00     0.020 A 
ATOM     73  C   UNL     1       9.864   6.142  10.088  1.00  0.00     0.020 A 
ATOM     74  C   UNL     1       9.593   6.349  11.441  1.00  0.00     0.054 A 
BRANCH  74  75
ATOM     75  S   UNL     1       9.669   8.016  12.153  1.00  0.00     0.124 S 
ATOM     76  O   UNL     1       8.256   8.312  12.373  1.00  0.00    -0.237 OA
ATOM     77  O   UNL     1      10.464   7.812  13.362  1.00  0.00    -0.237 OA
ATOM     78  O   UNL     1      10.317   8.809  11.111  1.00  0.00    -0.744 OA
ENDBRANCH  74  75
ENDBRANCH  55  69
BRANCH  56  79
ATOM     79  C   UNL     1       7.775  -5.115   6.081  1.00  0.00    -0.014 A 
ATOM     80  C   UNL     1       8.255  -6.328   6.604  1.00  0.00     0.010 A 
ATOM     81  C   UNL     1       6.989  -5.137   4.914  1.00  0.00     0.010 A 
ATOM     82  C   UNL     1       7.955  -7.539   5.972  1.00  0.00     0.020 A 
ATOM     83  C   UNL     1       6.662  -6.348   4.297  1.00  0.00     0.020 A 
ATOM     84  C   UNL     1       7.153  -7.541   4.827  1.00  0.00     0.054 A 
BRANCH  84  85
ATOM     85  S   UNL     1       6.708  -9.131   4.073  1.00  0.00     0.124 S 
ATOM     86  O   UNL     1       7.971  -9.547   3.473  1.00  0.00    -0.237 OA
ATOM     87  O   UNL     1       6.265  -9.912   5.225  1.00  0.00    -0.237 OA
ATOM     88  O   UNL     1       5.651  -8.777   3.127  1.00  0.00    -0.744 OA
ENDBRANCH  84  85
ENDBRANCH  56  79
BRANCH  68  89
ATOM     89  C   UNL     1      13.481  -1.197   7.067  1.00  0.00    -0.014 A 
ATOM     90  C   UNL     1      13.919  -1.130   5.732  1.00  0.00     0.010 A 
ATOM     91  C   UNL     1      14.430  -1.391   8.088  1.00  0.00     0.010 A 
ATOM     92  C   UNL     1      15.273  -1.286   5.423  1.00  0.00     0.020 A 
ATOM     93  C   UNL     1      15.788  -1.516   7.787  1.00  0.00     0.020 A 
ATOM     94  C   UNL     1      16.200  -1.476   6.454  1.00  0.00     0.054 A 
BRANCH  94  95
ATOM     95  S   UNL     1      17.956  -1.630   6.029  1.00  0.00     0.124 S 
ATOM     96  O   UNL     1      18.007  -2.956   5.418  1.00  0.00    -0.237 OA
ATOM     97  O   UNL     1      18.163  -0.509   5.115  1.00  0.00    -0.237 OA
ATOM     98  O   UNL     1      18.636  -1.511   7.317  1.00  0.00    -0.744 OA
ENDBRANCH  94  95
ENDBRANCH  68  89
ENDBRANCH  42  43
ENDBRANCH  34  37
ENDBRANCH  32  33
ENDBRANCH  31  32
ENDBRANCH  30  31
ENDBRANCH  29  30
ENDBRANCH   1  29
TORSDOF 22
