REMARK SMILES C[C@@H](C(=O)NCCCCCCNC(=O)c1ccc(-c2c3nc(c(-c4ccc(S(=O)(=O)[O-])cc4)c4ccc([nH]4)c(-c4ccc(S(=O)(=O)[O-])cc4)c4nc(c(-c5ccc(S(=O)(=O)[O-])cc5)c5ccc2[nH]5)C=C4)C=C3)cc1)c1ccc2c3cc(Cl)ccc3n(C(=O)c3ccc(Cl)cc3)c2c1
REMARK SMILES IDX 8 1 7 2 6 3 5 4 3 5 4 6 2 8 1 9 75 10 76 11 97 12 77 13
REMARK SMILES IDX 96 14 78 15 86 16 79 17 85 18 80 19 84 20 81 21 83 22 82 23
REMARK SMILES IDX 87 24 88 25 89 26 90 27 95 28 91 29 94 30 92 31 93 32 9 33
REMARK SMILES IDX 10 34 11 35 12 36 13 37 14 39 15 40 16 41 74 42 17 43 73 44
REMARK SMILES IDX 18 45 19 46 20 47 67 48 21 49 72 50 66 51 68 52 22 53 71 54
REMARK SMILES IDX 65 55 64 56 23 58 53 59 34 60 52 61 35 62 38 63 51 64 69 65
REMARK SMILES IDX 36 66 37 67 50 69 70 70 39 71 24 72 25 73 33 74 26 75 32 76
REMARK SMILES IDX 27 77 28 78 29 79 30 80 31 81 54 82 55 83 63 84 56 85 62 86
REMARK SMILES IDX 57 87 58 88 59 89 60 90 61 91 40 92 41 93 49 94 42 95 48 96
REMARK SMILES IDX 43 97 44 98 45 99 46 100 47 101
REMARK H PARENT 5 7 12 38 68 57 38 68
REMARK Flexibility Score: inf
ROOT
ATOM      1  C   UNL     1       5.041   2.299   1.472  1.00  0.00     0.002 C 
ENDROOT
BRANCH   1   2
ATOM      2  C   UNL     1       4.295   1.145   0.788  1.00  0.00     0.021 C 
BRANCH   2   3
ATOM      3  C   UNL     1       3.524   0.249   1.761  1.00  0.00     0.116 C 
BRANCH   3   4
ATOM      4  N   UNL     1       2.502   1.019   2.435  1.00  0.00    -0.356 N 
ATOM      5  C   UNL     1       1.171   1.125   2.160  1.00  0.00     0.227 C 
ATOM      6  O   UNL     1       0.556   2.017   2.749  1.00  0.00    -0.274 OA
ATOM      7  H   UNL     1       2.813   1.546   3.206  1.00  0.00     0.163 HD
BRANCH   5   8
ATOM      8  C   UNL     1       0.515   0.116   1.205  1.00  0.00     0.105 C 
ATOM      9  C   UNL     1       0.913   0.275  -0.265  1.00  0.00     0.023 C 
BRANCH   8  10
ATOM     10  C   UNL     1      -1.007   0.140   1.264  1.00  0.00    -0.034 A 
ATOM     11  C   UNL     1      -1.722   1.301   0.962  1.00  0.00     0.005 A 
ATOM     12  C   UNL     1      -1.698  -1.046   1.550  1.00  0.00     0.032 A 
ATOM     13  C   UNL     1      -3.113   1.284   0.885  1.00  0.00     0.011 A 
ATOM     14  C   UNL     1      -3.107  -1.048   1.532  1.00  0.00     0.057 A 
ATOM     15  C   UNL     1      -3.810   0.089   1.151  1.00  0.00     0.008 A 
ATOM     16  N   UNL     1      -4.028  -2.070   1.819  1.00  0.00    -0.276 N 
ATOM     17  C   UNL     1      -5.186  -0.245   1.146  1.00  0.00     0.009 A 
ATOM     18  C   UNL     1      -5.320  -1.542   1.660  1.00  0.00     0.057 A 
ATOM     19  C   UNL     1      -6.327   0.509   0.802  1.00  0.00     0.031 A 
ATOM     20  C   UNL     1      -6.599  -2.033   1.989  1.00  0.00     0.029 A 
ATOM     21  C   UNL     1      -7.588  -0.009   1.068  1.00  0.00     0.041 A 
ATOM     22  C   UNL     1      -7.723  -1.248   1.682  1.00  0.00     0.023 A 
ATOM     23  Cl  UNL     1      -8.981   0.922   0.675  1.00  0.00    -0.084 Cl
BRANCH  16  24
ATOM     24  C   UNL     1      -3.625  -3.359   2.266  1.00  0.00     0.262 C 
ATOM     25  O   UNL     1      -2.551  -3.400   2.873  1.00  0.00    -0.268 OA
BRANCH  24  26
ATOM     26  C   UNL     1      -4.278  -4.689   2.073  1.00  0.00     0.040 A 
ATOM     27  C   UNL     1      -3.710  -5.777   2.773  1.00  0.00     0.015 A 
ATOM     28  C   UNL     1      -5.298  -4.954   1.156  1.00  0.00     0.015 A 
ATOM     29  C   UNL     1      -4.154  -7.086   2.580  1.00  0.00     0.021 A 
ATOM     30  C   UNL     1      -5.768  -6.268   0.985  1.00  0.00     0.021 A 
ATOM     31  C   UNL     1      -5.191  -7.326   1.690  1.00  0.00     0.041 A 
ATOM     32  Cl  UNL     1      -5.743  -8.935   1.440  1.00  0.00    -0.084 Cl
ENDBRANCH  24  26
ENDBRANCH  16  24
ENDBRANCH   8  10
ENDBRANCH   5   8
ENDBRANCH   3   4
ENDBRANCH   2   3
ENDBRANCH   1   2
BRANCH   1  33
ATOM     33  C   UNL     1       6.009   1.868   2.576  1.00  0.00     0.002 C 
BRANCH  33  34
ATOM     34  C   UNL     1       7.048   0.833   2.139  1.00  0.00     0.021 C 
BRANCH  34  35
ATOM     35  C   UNL     1       7.928   1.283   0.978  1.00  0.00     0.116 C 
BRANCH  35  36
ATOM     36  N   UNL     1       8.732   2.442   1.329  1.00  0.00    -0.352 N 
ATOM     37  C   UNL     1      10.099   2.585   1.320  1.00  0.00     0.251 C 
ATOM     38  H   UNL     1       8.226   3.238   1.613  1.00  0.00     0.163 HD
ATOM     39  O   UNL     1      10.621   3.553   1.857  1.00  0.00    -0.269 OA
BRANCH  37  40
ATOM     40  C   UNL     1      10.932   1.546   0.677  1.00  0.00     0.039 A 
ATOM     41  C   UNL     1      12.046   1.057   1.362  1.00  0.00     0.014 A 
ATOM     42  C   UNL     1      10.602   1.045  -0.586  1.00  0.00     0.014 A 
ATOM     43  C   UNL     1      12.784   0.007   0.813  1.00  0.00     0.010 A 
ATOM     44  C   UNL     1      11.297  -0.047  -1.099  1.00  0.00     0.010 A 
ATOM     45  C   UNL     1      12.387  -0.586  -0.399  1.00  0.00    -0.014 A 
BRANCH  45  46
ATOM     46  C   UNL     1      13.065  -1.805  -0.911  1.00  0.00     0.031 A 
ATOM     47  C   UNL     1      13.803  -1.778  -2.222  1.00  0.00     0.074 A 
ATOM     48  C   UNL     1      12.952  -2.958  -0.220  1.00  0.00     0.049 A 
ATOM     49  N   UNL     1      14.404  -2.760  -2.844  1.00  0.00    -0.248 NA
ATOM     50  C   UNL     1      13.857  -0.493  -2.938  1.00  0.00     0.031 C 
ATOM     51  C   UNL     1      12.222  -3.121   1.041  1.00  0.00     0.029 A 
ATOM     52  N   UNL     1      13.438  -4.215  -0.482  1.00  0.00    -0.354 N 
ATOM     53  C   UNL     1      14.894  -2.218  -4.027  1.00  0.00     0.074 A 
ATOM     54  C   UNL     1      14.492  -0.829  -4.054  1.00  0.00     0.031 C 
ATOM     55  C   UNL     1      12.326  -4.396   1.450  1.00  0.00     0.029 A 
ATOM     56  C   UNL     1      13.085  -5.153   0.462  1.00  0.00     0.049 A 
ATOM     57  H   UNL     1      13.988  -4.426  -1.271  1.00  0.00     0.167 HD
ATOM     58  C   UNL     1      15.622  -2.823  -4.995  1.00  0.00     0.031 A 
ATOM     59  C   UNL     1      13.325  -6.478   0.517  1.00  0.00     0.031 A 
ATOM     60  C   UNL     1      16.034  -4.202  -4.954  1.00  0.00     0.049 A 
ATOM     61  C   UNL     1      14.121  -7.122  -0.586  1.00  0.00     0.074 A 
ATOM     62  C   UNL     1      16.843  -4.880  -5.850  1.00  0.00     0.029 A 
ATOM     63  N   UNL     1      15.663  -5.115  -3.980  1.00  0.00    -0.354 N 
ATOM     64  N   UNL     1      14.662  -6.567  -1.643  1.00  0.00    -0.248 NA
ATOM     65  C   UNL     1      14.343  -8.572  -0.486  1.00  0.00     0.031 C 
ATOM     66  C   UNL     1      16.902  -6.220  -5.457  1.00  0.00     0.029 A 
ATOM     67  C   UNL     1      16.188  -6.362  -4.279  1.00  0.00     0.049 A 
ATOM     68  H   UNL     1      15.109  -4.909  -3.193  1.00  0.00     0.167 HD
ATOM     69  C   UNL     1      15.305  -7.596  -2.322  1.00  0.00     0.074 A 
ATOM     70  C   UNL     1      15.111  -8.800  -1.541  1.00  0.00     0.031 C 
ATOM     71  C   UNL     1      15.987  -7.552  -3.493  1.00  0.00     0.031 A 
BRANCH  58  72
ATOM     72  C   UNL     1      16.027  -2.011  -6.197  1.00  0.00    -0.014 A 
ATOM     73  C   UNL     1      17.024  -1.024  -6.107  1.00  0.00     0.010 A 
ATOM     74  C   UNL     1      15.485  -2.324  -7.458  1.00  0.00     0.010 A 
ATOM     75  C   UNL     1      17.466  -0.360  -7.255  1.00  0.00     0.020 A 
ATOM     76  C   UNL     1      15.941  -1.680  -8.611  1.00  0.00     0.020 A 
ATOM     77  C   UNL     1      16.927  -0.698  -8.501  1.00  0.00     0.054 A 
BRANCH  77  78
ATOM     78  S   UNL     1      17.580   0.124  -9.981  1.00  0.00     0.124 S 
ATOM     79  O   UNL     1      17.068   1.483  -9.822  1.00  0.00    -0.237 OA
ATOM     80  O   UNL     1      19.023  -0.026  -9.817  1.00  0.00    -0.237 OA
ATOM     81  O   UNL     1      16.998  -0.634 -11.085  1.00  0.00    -0.744 OA
ENDBRANCH  77  78
ENDBRANCH  58  72
BRANCH  59  82
ATOM     82  C   UNL     1      12.781  -7.297   1.637  1.00  0.00    -0.014 A 
ATOM     83  C   UNL     1      13.640  -7.922   2.558  1.00  0.00     0.010 A 
ATOM     84  C   UNL     1      11.392  -7.489   1.761  1.00  0.00     0.010 A 
ATOM     85  C   UNL     1      13.124  -8.757   3.554  1.00  0.00     0.020 A 
ATOM     86  C   UNL     1      10.871  -8.294   2.777  1.00  0.00     0.020 A 
ATOM     87  C   UNL     1      11.742  -8.942   3.654  1.00  0.00     0.054 A 
BRANCH  87  88
ATOM     88  S   UNL     1      11.093 -10.028   4.954  1.00  0.00     0.124 S 
ATOM     89  O   UNL     1      11.452 -11.349   4.450  1.00  0.00    -0.237 OA
ATOM     90  O   UNL     1      11.826  -9.579   6.135  1.00  0.00    -0.237 OA
ATOM     91  O   UNL     1       9.663  -9.728   4.965  1.00  0.00    -0.744 OA
ENDBRANCH  87  88
ENDBRANCH  59  82
BRANCH  71  92
ATOM     92  C   UNL     1      16.593  -8.837  -3.993  1.00  0.00    -0.014 A 
ATOM     93  C   UNL     1      15.786  -9.876  -4.487  1.00  0.00     0.010 A 
ATOM     94  C   UNL     1      17.992  -8.984  -4.019  1.00  0.00     0.010 A 
ATOM     95  C   UNL     1      16.365 -11.052  -4.970  1.00  0.00     0.020 A 
ATOM     96  C   UNL     1      18.577 -10.145  -4.532  1.00  0.00     0.020 A 
ATOM     97  C   UNL     1      17.758 -11.178  -4.992  1.00  0.00     0.054 A 
BRANCH  97  98
ATOM     98  S   UNL     1      18.483 -12.695  -5.670  1.00  0.00     0.124 S 
ATOM     99  O   UNL     1      18.166 -13.673  -4.633  1.00  0.00    -0.237 OA
ATOM    100  O   UNL     1      17.763 -12.859  -6.930  1.00  0.00    -0.237 OA
ATOM    101  O   UNL     1      19.901 -12.371  -5.807  1.00  0.00    -0.744 OA
ENDBRANCH  97  98
ENDBRANCH  71  92
ENDBRANCH  45  46
ENDBRANCH  37  40
ENDBRANCH  35  36
ENDBRANCH  34  35
ENDBRANCH  33  34
ENDBRANCH   1  33
TORSDOF 19
