REMARK SMILES CCN(CCO)C(=O)N[C@H]1CCCCC[C@H]1C(=O)NCCCCCCNC(=O)c1ccc(-c2c3nc(c(-c4ccc(S(=O)(=O)[O-])cc4)c4ccc([nH]4)c(-c4ccc(S(=O)(=O)[O-])cc4)c4nc(c(-c5ccc(S(=O)(=O)[O-])cc5)c5ccc2[nH]5)C=C4)C=C3)cc1
REMARK SMILES IDX 21 1 20 2 19 3 17 4 18 5 16 7 10 8 9 9 7 10 8 11 3 13 2 14
REMARK SMILES IDX 1 15 4 16 5 17 6 18 11 20 15 22 14 23 13 24 12 25 22 27
REMARK SMILES IDX 23 28 24 29 25 30 26 31 27 32 28 34 29 35 30 36 88 37 31 38
REMARK SMILES IDX 87 39 32 40 33 41 34 42 81 43 35 44 86 45 80 46 82 47 36 48
REMARK SMILES IDX 85 49 79 50 78 51 37 53 67 54 48 55 66 56 49 57 52 58 65 59
REMARK SMILES IDX 83 60 50 61 51 62 64 64 84 65 53 66 38 67 39 68 47 69 40 70
REMARK SMILES IDX 46 71 41 72 42 73 43 74 44 75 45 76 68 77 69 78 77 79 70 80
REMARK SMILES IDX 76 81 71 82 72 83 73 84 74 85 75 86 54 87 55 88 63 89 56 90
REMARK SMILES IDX 62 91 57 92 58 93 59 94 60 95 61 96
REMARK H PARENT 19 6 9 12 6 19 26 33 82 52 52 63
REMARK Flexibility Score: 100.00
ROOT
ATOM      1  C   UNL     1      -0.642  -0.592   7.887  1.00  0.00     0.021 C 
ENDROOT
BRANCH   1   2
ATOM      2  C   UNL     1      -0.089  -1.999   7.697  1.00  0.00     0.116 C 
BRANCH   2   3
ATOM      3  N   UNL     1      -0.566  -2.696   6.537  1.00  0.00    -0.356 N 
ATOM      4  C   UNL     1       0.143  -3.436   5.643  1.00  0.00     0.225 C 
ATOM      5  O   UNL     1      -0.502  -4.262   4.984  1.00  0.00    -0.275 OA
ATOM      6  H   UNL     1      -1.533  -2.630   6.365  1.00  0.00     0.163 HD
BRANCH   4   7
ATOM      7  C   UNL     1       1.667  -3.302   5.412  1.00  0.00     0.101 C 
BRANCH   7   8
ATOM      8  C   UNL     1       2.244  -1.935   4.993  1.00  0.00     0.096 C 
BRANCH   8   9
ATOM      9  N   UNL     1       1.223  -1.040   4.434  1.00  0.00    -0.334 N 
ATOM     10  C   UNL     1       0.550  -0.985   3.263  1.00  0.00     0.317 C 
ATOM     11  O   UNL     1      -0.521  -0.370   3.309  1.00  0.00    -0.249 OA
ATOM     12  H   UNL     1       0.972  -0.316   5.053  1.00  0.00     0.165 HD
BRANCH  10  13
ATOM     13  N   UNL     1       1.021  -1.515   2.086  1.00  0.00    -0.323 N 
BRANCH  13  14
ATOM     14  C   UNL     1       0.097  -1.479   0.944  1.00  0.00     0.118 C 
ATOM     15  C   UNL     1      -0.929  -2.603   1.008  1.00  0.00     0.027 C 
ENDBRANCH  13  14
BRANCH  13  16
ATOM     16  C   UNL     1       2.363  -2.025   1.767  1.00  0.00     0.149 C 
BRANCH  16  17
ATOM     17  C   UNL     1       3.415  -0.915   1.617  1.00  0.00     0.177 C 
BRANCH  17  18
ATOM     18  O   UNL     1       3.572  -0.119   2.781  1.00  0.00    -0.395 OA
ATOM     19  H   UNL     1       2.738   0.335   2.978  1.00  0.00     0.210 HD
ENDBRANCH  17  18
ENDBRANCH  16  17
ENDBRANCH  13  16
ENDBRANCH  10  13
ENDBRANCH   8   9
BRANCH   8  20
ATOM     20  C   UNL     1       3.293  -1.184   5.842  1.00  0.00     0.026 CG0
ATOM     21  G   UNL     1       3.330  -1.235   7.359  1.00  0.00     0.000 G0
ENDBRANCH   8  20
ENDBRANCH   7   8
BRANCH   7  22
ATOM     22  C   UNL     1       2.559  -4.179   6.293  1.00  0.00     0.015 C 
BRANCH  22  23
ATOM     23  C   UNL     1       2.780  -3.780   7.742  1.00  0.00     0.001 C 
BRANCH  23  24
ATOM     24  C   UNL     1       3.691  -2.581   7.979  1.00  0.00     0.000 C 
BRANCH  24  25
ATOM     25  C   UNL     1       3.330  -1.235   7.359  1.00  0.00     0.002 CG0
ATOM     26  G   UNL     1       3.293  -1.184   5.842  1.00  0.00     0.000 G0
ENDBRANCH  24  25
ENDBRANCH  23  24
ENDBRANCH  22  23
ENDBRANCH   7  22
ENDBRANCH   4   7
ENDBRANCH   2   3
ENDBRANCH   1   2
BRANCH   1  27
ATOM     27  C   UNL     1      -1.559  -0.440   9.105  1.00  0.00     0.002 C 
BRANCH  27  28
ATOM     28  C   UNL     1      -1.002  -0.930  10.449  1.00  0.00     0.002 C 
BRANCH  28  29
ATOM     29  C   UNL     1       0.349  -0.352  10.882  1.00  0.00     0.021 C 
BRANCH  29  30
ATOM     30  C   UNL     1       0.406   1.169  11.005  1.00  0.00     0.116 C 
BRANCH  30  31
ATOM     31  N   UNL     1      -0.658   1.695  11.845  1.00  0.00    -0.352 N 
ATOM     32  C   UNL     1      -0.609   2.406  13.012  1.00  0.00     0.251 C 
ATOM     33  H   UNL     1      -1.568   1.507  11.519  1.00  0.00     0.163 HD
ATOM     34  O   UNL     1      -1.648   2.560  13.663  1.00  0.00    -0.269 OA
BRANCH  32  35
ATOM     35  C   UNL     1       0.656   2.988  13.509  1.00  0.00     0.039 A 
ATOM     36  C   UNL     1       0.910   2.967  14.885  1.00  0.00     0.014 A 
ATOM     37  C   UNL     1       1.557   3.617  12.646  1.00  0.00     0.014 A 
ATOM     38  C   UNL     1       2.084   3.534  15.388  1.00  0.00     0.010 A 
ATOM     39  C   UNL     1       2.757   4.128  13.141  1.00  0.00     0.010 A 
ATOM     40  C   UNL     1       3.028   4.100  14.517  1.00  0.00    -0.014 A 
BRANCH  40  41
ATOM     41  C   UNL     1       4.293   4.686  15.031  1.00  0.00     0.031 A 
ATOM     42  C   UNL     1       4.549   6.164  14.903  1.00  0.00     0.074 A 
ATOM     43  C   UNL     1       5.230   3.882  15.571  1.00  0.00     0.049 A 
ATOM     44  N   UNL     1       5.617   6.848  15.228  1.00  0.00    -0.248 NA
ATOM     45  C   UNL     1       3.471   6.977  14.316  1.00  0.00     0.031 C 
ATOM     46  C   UNL     1       5.112   2.430  15.732  1.00  0.00     0.029 A 
ATOM     47  N   UNL     1       6.472   4.171  16.079  1.00  0.00    -0.354 N 
ATOM     48  C   UNL     1       5.345   8.165  14.876  1.00  0.00     0.074 A 
ATOM     49  C   UNL     1       4.032   8.177  14.268  1.00  0.00     0.031 C 
ATOM     50  C   UNL     1       6.225   1.961  16.319  1.00  0.00     0.029 A 
ATOM     51  C   UNL     1       7.150   3.068  16.541  1.00  0.00     0.049 A 
ATOM     52  H   UNL     1       6.842   5.083  16.111  1.00  0.00     0.167 HD
ATOM     53  C   UNL     1       6.108   9.269  15.061  1.00  0.00     0.031 A 
ATOM     54  C   UNL     1       8.381   2.958  17.077  1.00  0.00     0.031 A 
ATOM     55  C   UNL     1       7.411   9.258  15.672  1.00  0.00     0.049 A 
ATOM     56  C   UNL     1       9.219   4.196  17.250  1.00  0.00     0.074 A 
ATOM     57  C   UNL     1       8.254  10.326  15.925  1.00  0.00     0.029 A 
ATOM     58  N   UNL     1       8.058   8.121  16.132  1.00  0.00    -0.354 N 
ATOM     59  N   UNL     1       8.929   5.438  16.942  1.00  0.00    -0.248 NA
ATOM     60  C   UNL     1      10.546   4.018  17.856  1.00  0.00     0.031 C 
ATOM     61  C   UNL     1       9.426   9.830  16.506  1.00  0.00     0.029 A 
ATOM     62  C   UNL     1       9.292   8.460  16.660  1.00  0.00     0.049 A 
ATOM     63  H   UNL     1       7.693   7.207  16.090  1.00  0.00     0.167 HD
ATOM     64  C   UNL     1      10.024   6.192  17.346  1.00  0.00     0.074 A 
ATOM     65  C   UNL     1      10.977   5.270  17.930  1.00  0.00     0.031 C 
ATOM     66  C   UNL     1      10.223   7.530  17.245  1.00  0.00     0.031 A 
BRANCH  53  67
ATOM     67  C   UNL     1       5.546  10.587  14.596  1.00  0.00    -0.014 A 
ATOM     68  C   UNL     1       4.473  11.193  15.275  1.00  0.00     0.010 A 
ATOM     69  C   UNL     1       6.117  11.247  13.493  1.00  0.00     0.010 A 
ATOM     70  C   UNL     1       3.953  12.412  14.834  1.00  0.00     0.020 A 
ATOM     71  C   UNL     1       5.617  12.481  13.065  1.00  0.00     0.020 A 
ATOM     72  C   UNL     1       4.526  13.047  13.728  1.00  0.00     0.054 A 
BRANCH  72  73
ATOM     73  S   UNL     1       3.842  14.638  13.188  1.00  0.00     0.124 S 
ATOM     74  O   UNL     1       2.592  14.227  12.552  1.00  0.00    -0.237 OA
ATOM     75  O   UNL     1       3.696  15.368  14.444  1.00  0.00    -0.237 OA
ATOM     76  O   UNL     1       4.859  15.162  12.280  1.00  0.00    -0.744 OA
ENDBRANCH  72  73
ENDBRANCH  53  67
BRANCH  54  77
ATOM     77  C   UNL     1       8.897   1.628  17.501  1.00  0.00    -0.014 A 
ATOM     78  C   UNL     1       9.054   1.327  18.866  1.00  0.00     0.010 A 
ATOM     79  C   UNL     1       9.242   0.658  16.543  1.00  0.00     0.010 A 
ATOM     80  C   UNL     1       9.576   0.093  19.264  1.00  0.00     0.020 A 
ATOM     81  C   UNL     1       9.738  -0.587  16.938  1.00  0.00     0.020 A 
ATOM     82  C   UNL     1       9.918  -0.856  18.296  1.00  0.00     0.054 A 
BRANCH  82  83
ATOM     83  S   UNL     1      10.567  -2.463  18.833  1.00  0.00     0.124 S 
ATOM     84  O   UNL     1      11.938  -2.127  19.204  1.00  0.00    -0.237 OA
ATOM     85  O   UNL     1       9.678  -2.811  19.939  1.00  0.00    -0.237 OA
ATOM     86  O   UNL     1      10.425  -3.301  17.644  1.00  0.00    -0.744 OA
ENDBRANCH  82  83
ENDBRANCH  54  77
BRANCH  66  87
ATOM     87  C   UNL     1      11.499   8.083  17.820  1.00  0.00    -0.014 A 
ATOM     88  C   UNL     1      12.735   7.886  17.179  1.00  0.00     0.010 A 
ATOM     89  C   UNL     1      11.450   8.854  18.996  1.00  0.00     0.010 A 
ATOM     90  C   UNL     1      13.905   8.423  17.723  1.00  0.00     0.020 A 
ATOM     91  C   UNL     1      12.614   9.414  19.528  1.00  0.00     0.020 A 
ATOM     92  C   UNL     1      13.837   9.182  18.895  1.00  0.00     0.054 A 
BRANCH  92  93
ATOM     93  S   UNL     1      15.363   9.904  19.559  1.00  0.00     0.124 S 
ATOM     94  O   UNL     1      16.013   8.742  20.159  1.00  0.00    -0.237 OA
ATOM     95  O   UNL     1      16.011  10.441  18.365  1.00  0.00    -0.237 OA
ATOM     96  O   UNL     1      14.886  10.910  20.506  1.00  0.00    -0.744 OA
ENDBRANCH  92  93
ENDBRANCH  66  87
ENDBRANCH  40  41
ENDBRANCH  32  35
ENDBRANCH  30  31
ENDBRANCH  29  30
ENDBRANCH  28  29
ENDBRANCH  27  28
ENDBRANCH   1  27
TORSDOF 22
