REMARK SMILES O=C(NCCCCCCNC(=O)[C@@H](Cc1ccccc1)N1C(=O)/C(=C/c2ccncc2)SC1=S)c1ccc(-c2c3nc(c(-c4ccc(S(=O)(=O)[O-])cc4)c4ccc([nH]4)c(-c4ccc(S(=O)(=O)[O-])cc4)c4nc(c(-c5ccc(S(=O)(=O)[O-])cc5)c5ccc2[nH]5)C=C4)C=C3)cc1
REMARK SMILES IDX 6 1 5 2 4 3 3 4 1 5 2 6 35 8 36 9 94 10 37 11 93 12 38 13
REMARK SMILES IDX 39 14 40 15 87 16 41 17 92 18 86 19 88 20 42 21 91 22 85 23
REMARK SMILES IDX 84 24 43 26 73 27 54 28 72 29 55 30 58 31 71 32 89 33 56 34
REMARK SMILES IDX 57 35 70 37 90 38 59 39 44 40 45 41 53 42 46 43 52 44 47 45
REMARK SMILES IDX 48 46 49 47 50 48 51 49 74 50 75 51 83 52 76 53 82 54 77 55
REMARK SMILES IDX 78 56 79 57 80 58 81 59 60 60 61 61 69 62 62 63 68 64 63 65
REMARK SMILES IDX 64 66 65 67 66 68 67 69 7 70 8 71 9 72 10 73 11 74 12 76
REMARK SMILES IDX 13 77 14 78 15 79 16 80 20 81 17 82 19 83 18 84 21 85 22 86
REMARK SMILES IDX 33 87 23 88 24 89 32 90 34 91 25 92 26 93 27 94 31 95 28 96
REMARK SMILES IDX 30 97 29 98
REMARK H PARENT 3 7 88 25 58 36 10 75
REMARK Flexibility Score: inf
ROOT
ATOM      1  C   UNL     1       3.461   2.803  -2.946  1.00  0.00     0.002 C 
ENDROOT
BRANCH   1   2
ATOM      2  C   UNL     1       4.256   1.613  -2.405  1.00  0.00     0.021 C 
BRANCH   2   3
ATOM      3  C   UNL     1       4.127   1.339  -0.912  1.00  0.00     0.116 C 
BRANCH   3   4
ATOM      4  N   UNL     1       2.757   1.086  -0.507  1.00  0.00    -0.352 N 
ATOM      5  O   UNL     1       0.970  -0.095   0.166  1.00  0.00    -0.269 OA
ATOM      6  C   UNL     1       2.192  -0.032   0.053  1.00  0.00     0.251 C 
ATOM      7  H   UNL     1       2.135   1.834  -0.659  1.00  0.00     0.163 HD
BRANCH   6   8
ATOM      8  C   UNL     1       3.034  -1.161   0.510  1.00  0.00     0.039 A 
ATOM      9  C   UNL     1       4.224  -0.944   1.209  1.00  0.00     0.014 A 
ATOM     10  C   UNL     1       2.590  -2.469   0.285  1.00  0.00     0.014 A 
ATOM     11  C   UNL     1       5.021  -2.024   1.576  1.00  0.00     0.010 A 
ATOM     12  C   UNL     1       3.353  -3.556   0.727  1.00  0.00     0.010 A 
ATOM     13  C   UNL     1       4.584  -3.342   1.362  1.00  0.00    -0.014 A 
BRANCH  13  14
ATOM     14  C   UNL     1       5.390  -4.467   1.904  1.00  0.00     0.031 A 
ATOM     15  C   UNL     1       6.068  -5.457   0.999  1.00  0.00     0.074 A 
ATOM     16  C   UNL     1       5.534  -4.562   3.242  1.00  0.00     0.049 A 
ATOM     17  N   UNL     1       6.853  -6.455   1.320  1.00  0.00    -0.248 NA
ATOM     18  C   UNL     1       5.837  -5.318  -0.447  1.00  0.00     0.031 C 
ATOM     19  C   UNL     1       4.902  -3.673   4.222  1.00  0.00     0.029 A 
ATOM     20  N   UNL     1       6.274  -5.425   4.008  1.00  0.00    -0.354 N 
ATOM     21  C   UNL     1       7.202  -7.068   0.122  1.00  0.00     0.074 A 
ATOM     22  C   UNL     1       6.524  -6.345  -0.932  1.00  0.00     0.031 C 
ATOM     23  C   UNL     1       5.324  -4.001   5.452  1.00  0.00     0.029 A 
ATOM     24  C   UNL     1       6.210  -5.154   5.355  1.00  0.00     0.049 A 
ATOM     25  H   UNL     1       6.799  -6.167   3.631  1.00  0.00     0.167 HD
ATOM     26  C   UNL     1       8.019  -8.132  -0.077  1.00  0.00     0.031 A 
ATOM     27  C   UNL     1       6.793  -5.768   6.401  1.00  0.00     0.031 A 
ATOM     28  C   UNL     1       8.689  -8.850   0.976  1.00  0.00     0.049 A 
ATOM     29  C   UNL     1       7.688  -6.946   6.148  1.00  0.00     0.074 A 
ATOM     30  C   UNL     1       9.548  -9.931   0.870  1.00  0.00     0.029 A 
ATOM     31  N   UNL     1       8.579  -8.563   2.328  1.00  0.00    -0.354 N 
ATOM     32  N   UNL     1       8.025  -7.490   5.003  1.00  0.00    -0.248 NA
ATOM     33  C   UNL     1       8.282  -7.590   7.326  1.00  0.00     0.031 C 
ATOM     34  C   UNL     1       9.926 -10.322   2.160  1.00  0.00     0.029 A 
ATOM     35  C   UNL     1       9.340  -9.454   3.067  1.00  0.00     0.049 A 
ATOM     36  H   UNL     1       8.038  -7.832   2.708  1.00  0.00     0.167 HD
ATOM     37  C   UNL     1       8.873  -8.542   5.324  1.00  0.00     0.074 A 
ATOM     38  C   UNL     1       9.024  -8.534   6.766  1.00  0.00     0.031 C 
ATOM     39  C   UNL     1       9.466  -9.441   4.501  1.00  0.00     0.031 A 
BRANCH  26  40
ATOM     40  C   UNL     1       8.231  -8.598  -1.494  1.00  0.00    -0.014 A 
ATOM     41  C   UNL     1       9.053  -7.875  -2.377  1.00  0.00     0.010 A 
ATOM     42  C   UNL     1       7.666  -9.813  -1.923  1.00  0.00     0.010 A 
ATOM     43  C   UNL     1       9.290  -8.349  -3.671  1.00  0.00     0.020 A 
ATOM     44  C   UNL     1       7.918 -10.300  -3.210  1.00  0.00     0.020 A 
ATOM     45  C   UNL     1       8.721  -9.559  -4.079  1.00  0.00     0.054 A 
BRANCH  45  46
ATOM     46  S   UNL     1       9.084 -10.175  -5.747  1.00  0.00     0.124 S 
ATOM     47  O   UNL     1       8.267  -9.294  -6.578  1.00  0.00    -0.237 OA
ATOM     48  O   UNL     1      10.528  -9.980  -5.855  1.00  0.00    -0.237 OA
ATOM     49  O   UNL     1       8.650 -11.569  -5.704  1.00  0.00    -0.744 OA
ENDBRANCH  45  46
ENDBRANCH  26  40
BRANCH  27  50
ATOM     50  C   UNL     1       6.530  -5.287   7.784  1.00  0.00    -0.014 A 
ATOM     51  C   UNL     1       7.538  -4.649   8.527  1.00  0.00     0.010 A 
ATOM     52  C   UNL     1       5.258  -5.459   8.359  1.00  0.00     0.010 A 
ATOM     53  C   UNL     1       7.284  -4.211   9.830  1.00  0.00     0.020 A 
ATOM     54  C   UNL     1       4.992  -4.998   9.649  1.00  0.00     0.020 A 
ATOM     55  C   UNL     1       6.012  -4.391  10.383  1.00  0.00     0.054 A 
BRANCH  55  56
ATOM     56  S   UNL     1       5.684  -3.779  12.060  1.00  0.00     0.124 S 
ATOM     57  O   UNL     1       6.274  -4.829  12.884  1.00  0.00    -0.237 OA
ATOM     58  O   UNL     1       6.382  -2.495  12.074  1.00  0.00    -0.237 OA
ATOM     59  O   UNL     1       4.227  -3.686  12.107  1.00  0.00    -0.744 OA
ENDBRANCH  55  56
ENDBRANCH  27  50
BRANCH  39  60
ATOM     60  C   UNL     1      10.336 -10.481   5.150  1.00  0.00    -0.014 A 
ATOM     61  C   UNL     1       9.771 -11.543   5.878  1.00  0.00     0.010 A 
ATOM     62  C   UNL     1      11.734 -10.399   5.024  1.00  0.00     0.010 A 
ATOM     63  C   UNL     1      10.592 -12.481   6.509  1.00  0.00     0.020 A 
ATOM     64  C   UNL     1      12.557 -11.349   5.633  1.00  0.00     0.020 A 
ATOM     65  C   UNL     1      11.981 -12.373   6.389  1.00  0.00     0.054 A 
BRANCH  65  66
ATOM     66  S   UNL     1      13.029 -13.606   7.207  1.00  0.00     0.124 S 
ATOM     67  O   UNL     1      12.997 -13.157   8.596  1.00  0.00    -0.237 OA
ATOM     68  O   UNL     1      12.328 -14.859   6.935  1.00  0.00    -0.237 OA
ATOM     69  O   UNL     1      14.318 -13.463   6.534  1.00  0.00    -0.744 OA
ENDBRANCH  65  66
ENDBRANCH  39  60
ENDBRANCH  13  14
ENDBRANCH   6   8
ENDBRANCH   3   4
ENDBRANCH   2   3
ENDBRANCH   1   2
BRANCH   1  70
ATOM     70  C   UNL     1       3.679   4.161  -2.264  1.00  0.00     0.002 C 
BRANCH  70  71
ATOM     71  C   UNL     1       5.124   4.572  -1.974  1.00  0.00     0.021 C 
BRANCH  71  72
ATOM     72  C   UNL     1       6.074   4.479  -3.158  1.00  0.00     0.116 C 
BRANCH  72  73
ATOM     73  N   UNL     1       6.400   5.736  -3.772  1.00  0.00    -0.354 N 
ATOM     74  C   UNL     1       7.543   6.079  -4.421  1.00  0.00     0.243 C 
ATOM     75  H   UNL     1       5.709   6.436  -3.716  1.00  0.00     0.163 HD
ATOM     76  O   UNL     1       7.425   6.997  -5.245  1.00  0.00    -0.273 OA
BRANCH  74  77
ATOM     77  C   UNL     1       8.928   5.394  -4.215  1.00  0.00     0.185 C 
BRANCH  77  78
ATOM     78  C   UNL     1       9.575   5.456  -2.800  1.00  0.00     0.071 C 
BRANCH  78  79
ATOM     79  C   UNL     1       9.282   4.428  -1.740  1.00  0.00    -0.045 A 
ATOM     80  C   UNL     1       8.397   4.720  -0.691  1.00  0.00     0.004 A 
ATOM     81  C   UNL     1       9.912   3.178  -1.752  1.00  0.00     0.004 A 
ATOM     82  C   UNL     1       8.072   3.749   0.260  1.00  0.00     0.000 A 
ATOM     83  C   UNL     1       9.569   2.200  -0.816  1.00  0.00     0.000 A 
ATOM     84  C   UNL     1       8.638   2.480   0.180  1.00  0.00     0.000 A 
ENDBRANCH  78  79
ENDBRANCH  77  78
BRANCH  77  85
ATOM     85  N   UNL     1       9.345   4.293  -5.133  1.00  0.00    -0.280 N 
ATOM     86  C   UNL     1      10.033   4.642  -6.303  1.00  0.00     0.266 C 
ATOM     87  C   UNL     1       9.135   2.934  -5.020  1.00  0.00     0.149 C 
ATOM     88  O   UNL     1      10.295   5.765  -6.710  1.00  0.00    -0.268 OA
ATOM     89  C   UNL     1      10.382   3.413  -7.065  1.00  0.00     0.081 C 
ATOM     90  S   UNL     1      10.326   2.085  -5.988  1.00  0.00    -0.054 SA
ATOM     91  S   UNL     1       7.955   2.026  -4.295  1.00  0.00    -0.052 S 
ATOM     92  C   UNL     1      10.502   3.343  -8.398  1.00  0.00     0.029 C 
BRANCH  92  93
ATOM     93  C   UNL     1      10.543   2.042  -9.080  1.00  0.00    -0.021 A 
ATOM     94  C   UNL     1       9.362   1.306  -9.230  1.00  0.00     0.028 A 
ATOM     95  C   UNL     1      11.756   1.458  -9.433  1.00  0.00     0.028 A 
ATOM     96  C   UNL     1       9.449   0.011  -9.712  1.00  0.00     0.111 A 
ATOM     97  C   UNL     1      11.735   0.159  -9.916  1.00  0.00     0.111 A 
ATOM     98  N   UNL     1      10.610  -0.572 -10.070  1.00  0.00    -0.265 NA
ENDBRANCH  92  93
ENDBRANCH  77  85
ENDBRANCH  74  77
ENDBRANCH  72  73
ENDBRANCH  71  72
ENDBRANCH  70  71
ENDBRANCH   1  70
TORSDOF 20
