REMARK SMILES O=C(NCCCCCCNC(=O)[C@H]1CC=CC[C@@H]1C(=O)Nc1ccccc1C(=O)NCc1ccco1)c1ccc(-c2c3nc(c(-c4ccc(S(=O)(=O)[O-])cc4)c4ccc([nH]4)c(-c4ccc(S(=O)(=O)[O-])cc4)c4nc(c(-c5ccc(S(=O)(=O)[O-])cc5)c5ccc2[nH]5)C=C4)C=C3)cc1
REMARK SMILES IDX 7 1 6 2 5 3 4 4 3 5 1 6 2 7 37 9 38 10 96 11 39 12 95 13
REMARK SMILES IDX 40 14 41 15 42 16 89 17 43 18 94 19 88 20 90 21 44 22 93 23
REMARK SMILES IDX 87 24 86 25 45 27 75 28 56 29 74 30 57 31 60 32 73 33 91 34
REMARK SMILES IDX 58 35 59 36 72 38 92 39 61 40 46 41 47 42 55 43 48 44 54 45
REMARK SMILES IDX 49 46 50 47 51 48 52 49 53 50 76 51 77 52 85 53 78 54 84 55
REMARK SMILES IDX 79 56 80 57 81 58 82 59 83 60 62 61 63 62 71 63 64 64 70 65
REMARK SMILES IDX 65 66 66 67 67 68 68 69 69 70 8 71 9 72 10 73 11 74 12 76
REMARK SMILES IDX 13 77 14 78 18 79 15 80 17 81 16 82 19 83 20 84 21 85 22 87
REMARK SMILES IDX 23 88 27 89 24 90 26 91 25 92 28 93 29 94 30 95 31 97 32 98
REMARK SMILES IDX 33 99 36 100 34 101 35 102
REMARK H PARENT 3 8 90 26 60 37 10 75 21 86 30 96
REMARK Flexibility Score: inf
ROOT
ATOM      1  C   UNL     1       4.591  -2.115  -3.828  1.00  0.00     0.002 C 
ENDROOT
BRANCH   1   2
ATOM      2  C   UNL     1       3.984  -2.809  -2.603  1.00  0.00     0.002 C 
BRANCH   2   3
ATOM      3  C   UNL     1       4.528  -2.320  -1.261  1.00  0.00     0.021 C 
BRANCH   3   4
ATOM      4  C   UNL     1       4.370  -0.823  -1.036  1.00  0.00     0.116 C 
BRANCH   4   5
ATOM      5  N   UNL     1       2.972  -0.410  -1.046  1.00  0.00    -0.352 N 
ATOM      6  O   UNL     1       1.036   0.342  -0.158  1.00  0.00    -0.269 OA
ATOM      7  C   UNL     1       2.259   0.244  -0.073  1.00  0.00     0.251 C 
ATOM      8  H   UNL     1       2.470  -0.631  -1.864  1.00  0.00     0.163 HD
BRANCH   7   9
ATOM      9  C   UNL     1       2.977   0.811   1.085  1.00  0.00     0.039 A 
ATOM     10  C   UNL     1       4.164   1.520   0.887  1.00  0.00     0.014 A 
ATOM     11  C   UNL     1       2.484   0.604   2.375  1.00  0.00     0.014 A 
ATOM     12  C   UNL     1       4.942   1.871   1.980  1.00  0.00     0.010 A 
ATOM     13  C   UNL     1       3.219   1.056   3.474  1.00  0.00     0.010 A 
ATOM     14  C   UNL     1       4.473   1.660   3.287  1.00  0.00    -0.014 A 
BRANCH  14  15
ATOM     15  C   UNL     1       5.295   2.134   4.429  1.00  0.00     0.031 A 
ATOM     16  C   UNL     1       5.854   1.173   5.444  1.00  0.00     0.074 A 
ATOM     17  C   UNL     1       5.570   3.450   4.516  1.00  0.00     0.049 A 
ATOM     18  N   UNL     1       6.635   1.423   6.465  1.00  0.00    -0.248 NA
ATOM     19  C   UNL     1       5.487  -0.244   5.305  1.00  0.00     0.031 C 
ATOM     20  C   UNL     1       5.082   4.476   3.588  1.00  0.00     0.029 A 
ATOM     21  N   UNL     1       6.349   4.151   5.400  1.00  0.00    -0.354 N 
ATOM     22  C   UNL     1       6.829   0.204   7.106  1.00  0.00     0.074 A 
ATOM     23  C   UNL     1       6.065  -0.781   6.371  1.00  0.00     0.031 C 
ATOM     24  C   UNL     1       5.629   5.657   3.908  1.00  0.00     0.029 A 
ATOM     25  C   UNL     1       6.440   5.491   5.107  1.00  0.00     0.049 A 
ATOM     26  H   UNL     1       6.800   3.734   6.169  1.00  0.00     0.167 HD
ATOM     27  C   UNL     1       7.575  -0.066   8.205  1.00  0.00     0.031 A 
ATOM     28  C   UNL     1       7.093   6.484   5.738  1.00  0.00     0.031 A 
ATOM     29  C   UNL     1       8.332   0.925   8.929  1.00  0.00     0.049 A 
ATOM     30  C   UNL     1       7.885   6.160   6.970  1.00  0.00     0.074 A 
ATOM     31  C   UNL     1       9.152   0.746  10.030  1.00  0.00     0.029 A 
ATOM     32  N   UNL     1       8.356   2.280   8.632  1.00  0.00    -0.354 N 
ATOM     33  N   UNL     1       8.087   4.995   7.537  1.00  0.00    -0.248 NA
ATOM     34  C   UNL     1       8.540   7.287   7.646  1.00  0.00     0.031 C 
ATOM     35  C   UNL     1       9.619   2.000  10.438  1.00  0.00     0.029 A 
ATOM     36  C   UNL     1       9.149   2.953   9.548  1.00  0.00     0.049 A 
ATOM     37  H   UNL     1       7.879   2.702   7.882  1.00  0.00     0.167 HD
ATOM     38  C   UNL     1       8.916   5.244   8.623  1.00  0.00     0.074 A 
ATOM     39  C   UNL     1       9.191   6.667   8.621  1.00  0.00     0.031 C 
ATOM     40  C   UNL     1       9.408   4.372   9.538  1.00  0.00     0.031 A 
BRANCH  27  41
ATOM     41  C   UNL     1       7.577  -1.483   8.723  1.00  0.00    -0.014 A 
ATOM     42  C   UNL     1       8.203  -2.527   8.017  1.00  0.00     0.010 A 
ATOM     43  C   UNL     1       6.974  -1.768   9.963  1.00  0.00     0.010 A 
ATOM     44  C   UNL     1       8.184  -3.833   8.517  1.00  0.00     0.020 A 
ATOM     45  C   UNL     1       6.980  -3.066  10.482  1.00  0.00     0.020 A 
ATOM     46  C   UNL     1       7.569  -4.095   9.745  1.00  0.00     0.054 A 
BRANCH  46  47
ATOM     47  S   UNL     1       7.567  -5.797  10.374  1.00  0.00     0.124 S 
ATOM     48  O   UNL     1       6.617  -6.448   9.476  1.00  0.00    -0.237 OA
ATOM     49  O   UNL     1       8.962  -6.199  10.210  1.00  0.00    -0.237 OA
ATOM     50  O   UNL     1       7.121  -5.657  11.758  1.00  0.00    -0.744 OA
ENDBRANCH  46  47
ENDBRANCH  27  41
BRANCH  28  51
ATOM     51  C   UNL     1       7.017   7.872   5.208  1.00  0.00    -0.014 A 
ATOM     52  C   UNL     1       8.153   8.489   4.656  1.00  0.00     0.010 A 
ATOM     53  C   UNL     1       5.798   8.576   5.230  1.00  0.00     0.010 A 
ATOM     54  C   UNL     1       8.076   9.790   4.151  1.00  0.00     0.020 A 
ATOM     55  C   UNL     1       5.709   9.863   4.695  1.00  0.00     0.020 A 
ATOM     56  C   UNL     1       6.853  10.467   4.171  1.00  0.00     0.054 A 
BRANCH  56  57
ATOM     57  S   UNL     1       6.766  12.135   3.464  1.00  0.00     0.124 S 
ATOM     58  O   UNL     1       7.482  12.924   4.461  1.00  0.00    -0.237 OA
ATOM     59  O   UNL     1       7.444  11.968   2.181  1.00  0.00    -0.237 OA
ATOM     60  O   UNL     1       5.331  12.394   3.372  1.00  0.00    -0.744 OA
ENDBRANCH  56  57
ENDBRANCH  28  51
BRANCH  40  61
ATOM     61  C   UNL     1      10.330   4.931  10.590  1.00  0.00    -0.014 A 
ATOM     62  C   UNL     1       9.857   5.774  11.611  1.00  0.00     0.010 A 
ATOM     63  C   UNL     1      11.694   4.583  10.566  1.00  0.00     0.010 A 
ATOM     64  C   UNL     1      10.738   6.295  12.561  1.00  0.00     0.020 A 
ATOM     65  C   UNL     1      12.572   5.075  11.534  1.00  0.00     0.020 A 
ATOM     66  C   UNL     1      12.091   5.944  12.515  1.00  0.00     0.054 A 
BRANCH  66  67
ATOM     67  S   UNL     1      13.211   6.613  13.774  1.00  0.00     0.124 S 
ATOM     68  O   UNL     1      13.338   8.007  13.357  1.00  0.00    -0.237 OA
ATOM     69  O   UNL     1      12.469   6.392  15.013  1.00  0.00    -0.237 OA
ATOM     70  O   UNL     1      14.421   5.807  13.626  1.00  0.00    -0.744 OA
ENDBRANCH  66  67
ENDBRANCH  40  61
ENDBRANCH  14  15
ENDBRANCH   7   9
ENDBRANCH   4   5
ENDBRANCH   3   4
ENDBRANCH   2   3
ENDBRANCH   1   2
BRANCH   1  71
ATOM     71  C   UNL     1       6.116  -2.230  -3.937  1.00  0.00     0.021 C 
BRANCH  71  72
ATOM     72  C   UNL     1       6.611  -3.672  -3.976  1.00  0.00     0.116 C 
BRANCH  72  73
ATOM     73  N   UNL     1       6.157  -4.352  -5.177  1.00  0.00    -0.356 N 
ATOM     74  C   UNL     1       6.888  -4.923  -6.177  1.00  0.00     0.224 C 
ATOM     75  H   UNL     1       5.180  -4.409  -5.284  1.00  0.00     0.163 HD
ATOM     76  O   UNL     1       6.282  -5.352  -7.159  1.00  0.00    -0.275 OA
BRANCH  74  77
ATOM     77  C   UNL     1       8.411  -4.998  -6.035  1.00  0.00     0.095 C 
ATOM     78  C   UNL     1       8.759  -5.953  -4.869  1.00  0.00     0.041 C 
ATOM     79  C   UNL     1       9.072  -5.335  -7.383  1.00  0.00     0.095 C 
ATOM     80  C   UNL     1       9.245  -7.311  -5.250  1.00  0.00    -0.030 C 
ATOM     81  C   UNL     1       8.936  -6.857  -7.676  1.00  0.00     0.041 C 
ATOM     82  C   UNL     1       9.314  -7.730  -6.516  1.00  0.00    -0.030 C 
BRANCH  79  83
ATOM     83  C   UNL     1      10.523  -4.898  -7.674  1.00  0.00     0.228 C 
ATOM     84  O   UNL     1      11.323  -5.703  -8.181  1.00  0.00    -0.274 OA
ATOM     85  N   UNL     1      11.025  -3.636  -7.645  1.00  0.00    -0.325 N 
ATOM     86  H   UNL     1      11.855  -3.578  -8.172  1.00  0.00     0.169 HD
BRANCH  85  87
ATOM     87  C   UNL     1      10.707  -2.393  -7.082  1.00  0.00     0.054 A 
ATOM     88  C   UNL     1      10.903  -1.312  -7.974  1.00  0.00     0.027 A 
ATOM     89  C   UNL     1      10.327  -2.094  -5.770  1.00  0.00     0.063 A 
ATOM     90  C   UNL     1      10.521  -0.008  -7.654  1.00  0.00     0.002 A 
ATOM     91  C   UNL     1       9.848  -0.786  -5.497  1.00  0.00     0.016 A 
ATOM     92  C   UNL     1       9.924   0.242  -6.433  1.00  0.00     0.001 A 
BRANCH  89  93
ATOM     93  C   UNL     1      10.493  -2.905  -4.525  1.00  0.00     0.253 C 
ATOM     94  O   UNL     1       9.767  -2.646  -3.560  1.00  0.00    -0.269 OA
ATOM     95  N   UNL     1      11.423  -3.878  -4.311  1.00  0.00    -0.345 N 
ATOM     96  H   UNL     1      11.447  -4.187  -3.377  1.00  0.00     0.164 HD
BRANCH  95  97
ATOM     97  C   UNL     1      12.382  -4.557  -5.153  1.00  0.00     0.191 C 
BRANCH  97  98
ATOM     98  C   UNL     1      13.342  -5.310  -4.314  1.00  0.00     0.122 A 
ATOM     99  C   UNL     1      13.192  -6.258  -3.321  1.00  0.00     0.047 A 
ATOM    100  O   UNL     1      14.664  -5.104  -4.569  1.00  0.00    -0.467 OA
ATOM    101  C   UNL     1      14.498  -6.628  -2.927  1.00  0.00     0.042 A 
ATOM    102  C   UNL     1      15.357  -5.906  -3.721  1.00  0.00     0.195 A 
ENDBRANCH  97  98
ENDBRANCH  95  97
ENDBRANCH  89  93
ENDBRANCH  85  87
ENDBRANCH  79  83
ENDBRANCH  74  77
ENDBRANCH  72  73
ENDBRANCH  71  72
ENDBRANCH   1  71
TORSDOF 21
