REMARK SMILES Cc1ccc(-c2nc(NC(=O)[C@H]3[C@@H](C(=O)NCCCCCCNC(=O)c4ccc(-c5c6nc(c(-c7ccc(S(=O)(=O)[O-])cc7)c7ccc([nH]7)c(-c7ccc(S(=O)(=O)[O-])cc7)c7nc(c(-c8ccc(S(=O)(=O)[O-])cc8)c8ccc5[nH]8)C=C7)C=C6)cc4)[C@@H]4CC[C@H]3O4)sc2C)cc1
REMARK SMILES IDX 19 1 18 2 17 3 16 4 14 5 15 6 13 8 12 9 89 10 86 11 88 12
REMARK SMILES IDX 90 13 87 14 10 15 9 16 11 18 8 19 6 20 7 21 92 22 91 23
REMARK SMILES IDX 93 24 5 25 1 26 2 27 3 28 95 29 4 30 94 31 20 32 21 33 22 34
REMARK SMILES IDX 23 35 24 36 25 38 26 39 27 40 85 41 28 42 84 43 29 44 30 45
REMARK SMILES IDX 31 46 78 47 32 48 83 49 77 50 79 51 33 52 82 53 76 54 75 55
REMARK SMILES IDX 34 57 64 58 45 59 63 60 46 61 49 62 62 63 80 64 47 65 48 66
REMARK SMILES IDX 61 68 81 69 50 70 35 71 36 72 44 73 37 74 43 75 38 76 39 77
REMARK SMILES IDX 40 78 41 79 42 80 65 81 66 82 74 83 67 84 73 85 68 86 69 87
REMARK SMILES IDX 70 88 71 89 72 90 51 91 52 92 60 93 53 94 59 95 54 96 55 97
REMARK SMILES IDX 56 98 57 99 58 100
REMARK H PARENT 16 7 9 17 23 37 79 56 49 67
REMARK Flexibility Score: inf
ROOT
ATOM      1  C   UNL     1      -4.716   1.081   0.205  1.00  0.00     0.002 C 
ENDROOT
BRANCH   1   2
ATOM      2  C   UNL     1      -5.497  -0.220   0.358  1.00  0.00     0.021 C 
BRANCH   2   3
ATOM      3  C   UNL     1      -6.446  -0.377   1.539  1.00  0.00     0.116 C 
BRANCH   3   4
ATOM      4  N   UNL     1      -7.404   0.690   1.752  1.00  0.00    -0.356 N 
ATOM      5  C   UNL     1      -8.747   0.619   1.520  1.00  0.00     0.226 C 
ATOM      6  O   UNL     1      -9.509   1.067   2.380  1.00  0.00    -0.275 OA
ATOM      7  H   UNL     1      -7.054   1.544   2.095  1.00  0.00     0.163 HD
BRANCH   5   8
ATOM      8  C   UNL     1      -9.250  -0.137   0.316  1.00  0.00     0.122 C 
ATOM      9  C   UNL     1      -8.717   0.018  -1.113  1.00  0.00     0.123 C 
ATOM     10  C   UNL     1      -9.976  -0.402  -1.896  1.00  0.00     0.132 C 
ATOM     11  C   UNL     1     -10.789  -0.068   0.089  1.00  0.00     0.132 C 
ATOM     12  C   UNL     1     -10.502  -1.797  -1.470  1.00  0.00     0.035 C 
ATOM     13  O   UNL     1     -10.924   0.477  -1.253  1.00  0.00    -0.373 OA
ATOM     14  C   UNL     1     -11.306  -1.472  -0.204  1.00  0.00     0.035 C 
BRANCH   9  15
ATOM     15  C   UNL     1      -8.044   1.164  -1.916  1.00  0.00     0.232 C 
ATOM     16  N   UNL     1      -7.913   2.498  -1.767  1.00  0.00    -0.302 N 
ATOM     17  H   UNL     1      -7.324   2.873  -2.461  1.00  0.00     0.172 HD
ATOM     18  O   UNL     1      -7.510   0.772  -2.980  1.00  0.00    -0.274 OA
BRANCH  16  19
ATOM     19  C   UNL     1      -8.364   3.477  -0.929  1.00  0.00     0.190 A 
ATOM     20  C   UNL     1      -8.549   5.466   0.077  1.00  0.00     0.086 A 
ATOM     21  N   UNL     1      -7.949   4.733  -0.961  1.00  0.00    -0.220 NA
ATOM     22  C   UNL     1      -9.471   4.729   0.809  1.00  0.00     0.031 A 
ATOM     23  S   UNL     1      -9.617   3.174   0.133  1.00  0.00    -0.101 S 
ATOM     24  C   UNL     1     -10.335   5.041   1.977  1.00  0.00     0.059 C 
BRANCH  20  25
ATOM     25  C   UNL     1      -8.265   6.888   0.349  1.00  0.00     0.001 A 
ATOM     26  C   UNL     1      -7.928  11.125   1.281  1.00  0.00     0.044 C 
ATOM     27  C   UNL     1      -8.024   9.662   0.952  1.00  0.00    -0.051 A 
ATOM     28  C   UNL     1      -8.042   9.211  -0.376  1.00  0.00     0.004 A 
ATOM     29  C   UNL     1      -8.071   8.714   1.973  1.00  0.00     0.004 A 
ATOM     30  C   UNL     1      -8.163   7.837  -0.676  1.00  0.00     0.010 A 
ATOM     31  C   UNL     1      -8.168   7.350   1.673  1.00  0.00     0.010 A 
ENDBRANCH  20  25
ENDBRANCH  16  19
ENDBRANCH   9  15
ENDBRANCH   5   8
ENDBRANCH   3   4
ENDBRANCH   2   3
ENDBRANCH   1   2
BRANCH   1  32
ATOM     32  C   UNL     1      -3.878   1.600   1.374  1.00  0.00     0.002 C 
BRANCH  32  33
ATOM     33  C   UNL     1      -3.139   0.604   2.263  1.00  0.00     0.021 C 
BRANCH  33  34
ATOM     34  C   UNL     1      -2.179  -0.335   1.541  1.00  0.00     0.116 C 
BRANCH  34  35
ATOM     35  N   UNL     1      -0.922  -0.462   2.276  1.00  0.00    -0.352 N 
ATOM     36  C   UNL     1       0.053  -1.440   2.218  1.00  0.00     0.251 C 
ATOM     37  H   UNL     1      -0.741   0.266   2.915  1.00  0.00     0.163 HD
ATOM     38  O   UNL     1       1.008  -1.477   2.965  1.00  0.00    -0.269 OA
BRANCH  36  39
ATOM     39  C   UNL     1      -0.023  -2.370   1.079  1.00  0.00     0.039 A 
ATOM     40  C   UNL     1       0.969  -2.238   0.102  1.00  0.00     0.014 A 
ATOM     41  C   UNL     1      -1.184  -3.103   0.852  1.00  0.00     0.014 A 
ATOM     42  C   UNL     1       0.694  -2.668  -1.186  1.00  0.00     0.010 A 
ATOM     43  C   UNL     1      -1.496  -3.442  -0.447  1.00  0.00     0.010 A 
ATOM     44  C   UNL     1      -0.581  -3.164  -1.466  1.00  0.00    -0.014 A 
BRANCH  44  45
ATOM     45  C   UNL     1      -1.005  -3.436  -2.830  1.00  0.00     0.031 A 
ATOM     46  C   UNL     1      -0.778  -4.804  -3.341  1.00  0.00     0.074 A 
ATOM     47  C   UNL     1      -1.485  -2.445  -3.615  1.00  0.00     0.049 A 
ATOM     48  N   UNL     1      -0.499  -5.102  -4.563  1.00  0.00    -0.248 NA
ATOM     49  C   UNL     1      -0.757  -5.960  -2.444  1.00  0.00     0.031 C 
ATOM     50  C   UNL     1      -1.960  -2.582  -4.991  1.00  0.00     0.029 A 
ATOM     51  N   UNL     1      -1.442  -1.059  -3.429  1.00  0.00    -0.354 N 
ATOM     52  C   UNL     1      -0.544  -6.476  -4.669  1.00  0.00     0.074 A 
ATOM     53  C   UNL     1      -0.594  -6.960  -3.311  1.00  0.00     0.031 C 
ATOM     54  C   UNL     1      -1.812  -1.395  -5.604  1.00  0.00     0.029 A 
ATOM     55  C   UNL     1      -1.108  -0.522  -4.678  1.00  0.00     0.049 A 
ATOM     56  H   UNL     1      -1.611  -0.565  -2.595  1.00  0.00     0.167 HD
ATOM     57  C   UNL     1      -0.704  -7.052  -5.894  1.00  0.00     0.031 A 
ATOM     58  C   UNL     1       0.073   0.106  -4.957  1.00  0.00     0.031 A 
ATOM     59  C   UNL     1      -0.624  -6.051  -6.959  1.00  0.00     0.049 A 
ATOM     60  C   UNL     1       0.840  -0.564  -6.091  1.00  0.00     0.074 A 
ATOM     61  C   UNL     1      -1.590  -5.368  -7.680  1.00  0.00     0.029 A 
ATOM     62  N   UNL     1       0.570  -5.357  -7.152  1.00  0.00    -0.354 N 
ATOM     63  N   UNL     1       0.660  -1.802  -6.472  1.00  0.00    -0.248 NA
ATOM     64  C   UNL     1       1.863   0.113  -6.885  1.00  0.00     0.031 C 
ATOM     65  C   UNL     1      -0.990  -4.195  -8.216  1.00  0.00     0.029 A 
ATOM     66  C   UNL     1       0.349  -4.190  -7.862  1.00  0.00     0.049 A 
ATOM     67  H   UNL     1       1.450  -5.657  -6.828  1.00  0.00     0.167 HD
ATOM     68  C   UNL     1       1.465  -2.082  -7.551  1.00  0.00     0.074 A 
ATOM     69  C   UNL     1       2.196  -0.844  -7.770  1.00  0.00     0.031 C 
ATOM     70  C   UNL     1       1.458  -3.295  -8.187  1.00  0.00     0.031 A 
BRANCH  57  71
ATOM     71  C   UNL     1      -1.305  -8.438  -6.035  1.00  0.00    -0.014 A 
ATOM     72  C   UNL     1      -2.156  -8.729  -7.120  1.00  0.00     0.010 A 
ATOM     73  C   UNL     1      -1.167  -9.458  -5.072  1.00  0.00     0.010 A 
ATOM     74  C   UNL     1      -2.928  -9.905  -7.165  1.00  0.00     0.020 A 
ATOM     75  C   UNL     1      -1.968 -10.610  -5.073  1.00  0.00     0.020 A 
ATOM     76  C   UNL     1      -2.859 -10.820  -6.117  1.00  0.00     0.054 A 
BRANCH  76  77
ATOM     77  S   UNL     1      -3.948 -12.270  -6.120  1.00  0.00     0.124 S 
ATOM     78  O   UNL     1      -5.271 -11.674  -6.291  1.00  0.00    -0.237 OA
ATOM     79  O   UNL     1      -3.447 -13.033  -7.260  1.00  0.00    -0.237 OA
ATOM     80  O   UNL     1      -3.716 -12.881  -4.813  1.00  0.00    -0.744 OA
ENDBRANCH  76  77
ENDBRANCH  57  71
BRANCH  58  81
ATOM     81  C   UNL     1       0.680   0.884  -3.839  1.00  0.00    -0.014 A 
ATOM     82  C   UNL     1       0.026   2.064  -3.423  1.00  0.00     0.010 A 
ATOM     83  C   UNL     1       1.659   0.335  -2.995  1.00  0.00     0.010 A 
ATOM     84  C   UNL     1       0.242   2.602  -2.149  1.00  0.00     0.020 A 
ATOM     85  C   UNL     1       1.879   0.872  -1.713  1.00  0.00     0.020 A 
ATOM     86  C   UNL     1       1.127   1.968  -1.278  1.00  0.00     0.054 A 
BRANCH  86  87
ATOM     87  S   UNL     1       1.232   2.557   0.441  1.00  0.00     0.124 S 
ATOM     88  O   UNL     1       1.250   4.009   0.283  1.00  0.00    -0.237 OA
ATOM     89  O   UNL     1       0.009   2.012   1.031  1.00  0.00    -0.237 OA
ATOM     90  O   UNL     1       2.475   1.968   0.925  1.00  0.00    -0.744 OA
ENDBRANCH  86  87
ENDBRANCH  58  81
BRANCH  70  91
ATOM     91  C   UNL     1       2.435  -3.755  -9.257  1.00  0.00    -0.014 A 
ATOM     92  C   UNL     1       3.685  -3.169  -9.505  1.00  0.00     0.010 A 
ATOM     93  C   UNL     1       2.135  -4.930  -9.993  1.00  0.00     0.010 A 
ATOM     94  C   UNL     1       4.562  -3.690 -10.471  1.00  0.00     0.020 A 
ATOM     95  C   UNL     1       3.021  -5.488 -10.920  1.00  0.00     0.020 A 
ATOM     96  C   UNL     1       4.226  -4.847 -11.171  1.00  0.00     0.054 A 
BRANCH  96  97
ATOM     97  S   UNL     1       5.404  -5.560 -12.347  1.00  0.00     0.124 S 
ATOM     98  O   UNL     1       5.100  -4.817 -13.567  1.00  0.00    -0.237 OA
ATOM     99  O   UNL     1       6.697  -5.258 -11.736  1.00  0.00    -0.237 OA
ATOM    100  O   UNL     1       5.051  -6.977 -12.370  1.00  0.00    -0.744 OA
ENDBRANCH  96  97
ENDBRANCH  70  91
ENDBRANCH  44  45
ENDBRANCH  36  39
ENDBRANCH  34  35
ENDBRANCH  33  34
ENDBRANCH  32  33
ENDBRANCH   1  32
TORSDOF 19
