REMARK SMILES Cc1nonc1-c1noc(CCC(=O)NCCCCCCNC(=O)c2ccc(-c3c4nc(c(-c5ccc(S(=O)(=O)[O-])cc5)c5ccc([nH]5)c(-c5ccc(S(=O)(=O)[O-])cc5)c5nc(c(-c6ccc(S(=O)(=O)[O-])cc6)c6ccc3[nH]6)C=C5)C=C4)cc2)n1
REMARK SMILES IDX 18 1 17 2 16 3 15 4 13 5 14 6 12 8 11 9 10 10 7 11 8 12
REMARK SMILES IDX 85 13 9 14 6 15 1 16 2 17 3 18 4 19 5 20 19 21 20 22 21 23
REMARK SMILES IDX 22 24 23 25 24 27 25 28 26 29 84 30 27 31 83 32 28 33 29 34
REMARK SMILES IDX 30 35 77 36 31 37 82 38 76 39 78 40 32 41 81 42 75 43 74 44
REMARK SMILES IDX 33 46 63 47 44 48 62 49 45 50 48 51 61 52 79 53 46 54 47 55
REMARK SMILES IDX 60 57 80 58 49 59 34 60 35 61 43 62 36 63 42 64 37 65 38 66
REMARK SMILES IDX 39 67 40 68 41 69 64 70 65 71 73 72 66 73 72 74 67 75 68 76
REMARK SMILES IDX 69 77 70 78 71 79 50 80 51 81 59 82 52 83 58 84 53 85 54 86
REMARK SMILES IDX 55 87 56 88 57 89
REMARK H PARENT 15 7 22 26 78 45 48 56
REMARK Flexibility Score: inf
ROOT
ATOM      1  C   UNL     1      -1.369   5.018   2.891  1.00  0.00     0.002 C 
ENDROOT
BRANCH   1   2
ATOM      2  C   UNL     1      -0.597   4.737   1.598  1.00  0.00     0.021 C 
BRANCH   2   3
ATOM      3  C   UNL     1      -1.127   5.499   0.383  1.00  0.00     0.116 C 
BRANCH   3   4
ATOM      4  N   UNL     1      -0.464   6.786   0.263  1.00  0.00    -0.356 N 
ATOM      5  C   UNL     1       0.352   7.256  -0.716  1.00  0.00     0.220 C 
ATOM      6  O   UNL     1       0.888   8.355  -0.564  1.00  0.00    -0.275 OA
ATOM      7  H   UNL     1      -0.633   7.413   1.003  1.00  0.00     0.163 HD
BRANCH   5   8
ATOM      8  C   UNL     1       0.616   6.441  -1.962  1.00  0.00     0.110 C 
BRANCH   8   9
ATOM      9  C   UNL     1       1.927   5.672  -1.855  1.00  0.00     0.110 C 
BRANCH   9  10
ATOM     10  C   UNL     1       1.769   4.352  -1.200  1.00  0.00     0.227 A 
ATOM     11  C   UNL     1       1.288   2.415  -0.562  1.00  0.00     0.226 A 
ATOM     12  N   UNL     1       2.328   2.747   0.216  1.00  0.00    -0.055 NA
ATOM     13  N   UNL     1       0.911   3.392  -1.454  1.00  0.00    -0.190 NA
ATOM     14  O   UNL     1       2.650   4.038  -0.207  1.00  0.00    -0.339 OA
BRANCH  11  15
ATOM     15  C   UNL     1       0.541   1.165  -0.462  1.00  0.00     0.178 A 
ATOM     16  C   UNL     1       2.447  -0.565   0.073  1.00  0.00     0.073 C 
ATOM     17  C   UNL     1       1.062  -0.106  -0.162  1.00  0.00     0.113 A 
ATOM     18  N   UNL     1       0.059  -0.990  -0.133  1.00  0.00    -0.054 NA
ATOM     19  O   UNL     1      -1.083  -0.261  -0.441  1.00  0.00    -0.244 OA
ATOM     20  N   UNL     1      -0.782   1.084  -0.637  1.00  0.00    -0.046 NA
ENDBRANCH  11  15
ENDBRANCH   9  10
ENDBRANCH   8   9
ENDBRANCH   5   8
ENDBRANCH   3   4
ENDBRANCH   2   3
ENDBRANCH   1   2
BRANCH   1  21
ATOM     21  C   UNL     1      -2.822   4.525   2.900  1.00  0.00     0.002 C 
BRANCH  21  22
ATOM     22  C   UNL     1      -3.030   3.059   2.501  1.00  0.00     0.021 C 
BRANCH  22  23
ATOM     23  C   UNL     1      -2.221   2.042   3.303  1.00  0.00     0.116 C 
BRANCH  23  24
ATOM     24  N   UNL     1      -2.558   2.066   4.717  1.00  0.00    -0.352 N 
ATOM     25  C   UNL     1      -3.025   1.059   5.522  1.00  0.00     0.251 C 
ATOM     26  H   UNL     1      -2.433   2.934   5.162  1.00  0.00     0.163 HD
ATOM     27  O   UNL     1      -3.434   1.325   6.652  1.00  0.00    -0.269 OA
BRANCH  25  28
ATOM     28  C   UNL     1      -3.052  -0.339   5.040  1.00  0.00     0.039 A 
ATOM     29  C   UNL     1      -4.191  -1.113   5.285  1.00  0.00     0.014 A 
ATOM     30  C   UNL     1      -1.953  -0.901   4.383  1.00  0.00     0.014 A 
ATOM     31  C   UNL     1      -4.248  -2.431   4.826  1.00  0.00     0.010 A 
ATOM     32  C   UNL     1      -2.032  -2.198   3.878  1.00  0.00     0.010 A 
ATOM     33  C   UNL     1      -3.178  -2.977   4.100  1.00  0.00    -0.014 A 
BRANCH  33  34
ATOM     34  C   UNL     1      -3.240  -4.362   3.567  1.00  0.00     0.031 A 
ATOM     35  C   UNL     1      -2.333  -5.427   4.119  1.00  0.00     0.074 A 
ATOM     36  C   UNL     1      -4.074  -4.648   2.549  1.00  0.00     0.049 A 
ATOM     37  N   UNL     1      -2.201  -6.673   3.744  1.00  0.00    -0.248 NA
ATOM     38  C   UNL     1      -1.446  -5.034   5.226  1.00  0.00     0.031 C 
ATOM     39  C   UNL     1      -4.983  -3.697   1.906  1.00  0.00     0.029 A 
ATOM     40  N   UNL     1      -4.285  -5.821   1.869  1.00  0.00    -0.354 N 
ATOM     41  C   UNL     1      -1.205  -7.209   4.552  1.00  0.00     0.074 A 
ATOM     42  C   UNL     1      -0.744  -6.142   5.415  1.00  0.00     0.031 C 
ATOM     43  C   UNL     1      -5.666  -4.329   0.938  1.00  0.00     0.029 A 
ATOM     44  C   UNL     1      -5.220  -5.717   0.868  1.00  0.00     0.049 A 
ATOM     45  H   UNL     1      -3.811  -6.658   2.079  1.00  0.00     0.167 HD
ATOM     46  C   UNL     1      -0.726  -8.476   4.582  1.00  0.00     0.031 A 
ATOM     47  C   UNL     1      -5.665  -6.634  -0.013  1.00  0.00     0.031 A 
ATOM     48  C   UNL     1      -1.190  -9.538   3.730  1.00  0.00     0.049 A 
ATOM     49  C   UNL     1      -5.118  -8.032   0.037  1.00  0.00     0.074 A 
ATOM     50  C   UNL     1      -0.799 -10.866   3.718  1.00  0.00     0.029 A 
ATOM     51  N   UNL     1      -2.148  -9.395   2.738  1.00  0.00    -0.354 N 
ATOM     52  N   UNL     1      -4.211  -8.532   0.842  1.00  0.00    -0.248 NA
ATOM     53  C   UNL     1      -5.661  -8.992  -0.933  1.00  0.00     0.031 C 
ATOM     54  C   UNL     1      -1.495 -11.518   2.693  1.00  0.00     0.029 A 
ATOM     55  C   UNL     1      -2.350 -10.605   2.096  1.00  0.00     0.049 A 
ATOM     56  H   UNL     1      -2.615  -8.556   2.522  1.00  0.00     0.167 HD
ATOM     57  C   UNL     1      -4.091  -9.872   0.490  1.00  0.00     0.074 A 
ATOM     58  C   UNL     1      -5.025 -10.106  -0.593  1.00  0.00     0.031 C 
ATOM     59  C   UNL     1      -3.281 -10.822   1.019  1.00  0.00     0.031 A 
BRANCH  46  60
ATOM     60  C   UNL     1       0.371  -8.774   5.569  1.00  0.00    -0.014 A 
ATOM     61  C   UNL     1       0.105  -8.844   6.949  1.00  0.00     0.010 A 
ATOM     62  C   UNL     1       1.681  -9.002   5.112  1.00  0.00     0.010 A 
ATOM     63  C   UNL     1       1.139  -9.087   7.857  1.00  0.00     0.020 A 
ATOM     64  C   UNL     1       2.713  -9.270   6.015  1.00  0.00     0.020 A 
ATOM     65  C   UNL     1       2.439  -9.289   7.385  1.00  0.00     0.054 A 
BRANCH  65  66
ATOM     66  S   UNL     1       3.765  -9.601   8.582  1.00  0.00     0.124 S 
ATOM     67  O   UNL     1       4.019  -8.261   9.104  1.00  0.00    -0.237 OA
ATOM     68  O   UNL     1       3.143 -10.533   9.520  1.00  0.00    -0.237 OA
ATOM     69  O   UNL     1       4.839 -10.166   7.768  1.00  0.00    -0.744 OA
ENDBRANCH  65  66
ENDBRANCH  46  60
BRANCH  47  70
ATOM     70  C   UNL     1      -6.705  -6.256  -1.006  1.00  0.00    -0.014 A 
ATOM     71  C   UNL     1      -8.031  -6.695  -0.846  1.00  0.00     0.010 A 
ATOM     72  C   UNL     1      -6.382  -5.431  -2.098  1.00  0.00     0.010 A 
ATOM     73  C   UNL     1      -9.015  -6.323  -1.766  1.00  0.00     0.020 A 
ATOM     74  C   UNL     1      -7.368  -5.039  -3.008  1.00  0.00     0.020 A 
ATOM     75  C   UNL     1      -8.678  -5.495  -2.841  1.00  0.00     0.054 A 
BRANCH  75  76
ATOM     76  S   UNL     1      -9.983  -4.968  -3.986  1.00  0.00     0.124 S 
ATOM     77  O   UNL     1     -10.167  -6.161  -4.806  1.00  0.00    -0.237 OA
ATOM     78  O   UNL     1     -11.086  -4.645  -3.084  1.00  0.00    -0.237 OA
ATOM     79  O   UNL     1      -9.393  -3.820  -4.670  1.00  0.00    -0.744 OA
ENDBRANCH  75  76
ENDBRANCH  47  70
BRANCH  59  80
ATOM     80  C   UNL     1      -3.389 -12.211   0.453  1.00  0.00    -0.014 A 
ATOM     81  C   UNL     1      -2.836 -12.531  -0.799  1.00  0.00     0.010 A 
ATOM     82  C   UNL     1      -4.008 -13.223   1.211  1.00  0.00     0.010 A 
ATOM     83  C   UNL     1      -2.923 -13.834  -1.296  1.00  0.00     0.020 A 
ATOM     84  C   UNL     1      -4.077 -14.531   0.726  1.00  0.00     0.020 A 
ATOM     85  C   UNL     1      -3.546 -14.825  -0.532  1.00  0.00     0.054 A 
BRANCH  85  86
ATOM     86  S   UNL     1      -3.607 -16.520  -1.176  1.00  0.00     0.124 S 
ATOM     87  O   UNL     1      -4.686 -16.434  -2.155  1.00  0.00    -0.237 OA
ATOM     88  O   UNL     1      -2.268 -16.704  -1.730  1.00  0.00    -0.237 OA
ATOM     89  O   UNL     1      -3.899 -17.328   0.006  1.00  0.00    -0.744 OA
ENDBRANCH  85  86
ENDBRANCH  59  80
ENDBRANCH  33  34
ENDBRANCH  25  28
ENDBRANCH  23  24
ENDBRANCH  22  23
ENDBRANCH  21  22
ENDBRANCH   1  21
TORSDOF 19
