REMARK SMILES CC[C@H]1CCC[C@H](O[C@@H]2CC[C@]([NH2+]C(C)C)(C(=O)NCCCCCCNC(=O)c3ccc(-c4c5nc(c(-c6ccc(S(=O)(=O)[O-])cc6)c6ccc([nH]6)c(-c6ccc(S(=O)(=O)[O-])cc6)c6nc(c(-c7ccc(S(=O)(=O)[O-])cc7)c7ccc4[nH]7)C=C6)C=C5)cc3)C2)C1
REMARK SMILES IDX 22 1 21 2 20 3 19 4 17 5 18 6 12 8 9 9 10 10 89 11 11 12
REMARK SMILES IDX 8 13 7 14 3 15 4 16 90 17 5 18 6 19 2 20 1 21 13 22 14 25
REMARK SMILES IDX 15 26 16 27 23 28 24 29 25 30 26 31 27 32 28 34 29 35 30 36
REMARK SMILES IDX 88 37 31 38 87 39 32 40 33 41 34 42 81 43 35 44 86 45 80 46
REMARK SMILES IDX 82 47 36 48 85 49 79 50 78 51 37 53 67 54 48 55 66 56 49 57
REMARK SMILES IDX 52 58 65 59 83 60 50 61 51 62 64 64 84 65 53 66 38 67 39 68
REMARK SMILES IDX 47 69 40 70 46 71 41 72 42 73 43 74 44 75 45 76 68 77 69 78
REMARK SMILES IDX 77 79 70 80 76 81 71 82 72 83 73 84 74 85 75 86 54 87 55 88
REMARK SMILES IDX 63 89 56 90 62 91 57 92 58 93 59 94 60 95 61 96
REMARK H PARENT 19 7 13 23 13 24 26 33 82 52 52 63
REMARK Flexibility Score: inf
ROOT
ATOM      1  C   UNL     1       2.535   2.889   3.214  1.00  0.00     0.002 C 
ENDROOT
BRANCH   1   2
ATOM      2  C   UNL     1       2.621   3.063   1.698  1.00  0.00     0.021 C 
BRANCH   2   3
ATOM      3  C   UNL     1       3.741   2.344   0.947  1.00  0.00     0.116 C 
BRANCH   3   4
ATOM      4  N   UNL     1       3.842   0.915   1.196  1.00  0.00    -0.351 N 
ATOM      5  C   UNL     1       4.659  -0.044   0.647  1.00  0.00     0.281 C 
ATOM      6  O   UNL     1       4.654  -1.145   1.213  1.00  0.00    -0.268 OA
ATOM      7  H   UNL     1       3.216   0.575   1.875  1.00  0.00     0.163 HD
BRANCH   5   8
ATOM      8  C   UNL     1       5.540   0.205  -0.626  1.00  0.00     0.178 C 
ATOM      9  C   UNL     1       5.193   0.613  -3.047  1.00  0.00     0.125 C 
ATOM     10  C   UNL     1       5.837  -0.767  -2.908  1.00  0.00     0.039 C 
ATOM     11  C   UNL     1       4.721   0.977  -1.658  1.00  0.00     0.111 C 
ATOM     12  C   UNL     1       5.743  -1.124  -1.411  1.00  0.00     0.082 C 
BRANCH   9  13
ATOM     13  O   UNL     1       4.242   0.824  -4.094  1.00  0.00    -0.375 OA
BRANCH  13  14
ATOM     14  C   UNL     1       2.874   0.381  -4.045  1.00  0.00     0.118 C 
ATOM     15  C   UNL     1       0.605   0.620  -2.712  1.00  0.00    -0.009 C 
ATOM     16  C   UNL     1       0.756  -0.885  -2.454  1.00  0.00     0.004 C 
ATOM     17  C   UNL     1       1.925   1.272  -3.195  1.00  0.00     0.035 C 
ATOM     18  C   UNL     1       1.327  -1.597  -3.668  1.00  0.00     0.003 C 
ATOM     19  C   UNL     1       2.756  -1.131  -3.861  1.00  0.00     0.032 C 
BRANCH  15  20
ATOM     20  C   UNL     1      -0.544   0.976  -3.679  1.00  0.00     0.000 C 
ATOM     21  C   UNL     1      -1.860   0.267  -3.389  1.00  0.00     0.004 C 
ENDBRANCH  15  20
ENDBRANCH  13  14
ENDBRANCH   9  13
BRANCH   8  22
ATOM     22  N   UNL     1       6.856   0.839  -0.387  1.00  0.00    -0.332 N 
ATOM     23  H   UNL     1       6.741   1.839  -0.554  1.00  0.00     0.347 HD
ATOM     24  H   UNL     1       7.486   0.344  -1.017  1.00  0.00     0.347 HD
BRANCH  22  25
ATOM     25  C   UNL     1       7.484   0.692   0.933  1.00  0.00     0.176 C 
ATOM     26  C   UNL     1       8.998   0.869   0.772  1.00  0.00     0.075 C 
ATOM     27  C   UNL     1       7.006   1.764   1.915  1.00  0.00     0.075 C 
ENDBRANCH  22  25
ENDBRANCH   8  22
ENDBRANCH   5   8
ENDBRANCH   3   4
ENDBRANCH   2   3
ENDBRANCH   1   2
BRANCH   1  28
ATOM     28  C   UNL     1       3.824   3.011   4.024  1.00  0.00     0.002 C 
BRANCH  28  29
ATOM     29  C   UNL     1       4.649   4.286   3.849  1.00  0.00     0.021 C 
BRANCH  29  30
ATOM     30  C   UNL     1       3.907   5.605   4.029  1.00  0.00     0.116 C 
BRANCH  30  31
ATOM     31  N   UNL     1       3.250   5.730   5.317  1.00  0.00    -0.352 N 
ATOM     32  C   UNL     1       3.194   6.803   6.178  1.00  0.00     0.251 C 
ATOM     33  H   UNL     1       2.771   4.926   5.621  1.00  0.00     0.163 HD
ATOM     34  O   UNL     1       2.662   6.670   7.272  1.00  0.00    -0.269 OA
BRANCH  32  35
ATOM     35  C   UNL     1       3.799   8.105   5.802  1.00  0.00     0.039 A 
ATOM     36  C   UNL     1       4.511   8.816   6.773  1.00  0.00     0.014 A 
ATOM     37  C   UNL     1       3.655   8.639   4.519  1.00  0.00     0.014 A 
ATOM     38  C   UNL     1       5.121  10.030   6.443  1.00  0.00     0.010 A 
ATOM     39  C   UNL     1       4.327   9.810   4.170  1.00  0.00     0.010 A 
ATOM     40  C   UNL     1       5.060  10.524   5.130  1.00  0.00    -0.014 A 
BRANCH  40  41
ATOM     41  C   UNL     1       5.732  11.796   4.749  1.00  0.00     0.031 A 
ATOM     42  C   UNL     1       4.914  12.969   4.275  1.00  0.00     0.074 A 
ATOM     43  C   UNL     1       7.077  11.882   4.783  1.00  0.00     0.049 A 
ATOM     44  N   UNL     1       5.318  14.136   3.842  1.00  0.00    -0.248 NA
ATOM     45  C   UNL     1       3.451  12.800   4.262  1.00  0.00     0.031 C 
ATOM     46  C   UNL     1       7.987  10.810   5.196  1.00  0.00     0.029 A 
ATOM     47  N   UNL     1       7.917  12.921   4.462  1.00  0.00    -0.354 N 
ATOM     48  C   UNL     1       4.165  14.833   3.497  1.00  0.00     0.074 A 
ATOM     49  C   UNL     1       3.050  13.938   3.714  1.00  0.00     0.031 C 
ATOM     50  C   UNL     1       9.252  11.256   5.131  1.00  0.00     0.029 A 
ATOM     51  C   UNL     1       9.251  12.627   4.630  1.00  0.00     0.049 A 
ATOM     52  H   UNL     1       7.595  13.794   4.141  1.00  0.00     0.167 HD
ATOM     53  C   UNL     1       4.041  16.109   3.060  1.00  0.00     0.031 A 
ATOM     54  C   UNL     1      10.349  13.373   4.400  1.00  0.00     0.031 A 
ATOM     55  C   UNL     1       5.150  17.002   2.855  1.00  0.00     0.049 A 
ATOM     56  C   UNL     1      10.185  14.780   3.889  1.00  0.00     0.074 A 
ATOM     57  C   UNL     1       5.125  18.327   2.453  1.00  0.00     0.029 A 
ATOM     58  N   UNL     1       6.483  16.666   3.039  1.00  0.00    -0.354 N 
ATOM     59  N   UNL     1       9.082  15.436   3.617  1.00  0.00    -0.248 NA
ATOM     60  C   UNL     1      11.416  15.554   3.669  1.00  0.00     0.031 C 
ATOM     61  C   UNL     1       6.445  18.775   2.343  1.00  0.00     0.029 A 
ATOM     62  C   UNL     1       7.289  17.751   2.741  1.00  0.00     0.049 A 
ATOM     63  H   UNL     1       6.807  15.786   3.338  1.00  0.00     0.167 HD
ATOM     64  C   UNL     1       9.485  16.710   3.231  1.00  0.00     0.074 A 
ATOM     65  C   UNL     1      10.931  16.736   3.317  1.00  0.00     0.031 C 
ATOM     66  C   UNL     1       8.727  17.765   2.842  1.00  0.00     0.031 A 
BRANCH  53  67
ATOM     67  C   UNL     1       2.651  16.620   2.776  1.00  0.00    -0.014 A 
ATOM     68  C   UNL     1       1.733  16.845   3.818  1.00  0.00     0.010 A 
ATOM     69  C   UNL     1       2.274  16.930   1.456  1.00  0.00     0.010 A 
ATOM     70  C   UNL     1       0.454  17.334   3.543  1.00  0.00     0.020 A 
ATOM     71  C   UNL     1       1.005  17.450   1.180  1.00  0.00     0.020 A 
ATOM     72  C   UNL     1       0.098  17.634   2.225  1.00  0.00     0.054 A 
BRANCH  72  73
ATOM     73  S   UNL     1      -1.558  18.300   1.905  1.00  0.00     0.124 S 
ATOM     74  O   UNL     1      -2.403  17.132   2.140  1.00  0.00    -0.237 OA
ATOM     75  O   UNL     1      -1.671  19.367   2.897  1.00  0.00    -0.237 OA
ATOM     76  O   UNL     1      -1.490  18.749   0.516  1.00  0.00    -0.744 OA
ENDBRANCH  72  73
ENDBRANCH  53  67
BRANCH  54  77
ATOM     77  C   UNL     1      11.706  12.814   4.659  1.00  0.00    -0.014 A 
ATOM     78  C   UNL     1      12.505  13.325   5.698  1.00  0.00     0.010 A 
ATOM     79  C   UNL     1      12.216  11.777   3.856  1.00  0.00     0.010 A 
ATOM     80  C   UNL     1      13.798  12.834   5.907  1.00  0.00     0.020 A 
ATOM     81  C   UNL     1      13.495  11.261   4.083  1.00  0.00     0.020 A 
ATOM     82  C   UNL     1      14.285  11.806   5.097  1.00  0.00     0.054 A 
BRANCH  82  83
ATOM     83  S   UNL     1      15.956  11.168   5.401  1.00  0.00     0.124 S 
ATOM     84  O   UNL     1      16.791  12.259   4.910  1.00  0.00    -0.237 OA
ATOM     85  O   UNL     1      15.958  10.970   6.849  1.00  0.00    -0.237 OA
ATOM     86  O   UNL     1      16.002   9.939   4.612  1.00  0.00    -0.744 OA
ENDBRANCH  82  83
ENDBRANCH  54  77
BRANCH  66  87
ATOM     87  C   UNL     1       9.438  19.057   2.533  1.00  0.00    -0.014 A 
ATOM     88  C   UNL     1      10.234  19.202   1.383  1.00  0.00     0.010 A 
ATOM     89  C   UNL     1       9.260  20.162   3.386  1.00  0.00     0.010 A 
ATOM     90  C   UNL     1      10.870  20.417   1.113  1.00  0.00     0.020 A 
ATOM     91  C   UNL     1       9.867  21.388   3.102  1.00  0.00     0.020 A 
ATOM     92  C   UNL     1      10.682  21.502   1.975  1.00  0.00     0.054 A 
BRANCH  92  93
ATOM     93  S   UNL     1      11.486  23.079   1.580  1.00  0.00     0.124 S 
ATOM     94  O   UNL     1      12.884  22.792   1.884  1.00  0.00    -0.237 OA
ATOM     95  O   UNL     1      11.172  23.252   0.164  1.00  0.00    -0.237 OA
ATOM     96  O   UNL     1      10.837  24.034   2.477  1.00  0.00    -0.744 OA
ENDBRANCH  92  93
ENDBRANCH  66  87
ENDBRANCH  40  41
ENDBRANCH  32  35
ENDBRANCH  30  31
ENDBRANCH  29  30
ENDBRANCH  28  29
ENDBRANCH   1  28
TORSDOF 21
