REMARK SMILES CC(C)c1cc2c(cc1Cl)C=C(C(=O)NCCCCCCNC(=O)c1ccc(-c3c4nc(c(-c5ccc(S(=O)(=O)[O-])cc5)c5ccc([nH]5)c(-c5ccc(S(=O)(=O)[O-])cc5)c5nc(c(-c6ccc(S(=O)(=O)[O-])cc6)c6ccc3[nH]6)C=C5)C=C4)cc1)[C@@H](C(F)(F)F)O2
REMARK SMILES IDX 19 1 18 2 17 3 16 4 15 5 13 6 14 7 12 9 4 10 5 11 9 12 6 13
REMARK SMILES IDX 8 14 10 15 7 16 90 17 11 18 85 19 2 20 1 21 3 22 86 23 87 24
REMARK SMILES IDX 88 25 89 26 20 27 21 28 22 29 23 30 24 32 25 33 26 34 84 35
REMARK SMILES IDX 27 36 83 37 28 38 29 39 30 40 77 41 31 42 82 43 76 44 78 45
REMARK SMILES IDX 32 46 81 47 75 48 74 49 33 51 63 52 44 53 62 54 45 55 48 56
REMARK SMILES IDX 61 57 79 58 46 59 47 60 60 62 80 63 49 64 34 65 35 66 43 67
REMARK SMILES IDX 36 68 42 69 37 70 38 71 39 72 40 73 41 74 64 75 65 76 73 77
REMARK SMILES IDX 66 78 72 79 67 80 68 81 69 82 70 83 71 84 50 85 51 86 59 87
REMARK SMILES IDX 52 88 58 89 53 90 54 91 55 92 56 93 57 94
REMARK H PARENT 15 8 22 31 78 50 48 61
REMARK Flexibility Score: inf
ROOT
ATOM      1  C   UNL     1     -10.357  -6.101  -1.183  1.00  0.00     0.002 C 
ENDROOT
BRANCH   1   2
ATOM      2  C   UNL     1      -9.839  -5.267  -0.003  1.00  0.00     0.002 C 
BRANCH   2   3
ATOM      3  C   UNL     1      -8.331  -4.999   0.007  1.00  0.00     0.021 C 
BRANCH   3   4
ATOM      4  C   UNL     1      -7.809  -4.320  -1.257  1.00  0.00     0.116 C 
BRANCH   4   5
ATOM      5  N   UNL     1      -7.969  -2.877  -1.200  1.00  0.00    -0.352 N 
ATOM      6  C   UNL     1      -7.170  -1.784  -1.223  1.00  0.00     0.251 C 
ATOM      7  O   UNL     1      -7.765  -0.701  -1.183  1.00  0.00    -0.270 OA
ATOM      8  H   UNL     1      -8.917  -2.625  -1.123  1.00  0.00     0.163 HD
BRANCH   6   9
ATOM      9  C   UNL     1      -5.678  -1.798  -1.286  1.00  0.00     0.067 C 
ATOM     10  C   UNL     1      -0.776  -0.489  -1.230  1.00  0.00    -0.023 A 
ATOM     11  C   UNL     1      -1.493  -1.689  -1.083  1.00  0.00     0.052 A 
ATOM     12  C   UNL     1      -1.529   0.691  -1.412  1.00  0.00     0.045 A 
ATOM     13  C   UNL     1      -2.887  -1.710  -1.127  1.00  0.00     0.128 A 
ATOM     14  C   UNL     1      -2.933   0.669  -1.412  1.00  0.00     0.032 A 
ATOM     15  Cl  UNL     1      -0.780   2.233  -1.657  1.00  0.00    -0.084 Cl
ATOM     16  C   UNL     1      -3.618  -0.536  -1.265  1.00  0.00     0.019 A 
ATOM     17  O   UNL     1      -3.477  -2.931  -0.983  1.00  0.00    -0.475 OA
ATOM     18  C   UNL     1      -5.074  -0.596  -1.208  1.00  0.00     0.025 C 
ATOM     19  C   UNL     1      -4.846  -3.039  -1.460  1.00  0.00     0.314 C 
BRANCH  10  20
ATOM     20  C   UNL     1       0.749  -0.482  -1.171  1.00  0.00     0.014 C 
ATOM     21  C   UNL     1       1.240   0.060   0.178  1.00  0.00     0.012 C 
ATOM     22  C   UNL     1       1.415  -1.846  -1.419  1.00  0.00     0.012 C 
ENDBRANCH  10  20
BRANCH  19  23
ATOM     23  C   UNL     1      -4.852  -3.542  -2.916  1.00  0.00     0.429 C 
ATOM     24  F   UNL     1      -4.344  -4.795  -2.992  1.00  0.00    -0.167 F 
ATOM     25  F   UNL     1      -6.103  -3.602  -3.433  1.00  0.00    -0.167 F 
ATOM     26  F   UNL     1      -4.125  -2.754  -3.740  1.00  0.00    -0.167 F 
ENDBRANCH  19  23
ENDBRANCH   6   9
ENDBRANCH   4   5
ENDBRANCH   3   4
ENDBRANCH   2   3
ENDBRANCH   1   2
BRANCH   1  27
ATOM     27  C   UNL     1      -9.585  -7.389  -1.476  1.00  0.00     0.021 C 
BRANCH  27  28
ATOM     28  C   UNL     1      -9.517  -8.377  -0.317  1.00  0.00     0.116 C 
BRANCH  28  29
ATOM     29  N   UNL     1     -10.825  -8.887   0.059  1.00  0.00    -0.352 N 
ATOM     30  C   UNL     1     -11.229 -10.190   0.231  1.00  0.00     0.251 C 
ATOM     31  H   UNL     1     -11.518  -8.205   0.213  1.00  0.00     0.163 HD
ATOM     32  O   UNL     1     -12.416 -10.450   0.402  1.00  0.00    -0.269 OA
BRANCH  30  33
ATOM     33  C   UNL     1     -10.227 -11.276   0.174  1.00  0.00     0.039 A 
ATOM     34  C   UNL     1      -9.022 -11.168   0.873  1.00  0.00     0.014 A 
ATOM     35  C   UNL     1     -10.488 -12.404  -0.609  1.00  0.00     0.014 A 
ATOM     36  C   UNL     1      -8.020 -12.111   0.666  1.00  0.00     0.010 A 
ATOM     37  C   UNL     1      -9.507 -13.389  -0.754  1.00  0.00     0.010 A 
ATOM     38  C   UNL     1      -8.249 -13.229  -0.153  1.00  0.00    -0.014 A 
BRANCH  38  39
ATOM     39  C   UNL     1      -7.160 -14.219  -0.360  1.00  0.00     0.031 A 
ATOM     40  C   UNL     1      -6.535 -14.403  -1.717  1.00  0.00     0.074 A 
ATOM     41  C   UNL     1      -6.692 -14.910   0.698  1.00  0.00     0.049 A 
ATOM     42  N   UNL     1      -5.556 -15.198  -2.066  1.00  0.00    -0.248 NA
ATOM     43  C   UNL     1      -7.069 -13.592  -2.824  1.00  0.00     0.031 C 
ATOM     44  C   UNL     1      -7.204 -14.796   2.066  1.00  0.00     0.029 A 
ATOM     45  N   UNL     1      -5.667 -15.816   0.801  1.00  0.00    -0.354 N 
ATOM     46  C   UNL     1      -5.364 -14.993  -3.428  1.00  0.00     0.074 A 
ATOM     47  C   UNL     1      -6.347 -14.021  -3.851  1.00  0.00     0.031 C 
ATOM     48  C   UNL     1      -6.452 -15.551   2.879  1.00  0.00     0.029 A 
ATOM     49  C   UNL     1      -5.450 -16.257   2.085  1.00  0.00     0.049 A 
ATOM     50  H   UNL     1      -5.138 -16.122   0.029  1.00  0.00     0.167 HD
ATOM     51  C   UNL     1      -4.442 -15.555  -4.245  1.00  0.00     0.031 A 
ATOM     52  C   UNL     1      -4.553 -17.135   2.577  1.00  0.00     0.031 A 
ATOM     53  C   UNL     1      -3.460 -16.516  -3.814  1.00  0.00     0.049 A 
ATOM     54  C   UNL     1      -3.575 -17.783   1.642  1.00  0.00     0.074 A 
ATOM     55  C   UNL     1      -2.483 -17.138  -4.572  1.00  0.00     0.029 A 
ATOM     56  N   UNL     1      -3.322 -16.988  -2.518  1.00  0.00    -0.354 N 
ATOM     57  N   UNL     1      -3.418 -17.582   0.355  1.00  0.00    -0.248 NA
ATOM     58  C   UNL     1      -2.658 -18.777   2.215  1.00  0.00     0.031 C 
ATOM     59  C   UNL     1      -1.790 -18.027  -3.747  1.00  0.00     0.029 A 
ATOM     60  C   UNL     1      -2.291 -17.911  -2.460  1.00  0.00     0.049 A 
ATOM     61  H   UNL     1      -3.874 -16.709  -1.752  1.00  0.00     0.167 HD
ATOM     62  C   UNL     1      -2.382 -18.422  -0.035  1.00  0.00     0.074 A 
ATOM     63  C   UNL     1      -1.934 -19.116   1.155  1.00  0.00     0.031 C 
ATOM     64  C   UNL     1      -1.858 -18.604  -1.271  1.00  0.00     0.031 A 
BRANCH  51  65
ATOM     65  C   UNL     1      -4.434 -15.154  -5.697  1.00  0.00    -0.014 A 
ATOM     66  C   UNL     1      -4.799 -16.090  -6.683  1.00  0.00     0.010 A 
ATOM     67  C   UNL     1      -3.948 -13.896  -6.095  1.00  0.00     0.010 A 
ATOM     68  C   UNL     1      -4.651 -15.787  -8.040  1.00  0.00     0.020 A 
ATOM     69  C   UNL     1      -3.822 -13.580  -7.451  1.00  0.00     0.020 A 
ATOM     70  C   UNL     1      -4.153 -14.537  -8.415  1.00  0.00     0.054 A 
BRANCH  70  71
ATOM     71  S   UNL     1      -3.945 -14.168 -10.179  1.00  0.00     0.124 S 
ATOM     72  O   UNL     1      -2.729 -14.907 -10.507  1.00  0.00    -0.237 OA
ATOM     73  O   UNL     1      -5.178 -14.689 -10.763  1.00  0.00    -0.237 OA
ATOM     74  O   UNL     1      -3.821 -12.712 -10.210  1.00  0.00    -0.744 OA
ENDBRANCH  70  71
ENDBRANCH  51  65
BRANCH  52  75
ATOM     75  C   UNL     1      -4.553 -17.422   4.037  1.00  0.00    -0.014 A 
ATOM     76  C   UNL     1      -5.639 -18.096   4.628  1.00  0.00     0.010 A 
ATOM     77  C   UNL     1      -3.522 -16.934   4.859  1.00  0.00     0.010 A 
ATOM     78  C   UNL     1      -5.730 -18.216   6.016  1.00  0.00     0.020 A 
ATOM     79  C   UNL     1      -3.595 -17.079   6.248  1.00  0.00     0.020 A 
ATOM     80  C   UNL     1      -4.715 -17.689   6.819  1.00  0.00     0.054 A 
BRANCH  80  81
ATOM     81  S   UNL     1      -4.884 -17.795   8.622  1.00  0.00     0.124 S 
ATOM     82  O   UNL     1      -5.823 -16.710   8.897  1.00  0.00    -0.237 OA
ATOM     83  O   UNL     1      -5.407 -19.145   8.817  1.00  0.00    -0.237 OA
ATOM     84  O   UNL     1      -3.522 -17.582   9.104  1.00  0.00    -0.744 OA
ENDBRANCH  80  81
ENDBRANCH  52  75
BRANCH  64  85
ATOM     85  C   UNL     1      -0.741 -19.599  -1.429  1.00  0.00    -0.014 A 
ATOM     86  C   UNL     1       0.556 -19.150  -1.742  1.00  0.00     0.010 A 
ATOM     87  C   UNL     1      -1.003 -20.980  -1.407  1.00  0.00     0.010 A 
ATOM     88  C   UNL     1       1.562 -20.062  -2.067  1.00  0.00     0.020 A 
ATOM     89  C   UNL     1       0.008 -21.897  -1.707  1.00  0.00     0.020 A 
ATOM     90  C   UNL     1       1.277 -21.430  -2.061  1.00  0.00     0.054 A 
BRANCH  90  91
ATOM     91  S   UNL     1       2.583 -22.599  -2.527  1.00  0.00     0.124 S 
ATOM     92  O   UNL     1       2.596 -22.480  -3.982  1.00  0.00    -0.237 OA
ATOM     93  O   UNL     1       3.756 -22.062  -1.841  1.00  0.00    -0.237 OA
ATOM     94  O   UNL     1       2.100 -23.877  -2.009  1.00  0.00    -0.744 OA
ENDBRANCH  90  91
ENDBRANCH  64  85
ENDBRANCH  38  39
ENDBRANCH  30  33
ENDBRANCH  28  29
ENDBRANCH  27  28
ENDBRANCH   1  27
TORSDOF 18
