REMARK SMILES CC1=C(C(=O)NCCCCCCNC(=O)c2ccc(-c3c4nc(c(-c5ccc(S(=O)(=O)[O-])cc5)c5ccc([nH]5)c(-c5ccc(S(=O)(=O)[O-])cc5)c5nc(c(-c6ccc(S(=O)(=O)[O-])cc6)c6ccc3[nH]6)C=C5)C=C4)cc2)N2C(=O)[C@H](NC(=O)c3cc(C(F)(F)F)nn3C)[C@@H]2SC1
REMARK SMILES IDX 9 1 8 2 7 3 6 4 4 5 5 6 3 8 1 9 2 10 95 11 76 12 94 13 77 14
REMARK SMILES IDX 93 15 78 16 79 17 80 18 81 19 82 21 83 22 84 23 91 24 85 25
REMARK SMILES IDX 90 26 92 27 86 28 87 29 88 30 89 31 10 32 11 33 12 34 13 35
REMARK SMILES IDX 14 36 15 38 16 39 17 40 75 41 18 42 74 43 19 44 20 45 21 46
REMARK SMILES IDX 68 47 22 48 73 49 67 50 69 51 23 52 72 53 66 54 65 55 24 57
REMARK SMILES IDX 54 58 35 59 53 60 36 61 39 62 52 63 70 64 37 65 38 66 51 68
REMARK SMILES IDX 71 69 40 70 25 71 26 72 34 73 27 74 33 75 28 76 29 77 30 78
REMARK SMILES IDX 31 79 32 80 55 81 56 82 64 83 57 84 63 85 58 86 59 87 60 88
REMARK SMILES IDX 61 89 62 90 41 91 42 92 50 93 43 94 49 95 44 96 45 97 46 98
REMARK SMILES IDX 47 99 48 100
REMARK H PARENT 6 7 80 20 13 37 69 56 39 67
REMARK Flexibility Score: inf
ROOT
ATOM      1  C   UNL     1      -0.032  -4.005   0.728  1.00  0.00     0.002 C 
ENDROOT
BRANCH   1   2
ATOM      2  C   UNL     1       0.486  -2.572   0.582  1.00  0.00     0.021 C 
BRANCH   2   3
ATOM      3  C   UNL     1      -0.599  -1.542   0.231  1.00  0.00     0.116 C 
BRANCH   3   4
ATOM      4  N   UNL     1      -1.097  -0.962   1.460  1.00  0.00    -0.351 N 
ATOM      5  C   UNL     1      -0.787   0.181   2.121  1.00  0.00     0.268 C 
ATOM      6  O   UNL     1      -1.119   0.257   3.309  1.00  0.00    -0.268 OA
ATOM      7  H   UNL     1      -1.793  -1.500   1.901  1.00  0.00     0.163 HD
BRANCH   5   8
ATOM      8  C   UNL     1      -0.146   1.391   1.478  1.00  0.00     0.110 C 
ATOM      9  C   UNL     1       2.002   0.353   0.606  1.00  0.00     0.043 C 
ATOM     10  C   UNL     1       1.035   1.485   0.816  1.00  0.00    -0.034 C 
ATOM     11  C   UNL     1       1.597   2.779   0.227  1.00  0.00     0.104 C 
ATOM     12  N   UNL     1      -0.787   2.552   1.790  1.00  0.00    -0.290 N 
ATOM     13  S   UNL     1       0.575   4.269   0.398  1.00  0.00    -0.129 SA
ATOM     14  C   UNL     1      -2.003   2.962   2.191  1.00  0.00     0.253 C 
ATOM     15  C   UNL     1      -0.082   3.788   2.012  1.00  0.00     0.181 C 
ATOM     16  O   UNL     1      -3.088   2.423   2.249  1.00  0.00    -0.272 OA
ATOM     17  C   UNL     1      -1.445   4.394   2.457  1.00  0.00     0.206 C 
BRANCH  17  18
ATOM     18  N   UNL     1      -1.992   5.490   1.623  1.00  0.00    -0.336 N 
ATOM     19  C   UNL     1      -2.127   6.818   1.936  1.00  0.00     0.270 C 
ATOM     20  H   UNL     1      -2.299   5.230   0.725  1.00  0.00     0.164 HD
ATOM     21  O   UNL     1      -2.678   7.558   1.126  1.00  0.00    -0.268 OA
BRANCH  19  22
ATOM     22  C   UNL     1      -1.661   7.279   3.221  1.00  0.00     0.126 A 
ATOM     23  C   UNL     1      -0.465   7.064   3.885  1.00  0.00     0.069 A 
ATOM     24  N   UNL     1      -2.367   8.122   4.041  1.00  0.00    -0.262 N 
ATOM     25  C   UNL     1      -0.572   7.739   5.130  1.00  0.00     0.167 A 
ATOM     26  N   UNL     1      -1.751   8.382   5.213  1.00  0.00    -0.168 NA
ATOM     27  C   UNL     1      -3.683   8.682   3.829  1.00  0.00     0.174 C 
BRANCH  25  28
ATOM     28  C   UNL     1       0.448   7.757   6.239  1.00  0.00     0.435 C 
ATOM     29  F   UNL     1       0.955   8.997   6.467  1.00  0.00    -0.164 F 
ATOM     30  F   UNL     1      -0.058   7.308   7.419  1.00  0.00    -0.164 F 
ATOM     31  F   UNL     1       1.511   6.954   5.952  1.00  0.00    -0.164 F 
ENDBRANCH  25  28
ENDBRANCH  19  22
ENDBRANCH  17  18
ENDBRANCH   5   8
ENDBRANCH   3   4
ENDBRANCH   2   3
ENDBRANCH   1   2
BRANCH   1  32
ATOM     32  C   UNL     1      -0.391  -4.687  -0.594  1.00  0.00     0.002 C 
BRANCH  32  33
ATOM     33  C   UNL     1       0.733  -4.728  -1.635  1.00  0.00     0.021 C 
BRANCH  33  34
ATOM     34  C   UNL     1       2.024  -5.393  -1.162  1.00  0.00     0.116 C 
BRANCH  34  35
ATOM     35  N   UNL     1       1.826  -6.803  -0.865  1.00  0.00    -0.352 N 
ATOM     36  C   UNL     1       2.384  -7.904  -1.467  1.00  0.00     0.251 C 
ATOM     37  H   UNL     1       1.204  -6.995  -0.127  1.00  0.00     0.163 HD
ATOM     38  O   UNL     1       1.915  -9.019  -1.259  1.00  0.00    -0.269 OA
BRANCH  36  39
ATOM     39  C   UNL     1       3.543  -7.742  -2.371  1.00  0.00     0.039 A 
ATOM     40  C   UNL     1       3.562  -8.434  -3.585  1.00  0.00     0.014 A 
ATOM     41  C   UNL     1       4.620  -6.929  -2.009  1.00  0.00     0.014 A 
ATOM     42  C   UNL     1       4.639  -8.268  -4.459  1.00  0.00     0.010 A 
ATOM     43  C   UNL     1       5.660  -6.712  -2.909  1.00  0.00     0.010 A 
ATOM     44  C   UNL     1       5.684  -7.385  -4.141  1.00  0.00    -0.014 A 
BRANCH  44  45
ATOM     45  C   UNL     1       6.814  -7.155  -5.076  1.00  0.00     0.031 A 
ATOM     46  C   UNL     1       8.210  -7.560  -4.688  1.00  0.00     0.074 A 
ATOM     47  C   UNL     1       6.595  -6.524  -6.246  1.00  0.00     0.049 A 
ATOM     48  N   UNL     1       9.332  -7.385  -5.340  1.00  0.00    -0.248 NA
ATOM     49  C   UNL     1       8.370  -8.226  -3.386  1.00  0.00     0.031 C 
ATOM     50  C   UNL     1       5.293  -6.054  -6.724  1.00  0.00     0.029 A 
ATOM     51  N   UNL     1       7.464  -6.164  -7.245  1.00  0.00    -0.354 N 
ATOM     52  C   UNL     1      10.329  -7.904  -4.522  1.00  0.00     0.074 A 
ATOM     53  C   UNL     1       9.686  -8.352  -3.306  1.00  0.00     0.031 C 
ATOM     54  C   UNL     1       5.445  -5.495  -7.936  1.00  0.00     0.029 A 
ATOM     55  C   UNL     1       6.857  -5.529  -8.302  1.00  0.00     0.049 A 
ATOM     56  H   UNL     1       8.432  -6.343  -7.207  1.00  0.00     0.167 HD
ATOM     57  C   UNL     1      11.657  -8.016  -4.767  1.00  0.00     0.031 A 
ATOM     58  C   UNL     1       7.378  -5.028  -9.439  1.00  0.00     0.031 A 
ATOM     59  C   UNL     1      12.293  -7.573  -5.980  1.00  0.00     0.049 A 
ATOM     60  C   UNL     1       8.857  -5.144  -9.683  1.00  0.00     0.074 A 
ATOM     61  C   UNL     1      13.623  -7.681  -6.345  1.00  0.00     0.029 A 
ATOM     62  N   UNL     1      11.642  -6.934  -7.025  1.00  0.00    -0.354 N 
ATOM     63  N   UNL     1       9.777  -5.685  -8.920  1.00  0.00    -0.248 NA
ATOM     64  C   UNL     1       9.366  -4.592 -10.946  1.00  0.00     0.031 C 
ATOM     65  C   UNL     1      13.786  -7.064  -7.590  1.00  0.00     0.029 A 
ATOM     66  C   UNL     1      12.547  -6.621  -8.026  1.00  0.00     0.049 A 
ATOM     67  H   UNL     1      10.679  -6.731  -7.052  1.00  0.00     0.167 HD
ATOM     68  C   UNL     1      10.971  -5.562  -9.622  1.00  0.00     0.074 A 
ATOM     69  C   UNL     1      10.653  -4.905 -10.875  1.00  0.00     0.031 C 
ATOM     70  C   UNL     1      12.216  -5.961  -9.264  1.00  0.00     0.031 A 
BRANCH  57  71
ATOM     71  C   UNL     1      12.508  -8.634  -3.688  1.00  0.00    -0.014 A 
ATOM     72  C   UNL     1      12.397 -10.000  -3.368  1.00  0.00     0.010 A 
ATOM     73  C   UNL     1      13.434  -7.842  -2.985  1.00  0.00     0.010 A 
ATOM     74  C   UNL     1      13.150 -10.548  -2.326  1.00  0.00     0.020 A 
ATOM     75  C   UNL     1      14.212  -8.393  -1.962  1.00  0.00     0.020 A 
ATOM     76  C   UNL     1      14.046  -9.737  -1.623  1.00  0.00     0.054 A 
BRANCH  76  77
ATOM     77  S   UNL     1      15.002 -10.469  -0.266  1.00  0.00     0.124 S 
ATOM     78  O   UNL     1      13.990 -10.590   0.781  1.00  0.00    -0.237 OA
ATOM     79  O   UNL     1      15.463 -11.730  -0.841  1.00  0.00    -0.237 OA
ATOM     80  O   UNL     1      16.049  -9.484  -0.009  1.00  0.00    -0.744 OA
ENDBRANCH  76  77
ENDBRANCH  57  71
BRANCH  58  81
ATOM     81  C   UNL     1       6.481  -4.397 -10.445  1.00  0.00    -0.014 A 
ATOM     82  C   UNL     1       6.196  -5.058 -11.653  1.00  0.00     0.010 A 
ATOM     83  C   UNL     1       5.880  -3.152 -10.187  1.00  0.00     0.010 A 
ATOM     84  C   UNL     1       5.330  -4.484 -12.587  1.00  0.00     0.020 A 
ATOM     85  C   UNL     1       4.994  -2.586 -11.108  1.00  0.00     0.020 A 
ATOM     86  C   UNL     1       4.729  -3.253 -12.306  1.00  0.00     0.054 A 
BRANCH  86  87
ATOM     87  S   UNL     1       3.552  -2.562 -13.501  1.00  0.00     0.124 S 
ATOM     88  O   UNL     1       4.435  -2.109 -14.570  1.00  0.00    -0.237 OA
ATOM     89  O   UNL     1       2.711  -3.714 -13.818  1.00  0.00    -0.237 OA
ATOM     90  O   UNL     1       2.884  -1.503 -12.747  1.00  0.00    -0.744 OA
ENDBRANCH  86  87
ENDBRANCH  58  81
BRANCH  70  91
ATOM     91  C   UNL     1      13.328  -5.727 -10.251  1.00  0.00    -0.014 A 
ATOM     92  C   UNL     1      13.839  -4.437 -10.481  1.00  0.00     0.010 A 
ATOM     93  C   UNL     1      13.907  -6.823 -10.916  1.00  0.00     0.010 A 
ATOM     94  C   UNL     1      14.892  -4.246 -11.380  1.00  0.00     0.020 A 
ATOM     95  C   UNL     1      14.977  -6.639 -11.794  1.00  0.00     0.020 A 
ATOM     96  C   UNL     1      15.455  -5.348 -12.031  1.00  0.00     0.054 A 
BRANCH  96  97
ATOM     97  S   UNL     1      16.853  -5.079 -13.155  1.00  0.00     0.124 S 
ATOM     98  O   UNL     1      16.197  -4.491 -14.319  1.00  0.00    -0.237 OA
ATOM     99  O   UNL     1      17.709  -4.174 -12.391  1.00  0.00    -0.237 OA
ATOM    100  O   UNL     1      17.398  -6.420 -13.357  1.00  0.00    -0.744 OA
ENDBRANCH  96  97
ENDBRANCH  70  91
ENDBRANCH  44  45
ENDBRANCH  36  39
ENDBRANCH  34  35
ENDBRANCH  33  34
ENDBRANCH  32  33
ENDBRANCH   1  32
TORSDOF 19
