REMARK SMILES CC[N@@H+](C)Cc1cc2c(cc1Cl)C=C(C(=O)NCCCCCCNC(=O)c1ccc(-c3c4nc(c(-c5ccc(S(=O)(=O)[O-])cc5)c5ccc([nH]5)c(-c5ccc(S(=O)(=O)[O-])cc5)c5nc(c(-c6ccc(S(=O)(=O)[O-])cc6)c6ccc3[nH]6)C=C5)C=C4)cc1)[C@@H](C(F)(F)F)O2
REMARK SMILES IDX 20 1 19 2 18 3 17 4 15 5 16 6 14 8 6 9 7 10 11 11 8 12 10 13
REMARK SMILES IDX 12 14 9 15 92 16 13 17 87 18 5 19 3 20 4 21 2 23 1 24 88 25
REMARK SMILES IDX 89 26 90 27 91 28 21 29 22 30 23 31 24 32 25 33 26 35 27 36
REMARK SMILES IDX 28 37 86 38 29 39 85 40 30 41 31 42 32 43 79 44 33 45 84 46
REMARK SMILES IDX 78 47 80 48 34 49 83 50 77 51 76 52 35 54 65 55 46 56 64 57
REMARK SMILES IDX 47 58 50 59 63 60 81 61 48 62 49 63 62 65 82 66 51 67 36 68
REMARK SMILES IDX 37 69 45 70 38 71 44 72 39 73 40 74 41 75 42 76 43 77 66 78
REMARK SMILES IDX 67 79 75 80 68 81 74 82 69 83 70 84 71 85 72 86 73 87 52 88
REMARK SMILES IDX 53 89 61 90 54 91 60 92 55 93 56 94 57 95 58 96 59 97
REMARK H PARENT 17 7 3 22 24 34 80 53 50 64
REMARK Flexibility Score: inf
ROOT
ATOM      1  C   UNL     1       4.346   7.760   9.898  1.00  0.00     0.002 C 
ENDROOT
BRANCH   1   2
ATOM      2  C   UNL     1       3.871   7.401   8.486  1.00  0.00     0.021 C 
BRANCH   2   3
ATOM      3  C   UNL     1       4.947   6.772   7.606  1.00  0.00     0.116 C 
BRANCH   3   4
ATOM      4  N   UNL     1       5.081   5.349   7.858  1.00  0.00    -0.352 N 
ATOM      5  C   UNL     1       4.963   4.200   7.156  1.00  0.00     0.251 C 
ATOM      6  O   UNL     1       5.192   3.170   7.800  1.00  0.00    -0.270 OA
ATOM      7  H   UNL     1       5.322   5.172   8.796  1.00  0.00     0.163 HD
BRANCH   5   8
ATOM      8  C   UNL     1       4.582   4.096   5.715  1.00  0.00     0.067 C 
ATOM      9  C   UNL     1       3.095   2.304   1.217  1.00  0.00     0.029 A 
ATOM     10  C   UNL     1       3.178   3.579   1.804  1.00  0.00     0.058 A 
ATOM     11  C   UNL     1       3.573   1.212   1.960  1.00  0.00     0.050 A 
ATOM     12  C   UNL     1       3.638   3.743   3.107  1.00  0.00     0.128 A 
ATOM     13  C   UNL     1       4.033   1.381   3.274  1.00  0.00     0.033 A 
ATOM     14  Cl  UNL     1       3.632  -0.394   1.326  1.00  0.00    -0.084 Cl
ATOM     15  C   UNL     1       4.044   2.647   3.859  1.00  0.00     0.019 A 
ATOM     16  O   UNL     1       3.598   5.009   3.607  1.00  0.00    -0.475 OA
ATOM     17  C   UNL     1       4.419   2.841   5.253  1.00  0.00     0.025 C 
ATOM     18  C   UNL     1       4.411   5.266   4.784  1.00  0.00     0.314 C 
BRANCH   9  19
ATOM     19  C   UNL     1       2.468   2.186  -0.160  1.00  0.00     0.300 C 
BRANCH  19  20
ATOM     20  N   UNL     1       0.991   2.222  -0.223  1.00  0.00    -0.334 N 
ATOM     21  C   UNL     1       0.422   3.506   0.182  1.00  0.00     0.333 C 
ATOM     22  H   UNL     1       0.796   2.099  -1.216  1.00  0.00     0.348 HD
BRANCH  20  23
ATOM     23  C   UNL     1       0.322   1.112   0.464  1.00  0.00     0.258 C 
ATOM     24  C   UNL     1       0.401  -0.184  -0.332  1.00  0.00     0.071 C 
ENDBRANCH  20  23
ENDBRANCH  19  20
ENDBRANCH   9  19
BRANCH  18  25
ATOM     25  C   UNL     1       5.757   5.869   4.345  1.00  0.00     0.429 C 
ATOM     26  F   UNL     1       5.568   7.070   3.749  1.00  0.00    -0.167 F 
ATOM     27  F   UNL     1       6.590   6.082   5.390  1.00  0.00    -0.167 F 
ATOM     28  F   UNL     1       6.415   5.074   3.470  1.00  0.00    -0.167 F 
ENDBRANCH  18  25
ENDBRANCH   5   8
ENDBRANCH   3   4
ENDBRANCH   2   3
ENDBRANCH   1   2
BRANCH   1  29
ATOM     29  C   UNL     1       5.558   8.699   9.973  1.00  0.00     0.002 C 
BRANCH  29  30
ATOM     30  C   UNL     1       5.491   9.941   9.082  1.00  0.00     0.021 C 
BRANCH  30  31
ATOM     31  C   UNL     1       4.278  10.834   9.315  1.00  0.00     0.116 C 
BRANCH  31  32
ATOM     32  N   UNL     1       4.286  11.453  10.631  1.00  0.00    -0.352 N 
ATOM     33  C   UNL     1       4.182  12.786  10.952  1.00  0.00     0.251 C 
ATOM     34  H   UNL     1       4.377  10.836  11.393  1.00  0.00     0.163 HD
ATOM     35  O   UNL     1       4.351  13.165  12.106  1.00  0.00    -0.269 OA
BRANCH  33  36
ATOM     36  C   UNL     1       3.903  13.760   9.876  1.00  0.00     0.039 A 
ATOM     37  C   UNL     1       2.838  13.548   8.995  1.00  0.00     0.014 A 
ATOM     38  C   UNL     1       4.755  14.854   9.710  1.00  0.00     0.014 A 
ATOM     39  C   UNL     1       2.722  14.341   7.859  1.00  0.00     0.010 A 
ATOM     40  C   UNL     1       4.591  15.691   8.604  1.00  0.00     0.010 A 
ATOM     41  C   UNL     1       3.605  15.412   7.644  1.00  0.00    -0.014 A 
BRANCH  41  42
ATOM     42  C   UNL     1       3.495  16.220   6.403  1.00  0.00     0.031 A 
ATOM     43  C   UNL     1       4.588  16.185   5.369  1.00  0.00     0.074 A 
ATOM     44  C   UNL     1       2.381  16.945   6.184  1.00  0.00     0.049 A 
ATOM     45  N   UNL     1       4.664  16.832   4.234  1.00  0.00    -0.248 NA
ATOM     46  C   UNL     1       5.743  15.311   5.636  1.00  0.00     0.031 C 
ATOM     47  C   UNL     1       1.236  17.021   7.094  1.00  0.00     0.029 A 
ATOM     48  N   UNL     1       2.014  17.731   5.121  1.00  0.00    -0.354 N 
ATOM     49  C   UNL     1       5.874  16.457   3.661  1.00  0.00     0.074 A 
ATOM     50  C   UNL     1       6.514  15.544   4.582  1.00  0.00     0.031 C 
ATOM     51  C   UNL     1       0.275  17.764   6.527  1.00  0.00     0.029 A 
ATOM     52  C   UNL     1       0.757  18.274   5.247  1.00  0.00     0.049 A 
ATOM     53  H   UNL     1       2.594  17.890   4.342  1.00  0.00     0.167 HD
ATOM     54  C   UNL     1       6.397  16.834   2.471  1.00  0.00     0.031 A 
ATOM     55  C   UNL     1       0.070  19.102   4.436  1.00  0.00     0.031 A 
ATOM     56  C   UNL     1       5.749  17.735   1.554  1.00  0.00     0.049 A 
ATOM     57  C   UNL     1       0.697  19.557   3.151  1.00  0.00     0.074 A 
ATOM     58  C   UNL     1       6.205  18.178   0.325  1.00  0.00     0.029 A 
ATOM     59  N   UNL     1       4.509  18.322   1.757  1.00  0.00    -0.354 N 
ATOM     60  N   UNL     1       1.855  19.213   2.640  1.00  0.00    -0.248 NA
ATOM     61  C   UNL     1      -0.063  20.514   2.335  1.00  0.00     0.031 C 
ATOM     62  C   UNL     1       5.265  19.072  -0.193  1.00  0.00     0.029 A 
ATOM     63  C   UNL     1       4.194  19.139   0.685  1.00  0.00     0.049 A 
ATOM     64  H   UNL     1       3.938  18.178   2.546  1.00  0.00     0.167 HD
ATOM     65  C   UNL     1       1.961  19.906   1.441  1.00  0.00     0.074 A 
ATOM     66  C   UNL     1       0.743  20.676   1.292  1.00  0.00     0.031 C 
ATOM     67  C   UNL     1       2.979  19.903   0.548  1.00  0.00     0.031 A 
BRANCH  54  68
ATOM     68  C   UNL     1       7.742  16.287   2.074  1.00  0.00    -0.014 A 
ATOM     69  C   UNL     1       8.858  17.143   2.027  1.00  0.00     0.010 A 
ATOM     70  C   UNL     1       7.880  14.958   1.634  1.00  0.00     0.010 A 
ATOM     71  C   UNL     1      10.080  16.691   1.523  1.00  0.00     0.020 A 
ATOM     72  C   UNL     1       9.108  14.495   1.151  1.00  0.00     0.020 A 
ATOM     73  C   UNL     1      10.195  15.372   1.078  1.00  0.00     0.054 A 
BRANCH  73  74
ATOM     74  S   UNL     1      11.784  14.803   0.412  1.00  0.00     0.124 S 
ATOM     75  O   UNL     1      11.775  15.370  -0.932  1.00  0.00    -0.237 OA
ATOM     76  O   UNL     1      12.749  15.390   1.340  1.00  0.00    -0.237 OA
ATOM     77  O   UNL     1      11.678  13.347   0.480  1.00  0.00    -0.744 OA
ENDBRANCH  73  74
ENDBRANCH  54  68
BRANCH  55  78
ATOM     78  C   UNL     1      -1.297  19.532   4.837  1.00  0.00    -0.014 A 
ATOM     79  C   UNL     1      -1.478  20.379   5.947  1.00  0.00     0.010 A 
ATOM     80  C   UNL     1      -2.425  19.011   4.182  1.00  0.00     0.010 A 
ATOM     81  C   UNL     1      -2.759  20.645   6.435  1.00  0.00     0.020 A 
ATOM     82  C   UNL     1      -3.712  19.298   4.651  1.00  0.00     0.020 A 
ATOM     83  C   UNL     1      -3.867  20.086   5.795  1.00  0.00     0.054 A 
BRANCH  83  84
ATOM     84  S   UNL     1      -5.519  20.385   6.483  1.00  0.00     0.124 S 
ATOM     85  O   UNL     1      -5.558  19.432   7.589  1.00  0.00    -0.237 OA
ATOM     86  O   UNL     1      -5.457  21.793   6.868  1.00  0.00    -0.237 OA
ATOM     87  O   UNL     1      -6.411  20.087   5.367  1.00  0.00    -0.744 OA
ENDBRANCH  83  84
ENDBRANCH  55  78
BRANCH  67  88
ATOM     88  C   UNL     1       2.848  20.754  -0.685  1.00  0.00    -0.014 A 
ATOM     89  C   UNL     1       2.680  20.138  -1.939  1.00  0.00     0.010 A 
ATOM     90  C   UNL     1       3.046  22.143  -0.620  1.00  0.00     0.010 A 
ATOM     91  C   UNL     1       2.755  20.892  -3.112  1.00  0.00     0.020 A 
ATOM     92  C   UNL     1       3.098  22.904  -1.792  1.00  0.00     0.020 A 
ATOM     93  C   UNL     1       2.980  22.269  -3.031  1.00  0.00     0.054 A 
BRANCH  93  94
ATOM     94  S   UNL     1       3.129  23.224  -4.566  1.00  0.00     0.124 S 
ATOM     95  O   UNL     1       4.489  22.910  -4.992  1.00  0.00    -0.237 OA
ATOM     96  O   UNL     1       2.063  22.668  -5.397  1.00  0.00    -0.237 OA
ATOM     97  O   UNL     1       2.913  24.603  -4.132  1.00  0.00    -0.744 OA
ENDBRANCH  93  94
ENDBRANCH  67  88
ENDBRANCH  41  42
ENDBRANCH  33  36
ENDBRANCH  31  32
ENDBRANCH  30  31
ENDBRANCH  29  30
ENDBRANCH   1  29
TORSDOF 20
