REMARK SMILES C[C@H](NC(=O)N[C@](C)(C(=O)NCCCCCCNC(=O)c1ccc(-c2c3nc(c(-c4ccc(S(=O)(=O)[O-])cc4)c4ccc([nH]4)c(-c4ccc(S(=O)(=O)[O-])cc4)c4nc(c(-c5ccc(S(=O)(=O)[O-])cc5)c5ccc2[nH]5)C=C4)C=C3)cc1)C(F)(F)F)C(N)=O
REMARK SMILES IDX 14 1 13 2 12 3 11 4 9 5 10 6 7 8 8 9 6 10 3 11 4 12 5 14
REMARK SMILES IDX 2 16 1 17 85 18 86 19 87 20 81 23 82 24 83 25 84 26 15 27
REMARK SMILES IDX 16 28 17 29 18 30 19 31 20 33 21 34 22 35 80 36 23 37 79 38
REMARK SMILES IDX 24 39 25 40 26 41 73 42 27 43 78 44 72 45 74 46 28 47 77 48
REMARK SMILES IDX 71 49 70 50 29 52 59 53 40 54 58 55 41 56 44 57 57 58 75 59
REMARK SMILES IDX 42 60 43 61 56 63 76 64 45 65 30 66 31 67 39 68 32 69 38 70
REMARK SMILES IDX 33 71 34 72 35 73 36 74 37 75 60 76 61 77 69 78 62 79 68 80
REMARK SMILES IDX 63 81 64 82 65 83 66 84 67 85 46 86 47 87 55 88 48 89 54 90
REMARK SMILES IDX 49 91 50 92 51 93 52 94 53 95
REMARK H PARENT 11 7 3 13 6 15 86 21 86 22 18 32 74 51 44 62
REMARK Flexibility Score: inf
ROOT
ATOM      1  C   UNL     1       0.988  -6.214   3.548  1.00  0.00     0.002 C 
ENDROOT
BRANCH   1   2
ATOM      2  C   UNL     1       1.917  -5.115   3.015  1.00  0.00     0.021 C 
BRANCH   2   3
ATOM      3  C   UNL     1       2.076  -5.137   1.489  1.00  0.00     0.116 C 
BRANCH   3   4
ATOM      4  N   UNL     1       0.880  -4.583   0.873  1.00  0.00    -0.354 N 
ATOM      5  C   UNL     1       0.596  -3.301   0.480  1.00  0.00     0.255 C 
ATOM      6  O   UNL     1      -0.600  -2.996   0.492  1.00  0.00    -0.272 OA
ATOM      7  H   UNL     1       0.159  -5.234   0.712  1.00  0.00     0.163 HD
BRANCH   5   8
ATOM      8  C   UNL     1       1.701  -2.278   0.162  1.00  0.00     0.213 C 
ATOM      9  C   UNL     1       2.375  -1.860   1.498  1.00  0.00     0.056 C 
BRANCH   8  10
ATOM     10  N   UNL     1       2.746  -2.912  -0.690  1.00  0.00    -0.316 N 
ATOM     11  N   UNL     1       2.066  -3.589  -2.882  1.00  0.00    -0.327 N 
ATOM     12  C   UNL     1       2.911  -3.442  -1.885  1.00  0.00     0.316 C 
ATOM     13  H   UNL     1       2.493  -4.174  -3.549  1.00  0.00     0.166 HD
ATOM     14  O   UNL     1       4.042  -3.906  -2.086  1.00  0.00    -0.249 OA
ATOM     15  H   UNL     1       3.597  -2.945  -0.196  1.00  0.00     0.166 HD
BRANCH  11  16
ATOM     16  C   UNL     1       0.739  -3.227  -3.394  1.00  0.00     0.169 C 
ATOM     17  C   UNL     1      -0.453  -3.661  -2.561  1.00  0.00     0.041 C 
BRANCH  16  18
ATOM     18  C   UNL     1       0.713  -1.797  -3.982  1.00  0.00     0.239 C 
ATOM     19  N   UNL     1      -0.504  -1.307  -4.364  1.00  0.00    -0.368 N 
ATOM     20  O   UNL     1       1.724  -1.144  -4.229  1.00  0.00    -0.273 OA
ATOM     21  H   UNL     1      -1.323  -1.819  -4.173  1.00  0.00     0.159 HD
ATOM     22  H   UNL     1      -0.562  -0.442  -4.830  1.00  0.00     0.159 HD
ENDBRANCH  16  18
ENDBRANCH  11  16
ENDBRANCH   8  10
BRANCH   8  23
ATOM     23  C   UNL     1       1.088  -0.975  -0.382  1.00  0.00     0.420 C 
ATOM     24  F   UNL     1       0.283  -0.375   0.531  1.00  0.00    -0.168 F 
ATOM     25  F   UNL     1       2.066  -0.073  -0.662  1.00  0.00    -0.168 F 
ATOM     26  F   UNL     1       0.367  -1.122  -1.503  1.00  0.00    -0.168 F 
ENDBRANCH   8  23
ENDBRANCH   5   8
ENDBRANCH   3   4
ENDBRANCH   2   3
ENDBRANCH   1   2
BRANCH   1  27
ATOM     27  C   UNL     1       1.506  -7.644   3.356  1.00  0.00     0.002 C 
BRANCH  27  28
ATOM     28  C   UNL     1       2.896  -7.912   3.937  1.00  0.00     0.021 C 
BRANCH  28  29
ATOM     29  C   UNL     1       3.008  -7.677   5.439  1.00  0.00     0.116 C 
BRANCH  29  30
ATOM     30  N   UNL     1       2.228  -8.641   6.202  1.00  0.00    -0.352 N 
ATOM     31  C   UNL     1       2.636  -9.440   7.242  1.00  0.00     0.251 C 
ATOM     32  H   UNL     1       1.284  -8.732   5.937  1.00  0.00     0.163 HD
ATOM     33  O   UNL     1       1.913 -10.342   7.654  1.00  0.00    -0.269 OA
BRANCH  31  34
ATOM     34  C   UNL     1       3.966  -9.213   7.844  1.00  0.00     0.039 A 
ATOM     35  C   UNL     1       4.832 -10.294   8.020  1.00  0.00     0.014 A 
ATOM     36  C   UNL     1       4.365  -7.921   8.197  1.00  0.00     0.014 A 
ATOM     37  C   UNL     1       6.128 -10.069   8.489  1.00  0.00     0.010 A 
ATOM     38  C   UNL     1       5.677  -7.690   8.595  1.00  0.00     0.010 A 
ATOM     39  C   UNL     1       6.572  -8.761   8.746  1.00  0.00    -0.014 A 
BRANCH  39  40
ATOM     40  C   UNL     1       7.968  -8.480   9.166  1.00  0.00     0.031 A 
ATOM     41  C   UNL     1       8.240  -7.872  10.515  1.00  0.00     0.074 A 
ATOM     42  C   UNL     1       8.983  -8.693   8.306  1.00  0.00     0.049 A 
ATOM     43  N   UNL     1       9.376  -7.478  11.031  1.00  0.00    -0.248 NA
ATOM     44  C   UNL     1       7.075  -7.654  11.387  1.00  0.00     0.031 C 
ATOM     45  C   UNL     1       8.850  -9.254   6.960  1.00  0.00     0.029 A 
ATOM     46  N   UNL     1      10.328  -8.456   8.435  1.00  0.00    -0.354 N 
ATOM     47  C   UNL     1       9.061  -6.945  12.275  1.00  0.00     0.074 A 
ATOM     48  C   UNL     1       7.622  -7.019  12.412  1.00  0.00     0.031 C 
ATOM     49  C   UNL     1      10.068  -9.353   6.403  1.00  0.00     0.029 A 
ATOM     50  C   UNL     1      11.061  -8.819   7.330  1.00  0.00     0.049 A 
ATOM     51  H   UNL     1      10.731  -8.062   9.243  1.00  0.00     0.167 HD
ATOM     52  C   UNL     1       9.892  -6.453  13.226  1.00  0.00     0.031 A 
ATOM     53  C   UNL     1      12.383  -8.732   7.089  1.00  0.00     0.031 A 
ATOM     54  C   UNL     1      11.322  -6.381  13.084  1.00  0.00     0.049 A 
ATOM     55  C   UNL     1      13.286  -8.152   8.142  1.00  0.00     0.074 A 
ATOM     56  C   UNL     1      12.259  -5.948  14.006  1.00  0.00     0.029 A 
ATOM     57  N   UNL     1      12.023  -6.746  11.943  1.00  0.00    -0.354 N 
ATOM     58  N   UNL     1      12.977  -7.702   9.335  1.00  0.00    -0.248 NA
ATOM     59  C   UNL     1      14.716  -8.074   7.818  1.00  0.00     0.031 C 
ATOM     60  C   UNL     1      13.521  -6.000  13.403  1.00  0.00     0.029 A 
ATOM     61  C   UNL     1      13.377  -6.522  12.127  1.00  0.00     0.049 A 
ATOM     62  H   UNL     1      11.617  -7.109  11.124  1.00  0.00     0.167 HD
ATOM     63  C   UNL     1      14.180  -7.318   9.918  1.00  0.00     0.074 A 
ATOM     64  C   UNL     1      15.220  -7.593   8.947  1.00  0.00     0.031 C 
ATOM     65  C   UNL     1      14.402  -6.795  11.149  1.00  0.00     0.031 A 
BRANCH  52  66
ATOM     66  C   UNL     1       9.256  -5.933  14.489  1.00  0.00    -0.014 A 
ATOM     67  C   UNL     1       8.610  -6.798  15.392  1.00  0.00     0.010 A 
ATOM     68  C   UNL     1       9.288  -4.555  14.771  1.00  0.00     0.010 A 
ATOM     69  C   UNL     1       7.942  -6.289  16.508  1.00  0.00     0.020 A 
ATOM     70  C   UNL     1       8.650  -4.044  15.905  1.00  0.00     0.020 A 
ATOM     71  C   UNL     1       7.955  -4.912  16.750  1.00  0.00     0.054 A 
BRANCH  71  72
ATOM     72  S   UNL     1       7.050  -4.271  18.185  1.00  0.00     0.124 S 
ATOM     73  O   UNL     1       5.664  -4.369  17.733  1.00  0.00    -0.237 OA
ATOM     74  O   UNL     1       7.430  -5.199  19.247  1.00  0.00    -0.237 OA
ATOM     75  O   UNL     1       7.560  -2.911  18.337  1.00  0.00    -0.744 OA
ENDBRANCH  71  72
ENDBRANCH  52  66
BRANCH  53  76
ATOM     76  C   UNL     1      12.935  -9.254   5.809  1.00  0.00    -0.014 A 
ATOM     77  C   UNL     1      13.678 -10.448   5.801  1.00  0.00     0.010 A 
ATOM     78  C   UNL     1      12.691  -8.591   4.593  1.00  0.00     0.010 A 
ATOM     79  C   UNL     1      14.167 -10.970   4.601  1.00  0.00     0.020 A 
ATOM     80  C   UNL     1      13.159  -9.123   3.387  1.00  0.00     0.020 A 
ATOM     81  C   UNL     1      13.898 -10.307   3.400  1.00  0.00     0.054 A 
BRANCH  81  82
ATOM     82  S   UNL     1      14.477 -11.049   1.848  1.00  0.00     0.124 S 
ATOM     83  O   UNL     1      15.916 -10.818   1.919  1.00  0.00    -0.237 OA
ATOM     84  O   UNL     1      14.051 -12.440   1.987  1.00  0.00    -0.237 OA
ATOM     85  O   UNL     1      13.770 -10.288   0.821  1.00  0.00    -0.744 OA
ENDBRANCH  81  82
ENDBRANCH  53  76
BRANCH  65  86
ATOM     86  C   UNL     1      15.831  -6.517  11.536  1.00  0.00    -0.014 A 
ATOM     87  C   UNL     1      16.546  -5.444  10.976  1.00  0.00     0.010 A 
ATOM     88  C   UNL     1      16.447  -7.313  12.520  1.00  0.00     0.010 A 
ATOM     89  C   UNL     1      17.862  -5.190  11.373  1.00  0.00     0.020 A 
ATOM     90  C   UNL     1      17.752  -7.044  12.940  1.00  0.00     0.020 A 
ATOM     91  C   UNL     1      18.456  -5.991  12.354  1.00  0.00     0.054 A 
BRANCH  91  92
ATOM     92  S   UNL     1      20.147  -5.609  12.888  1.00  0.00     0.124 S 
ATOM     93  O   UNL     1      20.937  -6.072  11.751  1.00  0.00    -0.237 OA
ATOM     94  O   UNL     1      20.104  -4.161  13.077  1.00  0.00    -0.237 OA
ATOM     95  O   UNL     1      20.306  -6.386  14.116  1.00  0.00    -0.744 OA
ENDBRANCH  91  92
ENDBRANCH  65  86
ENDBRANCH  39  40
ENDBRANCH  31  34
ENDBRANCH  29  30
ENDBRANCH  28  29
ENDBRANCH  27  28
ENDBRANCH   1  27
TORSDOF 20
