REMARK SMILES C[C@H](CC(=O)NCCCCCCNC(=O)c1ccc(-c2c3nc(c(-c4ccc(S(=O)(=O)[O-])cc4)c4ccc([nH]4)c(-c4ccc(S(=O)(=O)[O-])cc4)c4nc(c(-c5ccc(S(=O)(=O)[O-])cc5)c5ccc2[nH]5)C=C4)C=C3)cc1)NC(=O)Cn1nc2ccccn2c1=O
REMARK SMILES IDX 9 1 8 2 7 3 6 4 4 5 5 6 3 8 2 9 1 10 76 11 77 12 78 14 79 15
REMARK SMILES IDX 80 16 81 17 88 18 82 19 87 20 89 21 83 22 86 23 84 24 85 25
REMARK SMILES IDX 10 26 11 27 12 28 13 29 14 30 15 32 16 33 17 34 75 35 18 36
REMARK SMILES IDX 74 37 19 38 20 39 21 40 68 41 22 42 73 43 67 44 69 45 23 46
REMARK SMILES IDX 72 47 66 48 65 49 24 51 54 52 35 53 53 54 36 55 39 56 52 57
REMARK SMILES IDX 70 58 37 59 38 60 51 62 71 63 40 64 25 65 26 66 34 67 27 68
REMARK SMILES IDX 33 69 28 70 29 71 30 72 31 73 32 74 55 75 56 76 64 77 57 78
REMARK SMILES IDX 63 79 58 80 59 81 60 82 61 83 62 84 41 85 42 86 50 87 43 88
REMARK SMILES IDX 49 89 44 90 45 91 46 92 47 93 48 94
REMARK H PARENT 6 7 76 13 13 31 69 50 39 61
REMARK Flexibility Score: inf
ROOT
ATOM      1  C   UNL     1       0.578   2.077  -4.579  1.00  0.00     0.002 C 
ENDROOT
BRANCH   1   2
ATOM      2  C   UNL     1      -0.300   1.469  -3.478  1.00  0.00     0.021 C 
BRANCH   2   3
ATOM      3  C   UNL     1       0.206   0.133  -2.928  1.00  0.00     0.116 C 
BRANCH   3   4
ATOM      4  N   UNL     1       1.598   0.194  -2.520  1.00  0.00    -0.356 N 
ATOM      5  C   UNL     1       2.152   0.249  -1.280  1.00  0.00     0.222 C 
ATOM      6  O   UNL     1       3.377   0.326  -1.179  1.00  0.00    -0.275 OA
ATOM      7  H   UNL     1       2.246   0.197  -3.262  1.00  0.00     0.163 HD
BRANCH   5   8
ATOM      8  C   UNL     1       1.274   0.225  -0.054  1.00  0.00     0.124 C 
BRANCH   8   9
ATOM      9  C   UNL     1       0.762   1.595   0.422  1.00  0.00     0.088 C 
ATOM     10  C   UNL     1       1.330   2.821  -0.289  1.00  0.00     0.031 C 
BRANCH   9  11
ATOM     11  N   UNL     1      -0.701   1.629   0.392  1.00  0.00    -0.352 N 
ATOM     12  C   UNL     1      -1.609   1.774   1.401  1.00  0.00     0.242 C 
ATOM     13  H   UNL     1      -1.095   1.532  -0.505  1.00  0.00     0.163 HD
ATOM     14  O   UNL     1      -2.796   1.875   1.073  1.00  0.00    -0.273 OA
BRANCH  12  15
ATOM     15  C   UNL     1      -1.192   2.008   2.854  1.00  0.00     0.249 C 
BRANCH  15  16
ATOM     16  N   UNL     1      -0.208   1.105   3.400  1.00  0.00    -0.203 N 
ATOM     17  N   UNL     1       0.638   1.485   4.430  1.00  0.00    -0.149 NA
ATOM     18  C   UNL     1      -0.069  -0.266   3.134  1.00  0.00     0.350 A 
ATOM     19  C   UNL     1       1.323   0.410   4.666  1.00  0.00     0.161 A 
ATOM     20  N   UNL     1       0.997  -0.660   3.902  1.00  0.00    -0.250 N 
ATOM     21  O   UNL     1      -0.701  -0.942   2.335  1.00  0.00    -0.246 OA
ATOM     22  C   UNL     1       2.419   0.246   5.662  1.00  0.00     0.050 A 
ATOM     23  C   UNL     1       1.705  -1.828   3.868  1.00  0.00     0.098 A 
ATOM     24  C   UNL     1       3.264  -0.768   5.384  1.00  0.00     0.005 A 
ATOM     25  C   UNL     1       2.843  -1.901   4.572  1.00  0.00     0.019 A 
ENDBRANCH  15  16
ENDBRANCH  12  15
ENDBRANCH   9  11
ENDBRANCH   8   9
ENDBRANCH   5   8
ENDBRANCH   3   4
ENDBRANCH   2   3
ENDBRANCH   1   2
BRANCH   1  26
ATOM     26  C   UNL     1       0.729   1.205  -5.829  1.00  0.00     0.002 C 
BRANCH  26  27
ATOM     27  C   UNL     1      -0.590   0.801  -6.490  1.00  0.00     0.021 C 
BRANCH  27  28
ATOM     28  C   UNL     1      -1.485   1.971  -6.887  1.00  0.00     0.116 C 
BRANCH  28  29
ATOM     29  N   UNL     1      -0.872   2.798  -7.913  1.00  0.00    -0.352 N 
ATOM     30  C   UNL     1      -1.375   3.176  -9.133  1.00  0.00     0.251 C 
ATOM     31  H   UNL     1       0.030   3.132  -7.705  1.00  0.00     0.163 HD
ATOM     32  O   UNL     1      -0.636   3.690  -9.967  1.00  0.00    -0.269 OA
BRANCH  30  33
ATOM     33  C   UNL     1      -2.804   2.948  -9.444  1.00  0.00     0.039 A 
ATOM     34  C   UNL     1      -3.146   2.446 -10.701  1.00  0.00     0.014 A 
ATOM     35  C   UNL     1      -3.802   3.235  -8.507  1.00  0.00     0.014 A 
ATOM     36  C   UNL     1      -4.485   2.189 -11.000  1.00  0.00     0.010 A 
ATOM     37  C   UNL     1      -5.128   2.905  -8.779  1.00  0.00     0.010 A 
ATOM     38  C   UNL     1      -5.486   2.387 -10.032  1.00  0.00    -0.014 A 
BRANCH  38  39
ATOM     39  C   UNL     1      -6.900   2.037 -10.327  1.00  0.00     0.031 A 
ATOM     40  C   UNL     1      -7.967   3.098 -10.355  1.00  0.00     0.074 A 
ATOM     41  C   UNL     1      -7.227   0.747 -10.544  1.00  0.00     0.049 A 
ATOM     42  N   UNL     1      -9.239   2.977 -10.639  1.00  0.00    -0.248 NA
ATOM     43  C   UNL     1      -7.561   4.467  -9.999  1.00  0.00     0.031 C 
ATOM     44  C   UNL     1      -6.295  -0.383 -10.485  1.00  0.00     0.029 A 
ATOM     45  N   UNL     1      -8.428   0.168 -10.867  1.00  0.00    -0.354 N 
ATOM     46  C   UNL     1      -9.786   4.246 -10.488  1.00  0.00     0.074 A 
ATOM     47  C   UNL     1      -8.719   5.111 -10.034  1.00  0.00     0.031 C 
ATOM     48  C   UNL     1      -6.950  -1.510 -10.803  1.00  0.00     0.029 A 
ATOM     49  C   UNL     1      -8.352  -1.193 -11.051  1.00  0.00     0.049 A 
ATOM     50  H   UNL     1      -9.265   0.678 -10.958  1.00  0.00     0.167 HD
ATOM     51  C   UNL     1     -11.055   4.660 -10.723  1.00  0.00     0.031 A 
ATOM     52  C   UNL     1      -9.302  -2.088 -11.384  1.00  0.00     0.031 A 
ATOM     53  C   UNL     1     -12.114   3.794 -11.173  1.00  0.00     0.049 A 
ATOM     54  C   UNL     1     -10.701  -1.605 -11.646  1.00  0.00     0.074 A 
ATOM     55  C   UNL     1     -13.417   4.127 -11.502  1.00  0.00     0.029 A 
ATOM     56  N   UNL     1     -11.998   2.422 -11.347  1.00  0.00    -0.354 N 
ATOM     57  N   UNL     1     -11.177  -0.384 -11.586  1.00  0.00    -0.248 NA
ATOM     58  C   UNL     1     -11.688  -2.620 -12.039  1.00  0.00     0.031 C 
ATOM     59  C   UNL     1     -14.105   2.949 -11.811  1.00  0.00     0.029 A 
ATOM     60  C   UNL     1     -13.214   1.890 -11.745  1.00  0.00     0.049 A 
ATOM     61  H   UNL     1     -11.174   1.903 -11.207  1.00  0.00     0.167 HD
ATOM     62  C   UNL     1     -12.515  -0.481 -11.951  1.00  0.00     0.074 A 
ATOM     63  C   UNL     1     -12.762  -1.875 -12.259  1.00  0.00     0.031 C 
ATOM     64  C   UNL     1     -13.455   0.495 -12.025  1.00  0.00     0.031 A 
BRANCH  51  65
ATOM     65  C   UNL     1     -11.371   6.115 -10.484  1.00  0.00    -0.014 A 
ATOM     66  C   UNL     1     -10.830   7.125 -11.302  1.00  0.00     0.010 A 
ATOM     67  C   UNL     1     -12.254   6.478  -9.450  1.00  0.00     0.010 A 
ATOM     68  C   UNL     1     -11.129   8.470 -11.062  1.00  0.00     0.020 A 
ATOM     69  C   UNL     1     -12.581   7.819  -9.226  1.00  0.00     0.020 A 
ATOM     70  C   UNL     1     -12.002   8.808 -10.023  1.00  0.00     0.054 A 
BRANCH  70  71
ATOM     71  S   UNL     1     -12.387  10.559  -9.747  1.00  0.00     0.124 S 
ATOM     72  O   UNL     1     -11.129  11.061  -9.199  1.00  0.00    -0.237 OA
ATOM     73  O   UNL     1     -12.717  11.028 -11.090  1.00  0.00    -0.237 OA
ATOM     74  O   UNL     1     -13.506  10.526  -8.809  1.00  0.00    -0.744 OA
ENDBRANCH  70  71
ENDBRANCH  51  65
BRANCH  52  75
ATOM     75  C   UNL     1      -8.950  -3.530 -11.505  1.00  0.00    -0.014 A 
ATOM     76  C   UNL     1      -8.932  -4.164 -12.760  1.00  0.00     0.010 A 
ATOM     77  C   UNL     1      -8.603  -4.272 -10.360  1.00  0.00     0.010 A 
ATOM     78  C   UNL     1      -8.589  -5.516 -12.866  1.00  0.00     0.020 A 
ATOM     79  C   UNL     1      -8.229  -5.614 -10.466  1.00  0.00     0.020 A 
ATOM     80  C   UNL     1      -8.234  -6.230 -11.718  1.00  0.00     0.054 A 
BRANCH  80  81
ATOM     81  S   UNL     1      -7.730  -7.965 -11.888  1.00  0.00     0.124 S 
ATOM     82  O   UNL     1      -8.998  -8.623 -12.185  1.00  0.00    -0.237 OA
ATOM     83  O   UNL     1      -6.772  -7.908 -12.990  1.00  0.00    -0.237 OA
ATOM     84  O   UNL     1      -7.149  -8.282 -10.585  1.00  0.00    -0.744 OA
ENDBRANCH  80  81
ENDBRANCH  52  75
BRANCH  64  85
ATOM     85  C   UNL     1     -14.835   0.087 -12.472  1.00  0.00    -0.014 A 
ATOM     86  C   UNL     1     -15.659  -0.715 -11.662  1.00  0.00     0.010 A 
ATOM     87  C   UNL     1     -15.322   0.527 -13.717  1.00  0.00     0.010 A 
ATOM     88  C   UNL     1     -16.920  -1.116 -12.112  1.00  0.00     0.020 A 
ATOM     89  C   UNL     1     -16.596   0.157 -14.156  1.00  0.00     0.020 A 
ATOM     90  C   UNL     1     -17.378  -0.681 -13.359  1.00  0.00     0.054 A 
BRANCH  90  91
ATOM     91  S   UNL     1     -19.019  -1.211 -13.919  1.00  0.00     0.124 S 
ATOM     92  O   UNL     1     -18.790  -2.615 -14.246  1.00  0.00    -0.237 OA
ATOM     93  O   UNL     1     -19.853  -0.967 -12.745  1.00  0.00    -0.237 OA
ATOM     94  O   UNL     1     -19.293  -0.342 -15.062  1.00  0.00    -0.744 OA
ENDBRANCH  90  91
ENDBRANCH  64  85
ENDBRANCH  38  39
ENDBRANCH  30  33
ENDBRANCH  28  29
ENDBRANCH  27  28
ENDBRANCH  26  27
ENDBRANCH   1  26
TORSDOF 20
