REMARK SMILES CC[N@@H+]1CCO[C@H](C[N@H+]2CCCCC[C@@H]2C(=O)NCCCCCCNC(=O)c2ccc(-c3c4nc(c(-c5ccc(S(=O)(=O)[O-])cc5)c5ccc([nH]5)c(-c5ccc(S(=O)(=O)[O-])cc5)c5nc(c(-c6ccc(S(=O)(=O)[O-])cc6)c6ccc3[nH]6)C=C5)C=C4)cc2)C1
REMARK SMILES IDX 21 1 20 2 19 3 18 4 16 5 17 6 15 8 9 9 8 11 7 12 3 13 4 14
REMARK SMILES IDX 88 15 5 17 6 18 2 19 1 20 10 21 11 22 14 24 13 25 12 26
REMARK SMILES IDX 22 28 23 29 24 30 25 31 26 32 27 34 28 35 29 36 87 37 30 38
REMARK SMILES IDX 86 39 31 40 32 41 33 42 80 43 34 44 85 45 79 46 81 47 35 48
REMARK SMILES IDX 84 49 78 50 77 51 36 53 66 54 47 55 65 56 48 57 51 58 64 59
REMARK SMILES IDX 82 60 49 61 50 62 63 64 83 65 52 66 37 67 38 68 46 69 39 70
REMARK SMILES IDX 45 71 40 72 41 73 42 74 43 75 44 76 67 77 68 78 76 79 69 80
REMARK SMILES IDX 75 81 70 82 71 83 72 84 73 85 74 86 53 87 54 88 62 89 55 90
REMARK SMILES IDX 61 91 56 92 57 93 58 94 59 95 60 96
REMARK H PARENT 18 7 9 10 3 16 25 33 81 52 51 63
REMARK Flexibility Score: 100.00
ROOT
ATOM      1  C   UNL     1       4.361  -2.665  -6.185  1.00  0.00     0.002 C 
ENDROOT
BRANCH   1   2
ATOM      2  C   UNL     1       4.301  -1.304  -5.493  1.00  0.00     0.021 C 
BRANCH   2   3
ATOM      3  C   UNL     1       3.688  -1.338  -4.092  1.00  0.00     0.116 C 
BRANCH   3   4
ATOM      4  N   UNL     1       4.701  -1.582  -3.087  1.00  0.00    -0.351 N 
ATOM      5  C   UNL     1       5.170  -0.780  -2.089  1.00  0.00     0.278 C 
ATOM      6  O   UNL     1       6.077  -1.246  -1.386  1.00  0.00    -0.268 OA
ATOM      7  H   UNL     1       5.120  -2.472  -3.132  1.00  0.00     0.163 HD
BRANCH   5   8
ATOM      8  C   UNL     1       4.623   0.654  -1.803  1.00  0.00     0.274 C 
BRANCH   8   9
ATOM      9  N   UNL     1       3.158   0.627  -1.631  1.00  0.00    -0.322 N 
ATOM     10  H   UNL     1       2.848  -0.001  -2.373  1.00  0.00     0.348 HD
BRANCH   9  11
ATOM     11  C   UNL     1       2.762   0.056  -0.316  1.00  0.00     0.301 C 
BRANCH  11  12
ATOM     12  C   UNL     1       2.970   0.855   1.012  1.00  0.00     0.228 C 
ATOM     13  N   UNL     1       0.889   0.363   2.434  1.00  0.00    -0.331 N 
ATOM     14  C   UNL     1       0.592   1.794   2.382  1.00  0.00     0.291 C 
ATOM     15  C   UNL     1       2.330   0.139   2.230  1.00  0.00     0.300 C 
ATOM     16  H   UNL     1       0.660   0.068   3.383  1.00  0.00     0.348 HD
ATOM     17  C   UNL     1       1.214   2.520   1.183  1.00  0.00     0.222 C 
ATOM     18  O   UNL     1       2.605   2.246   0.991  1.00  0.00    -0.361 OA
BRANCH  13  19
ATOM     19  C   UNL     1      -0.011  -0.546   1.726  1.00  0.00     0.258 C 
ATOM     20  C   UNL     1      -0.790  -0.060   0.503  1.00  0.00     0.071 C 
ENDBRANCH  13  19
ENDBRANCH  11  12
ENDBRANCH   9  11
BRANCH   9  21
ATOM     21  C   UNL     1       2.446   1.868  -1.915  1.00  0.00     0.262 C 
BRANCH  21  22
ATOM     22  C   UNL     1       2.232   2.155  -3.398  1.00  0.00     0.061 CG0
ATOM     23  G   UNL     1       3.413   2.803  -4.094  1.00  0.00     0.000 G0
ENDBRANCH  21  22
ENDBRANCH   9  21
ENDBRANCH   8   9
BRANCH   8  24
ATOM     24  C   UNL     1       5.283   1.726  -2.692  1.00  0.00     0.076 C 
BRANCH  24  25
ATOM     25  C   UNL     1       4.715   2.017  -4.074  1.00  0.00     0.007 C 
BRANCH  25  26
ATOM     26  C   UNL     1       3.413   2.803  -4.094  1.00  0.00     0.006 CG0
ATOM     27  G   UNL     1       2.232   2.155  -3.398  1.00  0.00     0.000 G0
ENDBRANCH  25  26
ENDBRANCH  24  25
ENDBRANCH   8  24
ENDBRANCH   5   8
ENDBRANCH   3   4
ENDBRANCH   2   3
ENDBRANCH   1   2
BRANCH   1  28
ATOM     28  C   UNL     1       2.998  -3.259  -6.556  1.00  0.00     0.002 C 
BRANCH  28  29
ATOM     29  C   UNL     1       2.082  -2.355  -7.389  1.00  0.00     0.021 C 
BRANCH  29  30
ATOM     30  C   UNL     1       2.703  -1.794  -8.666  1.00  0.00     0.116 C 
BRANCH  30  31
ATOM     31  N   UNL     1       3.159  -2.844  -9.560  1.00  0.00    -0.352 N 
ATOM     32  C   UNL     1       2.838  -3.079 -10.873  1.00  0.00     0.251 C 
ATOM     33  H   UNL     1       3.794  -3.485  -9.164  1.00  0.00     0.163 HD
ATOM     34  O   UNL     1       3.169  -4.135 -11.401  1.00  0.00    -0.269 OA
BRANCH  32  35
ATOM     35  C   UNL     1       2.086  -2.067 -11.649  1.00  0.00     0.039 A 
ATOM     36  C   UNL     1       1.047  -2.494 -12.479  1.00  0.00     0.014 A 
ATOM     37  C   UNL     1       2.425  -0.712 -11.590  1.00  0.00     0.014 A 
ATOM     38  C   UNL     1       0.321  -1.558 -13.218  1.00  0.00     0.010 A 
ATOM     39  C   UNL     1       1.657   0.227 -12.277  1.00  0.00     0.010 A 
ATOM     40  C   UNL     1       0.605  -0.187 -13.107  1.00  0.00    -0.014 A 
BRANCH  40  41
ATOM     41  C   UNL     1      -0.186   0.820 -13.861  1.00  0.00     0.031 A 
ATOM     42  C   UNL     1       0.469   1.655 -14.929  1.00  0.00     0.074 A 
ATOM     43  C   UNL     1      -1.482   1.017 -13.548  1.00  0.00     0.049 A 
ATOM     44  N   UNL     1      -0.052   2.597 -15.674  1.00  0.00    -0.248 NA
ATOM     45  C   UNL     1       1.902   1.422 -15.178  1.00  0.00     0.031 C 
ATOM     46  C   UNL     1      -2.219   0.308 -12.498  1.00  0.00     0.029 A 
ATOM     47  N   UNL     1      -2.412   1.877 -14.079  1.00  0.00    -0.354 N 
ATOM     48  C   UNL     1       0.989   3.083 -16.457  1.00  0.00     0.074 A 
ATOM     49  C   UNL     1       2.180   2.359 -16.073  1.00  0.00     0.031 C 
ATOM     50  C   UNL     1      -3.489   0.744 -12.480  1.00  0.00     0.029 A 
ATOM     51  C   UNL     1      -3.651   1.784 -13.490  1.00  0.00     0.049 A 
ATOM     52  H   UNL     1      -2.209   2.502 -14.812  1.00  0.00     0.167 HD
ATOM     53  C   UNL     1       0.952   4.035 -17.420  1.00  0.00     0.031 A 
ATOM     54  C   UNL     1      -4.790   2.461 -13.735  1.00  0.00     0.031 A 
ATOM     55  C   UNL     1      -0.241   4.731 -17.822  1.00  0.00     0.049 A 
ATOM     56  C   UNL     1      -4.808   3.491 -14.831  1.00  0.00     0.074 A 
ATOM     57  C   UNL     1      -0.396   5.653 -18.843  1.00  0.00     0.029 A 
ATOM     58  N   UNL     1      -1.483   4.584 -17.224  1.00  0.00    -0.354 N 
ATOM     59  N   UNL     1      -3.831   3.874 -15.619  1.00  0.00    -0.248 NA
ATOM     60  C   UNL     1      -6.088   4.167 -15.084  1.00  0.00     0.031 C 
ATOM     61  C   UNL     1      -1.721   6.101 -18.830  1.00  0.00     0.029 A 
ATOM     62  C   UNL     1      -2.405   5.415 -17.839  1.00  0.00     0.049 A 
ATOM     63  H   UNL     1      -1.681   3.978 -16.474  1.00  0.00     0.167 HD
ATOM     64  C   UNL     1      -4.389   4.810 -16.484  1.00  0.00     0.074 A 
ATOM     65  C   UNL     1      -5.790   4.922 -16.132  1.00  0.00     0.031 C 
ATOM     66  C   UNL     1      -3.796   5.511 -17.482  1.00  0.00     0.031 A 
BRANCH  53  67
ATOM     67  C   UNL     1       2.244   4.389 -18.110  1.00  0.00    -0.014 A 
ATOM     68  C   UNL     1       2.857   3.502 -19.014  1.00  0.00     0.010 A 
ATOM     69  C   UNL     1       2.817   5.658 -17.903  1.00  0.00     0.010 A 
ATOM     70  C   UNL     1       4.034   3.866 -19.674  1.00  0.00     0.020 A 
ATOM     71  C   UNL     1       3.979   6.036 -18.582  1.00  0.00     0.020 A 
ATOM     72  C   UNL     1       4.587   5.132 -19.454  1.00  0.00     0.054 A 
BRANCH  72  73
ATOM     73  S   UNL     1       6.088   5.595 -20.361  1.00  0.00     0.124 S 
ATOM     74  O   UNL     1       7.107   4.798 -19.682  1.00  0.00    -0.237 OA
ATOM     75  O   UNL     1       5.777   5.184 -21.728  1.00  0.00    -0.237 OA
ATOM     76  O   UNL     1       6.188   7.038 -20.154  1.00  0.00    -0.744 OA
ENDBRANCH  72  73
ENDBRANCH  53  67
BRANCH  54  77
ATOM     77  C   UNL     1      -6.016   2.179 -12.938  1.00  0.00    -0.014 A 
ATOM     78  C   UNL     1      -7.126   1.550 -13.530  1.00  0.00     0.010 A 
ATOM     79  C   UNL     1      -6.087   2.558 -11.585  1.00  0.00     0.010 A 
ATOM     80  C   UNL     1      -8.296   1.338 -12.795  1.00  0.00     0.020 A 
ATOM     81  C   UNL     1      -7.244   2.320 -10.839  1.00  0.00     0.020 A 
ATOM     82  C   UNL     1      -8.349   1.729 -11.455  1.00  0.00     0.054 A 
BRANCH  82  83
ATOM     83  S   UNL     1      -9.869   1.427 -10.511  1.00  0.00     0.124 S 
ATOM     84  O   UNL     1     -10.752   2.472 -11.019  1.00  0.00    -0.237 OA
ATOM     85  O   UNL     1     -10.216   0.061 -10.896  1.00  0.00    -0.237 OA
ATOM     86  O   UNL     1      -9.444   1.585  -9.122  1.00  0.00    -0.744 OA
ENDBRANCH  82  83
ENDBRANCH  54  77
BRANCH  66  87
ATOM     87  C   UNL     1      -4.672   6.424 -18.297  1.00  0.00    -0.014 A 
ATOM     88  C   UNL     1      -5.186   7.619 -17.762  1.00  0.00     0.010 A 
ATOM     89  C   UNL     1      -4.960   6.091 -19.633  1.00  0.00     0.010 A 
ATOM     90  C   UNL     1      -6.011   8.440 -18.534  1.00  0.00     0.020 A 
ATOM     91  C   UNL     1      -5.761   6.925 -20.418  1.00  0.00     0.020 A 
ATOM     92  C   UNL     1      -6.298   8.084 -19.856  1.00  0.00     0.054 A 
BRANCH  92  93
ATOM     93  S   UNL     1      -7.358   9.174 -20.845  1.00  0.00     0.124 S 
ATOM     94  O   UNL     1      -8.683   8.877 -20.308  1.00  0.00    -0.237 OA
ATOM     95  O   UNL     1      -6.837  10.502 -20.533  1.00  0.00    -0.237 OA
ATOM     96  O   UNL     1      -7.128   8.727 -22.217  1.00  0.00    -0.744 OA
ENDBRANCH  92  93
ENDBRANCH  66  87
ENDBRANCH  40  41
ENDBRANCH  32  35
ENDBRANCH  30  31
ENDBRANCH  29  30
ENDBRANCH  28  29
ENDBRANCH   1  28
TORSDOF 19
