REMARK SMILES CC1(C)S[C@H](c2ccc(-c3cccc([N+](=O)[O-])c3)o2)[NH2+][C@@H]1C(=O)NCCCCCCNC(=O)c1ccc(-c2c3nc(c(-c4ccc(S(=O)(=O)[O-])cc4)c4ccc([nH]4)c(-c4ccc(S(=O)(=O)[O-])cc4)c4nc(c(-c5ccc(S(=O)(=O)[O-])cc5)c5ccc2[nH]5)C=C4)C=C3)cc1
REMARK SMILES IDX 27 1 26 2 25 3 24 4 22 5 23 6 21 8 1 9 2 10 3 11 4 12 5 13
REMARK SMILES IDX 20 14 6 17 7 18 19 19 8 20 9 21 10 22 11 23 18 24 12 25
REMARK SMILES IDX 14 26 13 27 15 28 16 29 17 30 28 31 29 32 30 33 31 34 32 35
REMARK SMILES IDX 33 37 34 38 35 39 93 40 36 41 92 42 37 43 38 44 39 45 86 46
REMARK SMILES IDX 40 47 91 48 85 49 87 50 41 51 90 52 84 53 83 54 42 56 72 57
REMARK SMILES IDX 53 58 71 59 54 60 57 61 70 62 88 63 55 64 56 65 69 67 89 68
REMARK SMILES IDX 58 69 43 70 44 71 52 72 45 73 51 74 46 75 47 76 48 77 49 78
REMARK SMILES IDX 50 79 73 80 74 81 82 82 75 83 81 84 76 85 77 86 78 87 79 88
REMARK SMILES IDX 80 89 59 90 60 91 68 92 61 93 67 94 62 95 63 96 64 97 65 98
REMARK SMILES IDX 66 99
REMARK H PARENT 24 7 20 15 20 16 31 36 87 55 57 66
REMARK Flexibility Score: inf
ROOT
ATOM      1  C   UNL     1      -3.338   3.995  -3.880  1.00  0.00     0.002 C 
ENDROOT
BRANCH   1   2
ATOM      2  C   UNL     1      -2.821   4.206  -2.458  1.00  0.00     0.021 C 
BRANCH   2   3
ATOM      3  C   UNL     1      -2.238   2.959  -1.795  1.00  0.00     0.116 C 
BRANCH   3   4
ATOM      4  N   UNL     1      -1.177   2.341  -2.572  1.00  0.00    -0.351 N 
ATOM      5  C   UNL     1      -0.284   1.385  -2.155  1.00  0.00     0.279 C 
ATOM      6  O   UNL     1       0.458   0.895  -3.006  1.00  0.00    -0.268 OA
ATOM      7  H   UNL     1      -1.088   2.643  -3.505  1.00  0.00     0.163 HD
BRANCH   5   8
ATOM      8  C   UNL     1      -0.191   1.084  -0.639  1.00  0.00     0.289 C 
ATOM      9  C   UNL     1       1.239   0.367   1.323  1.00  0.00     0.030 C 
ATOM     10  C   UNL     1       0.854   0.054  -0.140  1.00  0.00     0.078 C 
ATOM     11  C   UNL     1       2.145  -0.085  -0.948  1.00  0.00     0.030 C 
ATOM     12  S   UNL     1      -0.044  -1.533  -0.166  1.00  0.00    -0.078 SA
ATOM     13  C   UNL     1      -1.677  -0.766  -0.255  1.00  0.00     0.311 C 
ATOM     14  N   UNL     1      -1.530   0.684  -0.105  1.00  0.00    -0.317 N 
ATOM     15  H   UNL     1      -1.595   0.936   0.881  1.00  0.00     0.348 HD
ATOM     16  H   UNL     1      -2.268   1.165  -0.618  1.00  0.00     0.348 HD
BRANCH  13  17
ATOM     17  C   UNL     1      -2.477  -1.254  -1.428  1.00  0.00     0.172 A 
ATOM     18  C   UNL     1      -3.224  -2.412  -1.566  1.00  0.00     0.054 A 
ATOM     19  O   UNL     1      -2.585  -0.508  -2.579  1.00  0.00    -0.454 OA
ATOM     20  C   UNL     1      -3.833  -2.364  -2.836  1.00  0.00     0.051 A 
ATOM     21  C   UNL     1      -3.426  -1.186  -3.425  1.00  0.00     0.134 A 
BRANCH  21  22
ATOM     22  C   UNL     1      -3.799  -0.542  -4.679  1.00  0.00     0.024 A 
ATOM     23  C   UNL     1      -2.848   0.034  -5.534  1.00  0.00     0.012 A 
ATOM     24  C   UNL     1      -5.158  -0.468  -5.030  1.00  0.00     0.097 A 
ATOM     25  C   UNL     1      -3.245   0.676  -6.718  1.00  0.00     0.008 A 
ATOM     26  C   UNL     1      -5.551   0.198  -6.200  1.00  0.00     0.270 A 
ATOM     27  C   UNL     1      -4.599   0.763  -7.055  1.00  0.00     0.085 A 
BRANCH  26  28
ATOM     28  N   UNL     1      -6.980   0.348  -6.500  1.00  0.00     0.062 N 
ATOM     29  O   UNL     1      -7.292   0.654  -7.659  1.00  0.00    -0.258 OA
ATOM     30  O   UNL     1      -7.782   0.146  -5.578  1.00  0.00    -0.258 OA
ENDBRANCH  26  28
ENDBRANCH  21  22
ENDBRANCH  13  17
ENDBRANCH   5   8
ENDBRANCH   3   4
ENDBRANCH   2   3
ENDBRANCH   1   2
BRANCH   1  31
ATOM     31  C   UNL     1      -4.301   2.826  -4.034  1.00  0.00     0.002 C 
BRANCH  31  32
ATOM     32  C   UNL     1      -5.633   2.929  -3.307  1.00  0.00     0.021 C 
BRANCH  32  33
ATOM     33  C   UNL     1      -6.459   4.133  -3.713  1.00  0.00     0.116 C 
BRANCH  33  34
ATOM     34  N   UNL     1      -6.729   4.191  -5.143  1.00  0.00    -0.352 N 
ATOM     35  C   UNL     1      -7.875   4.591  -5.788  1.00  0.00     0.251 C 
ATOM     36  H   UNL     1      -5.990   3.904  -5.727  1.00  0.00     0.163 HD
ATOM     37  O   UNL     1      -7.965   4.488  -7.003  1.00  0.00    -0.269 OA
BRANCH  35  38
ATOM     38  C   UNL     1      -8.995   5.136  -4.990  1.00  0.00     0.039 A 
ATOM     39  C   UNL     1     -10.300   4.736  -5.279  1.00  0.00     0.014 A 
ATOM     40  C   UNL     1      -8.746   6.024  -3.941  1.00  0.00     0.014 A 
ATOM     41  C   UNL     1     -11.349   5.202  -4.485  1.00  0.00     0.010 A 
ATOM     42  C   UNL     1      -9.771   6.383  -3.080  1.00  0.00     0.010 A 
ATOM     43  C   UNL     1     -11.090   6.011  -3.365  1.00  0.00    -0.014 A 
BRANCH  43  44
ATOM     44  C   UNL     1     -12.188   6.530  -2.514  1.00  0.00     0.031 A 
ATOM     45  C   UNL     1     -12.393   8.019  -2.388  1.00  0.00     0.074 A 
ATOM     46  C   UNL     1     -12.966   5.673  -1.824  1.00  0.00     0.049 A 
ATOM     47  N   UNL     1     -13.281   8.673  -1.684  1.00  0.00    -0.248 NA
ATOM     48  C   UNL     1     -11.456   8.891  -3.120  1.00  0.00     0.031 C 
ATOM     49  C   UNL     1     -12.823   4.215  -1.816  1.00  0.00     0.029 A 
ATOM     50  N   UNL     1     -14.036   5.906  -0.999  1.00  0.00    -0.354 N 
ATOM     51  C   UNL     1     -12.995  10.021  -1.874  1.00  0.00     0.074 A 
ATOM     52  C   UNL     1     -11.809  10.093  -2.694  1.00  0.00     0.031 C 
ATOM     53  C   UNL     1     -13.801   3.682  -1.065  1.00  0.00     0.029 A 
ATOM     54  C   UNL     1     -14.613   4.758  -0.508  1.00  0.00     0.049 A 
ATOM     55  H   UNL     1     -14.361   6.809  -0.780  1.00  0.00     0.167 HD
ATOM     56  C   UNL     1     -13.678  11.105  -1.436  1.00  0.00     0.031 A 
ATOM     57  C   UNL     1     -15.682   4.594   0.295  1.00  0.00     0.031 A 
ATOM     58  C   UNL     1     -14.873  11.025  -0.641  1.00  0.00     0.049 A 
ATOM     59  C   UNL     1     -16.435   5.812   0.756  1.00  0.00     0.074 A 
ATOM     60  C   UNL     1     -15.682  12.055  -0.197  1.00  0.00     0.029 A 
ATOM     61  N   UNL     1     -15.434   9.844  -0.176  1.00  0.00    -0.354 N 
ATOM     62  N   UNL     1     -16.194   7.078   0.502  1.00  0.00    -0.248 NA
ATOM     63  C   UNL     1     -17.616   5.578   1.596  1.00  0.00     0.031 C 
ATOM     64  C   UNL     1     -16.701  11.501   0.586  1.00  0.00     0.029 A 
ATOM     65  C   UNL     1     -16.564  10.121   0.572  1.00  0.00     0.049 A 
ATOM     66  H   UNL     1     -15.080   8.943  -0.353  1.00  0.00     0.167 HD
ATOM     67  C   UNL     1     -17.209   7.790   1.132  1.00  0.00     0.074 A 
ATOM     68  C   UNL     1     -18.079   6.810   1.754  1.00  0.00     0.031 C 
ATOM     69  C   UNL     1     -17.407   9.131   1.194  1.00  0.00     0.031 A 
BRANCH  56  70
ATOM     70  C   UNL     1     -13.145  12.464  -1.812  1.00  0.00    -0.014 A 
ATOM     71  C   UNL     1     -13.157  12.908  -3.148  1.00  0.00     0.010 A 
ATOM     72  C   UNL     1     -12.648  13.321  -0.815  1.00  0.00     0.010 A 
ATOM     73  C   UNL     1     -12.640  14.162  -3.485  1.00  0.00     0.020 A 
ATOM     74  C   UNL     1     -12.161  14.591  -1.142  1.00  0.00     0.020 A 
ATOM     75  C   UNL     1     -12.144  14.995  -2.479  1.00  0.00     0.054 A 
BRANCH  75  76
ATOM     76  S   UNL     1     -11.504  16.628  -2.941  1.00  0.00     0.124 S 
ATOM     77  O   UNL     1     -10.255  16.282  -3.615  1.00  0.00    -0.237 OA
ATOM     78  O   UNL     1     -12.559  17.152  -3.805  1.00  0.00    -0.237 OA
ATOM     79  O   UNL     1     -11.351  17.316  -1.662  1.00  0.00    -0.744 OA
ENDBRANCH  75  76
ENDBRANCH  56  70
BRANCH  57  80
ATOM     80  C   UNL     1     -16.119   3.225   0.685  1.00  0.00    -0.014 A 
ATOM     81  C   UNL     1     -17.323   2.689   0.194  1.00  0.00     0.010 A 
ATOM     82  C   UNL     1     -15.327   2.444   1.546  1.00  0.00     0.010 A 
ATOM     83  C   UNL     1     -17.739   1.410   0.575  1.00  0.00     0.020 A 
ATOM     84  C   UNL     1     -15.724   1.152   1.905  1.00  0.00     0.020 A 
ATOM     85  C   UNL     1     -16.935   0.648   1.427  1.00  0.00     0.054 A 
BRANCH  85  86
ATOM     86  S   UNL     1     -17.473  -1.026   1.875  1.00  0.00     0.124 S 
ATOM     87  O   UNL     1     -18.584  -0.755   2.781  1.00  0.00    -0.237 OA
ATOM     88  O   UNL     1     -17.836  -1.597   0.580  1.00  0.00    -0.237 OA
ATOM     89  O   UNL     1     -16.287  -1.612   2.495  1.00  0.00    -0.744 OA
ENDBRANCH  85  86
ENDBRANCH  57  80
BRANCH  69  90
ATOM     90  C   UNL     1     -18.624   9.611   1.940  1.00  0.00    -0.014 A 
ATOM     91  C   UNL     1     -18.718   9.491   3.338  1.00  0.00     0.010 A 
ATOM     92  C   UNL     1     -19.679  10.213   1.231  1.00  0.00     0.010 A 
ATOM     93  C   UNL     1     -19.869   9.913   4.006  1.00  0.00     0.020 A 
ATOM     94  C   UNL     1     -20.817  10.669   1.900  1.00  0.00     0.020 A 
ATOM     95  C   UNL     1     -20.914  10.495   3.281  1.00  0.00     0.054 A 
BRANCH  95  96
ATOM     96  S   UNL     1     -22.394  11.042   4.173  1.00  0.00     0.124 S 
ATOM     97  O   UNL     1     -23.040   9.773   4.496  1.00  0.00    -0.237 OA
ATOM     98  O   UNL     1     -21.834  11.770   5.309  1.00  0.00    -0.237 OA
ATOM     99  O   UNL     1     -23.100  11.870   3.198  1.00  0.00    -0.744 OA
ENDBRANCH  95  96
ENDBRANCH  69  90
ENDBRANCH  43  44
ENDBRANCH  35  38
ENDBRANCH  33  34
ENDBRANCH  32  33
ENDBRANCH  31  32
ENDBRANCH   1  31
TORSDOF 19
