REMARK SMILES CC[C@@H](C(=O)NCCCCCCNC(=O)c1ccc(-c2c3nc(c(-c4ccc(S(=O)(=O)[O-])cc4)c4ccc([nH]4)c(-c4ccc(S(=O)(=O)[O-])cc4)c4nc(c(-c5ccc(S(=O)(=O)[O-])cc5)c5ccc2[nH]5)C=C4)C=C3)cc1)N1CCN(Cc2cccc(C)c2)C(=O)C1=O
REMARK SMILES IDX 9 1 8 2 7 3 6 4 4 5 5 6 3 8 2 9 1 10 76 11 77 12 90 13 78 14
REMARK SMILES IDX 88 15 91 16 79 17 89 18 80 19 81 20 82 21 87 22 83 23 85 24
REMARK SMILES IDX 84 25 86 26 10 27 11 28 12 29 13 30 14 31 15 33 16 34 17 35
REMARK SMILES IDX 75 36 18 37 74 38 19 39 20 40 21 41 68 42 22 43 73 44 67 45
REMARK SMILES IDX 69 46 23 47 72 48 66 49 65 50 24 52 54 53 35 54 53 55 36 56
REMARK SMILES IDX 39 57 52 58 70 59 37 60 38 61 51 63 71 64 40 65 25 66 26 67
REMARK SMILES IDX 34 68 27 69 33 70 28 71 29 72 30 73 31 74 32 75 55 76 56 77
REMARK SMILES IDX 64 78 57 79 63 80 58 81 59 82 60 83 61 84 62 85 41 86 42 87
REMARK SMILES IDX 50 88 43 89 49 90 44 91 45 92 46 93 47 94 48 95
REMARK H PARENT 6 7 13 32 69 51 39 62
REMARK Flexibility Score: inf
ROOT
ATOM      1  C   UNL     1       0.666  -2.763  -3.082  1.00  0.00     0.002 C 
ENDROOT
BRANCH   1   2
ATOM      2  C   UNL     1       0.925  -1.927  -1.825  1.00  0.00     0.021 C 
BRANCH   2   3
ATOM      3  C   UNL     1       1.745  -0.662  -2.070  1.00  0.00     0.116 C 
BRANCH   3   4
ATOM      4  N   UNL     1       0.948   0.339  -2.734  1.00  0.00    -0.354 N 
ATOM      5  C   UNL     1       0.519   1.563  -2.331  1.00  0.00     0.242 C 
ATOM      6  O   UNL     1       0.020   2.254  -3.229  1.00  0.00    -0.273 OA
ATOM      7  H   UNL     1       0.663   0.090  -3.643  1.00  0.00     0.163 HD
BRANCH   5   8
ATOM      8  C   UNL     1       0.776   2.118  -0.889  1.00  0.00     0.174 C 
BRANCH   8   9
ATOM      9  C   UNL     1       0.085   1.482   0.332  1.00  0.00     0.032 C 
ATOM     10  C   UNL     1       0.734   0.255   0.948  1.00  0.00     0.006 C 
ENDBRANCH   8   9
BRANCH   8  11
ATOM     11  N   UNL     1       0.415   3.560  -0.925  1.00  0.00    -0.321 N 
ATOM     12  C   UNL     1       1.423   4.558  -0.645  1.00  0.00     0.142 C 
ATOM     13  C   UNL     1      -0.922   3.961  -1.087  1.00  0.00     0.312 C 
ATOM     14  C   UNL     1       1.218   5.763  -1.548  1.00  0.00     0.142 C 
ATOM     15  C   UNL     1      -1.204   5.496  -1.172  1.00  0.00     0.312 C 
ATOM     16  O   UNL     1      -1.863   3.175  -1.161  1.00  0.00    -0.263 OA
ATOM     17  N   UNL     1      -0.104   6.340  -1.357  1.00  0.00    -0.328 N 
ATOM     18  O   UNL     1      -2.358   5.906  -1.079  1.00  0.00    -0.263 OA
BRANCH  17  19
ATOM     19  C   UNL     1      -0.311   7.768  -1.574  1.00  0.00     0.155 C 
BRANCH  19  20
ATOM     20  C   UNL     1       0.114   8.623  -0.399  1.00  0.00    -0.028 A 
ATOM     21  C   UNL     1      -0.841   9.216   0.437  1.00  0.00     0.005 A 
ATOM     22  C   UNL     1       1.472   8.841  -0.118  1.00  0.00     0.009 A 
ATOM     23  C   UNL     1      -0.445  10.002   1.522  1.00  0.00     0.001 A 
ATOM     24  C   UNL     1       1.879   9.559   1.013  1.00  0.00    -0.051 A 
ATOM     25  C   UNL     1       0.910  10.163   1.816  1.00  0.00     0.003 A 
ATOM     26  C   UNL     1       3.336   9.682   1.345  1.00  0.00     0.044 C 
ENDBRANCH  19  20
ENDBRANCH  17  19
ENDBRANCH   8  11
ENDBRANCH   5   8
ENDBRANCH   3   4
ENDBRANCH   2   3
ENDBRANCH   1   2
BRANCH   1  27
ATOM     27  C   UNL     1       1.922  -3.300  -3.773  1.00  0.00     0.002 C 
BRANCH  27  28
ATOM     28  C   UNL     1       2.878  -4.077  -2.864  1.00  0.00     0.021 C 
BRANCH  28  29
ATOM     29  C   UNL     1       2.239  -5.240  -2.112  1.00  0.00     0.116 C 
BRANCH  29  30
ATOM     30  N   UNL     1       1.663  -6.219  -3.018  1.00  0.00    -0.352 N 
ATOM     31  C   UNL     1       1.943  -7.554  -3.151  1.00  0.00     0.251 C 
ATOM     32  H   UNL     1       0.971  -5.872  -3.626  1.00  0.00     0.163 HD
ATOM     33  O   UNL     1       1.532  -8.169  -4.130  1.00  0.00    -0.269 OA
BRANCH  31  34
ATOM     34  C   UNL     1       2.747  -8.247  -2.122  1.00  0.00     0.039 A 
ATOM     35  C   UNL     1       3.726  -9.153  -2.532  1.00  0.00     0.014 A 
ATOM     36  C   UNL     1       2.522  -8.024  -0.759  1.00  0.00     0.014 A 
ATOM     37  C   UNL     1       4.510  -9.801  -1.576  1.00  0.00     0.010 A 
ATOM     38  C   UNL     1       3.358  -8.609   0.188  1.00  0.00     0.010 A 
ATOM     39  C   UNL     1       4.354  -9.513  -0.209  1.00  0.00    -0.014 A 
BRANCH  39  40
ATOM     40  C   UNL     1       5.240 -10.147   0.800  1.00  0.00     0.031 A 
ATOM     41  C   UNL     1       4.676 -11.072   1.846  1.00  0.00     0.074 A 
ATOM     42  C   UNL     1       6.557  -9.864   0.788  1.00  0.00     0.049 A 
ATOM     43  N   UNL     1       5.308 -11.743   2.776  1.00  0.00    -0.248 NA
ATOM     44  C   UNL     1       3.216 -11.251   1.866  1.00  0.00     0.031 C 
ATOM     45  C   UNL     1       7.214  -8.937  -0.138  1.00  0.00     0.029 A 
ATOM     46  N   UNL     1       7.583 -10.332   1.571  1.00  0.00    -0.354 N 
ATOM     47  C   UNL     1       4.324 -12.413   3.495  1.00  0.00     0.074 A 
ATOM     48  C   UNL     1       3.051 -12.024   2.930  1.00  0.00     0.031 C 
ATOM     49  C   UNL     1       8.534  -8.938   0.102  1.00  0.00     0.029 A 
ATOM     50  C   UNL     1       8.815  -9.832   1.221  1.00  0.00     0.049 A 
ATOM     51  H   UNL     1       7.449 -10.965   2.313  1.00  0.00     0.167 HD
ATOM     52  C   UNL     1       4.469 -13.288   4.519  1.00  0.00     0.031 A 
ATOM     53  C   UNL     1      10.036 -10.065   1.739  1.00  0.00     0.031 A 
ATOM     54  C   UNL     1       5.740 -13.670   5.078  1.00  0.00     0.049 A 
ATOM     55  C   UNL     1      10.172 -11.044   2.872  1.00  0.00     0.074 A 
ATOM     56  C   UNL     1       5.999 -14.596   6.074  1.00  0.00     0.029 A 
ATOM     57  N   UNL     1       6.965 -13.141   4.698  1.00  0.00    -0.354 N 
ATOM     58  N   UNL     1       9.237 -11.735   3.481  1.00  0.00    -0.248 NA
ATOM     59  C   UNL     1      11.530 -11.287   3.376  1.00  0.00     0.031 C 
ATOM     60  C   UNL     1       7.372 -14.577   6.343  1.00  0.00     0.029 A 
ATOM     61  C   UNL     1       7.979 -13.694   5.464  1.00  0.00     0.049 A 
ATOM     62  H   UNL     1       7.095 -12.471   3.989  1.00  0.00     0.167 HD
ATOM     63  C   UNL     1       9.897 -12.510   4.428  1.00  0.00     0.074 A 
ATOM     64  C   UNL     1      11.311 -12.222   4.289  1.00  0.00     0.031 C 
ATOM     65  C   UNL     1       9.380 -13.381   5.332  1.00  0.00     0.031 A 
BRANCH  52  66
ATOM     66  C   UNL     1       3.216 -13.882   5.113  1.00  0.00    -0.014 A 
ATOM     67  C   UNL     1       2.412 -14.778   4.383  1.00  0.00     0.010 A 
ATOM     68  C   UNL     1       2.855 -13.568   6.437  1.00  0.00     0.010 A 
ATOM     69  C   UNL     1       1.250 -15.312   4.948  1.00  0.00     0.020 A 
ATOM     70  C   UNL     1       1.711 -14.125   7.017  1.00  0.00     0.020 A 
ATOM     71  C   UNL     1       0.906 -14.980   6.262  1.00  0.00     0.054 A 
BRANCH  71  72
ATOM     72  S   UNL     1      -0.597 -15.704   6.975  1.00  0.00     0.124 S 
ATOM     73  O   UNL     1      -1.647 -14.997   6.245  1.00  0.00    -0.237 OA
ATOM     74  O   UNL     1      -0.453 -17.121   6.652  1.00  0.00    -0.237 OA
ATOM     75  O   UNL     1      -0.499 -15.377   8.396  1.00  0.00    -0.744 OA
ENDBRANCH  71  72
ENDBRANCH  52  66
BRANCH  53  76
ATOM     76  C   UNL     1      11.224  -9.368   1.175  1.00  0.00    -0.014 A 
ATOM     77  C   UNL     1      12.196 -10.076   0.446  1.00  0.00     0.010 A 
ATOM     78  C   UNL     1      11.375  -7.979   1.344  1.00  0.00     0.010 A 
ATOM     79  C   UNL     1      13.303  -9.410  -0.091  1.00  0.00     0.020 A 
ATOM     80  C   UNL     1      12.463  -7.306   0.782  1.00  0.00     0.020 A 
ATOM     81  C   UNL     1      13.425  -8.028   0.076  1.00  0.00     0.054 A 
BRANCH  81  82
ATOM     82  S   UNL     1      14.835  -7.175  -0.684  1.00  0.00     0.124 S 
ATOM     83  O   UNL     1      15.944  -7.611   0.159  1.00  0.00    -0.237 OA
ATOM     84  O   UNL     1      14.826  -7.705  -2.045  1.00  0.00    -0.237 OA
ATOM     85  O   UNL     1      14.481  -5.762  -0.571  1.00  0.00    -0.744 OA
ENDBRANCH  81  82
ENDBRANCH  53  76
BRANCH  65  86
ATOM     86  C   UNL     1      10.357 -14.097   6.230  1.00  0.00    -0.014 A 
ATOM     87  C   UNL     1      11.075 -13.409   7.224  1.00  0.00     0.010 A 
ATOM     88  C   UNL     1      10.545 -15.484   6.086  1.00  0.00     0.010 A 
ATOM     89  C   UNL     1      12.005 -14.085   8.020  1.00  0.00     0.020 A 
ATOM     90  C   UNL     1      11.447 -16.169   6.904  1.00  0.00     0.020 A 
ATOM     91  C   UNL     1      12.188 -15.460   7.850  1.00  0.00     0.054 A 
BRANCH  91  92
ATOM     92  S   UNL     1      13.397 -16.314   8.898  1.00  0.00     0.124 S 
ATOM     93  O   UNL     1      14.664 -15.848   8.342  1.00  0.00    -0.237 OA
ATOM     94  O   UNL     1      13.073 -15.815  10.232  1.00  0.00    -0.237 OA
ATOM     95  O   UNL     1      13.105 -17.730   8.681  1.00  0.00    -0.744 OA
ENDBRANCH  91  92
ENDBRANCH  65  86
ENDBRANCH  39  40
ENDBRANCH  31  34
ENDBRANCH  29  30
ENDBRANCH  28  29
ENDBRANCH  27  28
ENDBRANCH   1  27
TORSDOF 20
