REMARK SMILES Cc1ccccc1OC1(C(=O)NCCCCCCNC(=O)c2ccc(-c3c4nc(c(-c5ccc(S(=O)(=O)[O-])cc5)c5ccc([nH]5)c(-c5ccc(S(=O)(=O)[O-])cc5)c5nc(c(-c6ccc(S(=O)(=O)[O-])cc6)c6ccc3[nH]6)C=C5)C=C4)cc2)CCN(C(=O)[C@H]2CCCCO2)CC1
REMARK SMILES IDX 16 1 15 2 14 3 13 4 12 5 10 6 11 7 9 9 82 10 94 11 83 12
REMARK SMILES IDX 93 13 84 14 85 15 86 16 8 17 7 18 1 19 2 20 3 21 4 22 6 23
REMARK SMILES IDX 5 24 87 25 88 26 92 27 89 28 91 29 90 30 17 31 18 32 19 33
REMARK SMILES IDX 20 34 21 36 22 37 23 38 81 39 24 40 80 41 25 42 26 43 27 44
REMARK SMILES IDX 74 45 28 46 79 47 73 48 75 49 29 50 78 51 72 52 71 53 30 55
REMARK SMILES IDX 60 56 41 57 59 58 42 59 45 60 58 61 76 62 43 63 44 64 57 66
REMARK SMILES IDX 77 67 46 68 31 69 32 70 40 71 33 72 39 73 34 74 35 75 36 76
REMARK SMILES IDX 37 77 38 78 61 79 62 80 70 81 63 82 69 83 64 84 65 85 66 86
REMARK SMILES IDX 67 87 68 88 47 89 48 90 56 91 49 92 55 93 50 94 51 95 52 96
REMARK SMILES IDX 53 97 54 98
REMARK H PARENT 12 8 19 35 75 54 45 65
REMARK Flexibility Score: inf
ROOT
ATOM      1  C   UNL     1       9.574  -2.959  -5.269  1.00  0.00     0.002 C 
ENDROOT
BRANCH   1   2
ATOM      2  C   UNL     1       9.902  -4.147  -4.346  1.00  0.00     0.002 C 
BRANCH   2   3
ATOM      3  C   UNL     1       9.032  -4.306  -3.093  1.00  0.00     0.021 C 
BRANCH   3   4
ATOM      4  C   UNL     1       7.523  -4.332  -3.343  1.00  0.00     0.116 C 
BRANCH   4   5
ATOM      5  N   UNL     1       7.000  -5.665  -3.544  1.00  0.00    -0.353 N 
ATOM      6  C   UNL     1       6.082  -6.411  -2.861  1.00  0.00     0.264 C 
ATOM      7  O   UNL     1       5.755  -7.460  -3.433  1.00  0.00    -0.270 OA
ATOM      8  H   UNL     1       7.380  -6.125  -4.328  1.00  0.00     0.163 HD
BRANCH   6   9
ATOM      9  C   UNL     1       5.471  -5.990  -1.459  1.00  0.00     0.190 C 
ATOM     10  C   UNL     1       6.607  -5.943  -0.439  1.00  0.00     0.080 C 
ATOM     11  C   UNL     1       4.589  -4.752  -1.659  1.00  0.00     0.080 C 
ATOM     12  C   UNL     1       7.015  -4.561   0.048  1.00  0.00     0.124 C 
ATOM     13  C   UNL     1       4.991  -3.464  -0.943  1.00  0.00     0.124 C 
ATOM     14  N   UNL     1       5.923  -3.595   0.167  1.00  0.00    -0.340 N 
ATOM     15  C   UNL     1       6.006  -2.680   1.228  1.00  0.00     0.251 C 
ATOM     16  O   UNL     1       6.912  -2.765   2.063  1.00  0.00    -0.272 OA
BRANCH   9  17
ATOM     17  O   UNL     1       4.644  -7.164  -1.199  1.00  0.00    -0.477 OA
BRANCH  17  18
ATOM     18  C   UNL     1       3.687  -7.464  -0.282  1.00  0.00     0.123 A 
ATOM     19  C   UNL     1       4.072  -5.839   1.702  1.00  0.00     0.048 C 
ATOM     20  C   UNL     1       3.372  -6.936   0.977  1.00  0.00    -0.009 A 
ATOM     21  C   UNL     1       2.332  -7.527   1.740  1.00  0.00     0.007 A 
ATOM     22  C   UNL     1       1.605  -8.615   1.278  1.00  0.00     0.001 A 
ATOM     23  C   UNL     1       2.932  -8.570  -0.725  1.00  0.00     0.047 A 
ATOM     24  C   UNL     1       1.906  -9.141   0.035  1.00  0.00     0.004 A 
ENDBRANCH  17  18
ENDBRANCH   9  17
BRANCH  15  25
ATOM     25  C   UNL     1       4.914  -1.587   1.369  1.00  0.00     0.207 C 
ATOM     26  C   UNL     1       3.708  -2.189   2.105  1.00  0.00     0.042 C 
ATOM     27  O   UNL     1       5.463  -0.487   2.106  1.00  0.00    -0.368 OA
ATOM     28  C   UNL     1       2.703  -1.134   2.551  1.00  0.00     0.006 C 
ATOM     29  C   UNL     1       4.529   0.543   2.394  1.00  0.00     0.161 C 
ATOM     30  C   UNL     1       3.408   0.007   3.268  1.00  0.00     0.029 C 
ENDBRANCH  15  25
ENDBRANCH   6   9
ENDBRANCH   4   5
ENDBRANCH   3   4
ENDBRANCH   2   3
ENDBRANCH   1   2
BRANCH   1  31
ATOM     31  C   UNL     1       9.341  -1.612  -4.582  1.00  0.00     0.021 C 
BRANCH  31  32
ATOM     32  C   UNL     1      10.594  -1.019  -3.948  1.00  0.00     0.116 C 
BRANCH  32  33
ATOM     33  N   UNL     1      11.132   0.104  -4.700  1.00  0.00    -0.352 N 
ATOM     34  C   UNL     1      12.086   1.014  -4.274  1.00  0.00     0.251 C 
ATOM     35  H   UNL     1      10.780   0.231  -5.611  1.00  0.00     0.163 HD
ATOM     36  O   UNL     1      12.251   2.100  -4.791  1.00  0.00    -0.269 OA
BRANCH  34  37
ATOM     37  C   UNL     1      13.021   0.524  -3.239  1.00  0.00     0.039 A 
ATOM     38  C   UNL     1      14.311   0.185  -3.663  1.00  0.00     0.014 A 
ATOM     39  C   UNL     1      12.546   0.146  -1.987  1.00  0.00     0.014 A 
ATOM     40  C   UNL     1      15.076  -0.682  -2.889  1.00  0.00     0.010 A 
ATOM     41  C   UNL     1      13.273  -0.777  -1.261  1.00  0.00     0.010 A 
ATOM     42  C   UNL     1      14.513  -1.228  -1.736  1.00  0.00    -0.014 A 
BRANCH  42  43
ATOM     43  C   UNL     1      15.129  -2.307  -0.972  1.00  0.00     0.031 A 
ATOM     44  C   UNL     1      15.803  -1.988   0.312  1.00  0.00     0.074 A 
ATOM     45  C   UNL     1      15.037  -3.590  -1.391  1.00  0.00     0.049 A 
ATOM     46  N   UNL     1      16.625  -2.772   0.925  1.00  0.00    -0.248 NA
ATOM     47  C   UNL     1      15.633  -0.704   0.989  1.00  0.00     0.031 C 
ATOM     48  C   UNL     1      15.357  -4.788  -0.614  1.00  0.00     0.029 A 
ATOM     49  N   UNL     1      14.773  -4.116  -2.654  1.00  0.00    -0.354 N 
ATOM     50  C   UNL     1      16.870  -2.240   2.170  1.00  0.00     0.074 A 
ATOM     51  C   UNL     1      16.286  -0.920   2.135  1.00  0.00     0.031 C 
ATOM     52  C   UNL     1      15.593  -5.799  -1.465  1.00  0.00     0.029 A 
ATOM     53  C   UNL     1      15.611  -5.231  -2.800  1.00  0.00     0.049 A 
ATOM     54  H   UNL     1      14.127  -3.773  -3.313  1.00  0.00     0.167 HD
ATOM     55  C   UNL     1      17.448  -3.018   3.130  1.00  0.00     0.031 A 
ATOM     56  C   UNL     1      16.687  -5.282  -3.647  1.00  0.00     0.031 A 
ATOM     57  C   UNL     1      17.890  -4.307   2.595  1.00  0.00     0.049 A 
ATOM     58  C   UNL     1      18.025  -5.510  -2.941  1.00  0.00     0.074 A 
ATOM     59  C   UNL     1      17.409  -5.605   2.644  1.00  0.00     0.029 A 
ATOM     60  N   UNL     1      18.872  -4.302   1.617  1.00  0.00    -0.354 N 
ATOM     61  N   UNL     1      18.172  -5.597  -1.646  1.00  0.00    -0.248 NA
ATOM     62  C   UNL     1      19.314  -5.566  -3.639  1.00  0.00     0.031 C 
ATOM     63  C   UNL     1      18.098  -6.370   1.655  1.00  0.00     0.029 A 
ATOM     64  C   UNL     1      19.008  -5.542   1.025  1.00  0.00     0.049 A 
ATOM     65  H   UNL     1      19.407  -3.512   1.375  1.00  0.00     0.167 HD
ATOM     66  C   UNL     1      19.502  -5.673  -1.333  1.00  0.00     0.074 A 
ATOM     67  C   UNL     1      20.181  -5.664  -2.615  1.00  0.00     0.031 C 
ATOM     68  C   UNL     1      19.971  -5.693  -0.052  1.00  0.00     0.031 A 
BRANCH  55  69
ATOM     69  C   UNL     1      17.427  -2.684   4.605  1.00  0.00    -0.014 A 
ATOM     70  C   UNL     1      17.496  -3.722   5.557  1.00  0.00     0.010 A 
ATOM     71  C   UNL     1      17.286  -1.382   5.122  1.00  0.00     0.010 A 
ATOM     72  C   UNL     1      17.334  -3.485   6.933  1.00  0.00     0.020 A 
ATOM     73  C   UNL     1      17.083  -1.132   6.488  1.00  0.00     0.020 A 
ATOM     74  C   UNL     1      17.098  -2.190   7.387  1.00  0.00     0.054 A 
BRANCH  74  75
ATOM     75  S   UNL     1      16.807  -1.903   9.152  1.00  0.00     0.124 S 
ATOM     76  O   UNL     1      15.672  -2.778   9.432  1.00  0.00    -0.237 OA
ATOM     77  O   UNL     1      18.077  -2.305   9.749  1.00  0.00    -0.237 OA
ATOM     78  O   UNL     1      16.513  -0.472   9.227  1.00  0.00    -0.744 OA
ENDBRANCH  74  75
ENDBRANCH  55  69
BRANCH  56  79
ATOM     79  C   UNL     1      16.507  -4.500  -4.903  1.00  0.00    -0.014 A 
ATOM     80  C   UNL     1      15.497  -4.924  -5.793  1.00  0.00     0.010 A 
ATOM     81  C   UNL     1      17.003  -3.191  -5.013  1.00  0.00     0.010 A 
ATOM     82  C   UNL     1      14.857  -4.008  -6.630  1.00  0.00     0.020 A 
ATOM     83  C   UNL     1      16.374  -2.274  -5.868  1.00  0.00     0.020 A 
ATOM     84  C   UNL     1      15.258  -2.673  -6.611  1.00  0.00     0.054 A 
BRANCH  84  85
ATOM     85  S   UNL     1      14.186  -1.446  -7.418  1.00  0.00     0.124 S 
ATOM     86  O   UNL     1      14.159  -1.915  -8.800  1.00  0.00    -0.237 OA
ATOM     87  O   UNL     1      12.933  -1.599  -6.678  1.00  0.00    -0.237 OA
ATOM     88  O   UNL     1      14.886  -0.186  -7.194  1.00  0.00    -0.744 OA
ENDBRANCH  84  85
ENDBRANCH  56  79
BRANCH  68  89
ATOM     89  C   UNL     1      21.429  -5.823   0.276  1.00  0.00    -0.014 A 
ATOM     90  C   UNL     1      22.234  -6.806  -0.324  1.00  0.00     0.010 A 
ATOM     91  C   UNL     1      22.004  -5.034   1.295  1.00  0.00     0.010 A 
ATOM     92  C   UNL     1      23.580  -6.952   0.036  1.00  0.00     0.020 A 
ATOM     93  C   UNL     1      23.341  -5.185   1.673  1.00  0.00     0.020 A 
ATOM     94  C   UNL     1      24.128  -6.130   1.024  1.00  0.00     0.054 A 
BRANCH  94  95
ATOM     95  S   UNL     1      25.866  -6.342   1.488  1.00  0.00     0.124 S 
ATOM     96  O   UNL     1      26.025  -7.794   1.496  1.00  0.00    -0.237 OA
ATOM     97  O   UNL     1      26.552  -5.643   0.404  1.00  0.00    -0.237 OA
ATOM     98  O   UNL     1      25.956  -5.704   2.799  1.00  0.00    -0.744 OA
ENDBRANCH  94  95
ENDBRANCH  68  89
ENDBRANCH  42  43
ENDBRANCH  34  37
ENDBRANCH  32  33
ENDBRANCH  31  32
ENDBRANCH   1  31
TORSDOF 19
