REMARK SMILES O=C(NCCCCCCNC(=O)c1ccc(-c2c3nc(c(-c4ccc(S(=O)(=O)[O-])cc4)c4ccc([nH]4)c(-c4ccc(S(=O)(=O)[O-])cc4)c4nc(c(-c5ccc(S(=O)(=O)[O-])cc5)c5ccc2[nH]5)C=C4)C=C3)cc1)C1=N[C@@H]2NC=NN2[C@@H]([C@H]2C=NN=C2c2ccc(F)cc2)C1
REMARK SMILES IDX 7 1 6 2 5 3 4 4 3 5 1 6 2 7 73 9 74 10 93 11 75 12 80 13
REMARK SMILES IDX 76 14 79 15 77 16 78 18 81 19 82 20 85 21 83 22 84 23 86 24
REMARK SMILES IDX 87 25 92 26 88 27 91 28 89 29 90 30 8 31 9 32 10 33 11 34
REMARK SMILES IDX 12 36 13 37 14 38 72 39 15 40 71 41 16 42 17 43 18 44 65 45
REMARK SMILES IDX 19 46 70 47 64 48 66 49 20 50 69 51 63 52 62 53 21 55 51 56
REMARK SMILES IDX 32 57 50 58 33 59 36 60 49 61 67 62 34 63 35 64 48 66 68 67
REMARK SMILES IDX 37 68 22 69 23 70 31 71 24 72 30 73 25 74 26 75 27 76 28 77
REMARK SMILES IDX 29 78 52 79 53 80 61 81 54 82 60 83 55 84 56 85 57 86 58 87
REMARK SMILES IDX 59 88 38 89 39 90 47 91 40 92 46 93 41 94 42 95 43 96 44 97
REMARK SMILES IDX 45 98
REMARK H PARENT 3 8 76 17 10 35 66 54 36 65
REMARK Flexibility Score: inf
ROOT
ATOM      1  C   UNL     1      12.026   3.388   7.376  1.00  0.00     0.002 C 
ENDROOT
BRANCH   1   2
ATOM      2  C   UNL     1      12.700   2.771   6.149  1.00  0.00     0.002 C 
BRANCH   2   3
ATOM      3  C   UNL     1      11.982   1.602   5.472  1.00  0.00     0.021 C 
BRANCH   3   4
ATOM      4  C   UNL     1      10.547   1.824   4.999  1.00  0.00     0.116 C 
BRANCH   4   5
ATOM      5  N   UNL     1      10.363   2.875   4.019  1.00  0.00    -0.351 N 
ATOM      6  O   UNL     1       9.264   4.141   2.512  1.00  0.00    -0.268 OA
ATOM      7  C   UNL     1       9.321   3.088   3.141  1.00  0.00     0.265 C 
ATOM      8  H   UNL     1      11.091   3.537   3.974  1.00  0.00     0.163 HD
BRANCH   7   9
ATOM      9  C   UNL     1       8.276   1.998   2.837  1.00  0.00     0.106 C 
ATOM     10  N   UNL     1       8.028   1.777   1.592  1.00  0.00    -0.237 NA
ATOM     11  C   UNL     1       7.590   1.295   3.976  1.00  0.00     0.090 C 
ATOM     12  C   UNL     1       7.286   0.600   1.220  1.00  0.00     0.319 C 
ATOM     13  C   UNL     1       6.530   0.305   3.491  1.00  0.00     0.127 C 
ATOM     14  N   UNL     1       6.078   0.737   0.457  1.00  0.00    -0.335 N 
ATOM     15  N   UNL     1       6.946  -0.402   2.256  1.00  0.00    -0.249 NA
ATOM     16  C   UNL     1       5.388  -0.403   0.751  1.00  0.00     0.217 C 
ATOM     17  H   UNL     1       5.811   1.476  -0.136  1.00  0.00     0.165 HD
ATOM     18  N   UNL     1       5.861  -1.140   1.723  1.00  0.00    -0.164 NA
BRANCH  13  19
ATOM     19  C   UNL     1       6.112  -0.752   4.532  1.00  0.00     0.109 C 
ATOM     20  C   UNL     1       7.256  -1.598   4.979  1.00  0.00     0.120 C 
ATOM     21  C   UNL     1       5.773  -0.166   5.865  1.00  0.00     0.081 C 
ATOM     22  N   UNL     1       7.543  -1.445   6.230  1.00  0.00    -0.162 NA
ATOM     23  N   UNL     1       6.608  -0.525   6.793  1.00  0.00    -0.155 NA
BRANCH  21  24
ATOM     24  C   UNL     1       4.659   0.777   6.056  1.00  0.00    -0.001 A 
ATOM     25  C   UNL     1       3.536   0.759   5.218  1.00  0.00     0.013 A 
ATOM     26  C   UNL     1       4.769   1.735   7.069  1.00  0.00     0.013 A 
ATOM     27  C   UNL     1       2.535   1.719   5.387  1.00  0.00     0.040 A 
ATOM     28  C   UNL     1       3.771   2.696   7.226  1.00  0.00     0.040 A 
ATOM     29  C   UNL     1       2.667   2.682   6.383  1.00  0.00     0.123 A 
ATOM     30  F   UNL     1       1.715   3.613   6.525  1.00  0.00    -0.207 F 
ENDBRANCH  21  24
ENDBRANCH  13  19
ENDBRANCH   7   9
ENDBRANCH   4   5
ENDBRANCH   3   4
ENDBRANCH   2   3
ENDBRANCH   1   2
BRANCH   1  31
ATOM     31  C   UNL     1      11.624   2.428   8.498  1.00  0.00     0.021 C 
BRANCH  31  32
ATOM     32  C   UNL     1      12.723   1.513   9.035  1.00  0.00     0.116 C 
BRANCH  32  33
ATOM     33  N   UNL     1      13.832   2.237   9.634  1.00  0.00    -0.352 N 
ATOM     34  C   UNL     1      14.419   2.079  10.866  1.00  0.00     0.251 C 
ATOM     35  H   UNL     1      14.221   2.946   9.073  1.00  0.00     0.163 HD
ATOM     36  O   UNL     1      15.274   2.885  11.238  1.00  0.00    -0.269 OA
BRANCH  34  37
ATOM     37  C   UNL     1      14.015   0.971  11.762  1.00  0.00     0.039 A 
ATOM     38  C   UNL     1      13.818   1.240  13.120  1.00  0.00     0.014 A 
ATOM     39  C   UNL     1      13.839  -0.330  11.281  1.00  0.00     0.014 A 
ATOM     40  C   UNL     1      13.377   0.226  13.976  1.00  0.00     0.010 A 
ATOM     41  C   UNL     1      13.328  -1.321  12.119  1.00  0.00     0.010 A 
ATOM     42  C   UNL     1      13.089  -1.055  13.476  1.00  0.00    -0.014 A 
BRANCH  42  43
ATOM     43  C   UNL     1      12.527  -2.118  14.354  1.00  0.00     0.031 A 
ATOM     44  C   UNL     1      13.297  -3.389  14.603  1.00  0.00     0.074 A 
ATOM     45  C   UNL     1      11.297  -1.965  14.885  1.00  0.00     0.049 A 
ATOM     46  N   UNL     1      12.944  -4.446  15.289  1.00  0.00    -0.248 NA
ATOM     47  C   UNL     1      14.629  -3.493  13.985  1.00  0.00     0.031 C 
ATOM     48  C   UNL     1      10.429  -0.801  14.689  1.00  0.00     0.029 A 
ATOM     49  N   UNL     1      10.556  -2.796  15.690  1.00  0.00    -0.354 N 
ATOM     50  C   UNL     1      14.003  -5.341  15.181  1.00  0.00     0.074 A 
ATOM     51  C   UNL     1      14.986  -4.726  14.316  1.00  0.00     0.031 C 
ATOM     52  C   UNL     1       9.286  -0.984  15.369  1.00  0.00     0.029 A 
ATOM     53  C   UNL     1       9.316  -2.294  16.011  1.00  0.00     0.049 A 
ATOM     54  H   UNL     1      10.882  -3.670  16.007  1.00  0.00     0.167 HD
ATOM     55  C   UNL     1      14.156  -6.553  15.766  1.00  0.00     0.031 A 
ATOM     56  C   UNL     1       8.308  -2.830  16.728  1.00  0.00     0.031 A 
ATOM     57  C   UNL     1      13.174  -7.167  16.622  1.00  0.00     0.049 A 
ATOM     58  C   UNL     1       8.488  -4.192  17.343  1.00  0.00     0.074 A 
ATOM     59  C   UNL     1      13.251  -8.378  17.288  1.00  0.00     0.029 A 
ATOM     60  N   UNL     1      11.936  -6.621  16.929  1.00  0.00    -0.354 N 
ATOM     61  N   UNL     1       9.523  -4.995  17.277  1.00  0.00    -0.248 NA
ATOM     62  C   UNL     1       7.370  -4.714  18.140  1.00  0.00     0.031 C 
ATOM     63  C   UNL     1      12.038  -8.590  17.952  1.00  0.00     0.029 A 
ATOM     64  C   UNL     1      11.232  -7.480  17.757  1.00  0.00     0.049 A 
ATOM     65  H   UNL     1      11.607  -5.752  16.606  1.00  0.00     0.167 HD
ATOM     66  C   UNL     1       9.191  -6.105  18.047  1.00  0.00     0.074 A 
ATOM     67  C   UNL     1       7.868  -5.860  18.585  1.00  0.00     0.031 C 
ATOM     68  C   UNL     1       9.916  -7.225  18.288  1.00  0.00     0.031 A 
BRANCH  55  69
ATOM     69  C   UNL     1      15.439  -7.300  15.500  1.00  0.00    -0.014 A 
ATOM     70  C   UNL     1      16.665  -6.838  16.015  1.00  0.00     0.010 A 
ATOM     71  C   UNL     1      15.417  -8.502  14.770  1.00  0.00     0.010 A 
ATOM     72  C   UNL     1      17.847  -7.542  15.772  1.00  0.00     0.020 A 
ATOM     73  C   UNL     1      16.593  -9.226  14.551  1.00  0.00     0.020 A 
ATOM     74  C   UNL     1      17.804  -8.732  15.041  1.00  0.00     0.054 A 
BRANCH  74  75
ATOM     75  S   UNL     1      19.352  -9.636  14.766  1.00  0.00     0.124 S 
ATOM     76  O   UNL     1      20.046  -8.766  13.820  1.00  0.00    -0.237 OA
ATOM     77  O   UNL     1      19.930  -9.694  16.106  1.00  0.00    -0.237 OA
ATOM     78  O   UNL     1      18.913 -10.920  14.223  1.00  0.00    -0.744 OA
ENDBRANCH  74  75
ENDBRANCH  55  69
BRANCH  56  79
ATOM     79  C   UNL     1       7.033  -2.077  16.898  1.00  0.00    -0.014 A 
ATOM     80  C   UNL     1       6.655  -1.571  18.154  1.00  0.00     0.010 A 
ATOM     81  C   UNL     1       6.187  -1.860  15.794  1.00  0.00     0.010 A 
ATOM     82  C   UNL     1       5.446  -0.885  18.309  1.00  0.00     0.020 A 
ATOM     83  C   UNL     1       4.994  -1.145  15.937  1.00  0.00     0.020 A 
ATOM     84  C   UNL     1       4.624  -0.674  17.198  1.00  0.00     0.054 A 
BRANCH  84  85
ATOM     85  S   UNL     1       3.082   0.257  17.413  1.00  0.00     0.124 S 
ATOM     86  O   UNL     1       2.250  -0.697  18.139  1.00  0.00    -0.237 OA
ATOM     87  O   UNL     1       3.522   1.423  18.175  1.00  0.00    -0.237 OA
ATOM     88  O   UNL     1       2.659   0.542  16.043  1.00  0.00    -0.744 OA
ENDBRANCH  84  85
ENDBRANCH  56  79
BRANCH  68  89
ATOM     89  C   UNL     1       9.316  -8.260  19.205  1.00  0.00    -0.014 A 
ATOM     90  C   UNL     1       8.220  -9.046  18.807  1.00  0.00     0.010 A 
ATOM     91  C   UNL     1       9.898  -8.487  20.466  1.00  0.00     0.010 A 
ATOM     92  C   UNL     1       7.696 -10.015  19.668  1.00  0.00     0.020 A 
ATOM     93  C   UNL     1       9.398  -9.476  21.316  1.00  0.00     0.020 A 
ATOM     94  C   UNL     1       8.290 -10.225  20.917  1.00  0.00     0.054 A 
BRANCH  94  95
ATOM     95  S   UNL     1       7.618 -11.519  21.995  1.00  0.00     0.124 S 
ATOM     96  O   UNL     1       6.353 -10.931  22.426  1.00  0.00    -0.237 OA
ATOM     97  O   UNL     1       7.505 -12.662  21.092  1.00  0.00    -0.237 OA
ATOM     98  O   UNL     1       8.628 -11.658  23.042  1.00  0.00    -0.744 OA
ENDBRANCH  94  95
ENDBRANCH  68  89
ENDBRANCH  42  43
ENDBRANCH  34  37
ENDBRANCH  32  33
ENDBRANCH  31  32
ENDBRANCH   1  31
TORSDOF 18
