REMARK SMILES Cc1cc(-c2cncc(C(=O)NCCCCCCNC(=O)c3ccc(-c4c5nc(c(-c6ccc(S(=O)(=O)[O-])cc6)c6ccc([nH]6)c(-c6ccc(S(=O)(=O)[O-])cc6)c6nc(c(-c7ccc(S(=O)(=O)[O-])cc7)c7ccc4[nH]7)C=C6)C=C5)cc3)c2)ccc1F
REMARK SMILES IDX 16 1 15 2 14 3 13 4 12 5 10 6 11 7 9 9 5 10 6 11 82 12 7 13
REMARK SMILES IDX 8 14 4 15 1 16 2 17 3 18 85 19 84 20 86 21 83 22 17 23 18 24
REMARK SMILES IDX 19 25 20 26 21 28 22 29 23 30 81 31 24 32 80 33 25 34 26 35
REMARK SMILES IDX 27 36 74 37 28 38 79 39 73 40 75 41 29 42 78 43 72 44 71 45
REMARK SMILES IDX 30 47 60 48 41 49 59 50 42 51 45 52 58 53 76 54 43 55 44 56
REMARK SMILES IDX 57 58 77 59 46 60 31 61 32 62 40 63 33 64 39 65 34 66 35 67
REMARK SMILES IDX 36 68 37 69 38 70 61 71 62 72 70 73 63 74 69 75 64 76 65 77
REMARK SMILES IDX 66 78 67 79 68 80 47 81 48 82 56 83 49 84 55 85 50 86 51 87
REMARK SMILES IDX 52 88 53 89 54 90
REMARK H PARENT 12 8 19 27 75 46 45 57
REMARK Flexibility Score: inf
ROOT
ATOM      1  C   UNL     1      -2.626   4.532  -6.169  1.00  0.00     0.002 C 
ENDROOT
BRANCH   1   2
ATOM      2  C   UNL     1      -3.546   3.339  -5.875  1.00  0.00     0.002 C 
BRANCH   2   3
ATOM      3  C   UNL     1      -3.282   2.639  -4.534  1.00  0.00     0.021 C 
BRANCH   3   4
ATOM      4  C   UNL     1      -3.532   3.546  -3.327  1.00  0.00     0.116 C 
BRANCH   4   5
ATOM      5  N   UNL     1      -4.949   3.578  -3.013  1.00  0.00    -0.352 N 
ATOM      6  C   UNL     1      -5.716   2.972  -2.051  1.00  0.00     0.252 C 
ATOM      7  O   UNL     1      -6.926   3.205  -2.064  1.00  0.00    -0.269 OA
ATOM      8  H   UNL     1      -5.469   4.155  -3.618  1.00  0.00     0.163 HD
BRANCH   6   9
ATOM      9  C   UNL     1      -5.169   2.115  -0.971  1.00  0.00     0.058 A 
ATOM     10  C   UNL     1      -3.470   0.780   0.140  1.00  0.00     0.001 A 
ATOM     11  C   UNL     1      -4.307   0.738   1.251  1.00  0.00     0.119 A 
ATOM     12  C   UNL     1      -3.959   1.429  -1.004  1.00  0.00     0.025 A 
ATOM     13  N   UNL     1      -5.533   1.307   1.297  1.00  0.00    -0.263 NA
ATOM     14  C   UNL     1      -5.924   1.994   0.192  1.00  0.00     0.124 A 
BRANCH  10  15
ATOM     15  C   UNL     1      -2.101   0.263   0.163  1.00  0.00    -0.016 A 
ATOM     16  C   UNL     1       1.457   1.675   0.057  1.00  0.00     0.047 C 
ATOM     17  C   UNL     1       0.307   0.715   0.100  1.00  0.00    -0.015 A 
ATOM     18  C   UNL     1      -1.018   1.166   0.137  1.00  0.00     0.015 A 
ATOM     19  C   UNL     1       0.539  -0.660   0.098  1.00  0.00     0.126 A 
ATOM     20  C   UNL     1      -0.513  -1.571   0.136  1.00  0.00     0.040 A 
ATOM     21  F   UNL     1       1.795  -1.124   0.054  1.00  0.00    -0.207 F 
ATOM     22  C   UNL     1      -1.832  -1.112   0.171  1.00  0.00     0.012 A 
ENDBRANCH  10  15
ENDBRANCH   6   9
ENDBRANCH   4   5
ENDBRANCH   3   4
ENDBRANCH   2   3
ENDBRANCH   1   2
BRANCH   1  23
ATOM     23  C   UNL     1      -1.127   4.221  -6.111  1.00  0.00     0.021 C 
BRANCH  23  24
ATOM     24  C   UNL     1      -0.663   3.181  -7.126  1.00  0.00     0.116 C 
BRANCH  24  25
ATOM     25  N   UNL     1      -0.835   3.655  -8.491  1.00  0.00    -0.352 N 
ATOM     26  C   UNL     1       0.101   3.800  -9.485  1.00  0.00     0.251 C 
ATOM     27  H   UNL     1      -1.754   3.907  -8.737  1.00  0.00     0.163 HD
ATOM     28  O   UNL     1      -0.172   4.443 -10.493  1.00  0.00    -0.269 OA
BRANCH  26  29
ATOM     29  C   UNL     1       1.438   3.187  -9.332  1.00  0.00     0.039 A 
ATOM     30  C   UNL     1       2.568   3.927  -9.688  1.00  0.00     0.014 A 
ATOM     31  C   UNL     1       1.574   1.879  -8.857  1.00  0.00     0.014 A 
ATOM     32  C   UNL     1       3.838   3.372  -9.520  1.00  0.00     0.010 A 
ATOM     33  C   UNL     1       2.842   1.354  -8.626  1.00  0.00     0.010 A 
ATOM     34  C   UNL     1       3.988   2.092  -8.960  1.00  0.00    -0.014 A 
BRANCH  34  35
ATOM     35  C   UNL     1       5.333   1.511  -8.716  1.00  0.00     0.031 A 
ATOM     36  C   UNL     1       5.766   0.268  -9.449  1.00  0.00     0.074 A 
ATOM     37  C   UNL     1       6.138   2.066  -7.787  1.00  0.00     0.049 A 
ATOM     38  N   UNL     1       6.876  -0.413  -9.328  1.00  0.00    -0.248 NA
ATOM     39  C   UNL     1       4.822  -0.296 -10.429  1.00  0.00     0.031 C 
ATOM     40  C   UNL     1       5.815   3.246  -6.979  1.00  0.00     0.029 A 
ATOM     41  N   UNL     1       7.391   1.707  -7.357  1.00  0.00    -0.354 N 
ATOM     42  C   UNL     1       6.753  -1.496 -10.191  1.00  0.00     0.074 A 
ATOM     43  C   UNL     1       5.448  -1.402 -10.806  1.00  0.00     0.031 C 
ATOM     44  C   UNL     1       6.851   3.525  -6.172  1.00  0.00     0.029 A 
ATOM     45  C   UNL     1       7.894   2.524  -6.371  1.00  0.00     0.049 A 
ATOM     46  H   UNL     1       7.885   0.937  -7.722  1.00  0.00     0.167 HD
ATOM     47  C   UNL     1       7.653  -2.472 -10.457  1.00  0.00     0.031 A 
ATOM     48  C   UNL     1       9.058   2.467  -5.694  1.00  0.00     0.031 A 
ATOM     49  C   UNL     1       8.964  -2.543  -9.867  1.00  0.00     0.049 A 
ATOM     50  C   UNL     1      10.039   1.371  -6.016  1.00  0.00     0.074 A 
ATOM     51  C   UNL     1       9.978  -3.445 -10.139  1.00  0.00     0.029 A 
ATOM     52  N   UNL     1       9.441  -1.686  -8.889  1.00  0.00    -0.354 N 
ATOM     53  N   UNL     1       9.939   0.410  -6.904  1.00  0.00    -0.248 NA
ATOM     54  C   UNL     1      11.294   1.357  -5.252  1.00  0.00     0.031 C 
ATOM     55  C   UNL     1      11.047  -3.170  -9.282  1.00  0.00     0.029 A 
ATOM     56  C   UNL     1      10.723  -2.058  -8.522  1.00  0.00     0.049 A 
ATOM     57  H   UNL     1       8.943  -0.926  -8.510  1.00  0.00     0.167 HD
ATOM     58  C   UNL     1      11.133  -0.299  -6.827  1.00  0.00     0.074 A 
ATOM     59  C   UNL     1      11.944   0.352  -5.820  1.00  0.00     0.031 C 
ATOM     60  C   UNL     1      11.523  -1.392  -7.528  1.00  0.00     0.031 A 
BRANCH  47  61
ATOM     61  C   UNL     1       7.263  -3.555 -11.428  1.00  0.00    -0.014 A 
ATOM     62  C   UNL     1       7.169  -3.299 -12.807  1.00  0.00     0.010 A 
ATOM     63  C   UNL     1       7.083  -4.871 -10.961  1.00  0.00     0.010 A 
ATOM     64  C   UNL     1       6.888  -4.337 -13.700  1.00  0.00     0.020 A 
ATOM     65  C   UNL     1       6.827  -5.915 -11.854  1.00  0.00     0.020 A 
ATOM     66  C   UNL     1       6.724  -5.639 -13.219  1.00  0.00     0.054 A 
BRANCH  66  67
ATOM     67  S   UNL     1       6.430  -6.976 -14.410  1.00  0.00     0.124 S 
ATOM     68  O   UNL     1       5.060  -6.704 -14.835  1.00  0.00    -0.237 OA
ATOM     69  O   UNL     1       7.460  -6.737 -15.418  1.00  0.00    -0.237 OA
ATOM     70  O   UNL     1       6.606  -8.192 -13.619  1.00  0.00    -0.744 OA
ENDBRANCH  66  67
ENDBRANCH  47  61
BRANCH  48  71
ATOM     71  C   UNL     1       9.370   3.472  -4.640  1.00  0.00    -0.014 A 
ATOM     72  C   UNL     1      10.412   4.399  -4.819  1.00  0.00     0.010 A 
ATOM     73  C   UNL     1       8.650   3.480  -3.431  1.00  0.00     0.010 A 
ATOM     74  C   UNL     1      10.758   5.285  -3.794  1.00  0.00     0.020 A 
ATOM     75  C   UNL     1       8.972   4.386  -2.416  1.00  0.00     0.020 A 
ATOM     76  C   UNL     1      10.039   5.267  -2.596  1.00  0.00     0.054 A 
BRANCH  76  77
ATOM     77  S   UNL     1      10.502   6.424  -1.277  1.00  0.00     0.124 S 
ATOM     78  O   UNL     1      11.727   5.820  -0.762  1.00  0.00    -0.237 OA
ATOM     79  O   UNL     1      10.671   7.680  -2.003  1.00  0.00    -0.237 OA
ATOM     80  O   UNL     1       9.355   6.385  -0.372  1.00  0.00    -0.744 OA
ENDBRANCH  76  77
ENDBRANCH  48  71
BRANCH  60  81
ATOM     81  C   UNL     1      12.906  -1.927  -7.268  1.00  0.00    -0.014 A 
ATOM     82  C   UNL     1      13.220  -2.593  -6.070  1.00  0.00     0.010 A 
ATOM     83  C   UNL     1      13.891  -1.808  -8.265  1.00  0.00     0.010 A 
ATOM     84  C   UNL     1      14.505  -3.100  -5.862  1.00  0.00     0.020 A 
ATOM     85  C   UNL     1      15.168  -2.341  -8.073  1.00  0.00     0.020 A 
ATOM     86  C   UNL     1      15.471  -2.971  -6.865  1.00  0.00     0.054 A 
BRANCH  86  87
ATOM     87  S   UNL     1      17.118  -3.675  -6.587  1.00  0.00     0.124 S 
ATOM     88  O   UNL     1      17.695  -2.733  -5.632  1.00  0.00    -0.237 OA
ATOM     89  O   UNL     1      16.814  -5.002  -6.056  1.00  0.00    -0.237 OA
ATOM     90  O   UNL     1      17.728  -3.667  -7.915  1.00  0.00    -0.744 OA
ENDBRANCH  86  87
ENDBRANCH  60  81
ENDBRANCH  34  35
ENDBRANCH  26  29
ENDBRANCH  24  25
ENDBRANCH  23  24
ENDBRANCH   1  23
TORSDOF 17
