REMARK SMILES CC(C)C[C@H](NC(=O)c1cc(Cl)nnc1Cl)C(=O)NCCCCCCNC(=O)c1ccc(-c2c3nc(c(-c4ccc(S(=O)(=O)[O-])cc4)c4ccc([nH]4)c(-c4ccc(S(=O)(=O)[O-])cc4)c4nc(c(-c5ccc(S(=O)(=O)[O-])cc5)c5ccc2[nH]5)C=C4)C=C3)cc1
REMARK SMILES IDX 23 1 22 2 21 3 20 4 19 5 17 6 18 7 5 9 4 10 2 11 1 12 3 13
REMARK SMILES IDX 6 14 7 15 8 17 9 18 10 19 15 20 11 21 14 22 16 23 12 24
REMARK SMILES IDX 13 25 24 26 25 27 26 28 27 29 28 31 29 32 30 33 88 34 31 35
REMARK SMILES IDX 87 36 32 37 33 38 34 39 81 40 35 41 86 42 80 43 82 44 36 45
REMARK SMILES IDX 85 46 79 47 78 48 37 50 67 51 48 52 66 53 49 54 52 55 65 56
REMARK SMILES IDX 83 57 50 58 51 59 64 61 84 62 53 63 38 64 39 65 47 66 40 67
REMARK SMILES IDX 46 68 41 69 42 70 43 71 44 72 45 73 68 74 69 75 77 76 70 77
REMARK SMILES IDX 76 78 71 79 72 80 73 81 74 82 75 83 54 84 55 85 63 86 56 87
REMARK SMILES IDX 62 88 57 89 58 90 59 91 60 92 61 93
REMARK H PARENT 19 8 6 16 26 30 82 49 52 60
REMARK Flexibility Score: inf
ROOT
ATOM      1  C   UNL     1      -5.698  -0.923   4.986  1.00  0.00     0.002 C 
ENDROOT
BRANCH   1   2
ATOM      2  C   UNL     1      -5.283   0.331   4.209  1.00  0.00     0.002 C 
BRANCH   2   3
ATOM      3  C   UNL     1      -3.780   0.470   3.942  1.00  0.00     0.021 C 
BRANCH   3   4
ATOM      4  C   UNL     1      -3.164  -0.683   3.156  1.00  0.00     0.116 C 
BRANCH   4   5
ATOM      5  N   UNL     1      -3.663  -0.728   1.793  1.00  0.00    -0.354 N 
ATOM      6  C   UNL     1      -3.024  -1.072   0.637  1.00  0.00     0.242 C 
ATOM      7  O   UNL     1      -3.687  -1.104  -0.402  1.00  0.00    -0.273 OA
ATOM      8  H   UNL     1      -4.607  -0.470   1.686  1.00  0.00     0.163 HD
BRANCH   6   9
ATOM      9  C   UNL     1      -1.522  -1.430   0.641  1.00  0.00     0.171 C 
BRANCH   9  10
ATOM     10  C   UNL     1      -1.212  -2.711   1.436  1.00  0.00     0.038 C 
BRANCH  10  11
ATOM     11  C   UNL     1      -2.209  -3.878   1.277  1.00  0.00    -0.015 C 
ATOM     12  C   UNL     1      -2.354  -4.339  -0.173  1.00  0.00     0.007 C 
ATOM     13  C   UNL     1      -1.757  -5.056   2.146  1.00  0.00     0.007 C 
ENDBRANCH  10  11
ENDBRANCH   9  10
BRANCH   9  14
ATOM     14  N   UNL     1      -0.799  -0.226   1.100  1.00  0.00    -0.340 N 
ATOM     15  C   UNL     1       0.517   0.024   1.358  1.00  0.00     0.255 C 
ATOM     16  H   UNL     1      -1.384   0.551   1.250  1.00  0.00     0.164 HD
ATOM     17  O   UNL     1       0.882   1.136   1.724  1.00  0.00    -0.269 OA
BRANCH  15  18
ATOM     18  C   UNL     1       1.506  -1.043   1.297  1.00  0.00     0.082 A 
ATOM     19  C   UNL     1       2.006  -1.542   2.501  1.00  0.00     0.060 A 
ATOM     20  C   UNL     1       1.994  -1.527   0.100  1.00  0.00     0.164 A 
ATOM     21  C   UNL     1       2.938  -2.551   2.424  1.00  0.00     0.152 A 
ATOM     22  N   UNL     1       2.901  -2.524   0.068  1.00  0.00    -0.136 NA
ATOM     23  Cl  UNL     1       1.527  -0.951  -1.445  1.00  0.00    -0.059 Cl
ATOM     24  Cl  UNL     1       3.602  -3.270   3.825  1.00  0.00    -0.060 Cl
ATOM     25  N   UNL     1       3.373  -3.050   1.249  1.00  0.00    -0.137 NA
ENDBRANCH  15  18
ENDBRANCH   9  14
ENDBRANCH   6   9
ENDBRANCH   4   5
ENDBRANCH   3   4
ENDBRANCH   2   3
ENDBRANCH   1   2
BRANCH   1  26
ATOM     26  C   UNL     1      -4.972  -1.140   6.315  1.00  0.00     0.021 C 
BRANCH  26  27
ATOM     27  C   UNL     1      -5.022   0.042   7.279  1.00  0.00     0.116 C 
BRANCH  27  28
ATOM     28  N   UNL     1      -6.379   0.363   7.686  1.00  0.00    -0.352 N 
ATOM     29  C   UNL     1      -6.864   0.547   8.956  1.00  0.00     0.251 C 
ATOM     30  H   UNL     1      -7.034   0.462   6.957  1.00  0.00     0.163 HD
ATOM     31  O   UNL     1      -8.069   0.665   9.154  1.00  0.00    -0.269 OA
BRANCH  29  32
ATOM     32  C   UNL     1      -5.915   0.578  10.085  1.00  0.00     0.039 A 
ATOM     33  C   UNL     1      -6.103  -0.303  11.152  1.00  0.00     0.014 A 
ATOM     34  C   UNL     1      -4.830   1.461  10.070  1.00  0.00     0.014 A 
ATOM     35  C   UNL     1      -5.173  -0.329  12.192  1.00  0.00     0.010 A 
ATOM     36  C   UNL     1      -3.883   1.405  11.088  1.00  0.00     0.010 A 
ATOM     37  C   UNL     1      -4.050   0.513  12.159  1.00  0.00    -0.014 A 
BRANCH  37  38
ATOM     38  C   UNL     1      -3.056   0.496  13.257  1.00  0.00     0.031 A 
ATOM     39  C   UNL     1      -2.979   1.657  14.207  1.00  0.00     0.074 A 
ATOM     40  C   UNL     1      -2.200  -0.537  13.373  1.00  0.00     0.049 A 
ATOM     41  N   UNL     1      -2.153   1.849  15.201  1.00  0.00    -0.248 NA
ATOM     42  C   UNL     1      -3.946   2.749  14.005  1.00  0.00     0.031 C 
ATOM     43  C   UNL     1      -2.160  -1.708  12.494  1.00  0.00     0.029 A 
ATOM     44  N   UNL     1      -1.194  -0.765  14.278  1.00  0.00    -0.354 N 
ATOM     45  C   UNL     1      -2.492   3.085  15.737  1.00  0.00     0.074 A 
ATOM     46  C   UNL     1      -3.576   3.614  14.939  1.00  0.00     0.031 C 
ATOM     47  C   UNL     1      -1.187  -2.535  12.911  1.00  0.00     0.029 A 
ATOM     48  C   UNL     1      -0.521  -1.945  14.070  1.00  0.00     0.049 A 
ATOM     49  H   UNL     1      -0.975  -0.141  15.008  1.00  0.00     0.167 HD
ATOM     50  C   UNL     1      -1.959   3.713  16.810  1.00  0.00     0.031 A 
ATOM     51  C   UNL     1       0.516  -2.490  14.735  1.00  0.00     0.031 A 
ATOM     52  C   UNL     1      -0.899   3.177  17.617  1.00  0.00     0.049 A 
ATOM     53  C   UNL     1       1.090  -1.775  15.925  1.00  0.00     0.074 A 
ATOM     54  C   UNL     1      -0.330   3.721  18.755  1.00  0.00     0.029 A 
ATOM     55  N   UNL     1      -0.253   1.976  17.377  1.00  0.00    -0.354 N 
ATOM     56  N   UNL     1       0.728  -0.625  16.441  1.00  0.00    -0.248 NA
ATOM     57  C   UNL     1       2.203  -2.430  16.628  1.00  0.00     0.031 C 
ATOM     58  C   UNL     1       0.684   2.862  19.186  1.00  0.00     0.029 A 
ATOM     59  C   UNL     1       0.720   1.766  18.338  1.00  0.00     0.049 A 
ATOM     60  H   UNL     1      -0.455   1.362  16.634  1.00  0.00     0.167 HD
ATOM     61  C   UNL     1       1.558  -0.425  17.538  1.00  0.00     0.074 A 
ATOM     62  C   UNL     1       2.436  -1.574  17.616  1.00  0.00     0.031 C 
ATOM     63  C   UNL     1       1.585   0.617  18.402  1.00  0.00     0.031 A 
BRANCH  50  64
ATOM     64  C   UNL     1      -2.523   5.053  17.186  1.00  0.00    -0.014 A 
ATOM     65  C   UNL     1      -3.755   5.149  17.855  1.00  0.00     0.010 A 
ATOM     66  C   UNL     1      -1.778   6.220  16.941  1.00  0.00     0.010 A 
ATOM     67  C   UNL     1      -4.239   6.393  18.264  1.00  0.00     0.020 A 
ATOM     68  C   UNL     1      -2.251   7.465  17.364  1.00  0.00     0.020 A 
ATOM     69  C   UNL     1      -3.481   7.542  18.021  1.00  0.00     0.054 A 
BRANCH  69  70
ATOM     70  S   UNL     1      -4.120   9.136  18.606  1.00  0.00     0.124 S 
ATOM     71  O   UNL     1      -5.354   9.269  17.836  1.00  0.00    -0.237 OA
ATOM     72  O   UNL     1      -4.293   8.899  20.036  1.00  0.00    -0.237 OA
ATOM     73  O   UNL     1      -3.066  10.084  18.253  1.00  0.00    -0.744 OA
ENDBRANCH  69  70
ENDBRANCH  50  64
BRANCH  51  74
ATOM     74  C   UNL     1       1.064  -3.797  14.289  1.00  0.00    -0.014 A 
ATOM     75  C   UNL     1       0.746  -4.976  14.985  1.00  0.00     0.010 A 
ATOM     76  C   UNL     1       1.864  -3.874  13.135  1.00  0.00     0.010 A 
ATOM     77  C   UNL     1       1.214  -6.212  14.530  1.00  0.00     0.020 A 
ATOM     78  C   UNL     1       2.321  -5.110  12.668  1.00  0.00     0.020 A 
ATOM     79  C   UNL     1       1.989  -6.272  13.368  1.00  0.00     0.054 A 
BRANCH  79  80
ATOM     80  S   UNL     1       2.520  -7.898  12.762  1.00  0.00     0.124 S 
ATOM     81  O   UNL     1       3.382  -8.363  13.844  1.00  0.00    -0.237 OA
ATOM     82  O   UNL     1       1.248  -8.602  12.617  1.00  0.00    -0.237 OA
ATOM     83  O   UNL     1       3.202  -7.591  11.507  1.00  0.00    -0.744 OA
ENDBRANCH  79  80
ENDBRANCH  51  74
BRANCH  63  84
ATOM     84  C   UNL     1       2.583   0.576  19.523  1.00  0.00    -0.014 A 
ATOM     85  C   UNL     1       3.927   0.920  19.299  1.00  0.00     0.010 A 
ATOM     86  C   UNL     1       2.145   0.311  20.833  1.00  0.00     0.010 A 
ATOM     87  C   UNL     1       4.818   1.002  20.372  1.00  0.00     0.020 A 
ATOM     88  C   UNL     1       3.030   0.409  21.910  1.00  0.00     0.020 A 
ATOM     89  C   UNL     1       4.361   0.756  21.671  1.00  0.00     0.054 A 
BRANCH  89  90
ATOM     90  S   UNL     1       5.527   0.945  23.048  1.00  0.00     0.124 S 
ATOM     91  O   UNL     1       6.508  -0.099  22.765  1.00  0.00    -0.237 OA
ATOM     92  O   UNL     1       6.000   2.316  22.874  1.00  0.00    -0.237 OA
ATOM     93  O   UNL     1       4.705   0.719  24.235  1.00  0.00    -0.744 OA
ENDBRANCH  89  90
ENDBRANCH  63  84
ENDBRANCH  37  38
ENDBRANCH  29  32
ENDBRANCH  27  28
ENDBRANCH  26  27
ENDBRANCH   1  26
TORSDOF 20
