REMARK SMILES O=C(NCCCCCCNC(=O)[C@H]1CCCCN1S(=O)(=O)c1cc[nH]c1)c1ccc(-c2c3nc(c(-c4ccc(S(=O)(=O)[O-])cc4)c4ccc([nH]4)c(-c4ccc(S(=O)(=O)[O-])cc4)c4nc(c(-c5ccc(S(=O)(=O)[O-])cc5)c5ccc2[nH]5)C=C4)C=C3)cc1
REMARK SMILES IDX 6 1 5 2 4 3 3 4 1 5 2 6 27 8 28 9 86 10 29 11 85 12 30 13
REMARK SMILES IDX 31 14 32 15 79 16 33 17 84 18 78 19 80 20 34 21 83 22 77 23
REMARK SMILES IDX 76 24 35 26 65 27 46 28 64 29 47 30 50 31 63 32 81 33 48 34
REMARK SMILES IDX 49 35 62 37 82 38 51 39 36 40 37 41 45 42 38 43 44 44 39 45
REMARK SMILES IDX 40 46 41 47 42 48 43 49 66 50 67 51 75 52 68 53 74 54 69 55
REMARK SMILES IDX 70 56 71 57 72 58 73 59 52 60 53 61 61 62 54 63 60 64 55 65
REMARK SMILES IDX 56 66 57 67 58 68 59 69 7 70 8 71 9 72 10 73 11 74 12 76
REMARK SMILES IDX 13 77 14 78 18 79 15 80 17 81 16 82 19 83 20 84 21 85 22 86
REMARK SMILES IDX 23 87 26 88 24 89 25 90
REMARK H PARENT 3 7 80 25 50 36 10 75 25 91
REMARK Flexibility Score: inf
ROOT
ATOM      1  C   UNL     1       7.228  10.356  -2.105  1.00  0.00     0.002 C 
ENDROOT
BRANCH   1   2
ATOM      2  C   UNL     1       6.417  11.537  -1.567  1.00  0.00     0.021 C 
BRANCH   2   3
ATOM      3  C   UNL     1       7.243  12.776  -1.199  1.00  0.00     0.116 C 
BRANCH   3   4
ATOM      4  N   UNL     1       7.643  13.599  -2.327  1.00  0.00    -0.352 N 
ATOM      5  O   UNL     1       7.444  14.961  -4.107  1.00  0.00    -0.269 OA
ATOM      6  C   UNL     1       6.887  14.321  -3.220  1.00  0.00     0.251 C 
ATOM      7  H   UNL     1       8.614  13.649  -2.477  1.00  0.00     0.163 HD
BRANCH   6   8
ATOM      8  C   UNL     1       5.409  14.268  -3.167  1.00  0.00     0.039 A 
ATOM      9  C   UNL     1       4.714  14.355  -1.958  1.00  0.00     0.014 A 
ATOM     10  C   UNL     1       4.710  14.090  -4.369  1.00  0.00     0.014 A 
ATOM     11  C   UNL     1       3.347  14.133  -1.931  1.00  0.00     0.010 A 
ATOM     12  C   UNL     1       3.325  13.932  -4.354  1.00  0.00     0.010 A 
ATOM     13  C   UNL     1       2.648  13.938  -3.130  1.00  0.00    -0.014 A 
BRANCH  13  14
ATOM     14  C   UNL     1       1.171  13.963  -3.037  1.00  0.00     0.031 A 
ATOM     15  C   UNL     1       0.649  15.385  -2.771  1.00  0.00     0.074 A 
ATOM     16  C   UNL     1       0.525  12.761  -3.056  1.00  0.00     0.049 A 
ATOM     17  N   UNL     1      -0.396  15.782  -2.110  1.00  0.00    -0.248 NA
ATOM     18  C   UNL     1       1.478  16.541  -3.216  1.00  0.00     0.031 C 
ATOM     19  C   UNL     1       1.175  11.458  -3.315  1.00  0.00     0.029 A 
ATOM     20  N   UNL     1      -0.782  12.379  -2.842  1.00  0.00    -0.354 N 
ATOM     21  C   UNL     1      -0.423  17.194  -2.162  1.00  0.00     0.074 A 
ATOM     22  C   UNL     1       0.801  17.605  -2.781  1.00  0.00     0.031 C 
ATOM     23  C   UNL     1       0.293  10.445  -3.175  1.00  0.00     0.029 A 
ATOM     24  C   UNL     1      -1.004  10.981  -2.810  1.00  0.00     0.049 A 
ATOM     25  H   UNL     1      -1.509  13.032  -2.721  1.00  0.00     0.167 HD
ATOM     26  C   UNL     1      -1.481  17.955  -1.758  1.00  0.00     0.031 A 
ATOM     27  C   UNL     1      -2.135  10.298  -2.457  1.00  0.00     0.031 A 
ATOM     28  C   UNL     1      -2.519  17.141  -1.223  1.00  0.00     0.049 A 
ATOM     29  C   UNL     1      -3.155  11.320  -2.154  1.00  0.00     0.074 A 
ATOM     30  C   UNL     1      -2.715  16.542  -0.007  1.00  0.00     0.029 A 
ATOM     31  N   UNL     1      -3.436  16.637  -2.112  1.00  0.00    -0.354 N 
ATOM     32  N   UNL     1      -3.752  12.069  -3.029  1.00  0.00    -0.248 NA
ATOM     33  C   UNL     1      -3.498  11.579  -0.749  1.00  0.00     0.031 C 
ATOM     34  C   UNL     1      -3.463  15.381  -0.306  1.00  0.00     0.029 A 
ATOM     35  C   UNL     1      -3.761  15.373  -1.673  1.00  0.00     0.049 A 
ATOM     36  H   UNL     1      -3.792  17.091  -2.910  1.00  0.00     0.167 HD
ATOM     37  C   UNL     1      -4.243  13.101  -2.267  1.00  0.00     0.074 A 
ATOM     38  C   UNL     1      -4.325  12.607  -0.911  1.00  0.00     0.031 C 
ATOM     39  C   UNL     1      -4.087  14.385  -2.677  1.00  0.00     0.031 A 
BRANCH  26  40
ATOM     40  C   UNL     1      -1.767  19.423  -1.929  1.00  0.00    -0.014 A 
ATOM     41  C   UNL     1      -2.722  20.007  -1.059  1.00  0.00     0.010 A 
ATOM     42  C   UNL     1      -1.376  20.170  -3.051  1.00  0.00     0.010 A 
ATOM     43  C   UNL     1      -3.341  21.225  -1.348  1.00  0.00     0.020 A 
ATOM     44  C   UNL     1      -1.973  21.414  -3.333  1.00  0.00     0.020 A 
ATOM     45  C   UNL     1      -2.985  21.907  -2.505  1.00  0.00     0.054 A 
BRANCH  45  46
ATOM     46  S   UNL     1      -3.923  23.398  -2.942  1.00  0.00     0.124 S 
ATOM     47  O   UNL     1      -5.231  22.849  -3.289  1.00  0.00    -0.237 OA
ATOM     48  O   UNL     1      -3.881  24.173  -1.703  1.00  0.00    -0.237 OA
ATOM     49  O   UNL     1      -3.167  23.971  -4.052  1.00  0.00    -0.744 OA
ENDBRANCH  45  46
ENDBRANCH  26  40
BRANCH  27  50
ATOM     50  C   UNL     1      -2.520   8.866  -2.157  1.00  0.00    -0.014 A 
ATOM     51  C   UNL     1      -1.684   7.747  -2.265  1.00  0.00     0.010 A 
ATOM     52  C   UNL     1      -3.806   8.620  -1.596  1.00  0.00     0.010 A 
ATOM     53  C   UNL     1      -2.050   6.503  -1.701  1.00  0.00     0.020 A 
ATOM     54  C   UNL     1      -4.162   7.411  -0.993  1.00  0.00     0.020 A 
ATOM     55  C   UNL     1      -3.263   6.360  -1.021  1.00  0.00     0.054 A 
BRANCH  55  56
ATOM     56  S   UNL     1      -3.616   4.868  -0.047  1.00  0.00     0.124 S 
ATOM     57  O   UNL     1      -4.221   3.983  -1.037  1.00  0.00    -0.237 OA
ATOM     58  O   UNL     1      -2.293   4.472   0.430  1.00  0.00    -0.237 OA
ATOM     59  O   UNL     1      -4.519   5.353   0.996  1.00  0.00    -0.744 OA
ENDBRANCH  55  56
ENDBRANCH  27  50
BRANCH  39  60
ATOM     60  C   UNL     1      -3.828  14.549  -4.168  1.00  0.00    -0.014 A 
ATOM     61  C   UNL     1      -4.817  14.194  -5.100  1.00  0.00     0.010 A 
ATOM     62  C   UNL     1      -2.581  14.967  -4.676  1.00  0.00     0.010 A 
ATOM     63  C   UNL     1      -4.573  14.262  -6.481  1.00  0.00     0.020 A 
ATOM     64  C   UNL     1      -2.327  15.047  -6.053  1.00  0.00     0.020 A 
ATOM     65  C   UNL     1      -3.330  14.693  -6.951  1.00  0.00     0.054 A 
BRANCH  65  66
ATOM     66  S   UNL     1      -3.048  14.770  -8.743  1.00  0.00     0.124 S 
ATOM     67  O   UNL     1      -3.275  13.390  -9.165  1.00  0.00    -0.237 OA
ATOM     68  O   UNL     1      -4.058  15.731  -9.178  1.00  0.00    -0.237 OA
ATOM     69  O   UNL     1      -1.665  15.230  -8.863  1.00  0.00    -0.744 OA
ENDBRANCH  65  66
ENDBRANCH  39  60
ENDBRANCH  13  14
ENDBRANCH   6   8
ENDBRANCH   3   4
ENDBRANCH   2   3
ENDBRANCH   1   2
BRANCH   1  70
ATOM     70  C   UNL     1       8.421   9.950  -1.246  1.00  0.00     0.002 C 
BRANCH  70  71
ATOM     71  C   UNL     1       8.087   9.734   0.232  1.00  0.00     0.021 C 
BRANCH  71  72
ATOM     72  C   UNL     1       7.650   8.315   0.599  1.00  0.00     0.116 C 
BRANCH  72  73
ATOM     73  N   UNL     1       8.755   7.375   0.484  1.00  0.00    -0.355 N 
ATOM     74  C   UNL     1       9.519   6.733   1.409  1.00  0.00     0.238 C 
ATOM     75  H   UNL     1       8.998   7.163  -0.446  1.00  0.00     0.163 HD
ATOM     76  O   UNL     1      10.462   6.069   0.964  1.00  0.00    -0.273 OA
BRANCH  74  77
ATOM     77  C   UNL     1       9.231   6.805   2.926  1.00  0.00     0.162 C 
ATOM     78  C   UNL     1       9.309   5.394   3.549  1.00  0.00     0.030 C 
ATOM     79  N   UNL     1      10.135   7.734   3.720  1.00  0.00    -0.185 NA
ATOM     80  C   UNL     1      10.735   4.867   3.720  1.00  0.00     0.004 C 
ATOM     81  C   UNL     1      11.544   7.258   3.740  1.00  0.00     0.103 C 
ATOM     82  C   UNL     1      11.624   5.892   4.410  1.00  0.00     0.017 C 
BRANCH  79  83
ATOM     83  S   UNL     1       9.954   9.351   3.227  1.00  0.00     0.245 S 
ATOM     84  O   UNL     1      10.802   9.539   2.057  1.00  0.00    -0.207 OA
ATOM     85  O   UNL     1       8.547   9.649   3.219  1.00  0.00    -0.207 OA
BRANCH  83  86
ATOM     86  C   UNL     1      10.585  10.520   4.333  1.00  0.00     0.100 A 
ATOM     87  C   UNL     1      11.935  10.943   4.420  1.00  0.00     0.041 A 
ATOM     88  C   UNL     1       9.833  11.385   5.109  1.00  0.00     0.104 A 
ATOM     89  C   UNL     1      11.958  12.077   5.203  1.00  0.00     0.083 A 
ATOM     90  N   UNL     1      10.676  12.340   5.614  1.00  0.00    -0.366 N 
ATOM     91  H   UNL     1      10.404  13.096   6.182  1.00  0.00     0.165 HD
ENDBRANCH  83  86
ENDBRANCH  79  83
ENDBRANCH  74  77
ENDBRANCH  72  73
ENDBRANCH  71  72
ENDBRANCH  70  71
ENDBRANCH   1  70
TORSDOF 18
