REMARK SMILES Cc1ccc(-c2cc(Cl)cc3c2O[C@@H](C(F)(F)F)C(C(=O)NCCCCCCNC(=O)c2ccc(-c4c5nc(c(-c6ccc(S(=O)(=O)[O-])cc6)c6ccc([nH]6)c(-c6ccc(S(=O)(=O)[O-])cc6)c6nc(c(-c7ccc(S(=O)(=O)[O-])cc7)c7ccc4[nH]7)C=C6)C=C5)cc2)=C3)cc1
REMARK SMILES IDX 26 1 25 2 24 3 23 4 22 5 20 6 21 7 19 9 6 10 7 11 12 12 8 13
REMARK SMILES IDX 11 14 13 15 9 16 10 17 92 18 14 19 5 20 1 21 2 22 3 23 94 24
REMARK SMILES IDX 4 25 93 26 15 27 16 28 17 29 18 30 27 31 28 32 29 33 30 34
REMARK SMILES IDX 31 36 32 37 33 38 91 39 34 40 90 41 35 42 36 43 37 44 84 45
REMARK SMILES IDX 38 46 89 47 83 48 85 49 39 50 88 51 82 52 81 53 40 55 70 56
REMARK SMILES IDX 51 57 69 58 52 59 55 60 68 61 86 62 53 63 54 64 67 66 87 67
REMARK SMILES IDX 56 68 41 69 42 70 50 71 43 72 49 73 44 74 45 75 46 76 47 77
REMARK SMILES IDX 48 78 71 79 72 80 80 81 73 82 79 83 74 84 75 85 76 86 77 87
REMARK SMILES IDX 78 88 57 89 58 90 66 91 59 92 65 93 60 94 61 95 62 96 63 97
REMARK SMILES IDX 64 98
REMARK H PARENT 22 8 29 35 85 54 55 65
REMARK Flexibility Score: inf
ROOT
ATOM      1  C   UNL     1      -1.371  -3.131   7.235  1.00  0.00     0.002 C 
ENDROOT
BRANCH   1   2
ATOM      2  C   UNL     1      -1.434  -3.862   5.894  1.00  0.00     0.002 C 
BRANCH   2   3
ATOM      3  C   UNL     1      -2.757  -3.903   5.136  1.00  0.00     0.021 C 
BRANCH   3   4
ATOM      4  C   UNL     1      -3.706  -2.706   5.138  1.00  0.00     0.116 C 
BRANCH   4   5
ATOM      5  N   UNL     1      -3.270  -1.440   4.590  1.00  0.00    -0.352 N 
ATOM      6  C   UNL     1      -3.978  -0.342   4.167  1.00  0.00     0.251 C 
ATOM      7  O   UNL     1      -3.355   0.725   4.108  1.00  0.00    -0.270 OA
ATOM      8  H   UNL     1      -2.293  -1.350   4.506  1.00  0.00     0.163 HD
BRANCH   6   9
ATOM      9  C   UNL     1      -5.450  -0.361   3.709  1.00  0.00     0.067 C 
ATOM     10  C   UNL     1      -3.900  -1.162   0.127  1.00  0.00     0.026 A 
ATOM     11  C   UNL     1      -4.368  -0.525  -1.040  1.00  0.00     0.033 A 
ATOM     12  C   UNL     1      -4.701  -0.997   1.255  1.00  0.00     0.135 A 
ATOM     13  C   UNL     1      -5.318   0.500  -0.950  1.00  0.00     0.042 A 
ATOM     14  C   UNL     1      -5.394   0.227   1.430  1.00  0.00     0.019 A 
ATOM     15  O   UNL     1      -4.912  -2.060   2.159  1.00  0.00    -0.475 OA
ATOM     16  Cl  UNL     1      -5.811   1.324  -2.378  1.00  0.00    -0.084 Cl
ATOM     17  C   UNL     1      -5.755   0.950   0.297  1.00  0.00     0.032 A 
ATOM     18  C   UNL     1      -5.729   0.648   2.839  1.00  0.00     0.025 C 
ATOM     19  C   UNL     1      -5.963  -1.648   3.092  1.00  0.00     0.314 C 
BRANCH  10  20
ATOM     20  C   UNL     1      -2.417  -1.087   0.290  1.00  0.00    -0.015 A 
ATOM     21  C   UNL     1       1.873  -0.433   0.196  1.00  0.00     0.044 C 
ATOM     22  C   UNL     1       0.393  -0.665   0.277  1.00  0.00    -0.051 A 
ATOM     23  C   UNL     1      -0.152  -1.954   0.160  1.00  0.00     0.004 A 
ATOM     24  C   UNL     1      -0.470   0.410   0.469  1.00  0.00     0.004 A 
ATOM     25  C   UNL     1      -1.545  -2.167   0.162  1.00  0.00     0.009 A 
ATOM     26  C   UNL     1      -1.846   0.196   0.484  1.00  0.00     0.009 A 
ENDBRANCH  10  20
BRANCH  19  27
ATOM     27  C   UNL     1      -6.696  -2.605   4.051  1.00  0.00     0.429 C 
ATOM     28  F   UNL     1      -8.040  -2.395   3.967  1.00  0.00    -0.167 F 
ATOM     29  F   UNL     1      -6.489  -3.904   3.756  1.00  0.00    -0.167 F 
ATOM     30  F   UNL     1      -6.387  -2.407   5.353  1.00  0.00    -0.167 F 
ENDBRANCH  19  27
ENDBRANCH   6   9
ENDBRANCH   4   5
ENDBRANCH   3   4
ENDBRANCH   2   3
ENDBRANCH   1   2
BRANCH   1  31
ATOM     31  C   UNL     1      -2.421  -3.492   8.283  1.00  0.00     0.021 C 
BRANCH  31  32
ATOM     32  C   UNL     1      -2.325  -4.905   8.846  1.00  0.00     0.116 C 
BRANCH  32  33
ATOM     33  N   UNL     1      -1.755  -4.941  10.185  1.00  0.00    -0.352 N 
ATOM     34  C   UNL     1      -1.832  -5.960  11.116  1.00  0.00     0.251 C 
ATOM     35  H   UNL     1      -1.252  -4.140  10.462  1.00  0.00     0.163 HD
ATOM     36  O   UNL     1      -1.541  -5.807  12.291  1.00  0.00    -0.269 OA
BRANCH  34  37
ATOM     37  C   UNL     1      -2.162  -7.304  10.602  1.00  0.00     0.039 A 
ATOM     38  C   UNL     1      -1.129  -8.248  10.576  1.00  0.00     0.014 A 
ATOM     39  C   UNL     1      -3.364  -7.529   9.937  1.00  0.00     0.014 A 
ATOM     40  C   UNL     1      -1.240  -9.355   9.741  1.00  0.00     0.010 A 
ATOM     41  C   UNL     1      -3.433  -8.577   9.040  1.00  0.00     0.010 A 
ATOM     42  C   UNL     1      -2.356  -9.465   8.911  1.00  0.00    -0.014 A 
BRANCH  42  43
ATOM     43  C   UNL     1      -2.447 -10.428   7.820  1.00  0.00     0.031 A 
ATOM     44  C   UNL     1      -3.278 -11.643   7.968  1.00  0.00     0.074 A 
ATOM     45  C   UNL     1      -1.813 -10.194   6.649  1.00  0.00     0.049 A 
ATOM     46  N   UNL     1      -3.061 -12.753   7.343  1.00  0.00    -0.248 NA
ATOM     47  C   UNL     1      -4.414 -11.707   8.882  1.00  0.00     0.031 C 
ATOM     48  C   UNL     1      -2.007 -10.912   5.392  1.00  0.00     0.029 A 
ATOM     49  N   UNL     1      -0.692  -9.396   6.411  1.00  0.00    -0.354 N 
ATOM     50  C   UNL     1      -4.170 -13.547   7.528  1.00  0.00     0.074 A 
ATOM     51  C   UNL     1      -4.943 -12.890   8.558  1.00  0.00     0.031 C 
ATOM     52  C   UNL     1      -0.898 -10.777   4.648  1.00  0.00     0.029 A 
ATOM     53  C   UNL     1       0.084 -10.079   5.463  1.00  0.00     0.049 A 
ATOM     54  H   UNL     1      -0.487  -8.527   6.827  1.00  0.00     0.167 HD
ATOM     55  C   UNL     1      -4.413 -14.594   6.690  1.00  0.00     0.031 A 
ATOM     56  C   UNL     1       1.369 -10.487   5.673  1.00  0.00     0.031 A 
ATOM     57  C   UNL     1      -3.360 -14.755   5.693  1.00  0.00     0.049 A 
ATOM     58  C   UNL     1       1.553 -11.978   5.488  1.00  0.00     0.074 A 
ATOM     59  C   UNL     1      -3.261 -14.384   4.361  1.00  0.00     0.029 A 
ATOM     60  N   UNL     1      -2.080 -15.115   6.098  1.00  0.00    -0.354 N 
ATOM     61  N   UNL     1       0.569 -12.833   5.439  1.00  0.00    -0.248 NA
ATOM     62  C   UNL     1       2.856 -12.631   5.392  1.00  0.00     0.031 C 
ATOM     63  C   UNL     1      -1.897 -14.461   3.984  1.00  0.00     0.029 A 
ATOM     64  C   UNL     1      -1.173 -14.900   5.078  1.00  0.00     0.049 A 
ATOM     65  H   UNL     1      -1.852 -15.472   6.986  1.00  0.00     0.167 HD
ATOM     66  C   UNL     1       1.064 -14.106   5.319  1.00  0.00     0.074 A 
ATOM     67  C   UNL     1       2.504 -13.925   5.280  1.00  0.00     0.031 C 
ATOM     68  C   UNL     1       0.241 -15.196   5.271  1.00  0.00     0.031 A 
BRANCH  55  69
ATOM     69  C   UNL     1      -5.771 -15.250   6.594  1.00  0.00    -0.014 A 
ATOM     70  C   UNL     1      -6.251 -15.684   5.342  1.00  0.00     0.010 A 
ATOM     71  C   UNL     1      -6.643 -15.412   7.688  1.00  0.00     0.010 A 
ATOM     72  C   UNL     1      -7.565 -16.141   5.166  1.00  0.00     0.020 A 
ATOM     73  C   UNL     1      -7.973 -15.830   7.522  1.00  0.00     0.020 A 
ATOM     74  C   UNL     1      -8.431 -16.179   6.255  1.00  0.00     0.054 A 
BRANCH  74  75
ATOM     75  S   UNL     1     -10.156 -16.666   5.986  1.00  0.00     0.124 S 
ATOM     76  O   UNL     1     -10.579 -15.760   4.921  1.00  0.00    -0.237 OA
ATOM     77  O   UNL     1     -10.029 -18.070   5.606  1.00  0.00    -0.237 OA
ATOM     78  O   UNL     1     -10.789 -16.426   7.282  1.00  0.00    -0.744 OA
ENDBRANCH  74  75
ENDBRANCH  55  69
BRANCH  56  79
ATOM     79  C   UNL     1       2.134  -9.644   6.633  1.00  0.00    -0.014 A 
ATOM     80  C   UNL     1       2.473  -8.336   6.224  1.00  0.00     0.010 A 
ATOM     81  C   UNL     1       2.137  -9.951   8.004  1.00  0.00     0.010 A 
ATOM     82  C   UNL     1       2.648  -7.319   7.166  1.00  0.00     0.020 A 
ATOM     83  C   UNL     1       2.317  -8.932   8.951  1.00  0.00     0.020 A 
ATOM     84  C   UNL     1       2.508  -7.614   8.522  1.00  0.00     0.054 A 
BRANCH  84  85
ATOM     85  S   UNL     1       2.402  -6.226   9.693  1.00  0.00     0.124 S 
ATOM     86  O   UNL     1       3.687  -5.560   9.503  1.00  0.00    -0.237 OA
ATOM     87  O   UNL     1       1.236  -5.495   9.196  1.00  0.00    -0.237 OA
ATOM     88  O   UNL     1       2.219  -6.887  10.980  1.00  0.00    -0.744 OA
ENDBRANCH  84  85
ENDBRANCH  56  79
BRANCH  68  89
ATOM     89  C   UNL     1       0.661 -16.648   5.314  1.00  0.00    -0.014 A 
ATOM     90  C   UNL     1       1.890 -17.109   5.808  1.00  0.00     0.010 A 
ATOM     91  C   UNL     1      -0.284 -17.638   4.941  1.00  0.00     0.010 A 
ATOM     92  C   UNL     1       2.184 -18.481   5.873  1.00  0.00     0.020 A 
ATOM     93  C   UNL     1      -0.020 -19.006   5.043  1.00  0.00     0.020 A 
ATOM     94  C   UNL     1       1.228 -19.421   5.487  1.00  0.00     0.054 A 
BRANCH  94  95
ATOM     95  S   UNL     1       1.589 -21.189   5.642  1.00  0.00     0.124 S 
ATOM     96  O   UNL     1       2.230 -21.478   4.362  1.00  0.00    -0.237 OA
ATOM     97  O   UNL     1       2.468 -21.244   6.808  1.00  0.00    -0.237 OA
ATOM     98  O   UNL     1       0.273 -21.791   5.836  1.00  0.00    -0.744 OA
ENDBRANCH  94  95
ENDBRANCH  68  89
ENDBRANCH  42  43
ENDBRANCH  34  37
ENDBRANCH  32  33
ENDBRANCH  31  32
ENDBRANCH   1  31
TORSDOF 18
