REMARK SMILES CCc1cc(OCCC(=O)NCCCCCCNC(=O)c2ccc(-c3c4nc(c(-c5ccc(S(=O)(=O)[O-])cc5)c5ccc([nH]5)c(-c5ccc(S(=O)(=O)[O-])cc5)c5nc(c(-c6ccc(S(=O)(=O)[O-])cc6)c6ccc3[nH]6)C=C5)C=C4)cc2)nc(-c2cnccn2)n1
REMARK SMILES IDX 14 1 13 2 12 3 11 4 9 5 10 6 8 8 7 9 6 10 5 11 3 12 4 13
REMARK SMILES IDX 89 14 82 15 81 16 2 17 1 18 83 19 84 20 88 21 85 22 87 23
REMARK SMILES IDX 86 24 15 25 16 26 17 27 18 28 19 29 20 31 21 32 22 33 80 34
REMARK SMILES IDX 23 35 79 36 24 37 25 38 26 39 73 40 27 41 78 42 72 43 74 44
REMARK SMILES IDX 28 45 77 46 71 47 70 48 29 50 59 51 40 52 58 53 41 54 44 55
REMARK SMILES IDX 57 56 75 57 42 58 43 59 56 61 76 62 45 63 30 64 31 65 39 66
REMARK SMILES IDX 32 67 38 68 33 69 34 70 35 71 36 72 37 73 60 74 61 75 69 76
REMARK SMILES IDX 62 77 68 78 63 79 64 80 65 81 66 82 67 83 46 84 47 85 55 86
REMARK SMILES IDX 48 87 54 88 49 89 50 90 51 91 52 92 53 93
REMARK H PARENT 11 7 18 30 74 49 44 60
REMARK Flexibility Score: inf
ROOT
ATOM      1  C   UNL     1      -0.757  -3.320  -1.316  1.00  0.00     0.002 C 
ENDROOT
BRANCH   1   2
ATOM      2  C   UNL     1       0.731  -3.307  -0.090  1.00  0.00     0.021 C 
BRANCH   2   3
ATOM      3  C   UNL     1       2.761  -3.580  -0.877  1.00  0.00     0.116 C 
BRANCH   3   4
ATOM      4  N   UNL     1       3.706  -2.532  -1.549  1.00  0.00    -0.356 N 
ATOM      5  C   UNL     1       4.735  -1.862  -0.971  1.00  0.00     0.223 C 
ATOM      6  O   UNL     1       5.047  -0.747  -1.383  1.00  0.00    -0.275 OA
ATOM      7  H   UNL     1       3.535  -2.336  -2.498  1.00  0.00     0.163 HD
BRANCH   5   8
ATOM      8  C   UNL     1       5.478  -2.576   0.134  1.00  0.00     0.141 C 
BRANCH   8   9
ATOM      9  C   UNL     1       4.833  -2.701   1.535  1.00  0.00     0.241 C 
BRANCH   9  10
ATOM     10  O   UNL     1       3.799  -3.688   1.827  1.00  0.00    -0.477 OA
BRANCH  10  11
ATOM     11  C   UNL     1       2.522  -3.509   1.231  1.00  0.00     0.217 A 
ATOM     12  C   UNL     1       1.635  -1.794  -1.029  1.00  0.00     0.048 A 
ATOM     13  C   UNL     1       2.330  -1.953   0.558  1.00  0.00     0.092 A 
ATOM     14  N   UNL     1       1.219  -3.282  -1.919  1.00  0.00    -0.231 NA
ATOM     15  C   UNL     1       1.219  -4.898  -1.057  1.00  0.00     0.183 A 
ATOM     16  N   UNL     1       1.958  -4.972   0.491  1.00  0.00    -0.192 NA
BRANCH  12  17
ATOM     17  C   UNL     1       1.060  -0.433  -1.382  1.00  0.00     0.053 C 
ATOM     18  C   UNL     1       1.085   0.558  -0.203  1.00  0.00     0.011 C 
ENDBRANCH  12  17
BRANCH  15  19
ATOM     19  C   UNL     1      -0.071  -5.944  -1.103  1.00  0.00     0.126 A 
ATOM     20  C   UNL     1       0.529  -7.556  -0.797  1.00  0.00     0.143 A 
ATOM     21  N   UNL     1      -1.331  -5.758  -2.413  1.00  0.00    -0.250 NA
ATOM     22  N   UNL     1       0.209  -8.861  -1.891  1.00  0.00    -0.261 NA
ATOM     23  C   UNL     1      -1.679  -7.115  -3.542  1.00  0.00     0.132 A 
ATOM     24  C   UNL     1      -0.879  -8.659  -3.237  1.00  0.00     0.131 A 
ENDBRANCH  15  19
ENDBRANCH  10  11
ENDBRANCH   9  10
ENDBRANCH   8   9
ENDBRANCH   5   8
ENDBRANCH   3   4
ENDBRANCH   2   3
ENDBRANCH   1   2
BRANCH   1  25
ATOM     25  C   UNL     1      -0.576  -3.783  -3.065  1.00  0.00     0.002 C 
BRANCH  25  26
ATOM     26  C   UNL     1       0.329  -5.192  -3.622  1.00  0.00     0.021 C 
BRANCH  26  27
ATOM     27  C   UNL     1       0.240  -6.895  -2.878  1.00  0.00     0.116 C 
BRANCH  27  28
ATOM     28  N   UNL     1      -1.333  -7.456  -1.616  1.00  0.00    -0.352 N 
ATOM     29  C   UNL     1      -2.596  -8.140  -1.428  1.00  0.00     0.251 C 
ATOM     30  H   UNL     1      -1.108  -7.077  -0.735  1.00  0.00     0.163 HD
ATOM     31  O   UNL     1      -3.650  -7.507  -1.369  1.00  0.00    -0.269 OA
BRANCH  29  32
ATOM     32  C   UNL     1      -2.657  -9.591  -1.308  1.00  0.00     0.039 A 
ATOM     33  C   UNL     1      -3.140 -10.381  -2.365  1.00  0.00     0.014 A 
ATOM     34  C   UNL     1      -1.929 -10.099  -0.252  1.00  0.00     0.014 A 
ATOM     35  C   UNL     1      -2.692 -11.694  -2.458  1.00  0.00     0.010 A 
ATOM     36  C   UNL     1      -1.424 -11.366  -0.393  1.00  0.00     0.010 A 
ATOM     37  C   UNL     1      -1.788 -12.165  -1.496  1.00  0.00    -0.014 A 
BRANCH  37  38
ATOM     38  C   UNL     1      -1.275 -13.545  -1.498  1.00  0.00     0.031 A 
ATOM     39  C   UNL     1      -1.704 -14.417  -0.357  1.00  0.00     0.074 A 
ATOM     40  C   UNL     1      -0.359 -13.955  -2.394  1.00  0.00     0.049 A 
ATOM     41  N   UNL     1      -1.284 -15.605  -0.026  1.00  0.00    -0.248 NA
ATOM     42  C   UNL     1      -2.696 -13.841   0.575  1.00  0.00     0.031 C 
ATOM     43  C   UNL     1       0.174 -13.164  -3.506  1.00  0.00     0.029 A 
ATOM     44  N   UNL     1       0.304 -15.152  -2.493  1.00  0.00    -0.354 N 
ATOM     45  C   UNL     1      -1.939 -15.899   1.161  1.00  0.00     0.074 A 
ATOM     46  C   UNL     1      -2.694 -14.733   1.548  1.00  0.00     0.031 C 
ATOM     47  C   UNL     1       1.061 -13.910  -4.189  1.00  0.00     0.029 A 
ATOM     48  C   UNL     1       1.190 -15.214  -3.543  1.00  0.00     0.049 A 
ATOM     49  H   UNL     1       0.158 -15.899  -1.868  1.00  0.00     0.167 HD
ATOM     50  C   UNL     1      -1.950 -17.060   1.847  1.00  0.00     0.031 A 
ATOM     51  C   UNL     1       2.009 -16.215  -3.927  1.00  0.00     0.031 A 
ATOM     52  C   UNL     1      -1.206 -18.216   1.443  1.00  0.00     0.049 A 
ATOM     53  C   UNL     1       1.997 -17.500  -3.133  1.00  0.00     0.074 A 
ATOM     54  C   UNL     1      -1.187 -19.468   2.024  1.00  0.00     0.029 A 
ATOM     55  N   UNL     1      -0.345 -18.255   0.357  1.00  0.00    -0.354 N 
ATOM     56  N   UNL     1       1.297 -17.807  -2.066  1.00  0.00    -0.248 NA
ATOM     57  C   UNL     1       2.874 -18.580  -3.606  1.00  0.00     0.031 C 
ATOM     58  C   UNL     1      -0.254 -20.245   1.333  1.00  0.00     0.029 A 
ATOM     59  C   UNL     1       0.239 -19.504   0.268  1.00  0.00     0.049 A 
ATOM     60  H   UNL     1      -0.175 -17.506  -0.259  1.00  0.00     0.167 HD
ATOM     61  C   UNL     1       1.619 -19.127  -1.764  1.00  0.00     0.074 A 
ATOM     62  C   UNL     1       2.565 -19.563  -2.772  1.00  0.00     0.031 C 
ATOM     63  C   UNL     1       1.173 -19.912  -0.751  1.00  0.00     0.031 A 
BRANCH  50  64
ATOM     64  C   UNL     1      -2.795 -17.115   3.088  1.00  0.00    -0.014 A 
ATOM     65  C   UNL     1      -4.197 -16.996   3.021  1.00  0.00     0.010 A 
ATOM     66  C   UNL     1      -2.180 -17.286   4.339  1.00  0.00     0.010 A 
ATOM     67  C   UNL     1      -4.963 -17.003   4.186  1.00  0.00     0.020 A 
ATOM     68  C   UNL     1      -2.948 -17.337   5.504  1.00  0.00     0.020 A 
ATOM     69  C   UNL     1      -4.333 -17.181   5.420  1.00  0.00     0.054 A 
BRANCH  69  70
ATOM     70  S   UNL     1      -5.361 -17.238   6.911  1.00  0.00     0.124 S 
ATOM     71  O   UNL     1      -5.830 -15.858   7.009  1.00  0.00    -0.237 OA
ATOM     72  O   UNL     1      -6.378 -18.224   6.556  1.00  0.00    -0.237 OA
ATOM     73  O   UNL     1      -4.431 -17.655   7.958  1.00  0.00    -0.744 OA
ENDBRANCH  69  70
ENDBRANCH  50  64
BRANCH  51  74
ATOM     74  C   UNL     1       2.880 -16.067  -5.129  1.00  0.00    -0.014 A 
ATOM     75  C   UNL     1       2.651 -16.845  -6.280  1.00  0.00     0.010 A 
ATOM     76  C   UNL     1       3.955 -15.160  -5.130  1.00  0.00     0.010 A 
ATOM     77  C   UNL     1       3.489 -16.735  -7.395  1.00  0.00     0.020 A 
ATOM     78  C   UNL     1       4.776 -15.022  -6.256  1.00  0.00     0.020 A 
ATOM     79  C   UNL     1       4.543 -15.819  -7.379  1.00  0.00     0.054 A 
BRANCH  79  80
ATOM     80  S   UNL     1       5.579 -15.653  -8.860  1.00  0.00     0.124 S 
ATOM     81  O   UNL     1       6.286 -16.930  -8.884  1.00  0.00    -0.237 OA
ATOM     82  O   UNL     1       4.587 -15.458  -9.914  1.00  0.00    -0.237 OA
ATOM     83  O   UNL     1       6.408 -14.485  -8.571  1.00  0.00    -0.744 OA
ENDBRANCH  79  80
ENDBRANCH  51  74
BRANCH  63  84
ATOM     84  C   UNL     1       1.657 -21.338  -0.702  1.00  0.00    -0.014 A 
ATOM     85  C   UNL     1       2.990 -21.654  -0.389  1.00  0.00     0.010 A 
ATOM     86  C   UNL     1       0.731 -22.382  -0.894  1.00  0.00     0.010 A 
ATOM     87  C   UNL     1       3.395 -22.988  -0.302  1.00  0.00     0.020 A 
ATOM     88  C   UNL     1       1.123 -23.715  -0.767  1.00  0.00     0.020 A 
ATOM     89  C   UNL     1       2.458 -24.009  -0.487  1.00  0.00     0.054 A 
BRANCH  89  90
ATOM     90  S   UNL     1       3.001 -25.730  -0.319  1.00  0.00     0.124 S 
ATOM     91  O   UNL     1       3.850 -25.897  -1.496  1.00  0.00    -0.237 OA
ATOM     92  O   UNL     1       3.699 -25.719   0.964  1.00  0.00    -0.237 OA
ATOM     93  O   UNL     1       1.755 -26.493  -0.338  1.00  0.00    -0.744 OA
ENDBRANCH  89  90
ENDBRANCH  63  84
ENDBRANCH  37  38
ENDBRANCH  29  32
ENDBRANCH  27  28
ENDBRANCH  26  27
ENDBRANCH  25  26
ENDBRANCH   1  25
TORSDOF 21
