REMARK SMILES Cc1nc(C)n(CC[C@H]2CCC[C@@]2([NH2+]C(C)C)C(=O)NCCCCCCNC(=O)c2ccc(-c3c4nc(c(-c5ccc(S(=O)(=O)[O-])cc5)c5ccc([nH]5)c(-c5ccc(S(=O)(=O)[O-])cc5)c5nc(c(-c6ccc(S(=O)(=O)[O-])cc6)c6ccc3[nH]6)C=C5)C=C4)cc2)n1
REMARK SMILES IDX 23 1 22 2 21 3 20 4 18 5 19 6 13 8 9 9 10 10 11 11 12 12
REMARK SMILES IDX 8 13 7 14 6 15 1 16 2 17 3 18 90 19 4 20 5 21 14 22 15 25
REMARK SMILES IDX 16 26 17 27 24 28 25 29 26 30 27 31 28 32 29 34 30 35 31 36
REMARK SMILES IDX 89 37 32 38 88 39 33 40 34 41 35 42 82 43 36 44 87 45 81 46
REMARK SMILES IDX 83 47 37 48 86 49 80 50 79 51 38 53 68 54 49 55 67 56 50 57
REMARK SMILES IDX 53 58 66 59 84 60 51 61 52 62 65 64 85 65 54 66 39 67 40 68
REMARK SMILES IDX 48 69 41 70 47 71 42 72 43 73 44 74 45 75 46 76 69 77 70 78
REMARK SMILES IDX 78 79 71 80 77 81 72 82 73 83 74 84 75 85 76 86 55 87 56 88
REMARK SMILES IDX 64 89 57 90 63 91 58 92 59 93 60 94 61 95 62 96
REMARK H PARENT 20 7 14 23 14 24 27 33 83 52 53 63
REMARK Flexibility Score: inf
ROOT
ATOM      1  C   UNL     1       4.463   2.061 -12.104  1.00  0.00     0.002 C 
ENDROOT
BRANCH   1   2
ATOM      2  C   UNL     1       4.022   0.769 -11.419  1.00  0.00     0.021 C 
BRANCH   2   3
ATOM      3  C   UNL     1       3.436   0.916 -10.027  1.00  0.00     0.116 C 
BRANCH   3   4
ATOM      4  N   UNL     1       2.218   1.702  -9.945  1.00  0.00    -0.351 N 
ATOM      5  C   UNL     1       1.393   1.899  -8.858  1.00  0.00     0.281 C 
ATOM      6  O   UNL     1       0.595   2.837  -8.924  1.00  0.00    -0.268 OA
ATOM      7  H   UNL     1       1.945   2.154 -10.775  1.00  0.00     0.163 HD
BRANCH   5   8
ATOM      8  C   UNL     1       1.509   0.981  -7.604  1.00  0.00     0.178 C 
ATOM      9  C   UNL     1       0.384   1.087  -6.518  1.00  0.00     0.062 C 
ATOM     10  C   UNL     1       0.299  -0.328  -5.901  1.00  0.00     0.011 C 
ATOM     11  C   UNL     1       0.729  -1.310  -6.959  1.00  0.00     0.008 C 
ATOM     12  C   UNL     1       1.333  -0.488  -8.073  1.00  0.00     0.079 C 
BRANCH   9  13
ATOM     13  C   UNL     1      -0.996   1.661  -6.828  1.00  0.00     0.034 C 
BRANCH  13  14
ATOM     14  C   UNL     1      -2.109   1.412  -5.782  1.00  0.00     0.147 C 
BRANCH  14  15
ATOM     15  N   UNL     1      -2.075   1.722  -4.359  1.00  0.00    -0.250 N 
ATOM     16  C   UNL     1      -4.162   2.103  -1.510  1.00  0.00     0.092 C 
ATOM     17  C   UNL     1      -3.108   1.951  -2.526  1.00  0.00     0.147 A 
ATOM     18  N   UNL     1      -1.815   1.838  -2.172  1.00  0.00    -0.217 NA
ATOM     19  N   UNL     1      -3.327   1.921  -3.836  1.00  0.00    -0.156 NA
ATOM     20  C   UNL     1      -1.165   1.679  -3.310  1.00  0.00     0.124 A 
ATOM     21  C   UNL     1       0.298   1.482  -3.215  1.00  0.00     0.089 C 
ENDBRANCH  14  15
ENDBRANCH  13  14
ENDBRANCH   9  13
BRANCH   8  22
ATOM     22  N   UNL     1       2.827   1.160  -6.903  1.00  0.00    -0.331 N 
ATOM     23  H   UNL     1       3.544   0.765  -7.511  1.00  0.00     0.347 HD
ATOM     24  H   UNL     1       2.689   0.702  -6.003  1.00  0.00     0.347 HD
BRANCH  22  25
ATOM     25  C   UNL     1       3.268   2.525  -6.543  1.00  0.00     0.176 C 
ATOM     26  C   UNL     1       4.310   2.392  -5.418  1.00  0.00     0.075 C 
ATOM     27  C   UNL     1       3.946   3.336  -7.655  1.00  0.00     0.075 C 
ENDBRANCH  22  25
ENDBRANCH   8  22
ENDBRANCH   5   8
ENDBRANCH   3   4
ENDBRANCH   2   3
ENDBRANCH   1   2
BRANCH   1  28
ATOM     28  C   UNL     1       5.335   3.044 -11.313  1.00  0.00     0.002 C 
BRANCH  28  29
ATOM     29  C   UNL     1       6.609   2.530 -10.628  1.00  0.00     0.021 C 
BRANCH  29  30
ATOM     30  C   UNL     1       7.569   1.739 -11.501  1.00  0.00     0.116 C 
BRANCH  30  31
ATOM     31  N   UNL     1       8.049   2.475 -12.668  1.00  0.00    -0.352 N 
ATOM     32  C   UNL     1       8.805   1.998 -13.729  1.00  0.00     0.251 C 
ATOM     33  H   UNL     1       7.805   3.429 -12.706  1.00  0.00     0.163 HD
ATOM     34  O   UNL     1       9.463   2.759 -14.418  1.00  0.00    -0.269 OA
BRANCH  32  35
ATOM     35  C   UNL     1       8.788   0.547 -14.010  1.00  0.00     0.039 A 
ATOM     36  C   UNL     1       9.936  -0.146 -14.405  1.00  0.00     0.014 A 
ATOM     37  C   UNL     1       7.583  -0.125 -13.835  1.00  0.00     0.014 A 
ATOM     38  C   UNL     1       9.869  -1.535 -14.533  1.00  0.00     0.010 A 
ATOM     39  C   UNL     1       7.566  -1.491 -13.772  1.00  0.00     0.010 A 
ATOM     40  C   UNL     1       8.683  -2.202 -14.189  1.00  0.00    -0.014 A 
BRANCH  40  41
ATOM     41  C   UNL     1       8.605  -3.657 -14.126  1.00  0.00     0.031 A 
ATOM     42  C   UNL     1       9.611  -4.274 -13.225  1.00  0.00     0.074 A 
ATOM     43  C   UNL     1       7.568  -4.358 -14.638  1.00  0.00     0.049 A 
ATOM     44  N   UNL     1      10.654  -4.950 -13.572  1.00  0.00    -0.248 NA
ATOM     45  C   UNL     1       9.560  -3.960 -11.786  1.00  0.00     0.031 C 
ATOM     46  C   UNL     1       6.356  -3.839 -15.287  1.00  0.00     0.029 A 
ATOM     47  N   UNL     1       7.312  -5.692 -14.573  1.00  0.00    -0.354 N 
ATOM     48  C   UNL     1      11.241  -5.375 -12.386  1.00  0.00     0.074 A 
ATOM     49  C   UNL     1      10.672  -4.555 -11.346  1.00  0.00     0.031 C 
ATOM     50  C   UNL     1       5.408  -4.802 -15.319  1.00  0.00     0.029 A 
ATOM     51  C   UNL     1       5.995  -6.046 -14.858  1.00  0.00     0.049 A 
ATOM     52  H   UNL     1       8.003  -6.354 -14.342  1.00  0.00     0.167 HD
ATOM     53  C   UNL     1      11.918  -6.556 -12.322  1.00  0.00     0.031 A 
ATOM     54  C   UNL     1       5.422  -7.269 -14.700  1.00  0.00     0.031 A 
ATOM     55  C   UNL     1      12.163  -7.089 -13.641  1.00  0.00     0.049 A 
ATOM     56  C   UNL     1       6.528  -8.256 -14.672  1.00  0.00     0.074 A 
ATOM     57  C   UNL     1      12.808  -6.632 -14.773  1.00  0.00     0.029 A 
ATOM     58  N   UNL     1      11.327  -8.100 -14.059  1.00  0.00    -0.354 N 
ATOM     59  N   UNL     1       7.293  -8.492 -15.701  1.00  0.00    -0.248 NA
ATOM     60  C   UNL     1       7.089  -8.622 -13.382  1.00  0.00     0.031 C 
ATOM     61  C   UNL     1      11.985  -7.054 -15.858  1.00  0.00     0.029 A 
ATOM     62  C   UNL     1      10.940  -7.825 -15.344  1.00  0.00     0.049 A 
ATOM     63  H   UNL     1      11.056  -8.883 -13.527  1.00  0.00     0.167 HD
ATOM     64  C   UNL     1       8.572  -8.585 -15.171  1.00  0.00     0.074 A 
ATOM     65  C   UNL     1       8.371  -8.764 -13.733  1.00  0.00     0.031 C 
ATOM     66  C   UNL     1       9.663  -8.214 -15.905  1.00  0.00     0.031 A 
BRANCH  53  67
ATOM     67  C   UNL     1      11.963  -7.439 -11.098  1.00  0.00    -0.014 A 
ATOM     68  C   UNL     1      12.713  -8.632 -11.158  1.00  0.00     0.010 A 
ATOM     69  C   UNL     1      11.084  -7.294 -10.005  1.00  0.00     0.010 A 
ATOM     70  C   UNL     1      12.529  -9.657 -10.222  1.00  0.00     0.020 A 
ATOM     71  C   UNL     1      10.926  -8.291  -9.041  1.00  0.00     0.020 A 
ATOM     72  C   UNL     1      11.625  -9.482  -9.175  1.00  0.00     0.054 A 
BRANCH  72  73
ATOM     73  S   UNL     1      11.327 -10.845  -8.025  1.00  0.00     0.124 S 
ATOM     74  O   UNL     1      10.700 -11.837  -8.893  1.00  0.00    -0.237 OA
ATOM     75  O   UNL     1      12.677 -11.162  -7.569  1.00  0.00    -0.237 OA
ATOM     76  O   UNL     1      10.454 -10.254  -7.014  1.00  0.00    -0.744 OA
ENDBRANCH  72  73
ENDBRANCH  53  67
BRANCH  54  77
ATOM     77  C   UNL     1       4.043  -7.602 -14.249  1.00  0.00    -0.014 A 
ATOM     78  C   UNL     1       3.579  -8.934 -14.265  1.00  0.00     0.010 A 
ATOM     79  C   UNL     1       3.295  -6.663 -13.512  1.00  0.00     0.010 A 
ATOM     80  C   UNL     1       2.470  -9.327 -13.494  1.00  0.00     0.020 A 
ATOM     81  C   UNL     1       2.184  -7.046 -12.748  1.00  0.00     0.020 A 
ATOM     82  C   UNL     1       1.797  -8.383 -12.715  1.00  0.00     0.054 A 
BRANCH  82  83
ATOM     83  S   UNL     1       0.520  -8.929 -11.538  1.00  0.00     0.124 S 
ATOM     84  O   UNL     1      -0.594  -9.264 -12.419  1.00  0.00    -0.237 OA
ATOM     85  O   UNL     1       1.162 -10.057 -10.871  1.00  0.00    -0.237 OA
ATOM     86  O   UNL     1       0.312  -7.753 -10.693  1.00  0.00    -0.744 OA
ENDBRANCH  82  83
ENDBRANCH  54  77
BRANCH  66  87
ATOM     87  C   UNL     1       9.489  -7.996 -17.392  1.00  0.00    -0.014 A 
ATOM     88  C   UNL     1       8.633  -7.033 -17.963  1.00  0.00     0.010 A 
ATOM     89  C   UNL     1      10.341  -8.719 -18.245  1.00  0.00     0.010 A 
ATOM     90  C   UNL     1       8.606  -6.829 -19.352  1.00  0.00     0.020 A 
ATOM     91  C   UNL     1      10.335  -8.507 -19.624  1.00  0.00     0.020 A 
ATOM     92  C   UNL     1       9.457  -7.574 -20.175  1.00  0.00     0.054 A 
BRANCH  92  93
ATOM     93  S   UNL     1       9.436  -7.305 -21.970  1.00  0.00     0.124 S 
ATOM     94  O   UNL     1       8.122  -7.816 -22.351  1.00  0.00    -0.237 OA
ATOM     95  O   UNL     1       9.606  -5.858 -22.084  1.00  0.00    -0.237 OA
ATOM     96  O   UNL     1      10.569  -8.093 -22.453  1.00  0.00    -0.744 OA
ENDBRANCH  92  93
ENDBRANCH  66  87
ENDBRANCH  40  41
ENDBRANCH  32  35
ENDBRANCH  30  31
ENDBRANCH  29  30
ENDBRANCH  28  29
ENDBRANCH   1  28
TORSDOF 21
