REMARK SMILES Cc1ccc(-c2c(C)sc(NC(=O)[C@H]3CC=CC[C@H]3C(=O)NCCCCCCNC(=O)c3ccc(-c4c5nc(c(-c6ccc(S(=O)(=O)[O-])cc6)c6ccc([nH]6)c(-c6ccc(S(=O)(=O)[O-])cc6)c6nc(c(-c7ccc(S(=O)(=O)[O-])cc7)c7ccc4[nH]7)C=C6)C=C5)cc3)c2C(N)=O)cc1
REMARK SMILES IDX 25 1 24 2 23 3 22 4 20 5 21 6 19 8 14 9 15 10 16 11 18 12
REMARK SMILES IDX 17 13 12 14 11 15 13 17 10 18 6 19 7 20 92 21 8 22 9 23 5 24
REMARK SMILES IDX 1 25 2 26 3 27 97 28 4 29 96 30 93 31 94 32 95 33 26 36
REMARK SMILES IDX 27 37 28 38 29 39 30 40 31 42 32 43 33 44 91 45 34 46 90 47
REMARK SMILES IDX 35 48 36 49 37 50 84 51 38 52 89 53 83 54 85 55 39 56 88 57
REMARK SMILES IDX 82 58 81 59 40 61 70 62 51 63 69 64 52 65 55 66 68 67 86 68
REMARK SMILES IDX 53 69 54 70 67 72 87 73 56 74 41 75 42 76 50 77 43 78 49 79
REMARK SMILES IDX 44 80 45 81 46 82 47 83 48 84 71 85 72 86 80 87 73 88 79 89
REMARK SMILES IDX 74 90 75 91 76 92 77 93 78 94 57 95 58 96 66 97 59 98 65 99
REMARK SMILES IDX 60 100 61 101 62 102 63 103 64 104
REMARK H PARENT 22 7 11 16 94 34 94 35 29 41 85 60 55 71
REMARK Flexibility Score: inf
ROOT
ATOM      1  C   UNL     1      -9.088  -4.405   2.933  1.00  0.00     0.002 C 
ENDROOT
BRANCH   1   2
ATOM      2  C   UNL     1      -8.482  -3.085   2.439  1.00  0.00     0.021 C 
BRANCH   2   3
ATOM      3  C   UNL     1      -7.847  -3.172   1.053  1.00  0.00     0.116 C 
BRANCH   3   4
ATOM      4  N   UNL     1      -8.863  -3.141   0.039  1.00  0.00    -0.356 N 
ATOM      5  C   UNL     1      -9.203  -2.165  -0.824  1.00  0.00     0.224 C 
ATOM      6  O   UNL     1     -10.242  -2.336  -1.473  1.00  0.00    -0.275 OA
ATOM      7  H   UNL     1      -9.397  -3.965  -0.037  1.00  0.00     0.163 HD
BRANCH   5   8
ATOM      8  C   UNL     1      -8.336  -0.945  -1.095  1.00  0.00     0.095 C 
ATOM      9  C   UNL     1      -8.309   0.254  -0.127  1.00  0.00     0.095 C 
ATOM     10  C   UNL     1      -7.940   1.508  -0.947  1.00  0.00     0.041 C 
ATOM     11  C   UNL     1      -6.954   1.249  -2.073  1.00  0.00    -0.030 C 
ATOM     12  C   UNL     1      -6.984  -1.232  -1.736  1.00  0.00     0.041 C 
ATOM     13  C   UNL     1      -6.483   0.029  -2.391  1.00  0.00    -0.030 C 
BRANCH   9  14
ATOM     14  C   UNL     1      -7.689   0.136   1.295  1.00  0.00     0.229 C 
ATOM     15  N   UNL     1      -6.397  -0.052   1.696  1.00  0.00    -0.317 N 
ATOM     16  H   UNL     1      -6.323  -0.419   2.606  1.00  0.00     0.170 HD
ATOM     17  O   UNL     1      -8.493   0.106   2.246  1.00  0.00    -0.274 OA
BRANCH  15  18
ATOM     18  C   UNL     1      -5.173   0.162   1.097  1.00  0.00     0.109 A 
ATOM     19  C   UNL     1      -2.948   0.216   0.372  1.00  0.00     0.010 A 
ATOM     20  C   UNL     1      -3.584   1.104  -0.484  1.00  0.00     0.012 A 
ATOM     21  C   UNL     1      -3.899  -0.364   1.337  1.00  0.00     0.082 A 
ATOM     22  C   UNL     1      -3.170   1.722  -1.777  1.00  0.00     0.057 C 
ATOM     23  S   UNL     1      -5.010   1.632   0.266  1.00  0.00    -0.122 S 
BRANCH  19  24
ATOM     24  C   UNL     1      -1.499   0.044   0.255  1.00  0.00    -0.016 A 
ATOM     25  C   UNL     1       2.797  -0.211  -0.086  1.00  0.00     0.044 C 
ATOM     26  C   UNL     1       1.303  -0.120   0.001  1.00  0.00    -0.051 A 
ATOM     27  C   UNL     1       0.506  -1.272  -0.078  1.00  0.00     0.004 A 
ATOM     28  C   UNL     1       0.690   1.115   0.214  1.00  0.00     0.004 A 
ATOM     29  C   UNL     1      -0.890  -1.192   0.037  1.00  0.00     0.009 A 
ATOM     30  C   UNL     1      -0.693   1.190   0.355  1.00  0.00     0.009 A 
ENDBRANCH  19  24
BRANCH  21  31
ATOM     31  C   UNL     1      -3.509  -1.341   2.368  1.00  0.00     0.252 C 
ATOM     32  N   UNL     1      -4.506  -2.003   3.037  1.00  0.00    -0.365 N 
ATOM     33  O   UNL     1      -2.358  -1.601   2.657  1.00  0.00    -0.269 OA
ATOM     34  H   UNL     1      -5.449  -1.815   2.826  1.00  0.00     0.159 HD
ATOM     35  H   UNL     1      -4.279  -2.667   3.727  1.00  0.00     0.159 HD
ENDBRANCH  21  31
ENDBRANCH  15  18
ENDBRANCH   9  14
ENDBRANCH   5   8
ENDBRANCH   3   4
ENDBRANCH   2   3
ENDBRANCH   1   2
BRANCH   1  36
ATOM     36  C   UNL     1      -8.146  -5.621   2.928  1.00  0.00     0.002 C 
BRANCH  36  37
ATOM     37  C   UNL     1      -6.727  -5.379   3.445  1.00  0.00     0.021 C 
BRANCH  37  38
ATOM     38  C   UNL     1      -6.671  -4.976   4.904  1.00  0.00     0.116 C 
BRANCH  38  39
ATOM     39  N   UNL     1      -6.490  -6.082   5.824  1.00  0.00    -0.352 N 
ATOM     40  C   UNL     1      -5.933  -5.896   7.083  1.00  0.00     0.251 C 
ATOM     41  H   UNL     1      -6.769  -6.986   5.550  1.00  0.00     0.163 HD
ATOM     42  O   UNL     1      -4.921  -6.450   7.487  1.00  0.00    -0.269 OA
BRANCH  40  43
ATOM     43  C   UNL     1      -6.668  -4.946   7.942  1.00  0.00     0.039 A 
ATOM     44  C   UNL     1      -7.436  -5.423   9.008  1.00  0.00     0.014 A 
ATOM     45  C   UNL     1      -6.772  -3.628   7.503  1.00  0.00     0.014 A 
ATOM     46  C   UNL     1      -8.443  -4.615   9.525  1.00  0.00     0.010 A 
ATOM     47  C   UNL     1      -7.844  -2.885   7.914  1.00  0.00     0.010 A 
ATOM     48  C   UNL     1      -8.687  -3.393   8.903  1.00  0.00    -0.014 A 
BRANCH  48  49
ATOM     49  C   UNL     1      -9.765  -2.491   9.234  1.00  0.00     0.031 A 
ATOM     50  C   UNL     1      -9.472  -1.400  10.177  1.00  0.00     0.074 A 
ATOM     51  C   UNL     1     -10.901  -2.565   8.511  1.00  0.00     0.049 A 
ATOM     52  N   UNL     1     -10.357  -0.771  10.863  1.00  0.00    -0.248 NA
ATOM     53  C   UNL     1      -8.105  -0.958  10.460  1.00  0.00     0.031 C 
ATOM     54  C   UNL     1     -11.966  -1.580   8.383  1.00  0.00     0.029 A 
ATOM     55  N   UNL     1     -11.401  -3.654   7.825  1.00  0.00    -0.354 N 
ATOM     56  C   UNL     1      -9.740   0.355  11.366  1.00  0.00     0.074 A 
ATOM     57  C   UNL     1      -8.327   0.117  11.220  1.00  0.00     0.031 C 
ATOM     58  C   UNL     1     -13.070  -2.194   7.912  1.00  0.00     0.029 A 
ATOM     59  C   UNL     1     -12.791  -3.625   7.876  1.00  0.00     0.049 A 
ATOM     60  H   UNL     1     -10.860  -4.341   7.372  1.00  0.00     0.167 HD
ATOM     61  C   UNL     1     -10.505   1.443  11.654  1.00  0.00     0.031 A 
ATOM     62  C   UNL     1     -13.469  -4.555   8.622  1.00  0.00     0.031 A 
ATOM     63  C   UNL     1     -11.921   1.136  11.449  1.00  0.00     0.049 A 
ATOM     64  C   UNL     1     -14.136  -3.942   9.841  1.00  0.00     0.074 A 
ATOM     65  C   UNL     1     -12.778   1.397  10.393  1.00  0.00     0.029 A 
ATOM     66  N   UNL     1     -12.523   0.147  12.217  1.00  0.00    -0.354 N 
ATOM     67  N   UNL     1     -13.760  -2.823  10.397  1.00  0.00    -0.248 NA
ATOM     68  C   UNL     1     -15.291  -4.533  10.511  1.00  0.00     0.031 C 
ATOM     69  C   UNL     1     -13.854   0.474  10.473  1.00  0.00     0.029 A 
ATOM     70  C   UNL     1     -13.665  -0.318  11.593  1.00  0.00     0.049 A 
ATOM     71  H   UNL     1     -12.184  -0.177  13.083  1.00  0.00     0.167 HD
ATOM     72  C   UNL     1     -14.590  -2.524  11.444  1.00  0.00     0.074 A 
ATOM     73  C   UNL     1     -15.531  -3.630  11.479  1.00  0.00     0.031 C 
ATOM     74  C   UNL     1     -14.450  -1.389  12.192  1.00  0.00     0.031 A 
BRANCH  61  75
ATOM     75  C   UNL     1      -9.977   2.855  11.785  1.00  0.00    -0.014 A 
ATOM     76  C   UNL     1     -10.870   3.930  11.588  1.00  0.00     0.010 A 
ATOM     77  C   UNL     1      -8.637   3.206  12.038  1.00  0.00     0.010 A 
ATOM     78  C   UNL     1     -10.446   5.265  11.578  1.00  0.00     0.020 A 
ATOM     79  C   UNL     1      -8.192   4.538  12.014  1.00  0.00     0.020 A 
ATOM     80  C   UNL     1      -9.103   5.562  11.778  1.00  0.00     0.054 A 
BRANCH  80  81
ATOM     81  S   UNL     1      -8.577   7.293  11.753  1.00  0.00     0.124 S 
ATOM     82  O   UNL     1      -8.950   7.715  10.405  1.00  0.00    -0.237 OA
ATOM     83  O   UNL     1      -9.365   7.875  12.836  1.00  0.00    -0.237 OA
ATOM     84  O   UNL     1      -7.138   7.223  12.001  1.00  0.00    -0.744 OA
ENDBRANCH  80  81
ENDBRANCH  61  75
BRANCH  62  85
ATOM     85  C   UNL     1     -12.828  -5.911   8.590  1.00  0.00    -0.014 A 
ATOM     86  C   UNL     1     -12.840  -6.604   7.358  1.00  0.00     0.010 A 
ATOM     87  C   UNL     1     -11.873  -6.274   9.556  1.00  0.00     0.010 A 
ATOM     88  C   UNL     1     -11.809  -7.488   7.026  1.00  0.00     0.020 A 
ATOM     89  C   UNL     1     -10.845  -7.175   9.229  1.00  0.00     0.020 A 
ATOM     90  C   UNL     1     -10.781  -7.714   7.941  1.00  0.00     0.054 A 
BRANCH  90  91
ATOM     91  S   UNL     1      -9.276  -8.550   7.348  1.00  0.00     0.124 S 
ATOM     92  O   UNL     1      -9.783  -9.855   6.940  1.00  0.00    -0.237 OA
ATOM     93  O   UNL     1      -8.838  -7.671   6.260  1.00  0.00    -0.237 OA
ATOM     94  O   UNL     1      -8.402  -8.552   8.516  1.00  0.00    -0.744 OA
ENDBRANCH  90  91
ENDBRANCH  62  85
BRANCH  74  95
ATOM     95  C   UNL     1     -15.118  -1.125  13.519  1.00  0.00    -0.014 A 
ATOM     96  C   UNL     1     -15.655  -2.127  14.340  1.00  0.00     0.010 A 
ATOM     97  C   UNL     1     -15.103   0.192  14.045  1.00  0.00     0.010 A 
ATOM     98  C   UNL     1     -16.232  -1.821  15.578  1.00  0.00     0.020 A 
ATOM     99  C   UNL     1     -15.619   0.499  15.305  1.00  0.00     0.020 A 
ATOM    100  C   UNL     1     -16.219  -0.507  16.048  1.00  0.00     0.054 A 
BRANCH 100 101
ATOM    101  S   UNL     1     -16.964  -0.132  17.651  1.00  0.00     0.124 S 
ATOM    102  O   UNL     1     -18.384  -0.071  17.311  1.00  0.00    -0.237 OA
ATOM    103  O   UNL     1     -16.564  -1.275  18.469  1.00  0.00    -0.237 OA
ATOM    104  O   UNL     1     -16.355   1.140  18.028  1.00  0.00    -0.744 OA
ENDBRANCH 100 101
ENDBRANCH  74  95
ENDBRANCH  48  49
ENDBRANCH  40  43
ENDBRANCH  38  39
ENDBRANCH  37  38
ENDBRANCH  36  37
ENDBRANCH   1  36
TORSDOF 20
