REMARK SMILES Cc1cccc2c1[C@H]1c3c(C)cccc3[C@H](CC(=O)NCCCCCCNC(=O)c3ccc(-c4c5nc(c(-c6ccc(S(=O)(=O)[O-])cc6)c6ccc([nH]6)c(-c6ccc(S(=O)(=O)[O-])cc6)c6nc(c(-c7ccc(S(=O)(=O)[O-])cc7)c7ccc4[nH]7)C=C6)C=C5)cc3)C[C@H]1CC2
REMARK SMILES IDX 24 1 23 2 22 3 21 4 20 5 18 6 19 7 17 9 16 10 1 11 2 12 3 13
REMARK SMILES IDX 7 14 4 15 6 16 8 17 5 18 93 19 9 20 91 21 92 22 10 23 15 24
REMARK SMILES IDX 90 25 12 26 11 27 14 28 13 29 25 30 26 31 27 32 28 33 29 35
REMARK SMILES IDX 30 36 31 37 89 38 32 39 88 40 33 41 34 42 35 43 82 44 36 45
REMARK SMILES IDX 87 46 81 47 83 48 37 49 86 50 80 51 79 52 38 54 68 55 49 56
REMARK SMILES IDX 67 57 50 58 53 59 66 60 84 61 51 62 52 63 65 65 85 66 54 67
REMARK SMILES IDX 39 68 40 69 48 70 41 71 47 72 42 73 43 74 44 75 45 76 46 77
REMARK SMILES IDX 69 78 70 79 78 80 71 81 77 82 72 83 73 84 74 85 75 86 76 87
REMARK SMILES IDX 55 88 56 89 64 90 57 91 63 92 58 93 59 94 60 95 61 96 62 97
REMARK H PARENT 20 8 27 34 83 53 53 64
REMARK Flexibility Score: inf
ROOT
ATOM      1  C   UNL     1      -0.331  -5.788  -1.377  1.00  0.00     0.002 C 
ENDROOT
BRANCH   1   2
ATOM      2  C   UNL     1      -0.562  -4.308  -1.063  1.00  0.00     0.002 C 
BRANCH   2   3
ATOM      3  C   UNL     1      -0.606  -3.366  -2.271  1.00  0.00     0.021 C 
BRANCH   3   4
ATOM      4  C   UNL     1      -1.572  -3.761  -3.384  1.00  0.00     0.116 C 
BRANCH   4   5
ATOM      5  N   UNL     1      -2.943  -3.781  -2.934  1.00  0.00    -0.356 N 
ATOM      6  C   UNL     1      -3.997  -3.024  -3.330  1.00  0.00     0.220 C 
ATOM      7  O   UNL     1      -5.124  -3.364  -2.959  1.00  0.00    -0.275 OA
ATOM      8  H   UNL     1      -3.144  -4.444  -2.235  1.00  0.00     0.163 HD
BRANCH   6   9
ATOM      9  C   UNL     1      -3.806  -1.814  -4.229  1.00  0.00     0.108 C 
BRANCH   9  10
ATOM     10  C   UNL     1      -3.334  -0.483  -3.579  1.00  0.00     0.029 C 
ATOM     11  C   UNL     1       1.494   0.136  -0.164  1.00  0.00     0.044 C 
ATOM     12  C   UNL     1       0.800   1.467  -0.311  1.00  0.00    -0.047 A 
ATOM     13  C   UNL     1       1.345   2.524   0.445  1.00  0.00     0.004 A 
ATOM     14  C   UNL     1      -0.313   1.717  -1.157  1.00  0.00    -0.034 A 
ATOM     15  C   UNL     1       0.852   3.818   0.333  1.00  0.00     0.001 A 
ATOM     16  C   UNL     1      -0.693   3.063  -1.377  1.00  0.00    -0.044 A 
ATOM     17  C   UNL     1      -1.105   0.604  -1.852  1.00  0.00     0.053 C 
ATOM     18  C   UNL     1      -0.135   4.093  -0.602  1.00  0.00     0.004 A 
ATOM     19  C   UNL     1      -1.552   3.480  -2.549  1.00  0.00     0.036 C 
ATOM     20  C   UNL     1      -2.439   0.125  -1.206  1.00  0.00    -0.034 A 
ATOM     21  C   UNL     1      -1.333   1.066  -3.312  1.00  0.00     0.002 C 
ATOM     22  C   UNL     1      -2.179   2.348  -3.354  1.00  0.00     0.009 C 
ATOM     23  C   UNL     1      -2.689   0.081   0.196  1.00  0.00    -0.047 A 
ATOM     24  C   UNL     1      -3.480  -0.355  -2.065  1.00  0.00    -0.040 A 
ATOM     25  C   UNL     1      -1.949  -0.086  -4.104  1.00  0.00     0.013 C 
ATOM     26  C   UNL     1      -3.959  -0.297   0.682  1.00  0.00     0.004 A 
ATOM     27  C   UNL     1      -1.683   0.406   1.264  1.00  0.00     0.044 C 
ATOM     28  C   UNL     1      -4.751  -0.659  -1.534  1.00  0.00     0.004 A 
ATOM     29  C   UNL     1      -4.989  -0.641  -0.173  1.00  0.00     0.001 A 
ENDBRANCH   9  10
ENDBRANCH   6   9
ENDBRANCH   4   5
ENDBRANCH   3   4
ENDBRANCH   2   3
ENDBRANCH   1   2
BRANCH   1  30
ATOM     30  C   UNL     1       0.859  -6.090  -2.290  1.00  0.00     0.021 C 
BRANCH  30  31
ATOM     31  C   UNL     1       2.197  -5.561  -1.791  1.00  0.00     0.116 C 
BRANCH  31  32
ATOM     32  N   UNL     1       2.643  -6.253  -0.595  1.00  0.00    -0.352 N 
ATOM     33  C   UNL     1       3.762  -7.031  -0.424  1.00  0.00     0.251 C 
ATOM     34  H   UNL     1       2.067  -6.152   0.197  1.00  0.00     0.163 HD
ATOM     35  O   UNL     1       3.900  -7.712   0.584  1.00  0.00    -0.269 OA
BRANCH  33  36
ATOM     36  C   UNL     1       4.793  -7.046  -1.482  1.00  0.00     0.039 A 
ATOM     37  C   UNL     1       5.226  -8.272  -1.993  1.00  0.00     0.014 A 
ATOM     38  C   UNL     1       5.322  -5.846  -1.970  1.00  0.00     0.014 A 
ATOM     39  C   UNL     1       6.161  -8.293  -3.030  1.00  0.00     0.010 A 
ATOM     40  C   UNL     1       6.216  -5.868  -3.036  1.00  0.00     0.010 A 
ATOM     41  C   UNL     1       6.650  -7.092  -3.567  1.00  0.00    -0.014 A 
BRANCH  41  42
ATOM     42  C   UNL     1       7.660  -7.096  -4.652  1.00  0.00     0.031 A 
ATOM     43  C   UNL     1       9.067  -6.660  -4.354  1.00  0.00     0.074 A 
ATOM     44  C   UNL     1       7.309  -7.453  -5.902  1.00  0.00     0.049 A 
ATOM     45  N   UNL     1      10.083  -6.549  -5.169  1.00  0.00    -0.248 NA
ATOM     46  C   UNL     1       9.368  -6.286  -2.961  1.00  0.00     0.031 C 
ATOM     47  C   UNL     1       5.971  -7.878  -6.318  1.00  0.00     0.029 A 
ATOM     48  N   UNL     1       8.051  -7.511  -7.055  1.00  0.00    -0.354 N 
ATOM     49  C   UNL     1      11.138  -6.087  -4.393  1.00  0.00     0.074 A 
ATOM     50  C   UNL     1      10.633  -5.899  -3.052  1.00  0.00     0.031 C 
ATOM     51  C   UNL     1       5.993  -8.170  -7.630  1.00  0.00     0.029 A 
ATOM     52  C   UNL     1       7.335  -7.927  -8.152  1.00  0.00     0.049 A 
ATOM     53  H   UNL     1       9.006  -7.276  -7.093  1.00  0.00     0.167 HD
ATOM     54  C   UNL     1      12.419  -5.858  -4.762  1.00  0.00     0.031 A 
ATOM     55  C   UNL     1       7.715  -8.092  -9.435  1.00  0.00     0.031 A 
ATOM     56  C   UNL     1      12.926  -6.064  -6.090  1.00  0.00     0.049 A 
ATOM     57  C   UNL     1       9.140  -7.814  -9.825  1.00  0.00     0.074 A 
ATOM     58  C   UNL     1      14.223  -5.904  -6.545  1.00  0.00     0.029 A 
ATOM     59  N   UNL     1      12.166  -6.477  -7.172  1.00  0.00    -0.354 N 
ATOM     60  N   UNL     1      10.133  -7.410  -9.069  1.00  0.00    -0.248 NA
ATOM     61  C   UNL     1       9.499  -8.016 -11.236  1.00  0.00     0.031 C 
ATOM     62  C   UNL     1      14.239  -6.183  -7.915  1.00  0.00     0.029 A 
ATOM     63  C   UNL     1      12.962  -6.558  -8.300  1.00  0.00     0.049 A 
ATOM     64  H   UNL     1      11.204  -6.681  -7.142  1.00  0.00     0.167 HD
ATOM     65  C   UNL     1      11.238  -7.327  -9.908  1.00  0.00     0.074 A 
ATOM     66  C   UNL     1      10.795  -7.727 -11.227  1.00  0.00     0.031 C 
ATOM     67  C   UNL     1      12.506  -6.956  -9.607  1.00  0.00     0.031 A 
BRANCH  54  68
ATOM     68  C   UNL     1      13.372  -5.367  -3.710  1.00  0.00    -0.014 A 
ATOM     69  C   UNL     1      13.876  -6.243  -2.732  1.00  0.00     0.010 A 
ATOM     70  C   UNL     1      13.825  -4.036  -3.743  1.00  0.00     0.010 A 
ATOM     71  C   UNL     1      14.809  -5.792  -1.796  1.00  0.00     0.020 A 
ATOM     72  C   UNL     1      14.773  -3.587  -2.820  1.00  0.00     0.020 A 
ATOM     73  C   UNL     1      15.257  -4.468  -1.851  1.00  0.00     0.054 A 
BRANCH  73  74
ATOM     74  S   UNL     1      16.498  -3.928  -0.644  1.00  0.00     0.124 S 
ATOM     75  O   UNL     1      15.793  -4.114   0.623  1.00  0.00    -0.237 OA
ATOM     76  O   UNL     1      17.600  -4.853  -0.892  1.00  0.00    -0.237 OA
ATOM     77  O   UNL     1      16.756  -2.537  -1.009  1.00  0.00    -0.744 OA
ENDBRANCH  73  74
ENDBRANCH  54  68
BRANCH  55  78
ATOM     78  C   UNL     1       6.724  -8.565 -10.437  1.00  0.00    -0.014 A 
ATOM     79  C   UNL     1       6.749  -9.895 -10.888  1.00  0.00     0.010 A 
ATOM     80  C   UNL     1       5.720  -7.699 -10.906  1.00  0.00     0.010 A 
ATOM     81  C   UNL     1       5.783 -10.354 -11.787  1.00  0.00     0.020 A 
ATOM     82  C   UNL     1       4.741  -8.159 -11.792  1.00  0.00     0.020 A 
ATOM     83  C   UNL     1       4.778  -9.486 -12.224  1.00  0.00     0.054 A 
BRANCH  83  84
ATOM     84  S   UNL     1       3.498 -10.131 -13.337  1.00  0.00     0.124 S 
ATOM     85  O   UNL     1       4.276 -10.526 -14.507  1.00  0.00    -0.237 OA
ATOM     86  O   UNL     1       2.932 -11.225 -12.553  1.00  0.00    -0.237 OA
ATOM     87  O   UNL     1       2.608  -8.989 -13.536  1.00  0.00    -0.744 OA
ENDBRANCH  83  84
ENDBRANCH  55  78
BRANCH  67  88
ATOM     88  C   UNL     1      13.526  -6.972 -10.710  1.00  0.00    -0.014 A 
ATOM     89  C   UNL     1      13.582  -5.930 -11.650  1.00  0.00     0.010 A 
ATOM     90  C   UNL     1      14.514  -7.973 -10.727  1.00  0.00     0.010 A 
ATOM     91  C   UNL     1      14.614  -5.888 -12.591  1.00  0.00     0.020 A 
ATOM     92  C   UNL     1      15.557  -7.925 -11.655  1.00  0.00     0.020 A 
ATOM     93  C   UNL     1      15.601  -6.880 -12.580  1.00  0.00     0.054 A 
BRANCH  93  94
ATOM     94  S   UNL     1      16.966  -6.756 -13.768  1.00  0.00     0.124 S 
ATOM     95  O   UNL     1      16.270  -6.856 -15.048  1.00  0.00    -0.237 OA
ATOM     96  O   UNL     1      17.531  -5.444 -13.461  1.00  0.00    -0.237 OA
ATOM     97  O   UNL     1      17.822  -7.893 -13.437  1.00  0.00    -0.744 OA
ENDBRANCH  93  94
ENDBRANCH  67  88
ENDBRANCH  41  42
ENDBRANCH  33  36
ENDBRANCH  31  32
ENDBRANCH  30  31
ENDBRANCH   1  30
TORSDOF 17
