REMARK SMILES CC[C@](C)([NH2+]CC(=O)Nc1c(Cl)ccc(C)c1Cl)C(=O)NCCCCCCNC(=O)c1ccc(-c2c3nc(c(-c4ccc(S(=O)(=O)[O-])cc4)c4ccc([nH]4)c(-c4ccc(S(=O)(=O)[O-])cc4)c4nc(c(-c5ccc(S(=O)(=O)[O-])cc5)c5ccc2[nH]5)C=C4)C=C3)cc1
REMARK SMILES IDX 24 1 23 2 22 3 21 4 19 5 20 6 3 8 4 9 2 10 1 11 5 12 6 15
REMARK SMILES IDX 7 16 8 17 9 18 10 20 11 21 17 22 12 23 13 24 15 25 18 26
REMARK SMILES IDX 14 27 16 28 25 29 26 30 27 31 28 32 29 33 30 35 31 36 32 37
REMARK SMILES IDX 90 38 33 39 89 40 34 41 35 42 36 43 83 44 37 45 88 46 82 47
REMARK SMILES IDX 84 48 38 49 87 50 81 51 80 52 39 54 69 55 50 56 68 57 51 58
REMARK SMILES IDX 54 59 67 60 85 61 52 62 53 63 66 65 86 66 55 67 40 68 41 69
REMARK SMILES IDX 49 70 42 71 48 72 43 73 44 74 45 75 46 76 47 77 70 78 71 79
REMARK SMILES IDX 79 80 72 81 78 82 73 83 74 84 75 85 76 86 77 87 56 88 57 89
REMARK SMILES IDX 65 90 58 91 64 92 59 93 60 94 61 95 62 96 63 97
REMARK H PARENT 21 7 5 13 5 14 9 19 28 34 84 53 54 64
REMARK Flexibility Score: inf
ROOT
ATOM      1  C   UNL     1       5.124   2.848   5.589  1.00  0.00     0.002 C 
ENDROOT
BRANCH   1   2
ATOM      2  C   UNL     1       3.730   2.221   5.394  1.00  0.00     0.021 C 
BRANCH   2   3
ATOM      3  C   UNL     1       3.246   2.241   3.938  1.00  0.00     0.116 C 
BRANCH   3   4
ATOM      4  N   UNL     1       2.848   0.933   3.368  1.00  0.00    -0.351 N 
ATOM      5  C   UNL     1       1.829   0.262   2.731  1.00  0.00     0.281 C 
ATOM      6  O   UNL     1       2.298  -0.700   2.085  1.00  0.00    -0.268 OA
ATOM      7  H   UNL     1       3.597   0.305   3.492  1.00  0.00     0.163 HD
BRANCH   5   8
ATOM      8  C   UNL     1       0.169   0.421   2.855  1.00  0.00     0.172 C 
ATOM      9  C   UNL     1      -0.172  -1.125   2.862  1.00  0.00     0.090 C 
BRANCH   8  10
ATOM     10  C   UNL     1      -1.149   0.942   2.023  1.00  0.00     0.075 C 
ATOM     11  C   UNL     1      -1.455   2.103   1.052  1.00  0.00     0.011 C 
ENDBRANCH   8  10
BRANCH   8  12
ATOM     12  N   UNL     1       0.008   0.964   4.187  1.00  0.00    -0.326 N 
ATOM     13  H   UNL     1       0.700   0.533   4.801  1.00  0.00     0.347 HD
ATOM     14  H   UNL     1      -0.944   0.759   4.490  1.00  0.00     0.347 HD
BRANCH  12  15
ATOM     15  C   UNL     1       0.183   2.414   4.229  1.00  0.00     0.363 C 
BRANCH  15  16
ATOM     16  C   UNL     1       0.291   3.332   2.959  1.00  0.00     0.279 C 
ATOM     17  O   UNL     1      -0.383   4.383   3.063  1.00  0.00    -0.268 OA
ATOM     18  N   UNL     1       1.051   3.369   1.814  1.00  0.00    -0.319 N 
ATOM     19  H   UNL     1       0.791   4.186   1.329  1.00  0.00     0.170 HD
BRANCH  18  20
ATOM     20  C   UNL     1       2.072   2.720   1.016  1.00  0.00     0.079 A 
ATOM     21  C   UNL     1       2.040   1.527   0.243  1.00  0.00     0.066 A 
ATOM     22  C   UNL     1       3.247   3.494   0.811  1.00  0.00     0.069 A 
ATOM     23  Cl  UNL     1       0.677   0.630  -0.334  1.00  0.00    -0.082 Cl
ATOM     24  C   UNL     1       3.205   0.985  -0.334  1.00  0.00     0.023 A 
ATOM     25  C   UNL     1       4.389   2.995   0.134  1.00  0.00    -0.030 A 
ATOM     26  Cl  UNL     1       3.305   5.129   1.423  1.00  0.00    -0.082 Cl
ATOM     27  C   UNL     1       4.382   1.696  -0.359  1.00  0.00     0.006 A 
ATOM     28  C   UNL     1       5.610   3.829  -0.126  1.00  0.00     0.046 C 
ENDBRANCH  18  20
ENDBRANCH  15  16
ENDBRANCH  12  15
ENDBRANCH   8  12
ENDBRANCH   5   8
ENDBRANCH   3   4
ENDBRANCH   2   3
ENDBRANCH   1   2
BRANCH   1  29
ATOM     29  C   UNL     1       5.305   4.302   5.125  1.00  0.00     0.002 C 
BRANCH  29  30
ATOM     30  C   UNL     1       4.409   5.346   5.794  1.00  0.00     0.021 C 
BRANCH  30  31
ATOM     31  C   UNL     1       4.462   5.376   7.320  1.00  0.00     0.116 C 
BRANCH  31  32
ATOM     32  N   UNL     1       5.822   5.503   7.827  1.00  0.00    -0.352 N 
ATOM     33  C   UNL     1       6.356   6.415   8.695  1.00  0.00     0.251 C 
ATOM     34  H   UNL     1       6.455   4.828   7.492  1.00  0.00     0.163 HD
ATOM     35  O   UNL     1       7.584   6.471   8.836  1.00  0.00    -0.269 OA
BRANCH  33  36
ATOM     36  C   UNL     1       5.487   7.334   9.454  1.00  0.00     0.039 A 
ATOM     37  C   UNL     1       5.880   8.666   9.606  1.00  0.00     0.014 A 
ATOM     38  C   UNL     1       4.301   6.882  10.043  1.00  0.00     0.014 A 
ATOM     39  C   UNL     1       5.060   9.553  10.304  1.00  0.00     0.010 A 
ATOM     40  C   UNL     1       3.448   7.785  10.671  1.00  0.00     0.010 A 
ATOM     41  C   UNL     1       3.822   9.128  10.815  1.00  0.00    -0.014 A 
BRANCH  41  42
ATOM     42  C   UNL     1       2.908  10.093  11.477  1.00  0.00     0.031 A 
ATOM     43  C   UNL     1       2.560   9.949  12.933  1.00  0.00     0.074 A 
ATOM     44  C   UNL     1       2.368  11.088  10.745  1.00  0.00     0.049 A 
ATOM     45  N   UNL     1       1.823  10.728  13.683  1.00  0.00    -0.248 NA
ATOM     46  C   UNL     1       3.088   8.768  13.633  1.00  0.00     0.031 C 
ATOM     47  C   UNL     1       2.590  11.299   9.312  1.00  0.00     0.029 A 
ATOM     48  N   UNL     1       1.534  12.115  11.105  1.00  0.00    -0.354 N 
ATOM     49  C   UNL     1       1.788  10.127  14.936  1.00  0.00     0.074 A 
ATOM     50  C   UNL     1       2.534   8.892  14.831  1.00  0.00     0.031 C 
ATOM     51  C   UNL     1       1.956  12.417   8.929  1.00  0.00     0.029 A 
ATOM     52  C   UNL     1       1.249  12.979  10.074  1.00  0.00     0.049 A 
ATOM     53  H   UNL     1       1.174  12.224  12.015  1.00  0.00     0.167 HD
ATOM     54  C   UNL     1       1.203  10.571  16.075  1.00  0.00     0.031 A 
ATOM     55  C   UNL     1       0.509  14.104  10.054  1.00  0.00     0.031 A 
ATOM     56  C   UNL     1       0.457  11.800  16.168  1.00  0.00     0.049 A 
ATOM     57  C   UNL     1      -0.136  14.573  11.328  1.00  0.00     0.074 A 
ATOM     58  C   UNL     1      -0.118  12.376  17.287  1.00  0.00     0.029 A 
ATOM     59  N   UNL     1       0.171  12.636  15.098  1.00  0.00    -0.354 N 
ATOM     60  N   UNL     1      -0.080  14.040  12.526  1.00  0.00    -0.248 NA
ATOM     61  C   UNL     1      -0.932  15.803  11.248  1.00  0.00     0.031 C 
ATOM     62  C   UNL     1      -0.811  13.522  16.881  1.00  0.00     0.029 A 
ATOM     63  C   UNL     1      -0.608  13.701  15.522  1.00  0.00     0.049 A 
ATOM     64  H   UNL     1       0.476  12.493  14.173  1.00  0.00     0.167 HD
ATOM     65  C   UNL     1      -0.819  14.882  13.349  1.00  0.00     0.074 A 
ATOM     66  C   UNL     1      -1.286  15.973  12.515  1.00  0.00     0.031 C 
ATOM     67  C   UNL     1      -1.087  14.765  14.674  1.00  0.00     0.031 A 
BRANCH  54  68
ATOM     68  C   UNL     1       1.325   9.706  17.305  1.00  0.00    -0.014 A 
ATOM     69  C   UNL     1       2.564   9.504  17.941  1.00  0.00     0.010 A 
ATOM     70  C   UNL     1       0.176   9.102  17.849  1.00  0.00     0.010 A 
ATOM     71  C   UNL     1       2.661   8.672  19.061  1.00  0.00     0.020 A 
ATOM     72  C   UNL     1       0.263   8.296  18.988  1.00  0.00     0.020 A 
ATOM     73  C   UNL     1       1.509   8.069  19.575  1.00  0.00     0.054 A 
BRANCH  73  74
ATOM     74  S   UNL     1       1.663   6.999  21.031  1.00  0.00     0.124 S 
ATOM     75  O   UNL     1       2.335   5.827  20.474  1.00  0.00    -0.237 OA
ATOM     76  O   UNL     1       2.469   7.810  21.941  1.00  0.00    -0.237 OA
ATOM     77  O   UNL     1       0.281   6.782  21.452  1.00  0.00    -0.744 OA
ENDBRANCH  73  74
ENDBRANCH  54  68
BRANCH  55  78
ATOM     78  C   UNL     1       0.374  14.880   8.791  1.00  0.00    -0.014 A 
ATOM     79  C   UNL     1       0.993  16.136   8.657  1.00  0.00     0.010 A 
ATOM     80  C   UNL     1      -0.347  14.355   7.703  1.00  0.00     0.010 A 
ATOM     81  C   UNL     1       0.883  16.857   7.465  1.00  0.00     0.020 A 
ATOM     82  C   UNL     1      -0.433  15.059   6.498  1.00  0.00     0.020 A 
ATOM     83  C   UNL     1       0.176  16.311   6.390  1.00  0.00     0.054 A 
BRANCH  83  84
ATOM     84  S   UNL     1       0.104  17.237   4.832  1.00  0.00     0.124 S 
ATOM     85  O   UNL     1      -0.785  18.342   5.175  1.00  0.00    -0.237 OA
ATOM     86  O   UNL     1       1.504  17.593   4.614  1.00  0.00    -0.237 OA
ATOM     87  O   UNL     1      -0.439  16.268   3.882  1.00  0.00    -0.744 OA
ENDBRANCH  83  84
ENDBRANCH  55  78
BRANCH  67  88
ATOM     88  C   UNL     1      -1.916  15.856  15.302  1.00  0.00    -0.014 A 
ATOM     89  C   UNL     1      -3.277  16.015  14.983  1.00  0.00     0.010 A 
ATOM     90  C   UNL     1      -1.326  16.729  16.234  1.00  0.00     0.010 A 
ATOM     91  C   UNL     1      -4.017  17.060  15.542  1.00  0.00     0.020 A 
ATOM     92  C   UNL     1      -2.072  17.753  16.823  1.00  0.00     0.020 A 
ATOM     93  C   UNL     1      -3.408  17.926  16.455  1.00  0.00     0.054 A 
BRANCH  93  94
ATOM     94  S   UNL     1      -4.391  19.271  17.171  1.00  0.00     0.124 S 
ATOM     95  O   UNL     1      -4.516  20.190  16.042  1.00  0.00    -0.237 OA
ATOM     96  O   UNL     1      -5.622  18.592  17.567  1.00  0.00    -0.237 OA
ATOM     97  O   UNL     1      -3.568  19.751  18.278  1.00  0.00    -0.744 OA
ENDBRANCH  93  94
ENDBRANCH  67  88
ENDBRANCH  41  42
ENDBRANCH  33  36
ENDBRANCH  31  32
ENDBRANCH  30  31
ENDBRANCH  29  30
ENDBRANCH   1  29
TORSDOF 21
