REMARK SMILES CC[NH2+][C@]1(C(=O)NCCCCCCNC(=O)c2ccc(-c3c4nc(c(-c5ccc(S(=O)(=O)[O-])cc5)c5ccc([nH]5)c(-c5ccc(S(=O)(=O)[O-])cc5)c5nc(c(-c6ccc(S(=O)(=O)[O-])cc6)c6ccc3[nH]6)C=C5)C=C4)cc2)CCC[C@H]1CCSc1n[nH]c(=O)n1C
REMARK SMILES IDX 10 1 9 2 8 3 7 4 5 5 6 6 4 8 77 9 80 10 78 11 79 12 3 13
REMARK SMILES IDX 2 16 1 17 81 18 82 19 83 20 84 21 85 22 89 23 86 24 87 25
REMARK SMILES IDX 90 26 88 28 11 29 12 30 13 31 14 32 15 33 16 35 17 36 18 37
REMARK SMILES IDX 76 38 19 39 75 40 20 41 21 42 22 43 69 44 23 45 74 46 68 47
REMARK SMILES IDX 70 48 24 49 73 50 67 51 66 52 25 54 55 55 36 56 54 57 37 58
REMARK SMILES IDX 40 59 53 60 71 61 38 62 39 63 52 65 72 66 41 67 26 68 27 69
REMARK SMILES IDX 35 70 28 71 34 72 29 73 30 74 31 75 32 76 33 77 56 78 57 79
REMARK SMILES IDX 65 80 58 81 64 82 59 83 60 84 61 85 62 86 63 87 42 88 43 89
REMARK SMILES IDX 51 90 44 91 50 92 45 93 46 94 47 95 48 96 49 97
REMARK H PARENT 7 7 3 14 3 15 86 27 14 34 70 53 40 64
REMARK Flexibility Score: inf
ROOT
ATOM      1  C   UNL     1       4.353   1.337   2.754  1.00  0.00     0.002 C 
ENDROOT
BRANCH   1   2
ATOM      2  C   UNL     1       2.839   1.516   2.774  1.00  0.00     0.021 C 
BRANCH   2   3
ATOM      3  C   UNL     1       2.273   2.519   1.785  1.00  0.00     0.116 C 
BRANCH   3   4
ATOM      4  N   UNL     1       2.333   2.129   0.406  1.00  0.00    -0.351 N 
ATOM      5  C   UNL     1       1.813   2.746  -0.695  1.00  0.00     0.281 C 
ATOM      6  O   UNL     1       2.126   2.212  -1.767  1.00  0.00    -0.268 OA
ATOM      7  H   UNL     1       2.822   1.293   0.227  1.00  0.00     0.163 HD
BRANCH   5   8
ATOM      8  C   UNL     1       1.014   4.107  -0.655  1.00  0.00     0.178 C 
ATOM      9  C   UNL     1       2.024   5.218  -1.010  1.00  0.00     0.079 C 
ATOM     10  C   UNL     1      -0.062   4.299  -1.789  1.00  0.00     0.061 C 
ATOM     11  C   UNL     1       1.197   6.407  -1.460  1.00  0.00     0.008 C 
ATOM     12  C   UNL     1      -0.022   5.808  -2.141  1.00  0.00     0.011 C 
BRANCH   8  13
ATOM     13  N   UNL     1       0.219   4.307   0.586  1.00  0.00    -0.334 N 
ATOM     14  H   UNL     1      -0.713   4.598   0.289  1.00  0.00     0.347 HD
ATOM     15  H   UNL     1       0.318   3.410   1.060  1.00  0.00     0.347 HD
BRANCH  13  16
ATOM     16  C   UNL     1       0.641   5.254   1.605  1.00  0.00     0.257 C 
ATOM     17  C   UNL     1       0.037   4.945   2.975  1.00  0.00     0.071 C 
ENDBRANCH  13  16
ENDBRANCH   8  13
BRANCH  10  18
ATOM     18  C   UNL     1      -0.040   3.446  -3.073  1.00  0.00     0.022 C 
BRANCH  18  19
ATOM     19  C   UNL     1      -0.593   2.013  -2.953  1.00  0.00     0.079 C 
BRANCH  19  20
ATOM     20  S   UNL     1      -2.396   1.935  -2.678  1.00  0.00    -0.086 SA
BRANCH  20  21
ATOM     21  C   UNL     1      -2.453   1.988  -0.953  1.00  0.00     0.191 A 
ATOM     22  N   UNL     1      -1.968   1.059  -0.180  1.00  0.00    -0.146 NA
ATOM     23  N   UNL     1      -3.036   3.025  -0.306  1.00  0.00    -0.273 N 
ATOM     24  N   UNL     1      -2.248   1.512   1.081  1.00  0.00    -0.226 N 
ATOM     25  C   UNL     1      -2.905   2.734   1.024  1.00  0.00     0.343 A 
ATOM     26  C   UNL     1      -3.587   4.269  -0.794  1.00  0.00     0.157 C 
ATOM     27  H   UNL     1      -2.017   1.038   1.912  1.00  0.00     0.195 HD
ATOM     28  O   UNL     1      -3.260   3.403   1.983  1.00  0.00    -0.246 OA
ENDBRANCH  20  21
ENDBRANCH  19  20
ENDBRANCH  18  19
ENDBRANCH  10  18
ENDBRANCH   5   8
ENDBRANCH   3   4
ENDBRANCH   2   3
ENDBRANCH   1   2
BRANCH   1  29
ATOM     29  C   UNL     1       5.196   2.615   2.781  1.00  0.00     0.002 C 
BRANCH  29  30
ATOM     30  C   UNL     1       4.861   3.645   3.864  1.00  0.00     0.021 C 
BRANCH  30  31
ATOM     31  C   UNL     1       4.736   3.102   5.281  1.00  0.00     0.116 C 
BRANCH  31  32
ATOM     32  N   UNL     1       5.904   2.344   5.688  1.00  0.00    -0.352 N 
ATOM     33  C   UNL     1       6.730   2.533   6.765  1.00  0.00     0.251 C 
ATOM     34  H   UNL     1       6.137   1.584   5.107  1.00  0.00     0.163 HD
ATOM     35  O   UNL     1       7.787   1.915   6.846  1.00  0.00    -0.269 OA
BRANCH  33  36
ATOM     36  C   UNL     1       6.347   3.498   7.815  1.00  0.00     0.039 A 
ATOM     37  C   UNL     1       7.304   4.402   8.279  1.00  0.00     0.014 A 
ATOM     38  C   UNL     1       5.050   3.509   8.336  1.00  0.00     0.014 A 
ATOM     39  C   UNL     1       6.944   5.353   9.233  1.00  0.00     0.010 A 
ATOM     40  C   UNL     1       4.673   4.506   9.230  1.00  0.00     0.010 A 
ATOM     41  C   UNL     1       5.619   5.431   9.694  1.00  0.00    -0.014 A 
BRANCH  41  42
ATOM     42  C   UNL     1       5.209   6.475  10.665  1.00  0.00     0.031 A 
ATOM     43  C   UNL     1       4.734   6.083  12.037  1.00  0.00     0.074 A 
ATOM     44  C   UNL     1       5.219   7.769  10.290  1.00  0.00     0.049 A 
ATOM     45  N   UNL     1       4.300   6.846  13.007  1.00  0.00    -0.248 NA
ATOM     46  C   UNL     1       4.722   4.645  12.354  1.00  0.00     0.031 C 
ATOM     47  C   UNL     1       5.625   8.267   8.973  1.00  0.00     0.029 A 
ATOM     48  N   UNL     1       4.875   8.904  10.981  1.00  0.00    -0.354 N 
ATOM     49  C   UNL     1       3.954   5.984  14.040  1.00  0.00     0.074 A 
ATOM     50  C   UNL     1       4.176   4.638  13.561  1.00  0.00     0.031 C 
ATOM     51  C   UNL     1       5.536   9.606   8.962  1.00  0.00     0.029 A 
ATOM     52  C   UNL     1       5.025  10.060  10.251  1.00  0.00     0.049 A 
ATOM     53  H   UNL     1       4.553   8.892  11.911  1.00  0.00     0.167 HD
ATOM     54  C   UNL     1       3.510   6.287  15.283  1.00  0.00     0.031 A 
ATOM     55  C   UNL     1       4.770  11.341  10.580  1.00  0.00     0.031 A 
ATOM     56  C   UNL     1       3.293   7.630  15.752  1.00  0.00     0.049 A 
ATOM     57  C   UNL     1       4.254  11.650  11.958  1.00  0.00     0.074 A 
ATOM     58  C   UNL     1       2.894   8.048  17.010  1.00  0.00     0.029 A 
ATOM     59  N   UNL     1       3.452   8.773  14.983  1.00  0.00    -0.354 N 
ATOM     60  N   UNL     1       3.998  10.825  12.946  1.00  0.00    -0.248 NA
ATOM     61  C   UNL     1       4.003  13.063  12.271  1.00  0.00     0.031 C 
ATOM     62  C   UNL     1       2.751   9.438  16.982  1.00  0.00     0.029 A 
ATOM     63  C   UNL     1       3.129   9.894  15.729  1.00  0.00     0.049 A 
ATOM     64  H   UNL     1       3.751   8.786  14.045  1.00  0.00     0.167 HD
ATOM     65  C   UNL     1       3.580  11.623  14.006  1.00  0.00     0.074 A 
ATOM     66  C   UNL     1       3.637  12.995  13.543  1.00  0.00     0.031 C 
ATOM     67  C   UNL     1       3.186  11.253  15.250  1.00  0.00     0.031 A 
BRANCH  54  68
ATOM     68  C   UNL     1       3.217   5.142  16.219  1.00  0.00    -0.014 A 
ATOM     69  C   UNL     1       4.251   4.337  16.733  1.00  0.00     0.010 A 
ATOM     70  C   UNL     1       1.893   4.892  16.624  1.00  0.00     0.010 A 
ATOM     71  C   UNL     1       3.962   3.280  17.599  1.00  0.00     0.020 A 
ATOM     72  C   UNL     1       1.603   3.854  17.515  1.00  0.00     0.020 A 
ATOM     73  C   UNL     1       2.639   3.044  17.984  1.00  0.00     0.054 A 
BRANCH  73  74
ATOM     74  S   UNL     1       2.299   1.679  19.129  1.00  0.00     0.124 S 
ATOM     75  O   UNL     1       2.533   0.511  18.283  1.00  0.00    -0.237 OA
ATOM     76  O   UNL     1       3.283   1.896  20.186  1.00  0.00    -0.237 OA
ATOM     77  O   UNL     1       0.908   1.894  19.522  1.00  0.00    -0.744 OA
ENDBRANCH  73  74
ENDBRANCH  54  68
BRANCH  55  78
ATOM     78  C   UNL     1       5.008  12.425   9.587  1.00  0.00    -0.014 A 
ATOM     79  C   UNL     1       6.046  13.354   9.775  1.00  0.00     0.010 A 
ATOM     80  C   UNL     1       4.203  12.525   8.437  1.00  0.00     0.010 A 
ATOM     81  C   UNL     1       6.263  14.374   8.843  1.00  0.00     0.020 A 
ATOM     82  C   UNL     1       4.435  13.524   7.488  1.00  0.00     0.020 A 
ATOM     83  C   UNL     1       5.457  14.450   7.704  1.00  0.00     0.054 A 
BRANCH  83  84
ATOM     84  S   UNL     1       5.788  15.752   6.484  1.00  0.00     0.124 S 
ATOM     85  O   UNL     1       5.322  16.947   7.181  1.00  0.00    -0.237 OA
ATOM     86  O   UNL     1       7.233  15.649   6.298  1.00  0.00    -0.237 OA
ATOM     87  O   UNL     1       4.988  15.349   5.329  1.00  0.00    -0.744 OA
ENDBRANCH  83  84
ENDBRANCH  55  78
BRANCH  67  88
ATOM     88  C   UNL     1       2.813  12.350  16.212  1.00  0.00    -0.014 A 
ATOM     89  C   UNL     1       1.632  13.095  16.050  1.00  0.00     0.010 A 
ATOM     90  C   UNL     1       3.634  12.601  17.328  1.00  0.00     0.010 A 
ATOM     91  C   UNL     1       1.296  14.094  16.967  1.00  0.00     0.020 A 
ATOM     92  C   UNL     1       3.285  13.576  18.264  1.00  0.00     0.020 A 
ATOM     93  C   UNL     1       2.124  14.327  18.069  1.00  0.00     0.054 A 
BRANCH  93  94
ATOM     94  S   UNL     1       1.641  15.600  19.268  1.00  0.00     0.124 S 
ATOM     95  O   UNL     1       1.892  16.830  18.522  1.00  0.00    -0.237 OA
ATOM     96  O   UNL     1       0.235  15.290  19.515  1.00  0.00    -0.237 OA
ATOM     97  O   UNL     1       2.534  15.366  20.401  1.00  0.00    -0.744 OA
ENDBRANCH  93  94
ENDBRANCH  67  88
ENDBRANCH  41  42
ENDBRANCH  33  36
ENDBRANCH  31  32
ENDBRANCH  30  31
ENDBRANCH  29  30
ENDBRANCH   1  29
TORSDOF 22
