REMARK SMILES C[C@H]1[C@H](C)CC[C@@]2(C(=O)NCCCCCCNC(=O)c3ccc(-c4c5nc(c(-c6ccc(S(=O)(=O)[O-])cc6)c6ccc([nH]6)c(-c6ccc(S(=O)(=O)[O-])cc6)c6nc(c(-c7ccc(S(=O)(=O)[O-])cc7)c7ccc4[nH]7)C=C6)C=C5)cc3)CC[C@@]3(C)C(=CC[C@@H]4[C@@]5(C)CC[C@H](O)C(C)(C)[C@@H]5CC[C@]43C)[C@H]12
REMARK SMILES IDX 14 1 13 2 12 3 11 4 10 5 8 6 9 7 7 9 1 10 2 11 3 12 102 13
REMARK SMILES IDX 4 14 5 15 84 16 6 17 80 18 82 19 85 20 81 21 83 22 100 23
REMARK SMILES IDX 86 24 87 25 99 26 101 27 88 28 98 29 89 30 90 31 97 32 91 33
REMARK SMILES IDX 94 34 92 35 95 36 96 37 93 38 15 40 16 41 17 42 18 43 19 45
REMARK SMILES IDX 20 46 21 47 79 48 22 49 78 50 23 51 24 52 25 53 72 54 26 55
REMARK SMILES IDX 77 56 71 57 73 58 27 59 76 60 70 61 69 62 28 64 58 65 39 66
REMARK SMILES IDX 57 67 40 68 43 69 56 70 74 71 41 72 42 73 55 75 75 76 44 77
REMARK SMILES IDX 29 78 30 79 38 80 31 81 37 82 32 83 33 84 34 85 35 86 36 87
REMARK SMILES IDX 59 88 60 89 68 90 61 91 67 92 62 93 63 94 64 95 65 96 66 97
REMARK SMILES IDX 45 98 46 99 54 100 47 101 53 102 48 103 49 104 50 105 51 106
REMARK SMILES IDX 52 107
REMARK H PARENT 10 8 93 39 17 44 73 63 43 74
REMARK Flexibility Score: inf
ROOT
ATOM      1  C   UNL     1      -1.061  -1.355  -1.688  1.00  0.00     0.002 C 
ENDROOT
BRANCH   1   2
ATOM      2  C   UNL     1      -2.367  -1.122  -0.920  1.00  0.00     0.002 C 
BRANCH   2   3
ATOM      3  C   UNL     1      -2.538  -1.722   0.483  1.00  0.00     0.021 C 
BRANCH   3   4
ATOM      4  C   UNL     1      -1.526  -1.349   1.572  1.00  0.00     0.116 C 
BRANCH   4   5
ATOM      5  N   UNL     1      -1.615   0.018   2.056  1.00  0.00    -0.356 N 
ATOM      6  C   UNL     1      -1.018   0.627   3.131  1.00  0.00     0.226 C 
ATOM      7  O   UNL     1      -1.782   1.362   3.773  1.00  0.00    -0.274 OA
ATOM      8  H   UNL     1      -2.201   0.604   1.525  1.00  0.00     0.163 HD
BRANCH   6   9
ATOM      9  C   UNL     1       0.506   0.504   3.543  1.00  0.00     0.056 C 
ATOM     10  C   UNL     1       2.681   0.241   0.245  1.00  0.00     0.008 C 
ATOM     11  C   UNL     1       1.678  -0.167   1.336  1.00  0.00    -0.003 C 
ATOM     12  C   UNL     1       2.102  -1.522   1.993  1.00  0.00    -0.011 C 
ATOM     13  C   UNL     1       1.498   0.939   2.418  1.00  0.00     0.034 C 
ATOM     14  C   UNL     1       2.115  -2.716   1.026  1.00  0.00     0.008 C 
ATOM     15  C   UNL     1       1.260  -1.965   3.198  1.00  0.00     0.005 C 
ATOM     16  C   UNL     1       1.026   2.357   2.021  1.00  0.00    -0.063 C 
ATOM     17  C   UNL     1       0.797  -0.881   4.140  1.00  0.00     0.018 C 
ATOM     18  C   UNL     1       0.794   1.489   4.744  1.00  0.00     0.018 C 
ATOM     19  C   UNL     1       1.267   3.490   3.074  1.00  0.00    -0.006 C 
ATOM     20  C   UNL     1       0.170   2.514   0.989  1.00  0.00    -0.027 C 
ATOM     21  C   UNL     1       0.749   2.996   4.467  1.00  0.00     0.013 C 
ATOM     22  C   UNL     1       2.788   3.755   3.200  1.00  0.00     0.017 C 
ATOM     23  C   UNL     1       0.491   4.867   2.652  1.00  0.00    -0.020 C 
ATOM     24  C   UNL     1      -0.852   3.617   0.922  1.00  0.00     0.032 C 
ATOM     25  C   UNL     1      -0.952   4.386   2.265  1.00  0.00     0.006 C 
ATOM     26  C   UNL     1       0.459   5.936   3.777  1.00  0.00     0.008 C 
ATOM     27  C   UNL     1       1.211   5.569   1.456  1.00  0.00     0.012 C 
ATOM     28  C   UNL     1      -2.203   5.334   2.451  1.00  0.00    -0.025 C 
ATOM     29  C   UNL     1      -0.600   7.026   3.538  1.00  0.00     0.005 C 
ATOM     30  C   UNL     1      -2.589   5.928   1.085  1.00  0.00     0.012 C 
ATOM     31  C   UNL     1      -3.393   4.455   2.969  1.00  0.00     0.010 C 
ATOM     32  C   UNL     1      -1.990   6.385   3.601  1.00  0.00     0.003 C 
ATOM     33  C   UNL     1      -4.666   5.242   3.276  1.00  0.00     0.033 C 
ATOM     34  C   UNL     1      -3.207   7.357   3.849  1.00  0.00    -0.006 C 
ATOM     35  C   UNL     1      -4.455   6.471   4.172  1.00  0.00     0.120 C 
ATOM     36  C   UNL     1      -3.475   8.366   2.710  1.00  0.00     0.014 C 
ATOM     37  C   UNL     1      -2.949   8.244   5.100  1.00  0.00     0.014 C 
BRANCH  35  38
ATOM     38  O   UNL     1      -5.654   7.249   4.176  1.00  0.00    -0.393 OA
ATOM     39  H   UNL     1      -5.826   7.582   3.281  1.00  0.00     0.210 HD
ENDBRANCH  35  38
ENDBRANCH   6   9
ENDBRANCH   4   5
ENDBRANCH   3   4
ENDBRANCH   2   3
ENDBRANCH   1   2
BRANCH   1  40
ATOM     40  C   UNL     1      -0.518  -2.779  -1.789  1.00  0.00     0.021 C 
BRANCH  40  41
ATOM     41  C   UNL     1      -1.480  -3.886  -2.192  1.00  0.00     0.116 C 
BRANCH  41  42
ATOM     42  N   UNL     1      -2.082  -3.701  -3.497  1.00  0.00    -0.352 N 
ATOM     43  C   UNL     1      -2.262  -4.618  -4.505  1.00  0.00     0.251 C 
ATOM     44  H   UNL     1      -2.408  -2.792  -3.688  1.00  0.00     0.163 HD
ATOM     45  O   UNL     1      -2.722  -4.248  -5.587  1.00  0.00    -0.269 OA
BRANCH  43  46
ATOM     46  C   UNL     1      -1.871  -6.036  -4.318  1.00  0.00     0.039 A 
ATOM     47  C   UNL     1      -1.190  -6.686  -5.352  1.00  0.00     0.014 A 
ATOM     48  C   UNL     1      -2.165  -6.729  -3.140  1.00  0.00     0.014 A 
ATOM     49  C   UNL     1      -0.756  -8.003  -5.181  1.00  0.00     0.010 A 
ATOM     50  C   UNL     1      -1.658  -8.012  -2.939  1.00  0.00     0.010 A 
ATOM     51  C   UNL     1      -0.955  -8.668  -3.960  1.00  0.00    -0.014 A 
BRANCH  51  52
ATOM     52  C   UNL     1      -0.438 -10.046  -3.744  1.00  0.00     0.031 A 
ATOM     53  C   UNL     1      -1.389 -11.184  -3.480  1.00  0.00     0.074 A 
ATOM     54  C   UNL     1       0.893 -10.268  -3.747  1.00  0.00     0.049 A 
ATOM     55  N   UNL     1      -1.123 -12.446  -3.256  1.00  0.00    -0.248 NA
ATOM     56  C   UNL     1      -2.825 -10.860  -3.439  1.00  0.00     0.031 C 
ATOM     57  C   UNL     1       1.921  -9.242  -3.947  1.00  0.00     0.029 A 
ATOM     58  N   UNL     1       1.612 -11.425  -3.577  1.00  0.00    -0.354 N 
ATOM     59  C   UNL     1      -2.352 -13.060  -3.036  1.00  0.00     0.074 A 
ATOM     60  C   UNL     1      -3.358 -12.023  -3.096  1.00  0.00     0.031 C 
ATOM     61  C   UNL     1       3.132  -9.822  -3.927  1.00  0.00     0.029 A 
ATOM     62  C   UNL     1       2.974 -11.250  -3.668  1.00  0.00     0.049 A 
ATOM     63  H   UNL     1       1.192 -12.299  -3.406  1.00  0.00     0.167 HD
ATOM     64  C   UNL     1      -2.622 -14.371  -2.826  1.00  0.00     0.031 A 
ATOM     65  C   UNL     1       3.983 -12.135  -3.554  1.00  0.00     0.031 A 
ATOM     66  C   UNL     1      -1.617 -15.400  -2.773  1.00  0.00     0.049 A 
ATOM     67  C   UNL     1       3.659 -13.584  -3.306  1.00  0.00     0.074 A 
ATOM     68  C   UNL     1      -1.791 -16.764  -2.620  1.00  0.00     0.029 A 
ATOM     69  N   UNL     1      -0.251 -15.180  -2.869  1.00  0.00    -0.354 N 
ATOM     70  N   UNL     1       2.485 -14.154  -3.173  1.00  0.00    -0.248 NA
ATOM     71  C   UNL     1       4.795 -14.510  -3.205  1.00  0.00     0.031 C 
ATOM     72  C   UNL     1      -0.528 -17.361  -2.559  1.00  0.00     0.029 A 
ATOM     73  C   UNL     1       0.431 -16.378  -2.748  1.00  0.00     0.049 A 
ATOM     74  H   UNL     1       0.171 -14.300  -3.003  1.00  0.00     0.167 HD
ATOM     75  C   UNL     1       2.741 -15.510  -3.002  1.00  0.00     0.074 A 
ATOM     76  C   UNL     1       4.179 -15.675  -3.066  1.00  0.00     0.031 C 
ATOM     77  C   UNL     1       1.864 -16.527  -2.810  1.00  0.00     0.031 A 
BRANCH  64  78
ATOM     78  C   UNL     1      -4.064 -14.765  -2.628  1.00  0.00    -0.014 A 
ATOM     79  C   UNL     1      -4.993 -14.688  -3.683  1.00  0.00     0.010 A 
ATOM     80  C   UNL     1      -4.489 -15.262  -1.382  1.00  0.00     0.010 A 
ATOM     81  C   UNL     1      -6.325 -15.058  -3.483  1.00  0.00     0.020 A 
ATOM     82  C   UNL     1      -5.814 -15.664  -1.187  1.00  0.00     0.020 A 
ATOM     83  C   UNL     1      -6.728 -15.542  -2.236  1.00  0.00     0.054 A 
BRANCH  83  84
ATOM     84  S   UNL     1      -8.459 -16.037  -2.014  1.00  0.00     0.124 S 
ATOM     85  O   UNL     1      -9.145 -14.747  -2.027  1.00  0.00    -0.237 OA
ATOM     86  O   UNL     1      -8.700 -16.887  -3.177  1.00  0.00    -0.237 OA
ATOM     87  O   UNL     1      -8.461 -16.729  -0.728  1.00  0.00    -0.744 OA
ENDBRANCH  83  84
ENDBRANCH  64  78
BRANCH  65  88
ATOM     88  C   UNL     1       5.395 -11.677  -3.688  1.00  0.00    -0.014 A 
ATOM     89  C   UNL     1       6.171 -12.056  -4.798  1.00  0.00     0.010 A 
ATOM     90  C   UNL     1       5.968 -10.846  -2.708  1.00  0.00     0.010 A 
ATOM     91  C   UNL     1       7.498 -11.628  -4.915  1.00  0.00     0.020 A 
ATOM     92  C   UNL     1       7.283 -10.390  -2.837  1.00  0.00     0.020 A 
ATOM     93  C   UNL     1       8.044 -10.794  -3.935  1.00  0.00     0.054 A 
BRANCH  93  94
ATOM     94  S   UNL     1       9.751 -10.211  -4.134  1.00  0.00     0.124 S 
ATOM     95  O   UNL     1      10.519 -11.424  -3.872  1.00  0.00    -0.237 OA
ATOM     96  O   UNL     1       9.762  -9.740  -5.517  1.00  0.00    -0.237 OA
ATOM     97  O   UNL     1       9.873  -9.161  -3.125  1.00  0.00    -0.744 OA
ENDBRANCH  93  94
ENDBRANCH  65  88
BRANCH  77  98
ATOM     98  C   UNL     1       2.429 -17.918  -2.690  1.00  0.00    -0.014 A 
ATOM     99  C   UNL     1       3.154 -18.318  -1.554  1.00  0.00     0.010 A 
ATOM    100  C   UNL     1       2.180 -18.856  -3.709  1.00  0.00     0.010 A 
ATOM    101  C   UNL     1       3.649 -19.622  -1.455  1.00  0.00     0.020 A 
ATOM    102  C   UNL     1       2.644 -20.169  -3.599  1.00  0.00     0.020 A 
ATOM    103  C   UNL     1       3.389 -20.539  -2.478  1.00  0.00     0.054 A 
BRANCH 103 104
ATOM    104  S   UNL     1       4.005 -22.236  -2.304  1.00  0.00     0.124 S 
ATOM    105  O   UNL     1       5.441 -22.060  -2.502  1.00  0.00    -0.237 OA
ATOM    106  O   UNL     1       3.595 -22.587  -0.947  1.00  0.00    -0.237 OA
ATOM    107  O   UNL     1       3.314 -22.966  -3.365  1.00  0.00    -0.744 OA
ENDBRANCH 103 104
ENDBRANCH  77  98
ENDBRANCH  51  52
ENDBRANCH  43  46
ENDBRANCH  41  42
ENDBRANCH  40  41
ENDBRANCH   1  40
TORSDOF 17
