REMARK SMILES Cc1ccc(C(=O)N2CCC3(CCC(=O)N(CC(=O)NCCCCCCNC(=O)c4ccc(-c5c6nc(c(-c7ccc(S(=O)(=O)[O-])cc7)c7ccc([nH]7)c(-c7ccc(S(=O)(=O)[O-])cc7)c7nc(c(-c8ccc(S(=O)(=O)[O-])cc8)c8ccc5[nH]8)C=C7)C=C6)cc4)C3)CC2)cc1O
REMARK SMILES IDX 23 1 22 2 21 3 20 4 18 5 19 6 17 8 16 9 6 10 7 11 8 12 9 13
REMARK SMILES IDX 92 14 10 15 91 16 11 17 12 18 90 19 13 20 14 21 15 22 5 23
REMARK SMILES IDX 1 24 2 25 3 26 94 27 4 28 93 29 95 30 24 32 25 33 26 34
REMARK SMILES IDX 27 35 28 36 29 38 30 39 31 40 89 41 32 42 88 43 33 44 34 45
REMARK SMILES IDX 35 46 82 47 36 48 87 49 81 50 83 51 37 52 86 53 80 54 79 55
REMARK SMILES IDX 38 57 68 58 49 59 67 60 50 61 53 62 66 63 84 64 51 65 52 66
REMARK SMILES IDX 65 68 85 69 54 70 39 71 40 72 48 73 41 74 47 75 42 76 43 77
REMARK SMILES IDX 44 78 45 79 46 80 69 81 70 82 78 83 71 84 77 85 72 86 73 87
REMARK SMILES IDX 74 88 75 89 76 90 55 91 56 92 64 93 57 94 63 95 58 96 59 97
REMARK SMILES IDX 60 98 61 99 62 100
REMARK H PARENT 20 7 95 31 27 37 83 56 53 67
REMARK Flexibility Score: inf
ROOT
ATOM      1  C   UNL     1       9.947  -6.409   1.747  1.00  0.00     0.002 C 
ENDROOT
BRANCH   1   2
ATOM      2  C   UNL     1       8.906  -5.294   1.582  1.00  0.00     0.021 C 
BRANCH   2   3
ATOM      3  C   UNL     1       8.052  -5.073   2.827  1.00  0.00     0.116 C 
BRANCH   3   4
ATOM      4  N   UNL     1       8.836  -4.533   3.910  1.00  0.00    -0.355 N 
ATOM      5  C   UNL     1       8.835  -3.272   4.426  1.00  0.00     0.239 C 
ATOM      6  O   UNL     1       9.473  -3.083   5.466  1.00  0.00    -0.273 OA
ATOM      7  H   UNL     1       9.460  -5.164   4.336  1.00  0.00     0.163 HD
BRANCH   5   8
ATOM      8  C   UNL     1       7.903  -2.196   3.855  1.00  0.00     0.219 C 
BRANCH   8   9
ATOM      9  N   UNL     1       8.036  -1.819   2.443  1.00  0.00    -0.333 N 
ATOM     10  C   UNL     1       3.028   1.506   0.172  1.00  0.00     0.253 C 
ATOM     11  O   UNL     1       2.894   2.672   0.547  1.00  0.00    -0.269 OA
ATOM     12  N   UNL     1       4.284   0.911   0.099  1.00  0.00    -0.339 N 
ATOM     13  C   UNL     1       5.318   1.401   0.994  1.00  0.00     0.120 C 
ATOM     14  C   UNL     1       4.740  -0.005  -0.943  1.00  0.00     0.120 C 
ATOM     15  C   UNL     1       5.949   0.211   1.703  1.00  0.00     0.030 C 
ATOM     16  C   UNL     1       5.466  -1.214  -0.340  1.00  0.00     0.030 C 
ATOM     17  C   UNL     1       6.541  -0.828   0.715  1.00  0.00    -0.008 C 
ATOM     18  C   UNL     1       7.816  -0.336   0.002  1.00  0.00     0.019 C 
ATOM     19  C   UNL     1       6.950  -2.081   1.506  1.00  0.00     0.127 C 
ATOM     20  C   UNL     1       8.966  -0.072   0.962  1.00  0.00     0.101 C 
ATOM     21  C   UNL     1       9.147  -1.074   2.087  1.00  0.00     0.223 C 
ATOM     22  O   UNL     1      10.186  -1.082   2.745  1.00  0.00    -0.275 OA
BRANCH  10  23
ATOM     23  C   UNL     1       1.796   0.688  -0.041  1.00  0.00     0.043 A 
ATOM     24  C   UNL     1      -1.898  -1.572  -0.058  1.00  0.00     0.048 C 
ATOM     25  C   UNL     1      -0.633  -0.765  -0.083  1.00  0.00    -0.009 A 
ATOM     26  C   UNL     1       0.596  -1.427   0.017  1.00  0.00     0.008 A 
ATOM     27  C   UNL     1      -0.627   0.632  -0.159  1.00  0.00     0.119 A 
ATOM     28  C   UNL     1       1.792  -0.706   0.063  1.00  0.00     0.014 A 
ATOM     29  C   UNL     1       0.569   1.352  -0.152  1.00  0.00     0.060 A 
BRANCH  27  30
ATOM     30  O   UNL     1      -1.774   1.372  -0.208  1.00  0.00    -0.508 OA
ATOM     31  H   UNL     1      -2.608   0.944  -0.216  1.00  0.00     0.293 HD
ENDBRANCH  27  30
ENDBRANCH  10  23
ENDBRANCH   8   9
ENDBRANCH   5   8
ENDBRANCH   3   4
ENDBRANCH   2   3
ENDBRANCH   1   2
BRANCH   1  32
ATOM     32  C   UNL     1       9.375  -7.770   2.161  1.00  0.00     0.002 C 
BRANCH  32  33
ATOM     33  C   UNL     1       8.274  -8.309   1.246  1.00  0.00     0.021 C 
BRANCH  33  34
ATOM     34  C   UNL     1       8.709  -8.520  -0.200  1.00  0.00     0.116 C 
BRANCH  34  35
ATOM     35  N   UNL     1       9.756  -9.523  -0.308  1.00  0.00    -0.352 N 
ATOM     36  C   UNL     1       9.783 -10.669  -1.061  1.00  0.00     0.251 C 
ATOM     37  H   UNL     1      10.560  -9.356   0.235  1.00  0.00     0.163 HD
ATOM     38  O   UNL     1      10.651 -11.516  -0.861  1.00  0.00    -0.269 OA
BRANCH  36  39
ATOM     39  C   UNL     1       8.755 -10.889  -2.099  1.00  0.00     0.039 A 
ATOM     40  C   UNL     1       8.151 -12.143  -2.202  1.00  0.00     0.014 A 
ATOM     41  C   UNL     1       8.389  -9.857  -2.968  1.00  0.00     0.014 A 
ATOM     42  C   UNL     1       7.137 -12.346  -3.141  1.00  0.00     0.010 A 
ATOM     43  C   UNL     1       7.327 -10.038  -3.849  1.00  0.00     0.010 A 
ATOM     44  C   UNL     1       6.693 -11.286  -3.949  1.00  0.00    -0.014 A 
BRANCH  44  45
ATOM     45  C   UNL     1       5.566 -11.462  -4.900  1.00  0.00     0.031 A 
ATOM     46  C   UNL     1       5.791 -11.298  -6.380  1.00  0.00     0.074 A 
ATOM     47  C   UNL     1       4.328 -11.711  -4.428  1.00  0.00     0.049 A 
ATOM     48  N   UNL     1       4.922 -11.357  -7.356  1.00  0.00    -0.248 NA
ATOM     49  C   UNL     1       7.166 -11.005  -6.818  1.00  0.00     0.031 C 
ATOM     50  C   UNL     1       3.974 -11.855  -3.013  1.00  0.00     0.029 A 
ATOM     51  N   UNL     1       3.136 -11.882  -5.086  1.00  0.00    -0.354 N 
ATOM     52  C   UNL     1       5.640 -11.096  -8.518  1.00  0.00     0.074 A 
ATOM     53  C   UNL     1       7.003 -10.826  -8.121  1.00  0.00     0.031 C 
ATOM     54  C   UNL     1       2.662 -12.121  -2.913  1.00  0.00     0.029 A 
ATOM     55  C   UNL     1       2.071 -12.119  -4.247  1.00  0.00     0.049 A 
ATOM     56  H   UNL     1       3.050 -11.839  -6.065  1.00  0.00     0.167 HD
ATOM     57  C   UNL     1       5.207 -11.101  -9.801  1.00  0.00     0.031 A 
ATOM     58  C   UNL     1       0.764 -12.305  -4.519  1.00  0.00     0.031 A 
ATOM     59  C   UNL     1       3.850 -11.380 -10.193  1.00  0.00     0.049 A 
ATOM     60  C   UNL     1       0.304 -12.284  -5.952  1.00  0.00     0.074 A 
ATOM     61  C   UNL     1       3.324 -11.461 -11.470  1.00  0.00     0.029 A 
ATOM     62  N   UNL     1       2.804 -11.618  -9.314  1.00  0.00    -0.354 N 
ATOM     63  N   UNL     1       1.012 -12.100  -7.041  1.00  0.00    -0.248 NA
ATOM     64  C   UNL     1      -1.128 -12.506  -6.193  1.00  0.00     0.031 C 
ATOM     65  C   UNL     1       1.949 -11.686 -11.362  1.00  0.00     0.029 A 
ATOM     66  C   UNL     1       1.630 -11.817 -10.020  1.00  0.00     0.049 A 
ATOM     67  H   UNL     1       2.884 -11.643  -8.333  1.00  0.00     0.167 HD
ATOM     68  C   UNL     1       0.115 -12.216  -8.098  1.00  0.00     0.074 A 
ATOM     69  C   UNL     1      -1.181 -12.501  -7.518  1.00  0.00     0.031 C 
ATOM     70  C   UNL     1       0.346 -12.100  -9.429  1.00  0.00     0.031 A 
BRANCH  57  71
ATOM     71  C   UNL     1       6.211 -10.788 -10.881  1.00  0.00    -0.014 A 
ATOM     72  C   UNL     1       7.256 -11.679 -11.186  1.00  0.00     0.010 A 
ATOM     73  C   UNL     1       6.077  -9.608 -11.637  1.00  0.00     0.010 A 
ATOM     74  C   UNL     1       8.170 -11.379 -12.199  1.00  0.00     0.020 A 
ATOM     75  C   UNL     1       6.971  -9.320 -12.673  1.00  0.00     0.020 A 
ATOM     76  C   UNL     1       8.021 -10.200 -12.937  1.00  0.00     0.054 A 
BRANCH  76  77
ATOM     77  S   UNL     1       9.205  -9.853 -14.266  1.00  0.00     0.124 S 
ATOM     78  O   UNL     1      10.418  -9.540 -13.514  1.00  0.00    -0.237 OA
ATOM     79  O   UNL     1       9.232 -11.112 -15.006  1.00  0.00    -0.237 OA
ATOM     80  O   UNL     1       8.607  -8.727 -14.978  1.00  0.00    -0.744 OA
ENDBRANCH  76  77
ENDBRANCH  57  71
BRANCH  58  81
ATOM     81  C   UNL     1      -0.203 -12.528  -3.409  1.00  0.00    -0.014 A 
ATOM     82  C   UNL     1      -0.830 -13.776  -3.243  1.00  0.00     0.010 A 
ATOM     83  C   UNL     1      -0.502 -11.490  -2.508  1.00  0.00     0.010 A 
ATOM     84  C   UNL     1      -1.754 -13.974  -2.212  1.00  0.00     0.020 A 
ATOM     85  C   UNL     1      -1.401 -11.693  -1.458  1.00  0.00     0.020 A 
ATOM     86  C   UNL     1      -2.032 -12.931  -1.325  1.00  0.00     0.054 A 
BRANCH  86  87
ATOM     87  S   UNL     1      -3.204 -13.221   0.029  1.00  0.00     0.124 S 
ATOM     88  O   UNL     1      -4.479 -13.274  -0.679  1.00  0.00    -0.237 OA
ATOM     89  O   UNL     1      -2.733 -14.487   0.586  1.00  0.00    -0.237 OA
ATOM     90  O   UNL     1      -3.017 -12.059   0.896  1.00  0.00    -0.744 OA
ENDBRANCH  86  87
ENDBRANCH  58  81
BRANCH  70  91
ATOM     91  C   UNL     1      -0.820 -12.318 -10.359  1.00  0.00    -0.014 A 
ATOM     92  C   UNL     1      -1.866 -11.384 -10.454  1.00  0.00     0.010 A 
ATOM     93  C   UNL     1      -0.835 -13.451 -11.194  1.00  0.00     0.010 A 
ATOM     94  C   UNL     1      -2.923 -11.596 -11.344  1.00  0.00     0.020 A 
ATOM     95  C   UNL     1      -1.872 -13.650 -12.107  1.00  0.00     0.020 A 
ATOM     96  C   UNL     1      -2.917 -12.727 -12.167  1.00  0.00     0.054 A 
BRANCH  96  97
ATOM     97  S   UNL     1      -4.277 -12.953 -13.346  1.00  0.00     0.124 S 
ATOM     98  O   UNL     1      -5.388 -13.304 -12.465  1.00  0.00    -0.237 OA
ATOM     99  O   UNL     1      -4.369 -11.641 -13.982  1.00  0.00    -0.237 OA
ATOM    100  O   UNL     1      -3.807 -14.029 -14.215  1.00  0.00    -0.744 OA
ENDBRANCH  96  97
ENDBRANCH  70  91
ENDBRANCH  44  45
ENDBRANCH  36  39
ENDBRANCH  34  35
ENDBRANCH  33  34
ENDBRANCH  32  33
ENDBRANCH   1  32
TORSDOF 19
