REMARK SMILES O=C(NCCCCCCNC(=O)c1cc(Cl)cc(S(=O)(=O)N[C@@H]2CONC2=O)c1F)c1ccc(-c2c3nc(c(-c4ccc(S(=O)(=O)[O-])cc4)c4ccc([nH]4)c(-c4ccc(S(=O)(=O)[O-])cc4)c4nc(c(-c5ccc(S(=O)(=O)[O-])cc5)c5ccc2[nH]5)C=C4)C=C3)cc1
REMARK SMILES IDX 6 1 5 2 4 3 3 4 1 5 2 6 31 8 32 9 90 10 33 11 89 12 34 13
REMARK SMILES IDX 35 14 36 15 83 16 37 17 88 18 82 19 84 20 38 21 87 22 81 23
REMARK SMILES IDX 80 24 39 26 69 27 50 28 68 29 51 30 54 31 67 32 85 33 52 34
REMARK SMILES IDX 53 35 66 37 86 38 55 39 40 40 41 41 49 42 42 43 48 44 43 45
REMARK SMILES IDX 44 46 45 47 46 48 47 49 70 50 71 51 79 52 72 53 78 54 73 55
REMARK SMILES IDX 74 56 75 57 76 58 77 59 56 60 57 61 65 62 58 63 64 64 59 65
REMARK SMILES IDX 60 66 61 67 62 68 63 69 7 70 8 71 9 72 10 73 11 74 12 76
REMARK SMILES IDX 13 77 14 78 29 79 15 80 18 81 30 82 16 83 17 84 19 85 20 86
REMARK SMILES IDX 21 87 22 88 23 90 24 91 27 92 25 93 26 94 28 95
REMARK H PARENT 3 7 84 25 54 36 10 75 22 89 26 96
REMARK Flexibility Score: inf
ROOT
ATOM      1  C   UNL     1       4.235  -2.082  -3.411  1.00  0.00     0.002 C 
ENDROOT
BRANCH   1   2
ATOM      2  C   UNL     1       4.733  -1.993  -1.968  1.00  0.00     0.021 C 
BRANCH   2   3
ATOM      3  C   UNL     1       4.478  -0.664  -1.267  1.00  0.00     0.116 C 
BRANCH   3   4
ATOM      4  N   UNL     1       3.066  -0.354  -1.132  1.00  0.00    -0.352 N 
ATOM      5  O   UNL     1       1.149   0.147  -0.058  1.00  0.00    -0.269 OA
ATOM      6  C   UNL     1       2.371   0.050  -0.017  1.00  0.00     0.251 C 
ATOM      7  H   UNL     1       2.532  -0.445  -1.954  1.00  0.00     0.163 HD
BRANCH   6   8
ATOM      8  C   UNL     1       3.099   0.335   1.241  1.00  0.00     0.039 A 
ATOM      9  C   UNL     1       4.268   1.100   1.234  1.00  0.00     0.014 A 
ATOM     10  C   UNL     1       2.602  -0.173   2.444  1.00  0.00     0.014 A 
ATOM     11  C   UNL     1       5.010   1.239   2.403  1.00  0.00     0.010 A 
ATOM     12  C   UNL     1       3.307   0.038   3.633  1.00  0.00     0.010 A 
ATOM     13  C   UNL     1       4.533   0.721   3.618  1.00  0.00    -0.014 A 
BRANCH  13  14
ATOM     14  C   UNL     1       5.303   0.963   4.865  1.00  0.00     0.031 A 
ATOM     15  C   UNL     1       5.932  -0.170   5.630  1.00  0.00     0.074 A 
ATOM     16  C   UNL     1       5.457   2.232   5.291  1.00  0.00     0.049 A 
ATOM     17  N   UNL     1       6.666  -0.121   6.713  1.00  0.00    -0.248 NA
ATOM     18  C   UNL     1       5.706  -1.532   5.120  1.00  0.00     0.031 C 
ATOM     19  C   UNL     1       4.886   3.414   4.638  1.00  0.00     0.029 A 
ATOM     20  N   UNL     1       6.153   2.745   6.355  1.00  0.00    -0.354 N 
ATOM     21  C   UNL     1       6.975  -1.440   7.027  1.00  0.00     0.074 A 
ATOM     22  C   UNL     1       6.329  -2.269   6.031  1.00  0.00     0.031 C 
ATOM     23  C   UNL     1       5.298   4.515   5.284  1.00  0.00     0.029 A 
ATOM     24  C   UNL     1       6.109   4.117   6.428  1.00  0.00     0.049 A 
ATOM     25  H   UNL     1       6.638   2.186   7.003  1.00  0.00     0.167 HD
ATOM     26  C   UNL     1       7.729  -1.915   8.048  1.00  0.00     0.031 A 
ATOM     27  C   UNL     1       6.648   4.966   7.323  1.00  0.00     0.031 A 
ATOM     28  C   UNL     1       8.367  -1.085   9.038  1.00  0.00     0.049 A 
ATOM     29  C   UNL     1       7.460   4.413   8.456  1.00  0.00     0.074 A 
ATOM     30  C   UNL     1       9.173  -1.472  10.096  1.00  0.00     0.029 A 
ATOM     31  N   UNL     1       8.268   0.297   9.098  1.00  0.00    -0.354 N 
ATOM     32  N   UNL     1       7.764   3.163   8.715  1.00  0.00    -0.248 NA
ATOM     33  C   UNL     1       8.003   5.382   9.416  1.00  0.00     0.031 C 
ATOM     34  C   UNL     1       9.523  -0.328  10.822  1.00  0.00     0.029 A 
ATOM     35  C   UNL     1       8.979   0.777  10.186  1.00  0.00     0.049 A 
ATOM     36  H   UNL     1       7.766   0.855   8.461  1.00  0.00     0.167 HD
ATOM     37  C   UNL     1       8.547   3.198   9.863  1.00  0.00     0.074 A 
ATOM     38  C   UNL     1       8.687   4.592  10.233  1.00  0.00     0.031 C 
ATOM     39  C   UNL     1       9.099   2.167  10.548  1.00  0.00     0.031 A 
BRANCH  26  40
ATOM     40  C   UNL     1       7.886  -3.409   8.164  1.00  0.00    -0.014 A 
ATOM     41  C   UNL     1       8.691  -4.130   7.263  1.00  0.00     0.010 A 
ATOM     42  C   UNL     1       7.256  -4.097   9.218  1.00  0.00     0.010 A 
ATOM     43  C   UNL     1       8.829  -5.516   7.390  1.00  0.00     0.020 A 
ATOM     44  C   UNL     1       7.410  -5.479   9.362  1.00  0.00     0.020 A 
ATOM     45  C   UNL     1       8.182  -6.183   8.435  1.00  0.00     0.054 A 
BRANCH  45  46
ATOM     46  S   UNL     1       8.384  -7.980   8.580  1.00  0.00     0.124 S 
ATOM     47  O   UNL     1       7.546  -8.464   7.487  1.00  0.00    -0.237 OA
ATOM     48  O   UNL     1       9.822  -8.158   8.394  1.00  0.00    -0.237 OA
ATOM     49  O   UNL     1       7.891  -8.277   9.923  1.00  0.00    -0.744 OA
ENDBRANCH  45  46
ENDBRANCH  26  40
BRANCH  27  50
ATOM     50  C   UNL     1       6.425   6.429   7.175  1.00  0.00    -0.014 A 
ATOM     51  C   UNL     1       7.476   7.278   6.790  1.00  0.00     0.010 A 
ATOM     52  C   UNL     1       5.144   6.974   7.385  1.00  0.00     0.010 A 
ATOM     53  C   UNL     1       7.253   8.648   6.626  1.00  0.00     0.020 A 
ATOM     54  C   UNL     1       4.911   8.337   7.194  1.00  0.00     0.020 A 
ATOM     55  C   UNL     1       5.970   9.168   6.826  1.00  0.00     0.054 A 
BRANCH  55  56
ATOM     56  S   UNL     1       5.687  10.938   6.546  1.00  0.00     0.124 S 
ATOM     57  O   UNL     1       6.269  11.531   7.745  1.00  0.00    -0.237 OA
ATOM     58  O   UNL     1       6.412  11.182   5.301  1.00  0.00    -0.237 OA
ATOM     59  O   UNL     1       4.233  11.037   6.438  1.00  0.00    -0.744 OA
ENDBRANCH  55  56
ENDBRANCH  27  50
BRANCH  39  60
ATOM     60  C   UNL     1       9.925   2.514  11.757  1.00  0.00    -0.014 A 
ATOM     61  C   UNL     1       9.320   2.954  12.948  1.00  0.00     0.010 A 
ATOM     62  C   UNL     1      11.323   2.370  11.708  1.00  0.00     0.010 A 
ATOM     63  C   UNL     1      10.104   3.279  14.058  1.00  0.00     0.020 A 
ATOM     64  C   UNL     1      12.107   2.669  12.824  1.00  0.00     0.020 A 
ATOM     65  C   UNL     1      11.493   3.138  13.987  1.00  0.00     0.054 A 
BRANCH  65  66
ATOM     66  S   UNL     1      12.489   3.537  15.450  1.00  0.00     0.124 S 
ATOM     67  O   UNL     1      12.482   4.997  15.432  1.00  0.00    -0.237 OA
ATOM     68  O   UNL     1      11.730   2.919  16.535  1.00  0.00    -0.237 OA
ATOM     69  O   UNL     1      13.780   2.915  15.169  1.00  0.00    -0.744 OA
ENDBRANCH  65  66
ENDBRANCH  39  60
ENDBRANCH  13  14
ENDBRANCH   6   8
ENDBRANCH   3   4
ENDBRANCH   2   3
ENDBRANCH   1   2
BRANCH   1  70
ATOM     70  C   UNL     1       4.695  -0.962  -4.349  1.00  0.00     0.002 C 
BRANCH  70  71
ATOM     71  C   UNL     1       6.204  -0.698  -4.390  1.00  0.00     0.021 C 
BRANCH  71  72
ATOM     72  C   UNL     1       7.062  -1.901  -4.760  1.00  0.00     0.116 C 
BRANCH  72  73
ATOM     73  N   UNL     1       6.842  -2.335  -6.130  1.00  0.00    -0.352 N 
ATOM     74  C   UNL     1       7.762  -2.679  -7.086  1.00  0.00     0.254 C 
ATOM     75  H   UNL     1       5.899  -2.389  -6.410  1.00  0.00     0.163 HD
ATOM     76  O   UNL     1       7.408  -2.921  -8.236  1.00  0.00    -0.269 OA
BRANCH  74  77
ATOM     77  C   UNL     1       9.196  -2.749  -6.754  1.00  0.00     0.078 A 
ATOM     78  C   UNL     1      10.117  -2.110  -7.587  1.00  0.00     0.037 A 
ATOM     79  C   UNL     1       9.632  -3.513  -5.672  1.00  0.00     0.156 A 
ATOM     80  C   UNL     1      11.475  -2.196  -7.291  1.00  0.00     0.043 A 
ATOM     81  C   UNL     1      10.984  -3.599  -5.382  1.00  0.00     0.120 A 
ATOM     82  F   UNL     1       8.720  -4.162  -4.944  1.00  0.00    -0.205 F 
ATOM     83  Cl  UNL     1      12.618  -1.407  -8.304  1.00  0.00    -0.084 Cl
ATOM     84  C   UNL     1      11.916  -2.928  -6.188  1.00  0.00     0.045 A 
BRANCH  81  85
ATOM     85  S   UNL     1      11.613  -4.578  -4.057  1.00  0.00     0.244 S 
ATOM     86  O   UNL     1      12.311  -5.681  -4.671  1.00  0.00    -0.207 OA
ATOM     87  O   UNL     1      12.266  -3.647  -3.165  1.00  0.00    -0.207 OA
BRANCH  85  88
ATOM     88  N   UNL     1      10.301  -5.175  -3.200  1.00  0.00    -0.196 NA
ATOM     89  H   UNL     1       9.595  -4.440  -3.171  1.00  0.00     0.142 HD
BRANCH  88  90
ATOM     90  C   UNL     1       9.648  -6.392  -3.712  1.00  0.00     0.189 C 
ATOM     91  C   UNL     1       8.184  -6.468  -3.291  1.00  0.00     0.224 C 
ATOM     92  C   UNL     1      10.121  -7.694  -3.140  1.00  0.00     0.264 C 
ATOM     93  O   UNL     1       7.831  -7.855  -3.383  1.00  0.00    -0.271 OA
ATOM     94  N   UNL     1       9.036  -8.538  -3.101  1.00  0.00    -0.233 N 
ATOM     95  O   UNL     1      11.252  -7.977  -2.783  1.00  0.00    -0.271 OA
ATOM     96  H   UNL     1       9.092  -9.501  -2.901  1.00  0.00     0.199 HD
ENDBRANCH  88  90
ENDBRANCH  85  88
ENDBRANCH  81  85
ENDBRANCH  74  77
ENDBRANCH  72  73
ENDBRANCH  71  72
ENDBRANCH  70  71
ENDBRANCH   1  70
TORSDOF 19
