REMARK SMILES C[C@@H]1[C@H](C(=O)NCCCCCCNC(=O)c2ccc(-c3c4nc(c(-c5ccc(S(=O)(=O)[O-])cc5)c5ccc([nH]5)c(-c5ccc(S(=O)(=O)[O-])cc5)c5nc(c(-c6ccc(S(=O)(=O)[O-])cc6)c6ccc3[nH]6)C=C5)C=C4)cc2)CCN1C(=O)c1ccc([N+](=O)[O-])c(F)c1
REMARK SMILES IDX 9 1 8 2 7 3 6 4 4 5 5 6 3 8 1 9 2 10 78 11 76 12 77 13 79 14
REMARK SMILES IDX 80 15 81 16 82 17 90 18 83 19 88 20 84 21 89 22 85 23 86 24
REMARK SMILES IDX 87 25 10 26 11 27 12 28 13 29 14 30 15 32 16 33 17 34 75 35
REMARK SMILES IDX 18 36 74 37 19 38 20 39 21 40 68 41 22 42 73 43 67 44 69 45
REMARK SMILES IDX 23 46 72 47 66 48 65 49 24 51 54 52 35 53 53 54 36 55 39 56
REMARK SMILES IDX 52 57 70 58 37 59 38 60 51 62 71 63 40 64 25 65 26 66 34 67
REMARK SMILES IDX 27 68 33 69 28 70 29 71 30 72 31 73 32 74 55 75 56 76 64 77
REMARK SMILES IDX 57 78 63 79 58 80 59 81 60 82 61 83 62 84 41 85 42 86 50 87
REMARK SMILES IDX 43 88 49 89 44 90 45 91 46 92 47 93 48 94
REMARK H PARENT 6 7 13 31 69 50 39 61
REMARK Flexibility Score: inf
ROOT
ATOM      1  C   UNL     1       3.474   2.776   3.121  1.00  0.00     0.002 C 
ENDROOT
BRANCH   1   2
ATOM      2  C   UNL     1       2.816   1.555   2.475  1.00  0.00     0.021 C 
BRANCH   2   3
ATOM      3  C   UNL     1       1.339   1.718   2.111  1.00  0.00     0.116 C 
BRANCH   3   4
ATOM      4  N   UNL     1       1.163   2.572   0.949  1.00  0.00    -0.356 N 
ATOM      5  C   UNL     1       0.589   2.355  -0.262  1.00  0.00     0.225 C 
ATOM      6  O   UNL     1       0.676   3.267  -1.092  1.00  0.00    -0.275 OA
ATOM      7  H   UNL     1       1.529   3.479   1.061  1.00  0.00     0.163 HD
BRANCH   5   8
ATOM      8  C   UNL     1      -0.128   1.067  -0.645  1.00  0.00     0.102 C 
ATOM      9  C   UNL     1       2.169  -0.161  -0.485  1.00  0.00     0.032 C 
ATOM     10  C   UNL     1       0.714  -0.199  -0.929  1.00  0.00     0.094 C 
ATOM     11  N   UNL     1      -0.088  -1.307  -0.371  1.00  0.00    -0.335 N 
ATOM     12  C   UNL     1      -1.251   0.646   0.301  1.00  0.00     0.037 C 
ATOM     13  C   UNL     1      -1.391  -0.843   0.070  1.00  0.00     0.121 C 
BRANCH  11  14
ATOM     14  C   UNL     1       0.088  -2.678  -0.498  1.00  0.00     0.254 C 
ATOM     15  O   UNL     1      -0.778  -3.505  -0.228  1.00  0.00    -0.269 OA
BRANCH  14  16
ATOM     16  C   UNL     1       1.373  -3.200  -0.982  1.00  0.00     0.043 A 
ATOM     17  C   UNL     1       1.486  -3.630  -2.308  1.00  0.00     0.021 A 
ATOM     18  C   UNL     1       2.442  -3.328  -0.089  1.00  0.00     0.060 A 
ATOM     19  C   UNL     1       2.709  -4.122  -2.769  1.00  0.00     0.090 A 
ATOM     20  C   UNL     1       3.665  -3.800  -0.555  1.00  0.00     0.201 A 
ATOM     21  C   UNL     1       3.802  -4.180  -1.889  1.00  0.00     0.304 A 
ATOM     22  F   UNL     1       4.684  -3.876   0.310  1.00  0.00    -0.199 F 
BRANCH  21  23
ATOM     23  N   UNL     1       5.095  -4.617  -2.389  1.00  0.00     0.065 N 
ATOM     24  O   UNL     1       5.091  -5.454  -3.303  1.00  0.00    -0.258 OA
ATOM     25  O   UNL     1       6.109  -4.084  -1.922  1.00  0.00    -0.258 OA
ENDBRANCH  21  23
ENDBRANCH  14  16
ENDBRANCH  11  14
ENDBRANCH   5   8
ENDBRANCH   3   4
ENDBRANCH   2   3
ENDBRANCH   1   2
BRANCH   1  26
ATOM     26  C   UNL     1       2.912   3.190   4.483  1.00  0.00     0.002 C 
BRANCH  26  27
ATOM     27  C   UNL     1       2.815   2.078   5.532  1.00  0.00     0.021 C 
BRANCH  27  28
ATOM     28  C   UNL     1       4.098   1.287   5.782  1.00  0.00     0.116 C 
BRANCH  28  29
ATOM     29  N   UNL     1       5.185   2.125   6.253  1.00  0.00    -0.352 N 
ATOM     30  C   UNL     1       5.959   2.006   7.380  1.00  0.00     0.251 C 
ATOM     31  H   UNL     1       5.400   2.894   5.678  1.00  0.00     0.163 HD
ATOM     32  O   UNL     1       6.720   2.917   7.690  1.00  0.00    -0.269 OA
BRANCH  30  33
ATOM     33  C   UNL     1       5.867   0.798   8.233  1.00  0.00     0.039 A 
ATOM     34  C   UNL     1       5.834   0.961   9.620  1.00  0.00     0.014 A 
ATOM     35  C   UNL     1       5.858  -0.487   7.681  1.00  0.00     0.014 A 
ATOM     36  C   UNL     1       5.747  -0.159  10.451  1.00  0.00     0.010 A 
ATOM     37  C   UNL     1       5.710  -1.601   8.508  1.00  0.00     0.010 A 
ATOM     38  C   UNL     1       5.665  -1.449   9.902  1.00  0.00    -0.014 A 
BRANCH  38  39
ATOM     39  C   UNL     1       5.548  -2.642  10.780  1.00  0.00     0.031 A 
ATOM     40  C   UNL     1       6.667  -3.647  10.849  1.00  0.00     0.074 A 
ATOM     41  C   UNL     1       4.422  -2.839  11.494  1.00  0.00     0.049 A 
ATOM     42  N   UNL     1       6.743  -4.749  11.551  1.00  0.00    -0.248 NA
ATOM     43  C   UNL     1       7.845  -3.392  10.004  1.00  0.00     0.031 C 
ATOM     44  C   UNL     1       3.250  -1.961  11.486  1.00  0.00     0.029 A 
ATOM     45  N   UNL     1       4.079  -3.841  12.366  1.00  0.00    -0.354 N 
ATOM     46  C   UNL     1       7.966  -5.324  11.225  1.00  0.00     0.074 A 
ATOM     47  C   UNL     1       8.578  -4.473  10.227  1.00  0.00     0.031 C 
ATOM     48  C   UNL     1       2.329  -2.448  12.334  1.00  0.00     0.029 A 
ATOM     49  C   UNL     1       2.831  -3.686  12.922  1.00  0.00     0.049 A 
ATOM     50  H   UNL     1       4.670  -4.601  12.574  1.00  0.00     0.167 HD
ATOM     51  C   UNL     1       8.539  -6.445  11.725  1.00  0.00     0.031 A 
ATOM     52  C   UNL     1       2.165  -4.452  13.809  1.00  0.00     0.031 A 
ATOM     53  C   UNL     1       7.937  -7.284  12.727  1.00  0.00     0.049 A 
ATOM     54  C   UNL     1       2.822  -5.691  14.351  1.00  0.00     0.074 A 
ATOM     55  C   UNL     1       8.462  -8.411  13.336  1.00  0.00     0.029 A 
ATOM     56  N   UNL     1       6.675  -7.088  13.268  1.00  0.00    -0.354 N 
ATOM     57  N   UNL     1       4.008  -6.181  14.078  1.00  0.00    -0.248 NA
ATOM     58  C   UNL     1       2.056  -6.473  15.332  1.00  0.00     0.031 C 
ATOM     59  C   UNL     1       7.500  -8.921  14.215  1.00  0.00     0.029 A 
ATOM     60  C   UNL     1       6.396  -8.084  14.189  1.00  0.00     0.049 A 
ATOM     61  H   UNL     1       6.068  -6.350  13.032  1.00  0.00     0.167 HD
ATOM     62  C   UNL     1       4.138  -7.317  14.868  1.00  0.00     0.074 A 
ATOM     63  C   UNL     1       2.919  -7.432  15.642  1.00  0.00     0.031 C 
ATOM     64  C   UNL     1       5.175  -8.188  14.946  1.00  0.00     0.031 A 
BRANCH  51  65
ATOM     65  C   UNL     1       9.893  -6.830  11.188  1.00  0.00    -0.014 A 
ATOM     66  C   UNL     1      11.040  -6.085  11.516  1.00  0.00     0.010 A 
ATOM     67  C   UNL     1      10.026  -7.970  10.374  1.00  0.00     0.010 A 
ATOM     68  C   UNL     1      12.289  -6.446  11.004  1.00  0.00     0.020 A 
ATOM     69  C   UNL     1      11.278  -8.349   9.880  1.00  0.00     0.020 A 
ATOM     70  C   UNL     1      12.399  -7.573  10.184  1.00  0.00     0.054 A 
BRANCH  70  71
ATOM     71  S   UNL     1      14.035  -8.028   9.545  1.00  0.00     0.124 S 
ATOM     72  O   UNL     1      14.238  -7.027   8.501  1.00  0.00    -0.237 OA
ATOM     73  O   UNL     1      14.890  -7.891  10.721  1.00  0.00    -0.237 OA
ATOM     74  O   UNL     1      13.852  -9.397   9.069  1.00  0.00    -0.744 OA
ENDBRANCH  70  71
ENDBRANCH  51  65
BRANCH  52  75
ATOM     75  C   UNL     1       0.804  -4.053  14.257  1.00  0.00    -0.014 A 
ATOM     76  C   UNL     1       0.598  -3.554  15.555  1.00  0.00     0.010 A 
ATOM     77  C   UNL     1      -0.292  -4.158  13.382  1.00  0.00     0.010 A 
ATOM     78  C   UNL     1      -0.681  -3.180  15.976  1.00  0.00     0.020 A 
ATOM     79  C   UNL     1      -1.569  -3.762  13.790  1.00  0.00     0.020 A 
ATOM     80  C   UNL     1      -1.757  -3.286  15.090  1.00  0.00     0.054 A 
BRANCH  80  81
ATOM     81  S   UNL     1      -3.400  -2.742  15.636  1.00  0.00     0.124 S 
ATOM     82  O   UNL     1      -3.815  -3.846  16.494  1.00  0.00    -0.237 OA
ATOM     83  O   UNL     1      -3.108  -1.484  16.317  1.00  0.00    -0.237 OA
ATOM     84  O   UNL     1      -4.145  -2.604  14.386  1.00  0.00    -0.744 OA
ENDBRANCH  80  81
ENDBRANCH  52  75
BRANCH  64  85
ATOM     85  C   UNL     1       5.045  -9.330  15.917  1.00  0.00    -0.014 A 
ATOM     86  C   UNL     1       4.195 -10.417  15.648  1.00  0.00     0.010 A 
ATOM     87  C   UNL     1       5.818  -9.335  17.092  1.00  0.00     0.010 A 
ATOM     88  C   UNL     1       4.096 -11.476  16.555  1.00  0.00     0.020 A 
ATOM     89  C   UNL     1       5.740 -10.404  17.989  1.00  0.00     0.020 A 
ATOM     90  C   UNL     1       4.868 -11.461  17.721  1.00  0.00     0.054 A 
BRANCH  90  91
ATOM     91  S   UNL     1       4.752 -12.865  18.864  1.00  0.00     0.124 S 
ATOM     92  O   UNL     1       3.477 -12.611  19.528  1.00  0.00    -0.237 OA
ATOM     93  O   UNL     1       4.774 -14.016  17.965  1.00  0.00    -0.237 OA
ATOM     94  O   UNL     1       5.935 -12.721  19.709  1.00  0.00    -0.744 OA
ENDBRANCH  90  91
ENDBRANCH  64  85
ENDBRANCH  38  39
ENDBRANCH  30  33
ENDBRANCH  28  29
ENDBRANCH  27  28
ENDBRANCH  26  27
ENDBRANCH   1  26
TORSDOF 19
