REMARK SMILES O=C(NCCCCCCNC(=O)[C@@H]1CCCC[C@@H]1C(=O)Nc1nc(-c2ccc(Cl)c(Cl)c2)cs1)c1ccc(-c2c3nc(c(-c4ccc(S(=O)(=O)[O-])cc4)c4ccc([nH]4)c(-c4ccc(S(=O)(=O)[O-])cc4)c4nc(c(-c5ccc(S(=O)(=O)[O-])cc5)c5ccc2[nH]5)C=C4)C=C3)cc1
REMARK SMILES IDX 6 1 5 2 4 3 3 4 1 5 2 6 35 8 36 9 94 10 37 11 93 12 38 13
REMARK SMILES IDX 39 14 40 15 87 16 41 17 92 18 86 19 88 20 42 21 91 22 85 23
REMARK SMILES IDX 84 24 43 26 73 27 54 28 72 29 55 30 58 31 71 32 89 33 56 34
REMARK SMILES IDX 57 35 70 37 90 38 59 39 44 40 45 41 53 42 46 43 52 44 47 45
REMARK SMILES IDX 48 46 49 47 50 48 51 49 74 50 75 51 83 52 76 53 82 54 77 55
REMARK SMILES IDX 78 56 79 57 80 58 81 59 60 60 61 61 69 62 62 63 68 64 63 65
REMARK SMILES IDX 64 66 65 67 66 68 67 69 7 70 8 71 9 72 10 73 11 74 12 76
REMARK SMILES IDX 13 77 14 78 18 79 15 80 17 81 16 82 19 83 20 84 21 85 22 87
REMARK SMILES IDX 23 88 34 89 24 90 33 91 25 92 26 93 32 94 27 95 30 96 28 97
REMARK SMILES IDX 31 98 29 99
REMARK H PARENT 3 7 88 25 58 36 10 75 21 86
REMARK Flexibility Score: inf
ROOT
ATOM      1  C   UNL     1       3.943   2.337   2.960  1.00  0.00     0.002 C 
ENDROOT
BRANCH   1   2
ATOM      2  C   UNL     1       4.268   1.826   1.561  1.00  0.00     0.021 C 
BRANCH   2   3
ATOM      3  C   UNL     1       4.040   0.336   1.385  1.00  0.00     0.116 C 
BRANCH   3   4
ATOM      4  N   UNL     1       2.634   0.032   1.183  1.00  0.00    -0.352 N 
ATOM      5  O   UNL     1       0.814  -0.476  -0.041  1.00  0.00    -0.269 OA
ATOM      6  C   UNL     1       2.033  -0.525   0.080  1.00  0.00     0.251 C 
ATOM      7  H   UNL     1       2.035   0.253   1.933  1.00  0.00     0.163 HD
BRANCH   6   8
ATOM      8  C   UNL     1       2.863  -1.185  -0.955  1.00  0.00     0.039 A 
ATOM      9  C   UNL     1       3.962  -1.968  -0.586  1.00  0.00     0.014 A 
ATOM     10  C   UNL     1       2.507  -1.073  -2.303  1.00  0.00     0.014 A 
ATOM     11  C   UNL     1       4.760  -2.553  -1.558  1.00  0.00     0.010 A 
ATOM     12  C   UNL     1       3.243  -1.757  -3.274  1.00  0.00     0.010 A 
ATOM     13  C   UNL     1       4.364  -2.515  -2.903  1.00  0.00    -0.014 A 
BRANCH  13  14
ATOM     14  C   UNL     1       5.012  -3.453  -3.851  1.00  0.00     0.031 A 
ATOM     15  C   UNL     1       5.810  -2.971  -5.023  1.00  0.00     0.074 A 
ATOM     16  C   UNL     1       4.848  -4.772  -3.616  1.00  0.00     0.049 A 
ATOM     17  N   UNL     1       6.415  -3.680  -5.940  1.00  0.00    -0.248 NA
ATOM     18  C   UNL     1       5.944  -1.516  -5.202  1.00  0.00     0.031 C 
ATOM     19  C   UNL     1       4.062  -5.339  -2.511  1.00  0.00     0.029 A 
ATOM     20  N   UNL     1       5.333  -5.875  -4.267  1.00  0.00    -0.354 N 
ATOM     21  C   UNL     1       6.973  -2.766  -6.824  1.00  0.00     0.074 A 
ATOM     22  C   UNL     1       6.639  -1.446  -6.332  1.00  0.00     0.031 C 
ATOM     23  C   UNL     1       4.162  -6.673  -2.532  1.00  0.00     0.029 A 
ATOM     24  C   UNL     1       4.938  -7.064  -3.699  1.00  0.00     0.049 A 
ATOM     25  H   UNL     1       5.908  -5.822  -5.064  1.00  0.00     0.167 HD
ATOM     26  C   UNL     1       7.689  -3.018  -7.945  1.00  0.00     0.031 A 
ATOM     27  C   UNL     1       5.137  -8.334  -4.093  1.00  0.00     0.031 A 
ATOM     28  C   UNL     1       8.017  -4.343  -8.407  1.00  0.00     0.049 A 
ATOM     29  C   UNL     1       5.914  -8.573  -5.352  1.00  0.00     0.074 A 
ATOM     30  C   UNL     1       8.796  -4.704  -9.493  1.00  0.00     0.029 A 
ATOM     31  N   UNL     1       7.575  -5.520  -7.824  1.00  0.00    -0.354 N 
ATOM     32  N   UNL     1       6.492  -7.694  -6.135  1.00  0.00    -0.248 NA
ATOM     33  C   UNL     1       6.051  -9.966  -5.792  1.00  0.00     0.031 C 
ATOM     34  C   UNL     1       8.774  -6.098  -9.601  1.00  0.00     0.029 A 
ATOM     35  C   UNL     1       8.025  -6.608  -8.553  1.00  0.00     0.049 A 
ATOM     36  H   UNL     1       7.022  -5.575  -7.011  1.00  0.00     0.167 HD
ATOM     37  C   UNL     1       7.055  -8.428  -7.168  1.00  0.00     0.074 A 
ATOM     38  C   UNL     1       6.781  -9.824  -6.889  1.00  0.00     0.031 C 
ATOM     39  C   UNL     1       7.726  -7.986  -8.259  1.00  0.00     0.031 A 
BRANCH  26  40
ATOM     40  C   UNL     1       8.142  -1.852  -8.782  1.00  0.00    -0.014 A 
ATOM     41  C   UNL     1       9.225  -1.046  -8.389  1.00  0.00     0.010 A 
ATOM     42  C   UNL     1       7.538  -1.626 -10.033  1.00  0.00     0.010 A 
ATOM     43  C   UNL     1       9.688  -0.028  -9.230  1.00  0.00     0.020 A 
ATOM     44  C   UNL     1       8.010  -0.622 -10.884  1.00  0.00     0.020 A 
ATOM     45  C   UNL     1       9.080   0.175 -10.473  1.00  0.00     0.054 A 
BRANCH  45  46
ATOM     46  S   UNL     1       9.744   1.460 -11.570  1.00  0.00     0.124 S 
ATOM     47  O   UNL     1       9.300   2.682 -10.906  1.00  0.00    -0.237 OA
ATOM     48  O   UNL     1      11.182   1.208 -11.524  1.00  0.00    -0.237 OA
ATOM     49  O   UNL     1       9.108   1.183 -12.856  1.00  0.00    -0.744 OA
ENDBRANCH  45  46
ENDBRANCH  26  40
BRANCH  27  50
ATOM     50  C   UNL     1       4.524  -9.454  -3.331  1.00  0.00    -0.014 A 
ATOM     51  C   UNL     1       5.319 -10.367  -2.619  1.00  0.00     0.010 A 
ATOM     52  C   UNL     1       3.123  -9.599  -3.303  1.00  0.00     0.010 A 
ATOM     53  C   UNL     1       4.725 -11.417  -1.912  1.00  0.00     0.020 A 
ATOM     54  C   UNL     1       2.525 -10.627  -2.571  1.00  0.00     0.020 A 
ATOM     55  C   UNL     1       3.332 -11.541  -1.894  1.00  0.00     0.054 A 
BRANCH  55  56
ATOM     56  S   UNL     1       2.578 -12.890  -0.944  1.00  0.00     0.124 S 
ATOM     57  O   UNL     1       2.785 -14.032  -1.827  1.00  0.00    -0.237 OA
ATOM     58  O   UNL     1       3.363 -12.890   0.288  1.00  0.00    -0.237 OA
ATOM     59  O   UNL     1       1.190 -12.460  -0.787  1.00  0.00    -0.744 OA
ENDBRANCH  55  56
ENDBRANCH  27  50
BRANCH  39  60
ATOM     60  C   UNL     1       8.202  -9.028  -9.229  1.00  0.00    -0.014 A 
ATOM     61  C   UNL     1       7.297  -9.662 -10.098  1.00  0.00     0.010 A 
ATOM     62  C   UNL     1       9.571  -9.335  -9.310  1.00  0.00     0.010 A 
ATOM     63  C   UNL     1       7.752 -10.605 -11.021  1.00  0.00     0.020 A 
ATOM     64  C   UNL     1      10.033 -10.259 -10.249  1.00  0.00     0.020 A 
ATOM     65  C   UNL     1       9.118 -10.895 -11.092  1.00  0.00     0.054 A 
BRANCH  65  66
ATOM     66  S   UNL     1       9.693 -12.078 -12.341  1.00  0.00     0.124 S 
ATOM     67  O   UNL     1       9.272 -13.353 -11.767  1.00  0.00    -0.237 OA
ATOM     68  O   UNL     1       8.969 -11.657 -13.538  1.00  0.00    -0.237 OA
ATOM     69  O   UNL     1      11.137 -11.860 -12.384  1.00  0.00    -0.744 OA
ENDBRANCH  65  66
ENDBRANCH  39  60
ENDBRANCH  13  14
ENDBRANCH   6   8
ENDBRANCH   3   4
ENDBRANCH   2   3
ENDBRANCH   1   2
BRANCH   1  70
ATOM     70  C   UNL     1       4.754   1.710   4.098  1.00  0.00     0.002 C 
BRANCH  70  71
ATOM     71  C   UNL     1       6.279   1.599   3.915  1.00  0.00     0.021 C 
BRANCH  71  72
ATOM     72  C   UNL     1       7.082   2.901   3.951  1.00  0.00     0.116 C 
BRANCH  72  73
ATOM     73  N   UNL     1       6.850   3.645   5.175  1.00  0.00    -0.356 N 
ATOM     74  C   UNL     1       7.648   4.508   5.859  1.00  0.00     0.223 C 
ATOM     75  H   UNL     1       5.964   3.500   5.579  1.00  0.00     0.163 HD
ATOM     76  O   UNL     1       7.215   4.907   6.941  1.00  0.00    -0.275 OA
BRANCH  74  77
ATOM     77  C   UNL     1       9.051   4.833   5.346  1.00  0.00     0.091 C 
ATOM     78  C   UNL     1       9.976   3.776   5.977  1.00  0.00     0.014 C 
ATOM     79  C   UNL     1       9.529   6.296   5.575  1.00  0.00     0.091 C 
ATOM     80  C   UNL     1      11.442   3.999   5.652  1.00  0.00     0.001 C 
ATOM     81  C   UNL     1      11.064   6.463   5.459  1.00  0.00     0.014 C 
ATOM     82  C   UNL     1      11.879   5.369   6.137  1.00  0.00     0.001 C 
BRANCH  79  83
ATOM     83  C   UNL     1       9.027   6.973   6.860  1.00  0.00     0.230 C 
ATOM     84  O   UNL     1       9.707   6.947   7.893  1.00  0.00    -0.274 OA
ATOM     85  N   UNL     1       7.838   7.640   6.912  1.00  0.00    -0.302 N 
ATOM     86  H   UNL     1       7.628   8.084   7.765  1.00  0.00     0.172 HD
BRANCH  85  87
ATOM     87  C   UNL     1       6.905   7.766   5.925  1.00  0.00     0.189 A 
ATOM     88  N   UNL     1       6.959   7.375   4.679  1.00  0.00    -0.220 NA
ATOM     89  S   UNL     1       5.444   8.503   6.419  1.00  0.00    -0.105 S 
ATOM     90  C   UNL     1       5.758   7.649   4.055  1.00  0.00     0.084 A 
ATOM     91  C   UNL     1       4.795   8.237   4.848  1.00  0.00     0.097 A 
BRANCH  90  92
ATOM     92  C   UNL     1       5.541   7.216   2.693  1.00  0.00     0.003 A 
ATOM     93  C   UNL     1       5.410   5.851   2.451  1.00  0.00     0.012 A 
ATOM     94  C   UNL     1       5.554   8.106   1.618  1.00  0.00     0.032 A 
ATOM     95  C   UNL     1       5.328   5.365   1.147  1.00  0.00     0.023 A 
ATOM     96  C   UNL     1       5.454   7.620   0.306  1.00  0.00     0.060 A 
ATOM     97  C   UNL     1       5.351   6.245   0.069  1.00  0.00     0.059 A 
ATOM     98  Cl  UNL     1       5.485   8.771  -0.981  1.00  0.00    -0.083 Cl
ATOM     99  Cl  UNL     1       5.259   5.565  -1.514  1.00  0.00    -0.083 Cl
ENDBRANCH  90  92
ENDBRANCH  85  87
ENDBRANCH  79  83
ENDBRANCH  74  77
ENDBRANCH  72  73
ENDBRANCH  71  72
ENDBRANCH  70  71
ENDBRANCH   1  70
TORSDOF 19
