REMARK SMILES C[N@@H+]1CC2(CCN(C(=O)c3cc(-c4ccncc4)n[nH]3)CC2)C[C@H]1C(=O)NCCCCCCNC(=O)c1ccc(-c2c3nc(c(-c4ccc(S(=O)(=O)[O-])cc4)c4ccc([nH]4)c(-c4ccc(S(=O)(=O)[O-])cc4)c4nc(c(-c5ccc(S(=O)(=O)[O-])cc5)c5ccc2[nH]5)C=C4)C=C3)cc1
REMARK SMILES IDX 31 1 30 2 29 3 28 4 27 5 25 6 26 7 24 9 1 10 2 11 3 12 4 14
REMARK SMILES IDX 23 15 5 16 22 17 6 18 21 19 7 20 8 21 9 22 10 23 11 24 20 25
REMARK SMILES IDX 12 26 19 27 13 29 14 30 18 31 15 32 17 33 16 34 32 35 33 36
REMARK SMILES IDX 34 37 35 38 36 40 37 41 38 42 96 43 39 44 95 45 40 46 41 47
REMARK SMILES IDX 42 48 89 49 43 50 94 51 88 52 90 53 44 54 93 55 87 56 86 57
REMARK SMILES IDX 45 59 75 60 56 61 74 62 57 63 60 64 73 65 91 66 58 67 59 68
REMARK SMILES IDX 72 70 92 71 61 72 46 73 47 74 55 75 48 76 54 77 49 78 50 79
REMARK SMILES IDX 51 80 52 81 53 82 76 83 77 84 85 85 78 86 84 87 79 88 80 89
REMARK SMILES IDX 81 90 82 91 83 92 62 93 63 94 71 95 64 96 70 97 65 98 66 99
REMARK SMILES IDX 67 100 68 101 69 102
REMARK H PARENT 27 8 2 13 20 28 34 39 90 58 60 69
REMARK Flexibility Score: inf
ROOT
ATOM      1  C   UNL     1      -1.903  -4.096  -5.985  1.00  0.00     0.002 C 
ENDROOT
BRANCH   1   2
ATOM      2  C   UNL     1      -0.431  -3.726  -5.752  1.00  0.00     0.002 C 
BRANCH   2   3
ATOM      3  C   UNL     1      -0.132  -2.749  -4.611  1.00  0.00     0.021 C 
BRANCH   3   4
ATOM      4  C   UNL     1      -0.681  -3.150  -3.243  1.00  0.00     0.116 C 
BRANCH   4   5
ATOM      5  N   UNL     1       0.299  -3.710  -2.339  1.00  0.00    -0.351 N 
ATOM      6  C   UNL     1       0.623  -3.336  -1.062  1.00  0.00     0.278 C 
ATOM      7  O   UNL     1       1.431  -4.053  -0.458  1.00  0.00    -0.268 OA
ATOM      8  H   UNL     1       0.809  -4.473  -2.694  1.00  0.00     0.163 HD
BRANCH   6   9
ATOM      9  C   UNL     1       0.004  -2.099  -0.349  1.00  0.00     0.274 C 
ATOM     10  C   UNL     1       1.227  -0.045  -0.747  1.00  0.00     0.333 C 
ATOM     11  N   UNL     1       0.125  -0.897  -1.190  1.00  0.00    -0.327 N 
ATOM     12  C   UNL     1      -1.151  -0.182  -1.211  1.00  0.00     0.269 C 
ATOM     13  H   UNL     1       0.348  -1.181  -2.145  1.00  0.00     0.348 HD
ATOM     14  C   UNL     1      -2.227  -1.046  -0.516  1.00  0.00     0.029 C 
ATOM     15  C   UNL     1      -1.459  -2.255   0.051  1.00  0.00     0.088 C 
ATOM     16  C   UNL     1      -3.353  -1.560  -1.443  1.00  0.00     0.034 C 
ATOM     17  C   UNL     1      -2.927  -0.206   0.586  1.00  0.00     0.034 C 
ATOM     18  C   UNL     1      -4.160  -0.430  -2.049  1.00  0.00     0.120 C 
ATOM     19  C   UNL     1      -3.806   0.916  -0.001  1.00  0.00     0.120 C 
ATOM     20  N   UNL     1      -4.737   0.411  -1.006  1.00  0.00    -0.337 N 
ATOM     21  C   UNL     1      -5.982   1.028  -1.160  1.00  0.00     0.271 C 
ATOM     22  O   UNL     1      -6.240   2.110  -0.636  1.00  0.00    -0.267 OA
BRANCH  21  23
ATOM     23  C   UNL     1      -6.940   0.323  -1.966  1.00  0.00     0.123 A 
ATOM     24  C   UNL     1      -7.359  -0.993  -1.918  1.00  0.00     0.064 A 
ATOM     25  N   UNL     1      -7.672   0.883  -2.974  1.00  0.00    -0.272 N 
ATOM     26  C   UNL     1      -8.214  -1.171  -3.035  1.00  0.00     0.093 A 
ATOM     27  N   UNL     1      -8.323  -0.026  -3.724  1.00  0.00    -0.175 NA
ATOM     28  H   UNL     1      -7.719   1.853  -3.136  1.00  0.00     0.190 HD
BRANCH  26  29
ATOM     29  C   UNL     1      -8.847  -2.413  -3.468  1.00  0.00     0.005 A 
ATOM     30  C   UNL     1      -9.287  -3.350  -2.531  1.00  0.00     0.030 A 
ATOM     31  C   UNL     1      -8.997  -2.700  -4.825  1.00  0.00     0.030 A 
ATOM     32  C   UNL     1      -9.829  -4.539  -2.991  1.00  0.00     0.111 A 
ATOM     33  C   UNL     1      -9.543  -3.920  -5.184  1.00  0.00     0.111 A 
ATOM     34  N   UNL     1      -9.941  -4.859  -4.297  1.00  0.00    -0.265 NA
ENDBRANCH  26  29
ENDBRANCH  21  23
ENDBRANCH   6   9
ENDBRANCH   4   5
ENDBRANCH   3   4
ENDBRANCH   2   3
ENDBRANCH   1   2
BRANCH   1  35
ATOM     35  C   UNL     1      -2.918  -2.947  -6.057  1.00  0.00     0.021 C 
BRANCH  35  36
ATOM     36  C   UNL     1      -2.683  -1.891  -7.140  1.00  0.00     0.116 C 
BRANCH  36  37
ATOM     37  N   UNL     1      -2.671  -2.450  -8.479  1.00  0.00    -0.352 N 
ATOM     38  C   UNL     1      -3.361  -2.099  -9.613  1.00  0.00     0.251 C 
ATOM     39  H   UNL     1      -2.060  -3.213  -8.595  1.00  0.00     0.163 HD
ATOM     40  O   UNL     1      -3.267  -2.822 -10.603  1.00  0.00    -0.269 OA
BRANCH  38  41
ATOM     41  C   UNL     1      -4.225  -0.893  -9.676  1.00  0.00     0.039 A 
ATOM     42  C   UNL     1      -5.426  -0.982 -10.392  1.00  0.00     0.014 A 
ATOM     43  C   UNL     1      -3.843   0.336  -9.130  1.00  0.00     0.014 A 
ATOM     44  C   UNL     1      -6.261   0.134 -10.519  1.00  0.00     0.010 A 
ATOM     45  C   UNL     1      -4.694   1.444  -9.229  1.00  0.00     0.010 A 
ATOM     46  C   UNL     1      -5.910   1.353  -9.924  1.00  0.00    -0.014 A 
BRANCH  46  47
ATOM     47  C   UNL     1      -6.807   2.534 -10.021  1.00  0.00     0.031 A 
ATOM     48  C   UNL     1      -6.446   3.702 -10.896  1.00  0.00     0.074 A 
ATOM     49  C   UNL     1      -7.934   2.577  -9.285  1.00  0.00     0.049 A 
ATOM     50  N   UNL     1      -7.069   4.844 -11.043  1.00  0.00    -0.248 NA
ATOM     51  C   UNL     1      -5.219   3.577 -11.697  1.00  0.00     0.031 C 
ATOM     52  C   UNL     1      -8.394   1.526  -8.374  1.00  0.00     0.029 A 
ATOM     53  N   UNL     1      -8.895   3.552  -9.182  1.00  0.00    -0.354 N 
ATOM     54  C   UNL     1      -6.295   5.589 -11.924  1.00  0.00     0.074 A 
ATOM     55  C   UNL     1      -5.157   4.766 -12.282  1.00  0.00     0.031 C 
ATOM     56  C   UNL     1      -9.552   1.910  -7.812  1.00  0.00     0.029 A 
ATOM     57  C   UNL     1      -9.907   3.237  -8.306  1.00  0.00     0.049 A 
ATOM     58  H   UNL     1      -8.863   4.396  -9.687  1.00  0.00     0.167 HD
ATOM     59  C   UNL     1      -6.505   6.843 -12.391  1.00  0.00     0.031 A 
ATOM     60  C   UNL     1     -10.994   3.939  -7.936  1.00  0.00     0.031 A 
ATOM     61  C   UNL     1      -7.644   7.660 -12.068  1.00  0.00     0.049 A 
ATOM     62  C   UNL     1     -11.239   5.303  -8.515  1.00  0.00     0.074 A 
ATOM     63  C   UNL     1      -7.947   8.934 -12.518  1.00  0.00     0.029 A 
ATOM     64  N   UNL     1      -8.674   7.279 -11.224  1.00  0.00    -0.354 N 
ATOM     65  N   UNL     1     -10.500   5.981  -9.359  1.00  0.00    -0.248 NA
ATOM     66  C   UNL     1     -12.466   5.994  -8.093  1.00  0.00     0.031 C 
ATOM     67  C   UNL     1      -9.159   9.328 -11.936  1.00  0.00     0.029 A 
ATOM     68  C   UNL     1      -9.614   8.292 -11.137  1.00  0.00     0.049 A 
ATOM     69  H   UNL     1      -8.729   6.416 -10.754  1.00  0.00     0.167 HD
ATOM     70  C   UNL     1     -11.175   7.178  -9.572  1.00  0.00     0.074 A 
ATOM     71  C   UNL     1     -12.387   7.126  -8.780  1.00  0.00     0.031 C 
ATOM     72  C   UNL     1     -10.817   8.226 -10.351  1.00  0.00     0.031 A 
BRANCH  59  73
ATOM     73  C   UNL     1      -5.452   7.418 -13.294  1.00  0.00    -0.014 A 
ATOM     74  C   UNL     1      -5.424   7.101 -14.663  1.00  0.00     0.010 A 
ATOM     75  C   UNL     1      -4.488   8.295 -12.766  1.00  0.00     0.010 A 
ATOM     76  C   UNL     1      -4.421   7.623 -15.485  1.00  0.00     0.020 A 
ATOM     77  C   UNL     1      -3.491   8.826 -13.588  1.00  0.00     0.020 A 
ATOM     78  C   UNL     1      -3.452   8.470 -14.938  1.00  0.00     0.054 A 
BRANCH  78  79
ATOM     79  S   UNL     1      -2.148   9.139 -16.008  1.00  0.00     0.124 S 
ATOM     80  O   UNL     1      -1.141   8.082 -15.947  1.00  0.00    -0.237 OA
ATOM     81  O   UNL     1      -2.820   9.290 -17.297  1.00  0.00    -0.237 OA
ATOM     82  O   UNL     1      -1.781  10.392 -15.353  1.00  0.00    -0.744 OA
ENDBRANCH  78  79
ENDBRANCH  59  73
BRANCH  60  83
ATOM     83  C   UNL     1     -11.946   3.355  -6.959  1.00  0.00    -0.014 A 
ATOM     84  C   UNL     1     -13.132   2.747  -7.403  1.00  0.00     0.010 A 
ATOM     85  C   UNL     1     -11.657   3.386  -5.584  1.00  0.00     0.010 A 
ATOM     86  C   UNL     1     -14.024   2.187  -6.484  1.00  0.00     0.020 A 
ATOM     87  C   UNL     1     -12.541   2.815  -4.664  1.00  0.00     0.020 A 
ATOM     88  C   UNL     1     -13.725   2.229  -5.120  1.00  0.00     0.054 A 
BRANCH  88  89
ATOM     89  S   UNL     1     -14.862   1.457  -3.934  1.00  0.00     0.124 S 
ATOM     90  O   UNL     1     -15.792   2.547  -3.656  1.00  0.00    -0.237 OA
ATOM     91  O   UNL     1     -15.413   0.335  -4.691  1.00  0.00    -0.237 OA
ATOM     92  O   UNL     1     -13.987   1.080  -2.826  1.00  0.00    -0.744 OA
ENDBRANCH  88  89
ENDBRANCH  60  83
BRANCH  72  93
ATOM     93  C   UNL     1     -11.754   9.398 -10.395  1.00  0.00    -0.014 A 
ATOM     94  C   UNL     1     -11.715  10.383  -9.394  1.00  0.00     0.010 A 
ATOM     95  C   UNL     1     -12.654   9.536 -11.466  1.00  0.00     0.010 A 
ATOM     96  C   UNL     1     -12.576  11.482  -9.451  1.00  0.00     0.020 A 
ATOM     97  C   UNL     1     -13.511  10.638 -11.531  1.00  0.00     0.020 A 
ATOM     98  C   UNL     1     -13.475  11.599 -10.516  1.00  0.00     0.054 A 
BRANCH  98  99
ATOM     99  S   UNL     1     -14.562  13.050 -10.610  1.00  0.00     0.124 S 
ATOM    100  O   UNL     1     -15.711  12.618  -9.821  1.00  0.00    -0.237 OA
ATOM    101  O   UNL     1     -13.752  14.110 -10.012  1.00  0.00    -0.237 OA
ATOM    102  O   UNL     1     -14.805  13.198 -12.043  1.00  0.00    -0.744 OA
ENDBRANCH  98  99
ENDBRANCH  72  93
ENDBRANCH  46  47
ENDBRANCH  38  41
ENDBRANCH  36  37
ENDBRANCH  35  36
ENDBRANCH   1  35
TORSDOF 18
