REMARK SMILES [NH3+][C@]1(C(=O)NCCCCCCNC(=O)c2ccc(-c3c4nc(c(-c5ccc(S(=O)(=O)[O-])cc5)c5ccc([nH]5)c(-c5ccc(S(=O)(=O)[O-])cc5)c5nc(c(-c6ccc(S(=O)(=O)[O-])cc6)c6ccc3[nH]6)C=C5)C=C4)cc2)CC[C@@H](Sc2ccc(Cl)c(Cl)c2)C1
REMARK SMILES IDX 9 1 8 2 7 3 6 4 5 5 3 6 4 7 2 9 75 10 87 11 76 12 77 13 1 14
REMARK SMILES IDX 78 18 79 19 80 20 86 21 81 22 84 23 82 24 85 25 83 26 10 27
REMARK SMILES IDX 11 28 12 29 13 30 14 32 15 33 16 34 74 35 17 36 73 37 18 38
REMARK SMILES IDX 19 39 20 40 67 41 21 42 72 43 66 44 68 45 22 46 71 47 65 48
REMARK SMILES IDX 64 49 23 51 53 52 34 53 52 54 35 55 38 56 51 57 69 58 36 59
REMARK SMILES IDX 37 60 50 62 70 63 39 64 24 65 25 66 33 67 26 68 32 69 27 70
REMARK SMILES IDX 28 71 29 72 30 73 31 74 54 75 55 76 63 77 56 78 62 79 57 80
REMARK SMILES IDX 58 81 59 82 60 83 61 84 40 85 41 86 49 87 42 88 48 89 43 90
REMARK SMILES IDX 44 91 45 92 46 93 47 94
REMARK H PARENT 5 8 1 15 1 16 1 17 12 31 68 50 38 61
REMARK Flexibility Score: inf
ROOT
ATOM      1  C   UNL     1       5.824  -1.691  -1.128  1.00  0.00     0.002 C 
ENDROOT
BRANCH   1   2
ATOM      2  C   UNL     1       4.503  -2.462  -1.004  1.00  0.00     0.002 C 
BRANCH   2   3
ATOM      3  C   UNL     1       3.675  -2.126   0.240  1.00  0.00     0.021 C 
BRANCH   3   4
ATOM      4  C   UNL     1       3.173  -0.683   0.264  1.00  0.00     0.116 C 
BRANCH   4   5
ATOM      5  N   UNL     1       1.938  -0.545  -0.487  1.00  0.00    -0.351 N 
ATOM      6  C   UNL     1       0.665  -0.287  -0.076  1.00  0.00     0.281 C 
ATOM      7  O   UNL     1      -0.213  -0.268  -0.947  1.00  0.00    -0.268 OA
ATOM      8  H   UNL     1       2.037  -0.656  -1.460  1.00  0.00     0.163 HD
BRANCH   6   9
ATOM      9  C   UNL     1       0.314   0.036   1.409  1.00  0.00     0.175 C 
ATOM     10  C   UNL     1       0.741  -1.034   2.420  1.00  0.00     0.080 C 
ATOM     11  C   UNL     1       0.994   1.336   1.861  1.00  0.00     0.094 C 
ATOM     12  C   UNL     1       1.089  -0.297   3.711  1.00  0.00     0.022 C 
ATOM     13  C   UNL     1       1.224   1.188   3.361  1.00  0.00     0.058 C 
BRANCH   9  14
ATOM     14  N   UNL     1      -1.159   0.208   1.529  1.00  0.00    -0.345 N 
ATOM     15  H   UNL     1      -1.400   0.419   2.497  1.00  0.00     0.345 HD
ATOM     16  H   UNL     1      -1.627  -0.652   1.243  1.00  0.00     0.345 HD
ATOM     17  H   UNL     1      -1.462   0.975   0.928  1.00  0.00     0.345 HD
ENDBRANCH   9  14
BRANCH  13  18
ATOM     18  S   UNL     1       2.702   2.001   4.112  1.00  0.00    -0.122 SA
BRANCH  18  19
ATOM     19  C   UNL     1       4.069   1.750   2.989  1.00  0.00     0.009 A 
ATOM     20  C   UNL     1       5.145   0.940   3.370  1.00  0.00     0.017 A 
ATOM     21  C   UNL     1       4.184   2.509   1.819  1.00  0.00     0.037 A 
ATOM     22  C   UNL     1       6.311   0.889   2.593  1.00  0.00     0.023 A 
ATOM     23  C   UNL     1       5.331   2.432   1.018  1.00  0.00     0.060 A 
ATOM     24  C   UNL     1       6.410   1.640   1.419  1.00  0.00     0.059 A 
ATOM     25  Cl  UNL     1       5.343   3.334  -0.456  1.00  0.00    -0.083 Cl
ATOM     26  Cl  UNL     1       7.889   1.584   0.531  1.00  0.00    -0.083 Cl
ENDBRANCH  18  19
ENDBRANCH  13  18
ENDBRANCH   6   9
ENDBRANCH   4   5
ENDBRANCH   3   4
ENDBRANCH   2   3
ENDBRANCH   1   2
BRANCH   1  27
ATOM     27  C   UNL     1       6.797  -1.895   0.034  1.00  0.00     0.021 C 
BRANCH  27  28
ATOM     28  C   UNL     1       7.376  -3.300   0.126  1.00  0.00     0.116 C 
BRANCH  28  29
ATOM     29  N   UNL     1       8.321  -3.553  -0.952  1.00  0.00    -0.352 N 
ATOM     30  C   UNL     1       9.692  -3.572  -0.948  1.00  0.00     0.251 C 
ATOM     31  H   UNL     1       7.909  -3.741  -1.826  1.00  0.00     0.163 HD
ATOM     32  O   UNL     1      10.293  -3.520  -2.027  1.00  0.00    -0.269 OA
BRANCH  30  33
ATOM     33  C   UNL     1      10.462  -3.651   0.315  1.00  0.00     0.039 A 
ATOM     34  C   UNL     1      11.703  -3.010   0.401  1.00  0.00     0.014 A 
ATOM     35  C   UNL     1      10.006  -4.405   1.397  1.00  0.00     0.014 A 
ATOM     36  C   UNL     1      12.456  -3.094   1.577  1.00  0.00     0.010 A 
ATOM     37  C   UNL     1      10.699  -4.392   2.604  1.00  0.00     0.010 A 
ATOM     38  C   UNL     1      11.948  -3.763   2.702  1.00  0.00    -0.014 A 
BRANCH  38  39
ATOM     39  C   UNL     1      12.718  -3.868   3.972  1.00  0.00     0.031 A 
ATOM     40  C   UNL     1      13.072  -5.226   4.528  1.00  0.00     0.074 A 
ATOM     41  C   UNL     1      13.034  -2.755   4.665  1.00  0.00     0.049 A 
ATOM     42  N   UNL     1      13.634  -5.532   5.670  1.00  0.00    -0.248 NA
ATOM     43  C   UNL     1      12.709  -6.398   3.712  1.00  0.00     0.031 C 
ATOM     44  C   UNL     1      12.710  -1.383   4.265  1.00  0.00     0.029 A 
ATOM     45  N   UNL     1      13.695  -2.603   5.859  1.00  0.00    -0.354 N 
ATOM     46  C   UNL     1      13.651  -6.922   5.725  1.00  0.00     0.074 A 
ATOM     47  C   UNL     1      12.997  -7.400   4.528  1.00  0.00     0.031 C 
ATOM     48  C   UNL     1      13.200  -0.530   5.179  1.00  0.00     0.029 A 
ATOM     49  C   UNL     1      13.834  -1.292   6.251  1.00  0.00     0.049 A 
ATOM     50  H   UNL     1      14.038  -3.361   6.385  1.00  0.00     0.167 HD
ATOM     51  C   UNL     1      14.184  -7.731   6.672  1.00  0.00     0.031 A 
ATOM     52  C   UNL     1      14.402  -0.761   7.351  1.00  0.00     0.031 A 
ATOM     53  C   UNL     1      14.880  -7.254   7.837  1.00  0.00     0.049 A 
ATOM     54  C   UNL     1      15.025  -1.676   8.368  1.00  0.00     0.074 A 
ATOM     55  C   UNL     1      15.524  -7.989   8.816  1.00  0.00     0.029 A 
ATOM     56  N   UNL     1      15.034  -5.917   8.171  1.00  0.00    -0.354 N 
ATOM     57  N   UNL     1      15.078  -2.987   8.374  1.00  0.00    -0.248 NA
ATOM     58  C   UNL     1      15.679  -1.040   9.520  1.00  0.00     0.031 C 
ATOM     59  C   UNL     1      16.032  -7.098   9.767  1.00  0.00     0.029 A 
ATOM     60  C   UNL     1      15.751  -5.806   9.350  1.00  0.00     0.049 A 
ATOM     61  H   UNL     1      14.686  -5.160   7.648  1.00  0.00     0.167 HD
ATOM     62  C   UNL     1      15.793  -3.331   9.515  1.00  0.00     0.074 A 
ATOM     63  C   UNL     1      16.165  -2.091  10.166  1.00  0.00     0.031 C 
ATOM     64  C   UNL     1      16.113  -4.563   9.983  1.00  0.00     0.031 A 
BRANCH  51  65
ATOM     65  C   UNL     1      14.037  -9.220   6.484  1.00  0.00    -0.014 A 
ATOM     66  C   UNL     1      14.724  -9.898   5.460  1.00  0.00     0.010 A 
ATOM     67  C   UNL     1      13.227  -9.959   7.365  1.00  0.00     0.010 A 
ATOM     68  C   UNL     1      14.565 -11.276   5.290  1.00  0.00     0.020 A 
ATOM     69  C   UNL     1      13.089 -11.343   7.219  1.00  0.00     0.020 A 
ATOM     70  C   UNL     1      13.745 -11.989   6.169  1.00  0.00     0.054 A 
BRANCH  70  71
ATOM     71  S   UNL     1      13.571 -13.780   5.938  1.00  0.00     0.124 S 
ATOM     72  O   UNL     1      12.712 -13.848   4.758  1.00  0.00    -0.237 OA
ATOM     73  O   UNL     1      14.952 -14.213   5.735  1.00  0.00    -0.237 OA
ATOM     74  O   UNL     1      12.957 -14.233   7.183  1.00  0.00    -0.744 OA
ENDBRANCH  70  71
ENDBRANCH  51  65
BRANCH  52  75
ATOM     75  C   UNL     1      14.428   0.717   7.531  1.00  0.00    -0.014 A 
ATOM     76  C   UNL     1      15.632   1.430   7.396  1.00  0.00     0.010 A 
ATOM     77  C   UNL     1      13.244   1.422   7.816  1.00  0.00     0.010 A 
ATOM     78  C   UNL     1      15.655   2.819   7.558  1.00  0.00     0.020 A 
ATOM     79  C   UNL     1      13.259   2.813   7.951  1.00  0.00     0.020 A 
ATOM     80  C   UNL     1      14.467   3.502   7.832  1.00  0.00     0.054 A 
BRANCH  80  81
ATOM     81  S   UNL     1      14.511   5.310   7.980  1.00  0.00     0.124 S 
ATOM     82  O   UNL     1      15.134   5.492   9.287  1.00  0.00    -0.237 OA
ATOM     83  O   UNL     1      15.324   5.702   6.831  1.00  0.00    -0.237 OA
ATOM     84  O   UNL     1      13.104   5.693   7.896  1.00  0.00    -0.744 OA
ENDBRANCH  80  81
ENDBRANCH  52  75
BRANCH  64  85
ATOM     85  C   UNL     1      16.937  -4.634  11.240  1.00  0.00    -0.014 A 
ATOM     86  C   UNL     1      16.381  -4.327  12.494  1.00  0.00     0.010 A 
ATOM     87  C   UNL     1      18.274  -5.066  11.168  1.00  0.00     0.010 A 
ATOM     88  C   UNL     1      17.159  -4.418  13.651  1.00  0.00     0.020 A 
ATOM     89  C   UNL     1      19.047  -5.185  12.325  1.00  0.00     0.020 A 
ATOM     90  C   UNL     1      18.488  -4.846  13.559  1.00  0.00     0.054 A 
BRANCH  90  91
ATOM     91  S   UNL     1      19.466  -4.994  15.079  1.00  0.00     0.124 S 
ATOM     92  O   UNL     1      19.747  -3.596  15.396  1.00  0.00    -0.237 OA
ATOM     93  O   UNL     1      18.545  -5.671  15.988  1.00  0.00    -0.237 OA
ATOM     94  O   UNL     1      20.623  -5.786  14.670  1.00  0.00    -0.744 OA
ENDBRANCH  90  91
ENDBRANCH  64  85
ENDBRANCH  38  39
ENDBRANCH  30  33
ENDBRANCH  28  29
ENDBRANCH  27  28
ENDBRANCH   1  27
TORSDOF 19
