REMARK SMILES CCCCCC[C@H](C)[C@@](C)(O)C(=O)NCCCCCCNC(=O)c1ccc(-c2c3nc(c(-c4ccc(S(=O)(=O)[O-])cc4)c4ccc([nH]4)c(-c4ccc(S(=O)(=O)[O-])cc4)c4nc(c(-c5ccc(S(=O)(=O)[O-])cc5)c5ccc2[nH]5)C=C4)C=C3)cc1
REMARK SMILES IDX 16 1 15 2 14 3 12 4 13 5 9 7 10 8 7 9 8 10 6 11 5 12 4 13
REMARK SMILES IDX 3 14 2 15 1 16 11 17 17 19 18 20 19 21 20 22 21 23 22 24
REMARK SMILES IDX 23 26 24 27 25 28 83 29 26 30 82 31 27 32 28 33 29 34 76 35
REMARK SMILES IDX 30 36 81 37 75 38 77 39 31 40 80 41 74 42 73 43 32 45 62 46
REMARK SMILES IDX 43 47 61 48 44 49 47 50 60 51 78 52 45 53 46 54 59 56 79 57
REMARK SMILES IDX 48 58 33 59 34 60 42 61 35 62 41 63 36 64 37 65 38 66 39 67
REMARK SMILES IDX 40 68 63 69 64 70 72 71 65 72 71 73 66 74 67 75 68 76 69 77
REMARK SMILES IDX 70 78 49 79 50 80 58 81 51 82 57 83 52 84 53 85 54 86 55 87
REMARK SMILES IDX 56 88
REMARK H PARENT 14 6 11 18 21 25 77 44 47 55
REMARK Flexibility Score: inf
ROOT
ATOM      1  C   UNL     1      -3.714  -8.375  -5.235  1.00  0.00     0.021 C 
ENDROOT
BRANCH   1   2
ATOM      2  C   UNL     1      -3.021  -7.017  -5.210  1.00  0.00     0.116 C 
BRANCH   2   3
ATOM      3  N   UNL     1      -3.600  -6.144  -4.212  1.00  0.00    -0.354 N 
ATOM      4  C   UNL     1      -3.011  -5.451  -3.199  1.00  0.00     0.251 C 
ATOM      5  O   UNL     1      -3.774  -4.839  -2.445  1.00  0.00    -0.272 OA
ATOM      6  H   UNL     1      -4.576  -6.034  -4.275  1.00  0.00     0.163 HD
BRANCH   4   7
ATOM      7  C   UNL     1      -1.456  -5.407  -3.055  1.00  0.00     0.142 C 
ATOM      8  C   UNL     1      -0.835  -4.726  -4.291  1.00  0.00     0.053 C 
BRANCH   7   9
ATOM      9  C   UNL     1      -1.019  -4.646  -1.751  1.00  0.00     0.027 C 
ATOM     10  C   UNL     1      -1.524  -3.195  -1.727  1.00  0.00     0.011 C 
BRANCH   9  11
ATOM     11  C   UNL     1      -1.374  -5.443  -0.463  1.00  0.00     0.007 C 
BRANCH  11  12
ATOM     12  C   UNL     1      -0.713  -4.961   0.838  1.00  0.00     0.000 C 
BRANCH  12  13
ATOM     13  C   UNL     1      -1.203  -3.638   1.433  1.00  0.00     0.000 C 
BRANCH  13  14
ATOM     14  C   UNL     1      -2.706  -3.557   1.718  1.00  0.00    -0.000 C 
BRANCH  14  15
ATOM     15  C   UNL     1      -3.188  -4.429   2.877  1.00  0.00    -0.003 C 
ATOM     16  C   UNL     1      -2.600  -4.011   4.216  1.00  0.00     0.004 C 
ENDBRANCH  14  15
ENDBRANCH  13  14
ENDBRANCH  12  13
ENDBRANCH  11  12
ENDBRANCH   9  11
ENDBRANCH   7   9
BRANCH   7  17
ATOM     17  O   UNL     1      -0.915  -6.734  -2.993  1.00  0.00    -0.380 OA
ATOM     18  H   UNL     1       0.050  -6.687  -2.904  1.00  0.00     0.212 HD
ENDBRANCH   7  17
ENDBRANCH   4   7
ENDBRANCH   2   3
ENDBRANCH   1   2
BRANCH   1  19
ATOM     19  C   UNL     1      -5.217  -8.327  -5.533  1.00  0.00     0.002 C 
BRANCH  19  20
ATOM     20  C   UNL     1      -5.614  -7.547  -6.790  1.00  0.00     0.002 C 
BRANCH  20  21
ATOM     21  C   UNL     1      -4.899  -7.970  -8.074  1.00  0.00     0.021 C 
BRANCH  21  22
ATOM     22  C   UNL     1      -5.001  -9.454  -8.403  1.00  0.00     0.116 C 
BRANCH  22  23
ATOM     23  N   UNL     1      -6.375  -9.877  -8.619  1.00  0.00    -0.352 N 
ATOM     24  C   UNL     1      -6.910 -10.552  -9.688  1.00  0.00     0.251 C 
ATOM     25  H   UNL     1      -7.008  -9.649  -7.901  1.00  0.00     0.163 HD
ATOM     26  O   UNL     1      -8.127 -10.675  -9.795  1.00  0.00    -0.269 OA
BRANCH  24  27
ATOM     27  C   UNL     1      -6.011 -11.103 -10.724  1.00  0.00     0.039 A 
ATOM     28  C   UNL     1      -6.306 -10.869 -12.069  1.00  0.00     0.014 A 
ATOM     29  C   UNL     1      -4.869 -11.824 -10.366  1.00  0.00     0.014 A 
ATOM     30  C   UNL     1      -5.417 -11.303 -13.054  1.00  0.00     0.010 A 
ATOM     31  C   UNL     1      -3.948 -12.189 -11.344  1.00  0.00     0.010 A 
ATOM     32  C   UNL     1      -4.212 -11.932 -12.698  1.00  0.00    -0.014 A 
BRANCH  32  33
ATOM     33  C   UNL     1      -3.208 -12.310 -13.725  1.00  0.00     0.031 A 
ATOM     34  C   UNL     1      -2.845 -13.754 -13.934  1.00  0.00     0.074 A 
ATOM     35  C   UNL     1      -2.572 -11.346 -14.419  1.00  0.00     0.049 A 
ATOM     36  N   UNL     1      -1.949 -14.270 -14.737  1.00  0.00    -0.248 NA
ATOM     37  C   UNL     1      -3.562 -14.746 -13.117  1.00  0.00     0.031 C 
ATOM     38  C   UNL     1      -2.803  -9.906 -14.274  1.00  0.00     0.029 A 
ATOM     39  N   UNL     1      -1.592 -11.429 -15.377  1.00  0.00    -0.354 N 
ATOM     40  C   UNL     1      -1.986 -15.642 -14.513  1.00  0.00     0.074 A 
ATOM     41  C   UNL     1      -2.953 -15.871 -13.462  1.00  0.00     0.031 C 
ATOM     42  C   UNL     1      -2.002  -9.245 -15.125  1.00  0.00     0.029 A 
ATOM     43  C   UNL     1      -1.170 -10.206 -15.842  1.00  0.00     0.049 A 
ATOM     44  H   UNL     1      -1.227 -12.284 -15.701  1.00  0.00     0.167 HD
ATOM     45  C   UNL     1      -1.290 -16.623 -15.137  1.00  0.00     0.031 A 
ATOM     46  C   UNL     1      -0.211  -9.888 -16.734  1.00  0.00     0.031 A 
ATOM     47  C   UNL     1      -0.327 -16.387 -16.180  1.00  0.00     0.049 A 
ATOM     48  C   UNL     1       0.563 -10.992 -17.402  1.00  0.00     0.074 A 
ATOM     49  C   UNL     1       0.389 -17.317 -16.915  1.00  0.00     0.029 A 
ATOM     50  N   UNL     1       0.063 -15.135 -16.632  1.00  0.00    -0.354 N 
ATOM     51  N   UNL     1       0.459 -12.288 -17.232  1.00  0.00    -0.248 NA
ATOM     52  C   UNL     1       1.574 -10.591 -18.389  1.00  0.00     0.031 C 
ATOM     53  C   UNL     1       1.257 -16.625 -17.765  1.00  0.00     0.029 A 
ATOM     54  C   UNL     1       1.034 -15.266 -17.611  1.00  0.00     0.049 A 
ATOM     55  H   UNL     1      -0.297 -14.279 -16.304  1.00  0.00     0.167 HD
ATOM     56  C   UNL     1       1.376 -12.860 -18.107  1.00  0.00     0.074 A 
ATOM     57  C   UNL     1       2.012 -11.768 -18.816  1.00  0.00     0.031 C 
ATOM     58  C   UNL     1       1.665 -14.170 -18.304  1.00  0.00     0.031 A 
BRANCH  45  59
ATOM     59  C   UNL     1      -1.538 -18.041 -14.692  1.00  0.00    -0.014 A 
ATOM     60  C   UNL     1      -2.770 -18.677 -14.934  1.00  0.00     0.010 A 
ATOM     61  C   UNL     1      -0.517 -18.759 -14.043  1.00  0.00     0.010 A 
ATOM     62  C   UNL     1      -2.994 -19.983 -14.490  1.00  0.00     0.020 A 
ATOM     63  C   UNL     1      -0.726 -20.077 -13.625  1.00  0.00     0.020 A 
ATOM     64  C   UNL     1      -1.971 -20.673 -13.833  1.00  0.00     0.054 A 
BRANCH  64  65
ATOM     65  S   UNL     1      -2.289 -22.368 -13.271  1.00  0.00     0.124 S 
ATOM     66  O   UNL     1      -3.193 -22.146 -12.145  1.00  0.00    -0.237 OA
ATOM     67  O   UNL     1      -2.891 -22.988 -14.448  1.00  0.00    -0.237 OA
ATOM     68  O   UNL     1      -0.964 -22.870 -12.914  1.00  0.00    -0.744 OA
ENDBRANCH  64  65
ENDBRANCH  45  59
BRANCH  46  69
ATOM     69  C   UNL     1       0.069  -8.458 -17.039  1.00  0.00    -0.014 A 
ATOM     70  C   UNL     1      -0.276  -7.907 -18.285  1.00  0.00     0.010 A 
ATOM     71  C   UNL     1       0.656  -7.629 -16.065  1.00  0.00     0.010 A 
ATOM     72  C   UNL     1      -0.029  -6.558 -18.556  1.00  0.00     0.020 A 
ATOM     73  C   UNL     1       0.877  -6.273 -16.321  1.00  0.00     0.020 A 
ATOM     74  C   UNL     1       0.541  -5.748 -17.569  1.00  0.00     0.054 A 
BRANCH  74  75
ATOM     75  S   UNL     1       0.792  -3.985 -17.920  1.00  0.00     0.124 S 
ATOM     76  O   UNL     1       1.911  -4.018 -18.856  1.00  0.00    -0.237 OA
ATOM     77  O   UNL     1      -0.496  -3.591 -18.485  1.00  0.00    -0.237 OA
ATOM     78  O   UNL     1       1.089  -3.415 -16.607  1.00  0.00    -0.744 OA
ENDBRANCH  74  75
ENDBRANCH  46  69
BRANCH  58  79
ATOM     79  C   UNL     1       2.699 -14.505 -19.347  1.00  0.00    -0.014 A 
ATOM     80  C   UNL     1       4.064 -14.243 -19.131  1.00  0.00     0.010 A 
ATOM     81  C   UNL     1       2.304 -15.149 -20.534  1.00  0.00     0.010 A 
ATOM     82  C   UNL     1       5.012 -14.598 -20.095  1.00  0.00     0.020 A 
ATOM     83  C   UNL     1       3.252 -15.533 -21.486  1.00  0.00     0.020 A 
ATOM     84  C   UNL     1       4.600 -15.244 -21.266  1.00  0.00     0.054 A 
BRANCH  84  85
ATOM     85  S   UNL     1       5.856 -15.742 -22.475  1.00  0.00     0.124 S 
ATOM     86  O   UNL     1       6.255 -14.459 -23.047  1.00  0.00    -0.237 OA
ATOM     87  O   UNL     1       6.861 -16.398 -21.641  1.00  0.00    -0.237 OA
ATOM     88  O   UNL     1       5.132 -16.630 -23.382  1.00  0.00    -0.744 OA
ENDBRANCH  84  85
ENDBRANCH  58  79
ENDBRANCH  32  33
ENDBRANCH  24  27
ENDBRANCH  22  23
ENDBRANCH  21  22
ENDBRANCH  20  21
ENDBRANCH  19  20
ENDBRANCH   1  19
TORSDOF 23
