REMARK SMILES COc1ccc(NC(C)(C)C2=N[C@@H](C(=O)NCCCCCCNC(=O)c3ccc(-c4c5nc(c(-c6ccc(S(=O)(=O)[O-])cc6)c6ccc([nH]6)c(-c6ccc(S(=O)(=O)[O-])cc6)c6nc(c(-c7ccc(S(=O)(=O)[O-])cc7)c7ccc4[nH]7)C=C6)C=C5)cc3)CS2)cc1
REMARK SMILES IDX 19 1 18 2 17 3 16 4 14 5 15 6 13 8 11 9 12 10 87 11 86 12
REMARK SMILES IDX 8 13 9 14 10 15 7 16 6 18 3 19 4 20 89 21 5 22 88 23 2 24
REMARK SMILES IDX 1 25 20 26 21 27 22 28 23 29 24 30 25 32 26 33 27 34 85 35
REMARK SMILES IDX 28 36 84 37 29 38 30 39 31 40 78 41 32 42 83 43 77 44 79 45
REMARK SMILES IDX 33 46 82 47 76 48 75 49 34 51 64 52 45 53 63 54 46 55 49 56
REMARK SMILES IDX 62 57 80 58 47 59 48 60 61 62 81 63 50 64 35 65 36 66 44 67
REMARK SMILES IDX 37 68 43 69 38 70 39 71 40 72 41 73 42 74 65 75 66 76 74 77
REMARK SMILES IDX 67 78 73 79 68 80 69 81 70 82 71 83 72 84 51 85 52 86 60 87
REMARK SMILES IDX 53 88 59 89 54 90 55 91 56 92 57 93 58 94
REMARK H PARENT 16 7 7 17 23 31 79 50 49 61
REMARK Flexibility Score: inf
ROOT
ATOM      1  C   UNL     1      -5.325   1.140  10.299  1.00  0.00     0.002 C 
ENDROOT
BRANCH   1   2
ATOM      2  C   UNL     1      -4.167   1.734   9.494  1.00  0.00     0.021 C 
BRANCH   2   3
ATOM      3  C   UNL     1      -3.284   0.666   8.860  1.00  0.00     0.116 C 
BRANCH   3   4
ATOM      4  N   UNL     1      -3.974   0.033   7.760  1.00  0.00    -0.354 N 
ATOM      5  C   UNL     1      -3.731   0.131   6.424  1.00  0.00     0.245 C 
ATOM      6  O   UNL     1      -4.545  -0.376   5.648  1.00  0.00    -0.273 OA
ATOM      7  H   UNL     1      -4.726  -0.551   8.011  1.00  0.00     0.163 HD
BRANCH   5   8
ATOM      8  C   UNL     1      -2.498   0.867   5.905  1.00  0.00     0.205 C 
ATOM      9  C   UNL     1      -0.405   1.132   6.835  1.00  0.00     0.094 C 
ATOM     10  N   UNL     1      -1.274   0.245   6.465  1.00  0.00    -0.266 NA
ATOM     11  S   UNL     1      -0.933   2.812   6.837  1.00  0.00    -0.106 SA
ATOM     12  C   UNL     1      -2.534   2.371   6.121  1.00  0.00     0.113 C 
BRANCH   9  13
ATOM     13  C   UNL     1       1.048   0.756   7.183  1.00  0.00     0.080 C 
ATOM     14  C   UNL     1       1.015  -0.603   7.921  1.00  0.00     0.042 C 
ATOM     15  C   UNL     1       1.712   1.766   8.138  1.00  0.00     0.042 C 
BRANCH  13  16
ATOM     16  N   UNL     1       1.941   0.594   5.999  1.00  0.00    -0.374 N 
ATOM     17  H   UNL     1       2.878   0.411   6.238  1.00  0.00     0.161 HD
BRANCH  16  18
ATOM     18  C   UNL     1       1.722   0.648   4.638  1.00  0.00     0.035 A 
ATOM     19  C   UNL     1       1.395   0.675   1.800  1.00  0.00     0.119 A 
ATOM     20  C   UNL     1       0.403   1.158   2.627  1.00  0.00     0.048 A 
ATOM     21  C   UNL     1       2.570   0.196   2.367  1.00  0.00     0.048 A 
ATOM     22  C   UNL     1       0.581   1.146   4.012  1.00  0.00     0.029 A 
ATOM     23  C   UNL     1       2.721   0.180   3.769  1.00  0.00     0.029 A 
BRANCH  19  24
ATOM     24  O   UNL     1       1.163   0.797   0.462  1.00  0.00    -0.497 OA
ATOM     25  C   UNL     1       1.448  -0.384  -0.274  1.00  0.00     0.278 C 
ENDBRANCH  19  24
ENDBRANCH  16  18
ENDBRANCH  13  16
ENDBRANCH   9  13
ENDBRANCH   5   8
ENDBRANCH   3   4
ENDBRANCH   2   3
ENDBRANCH   1   2
BRANCH   1  26
ATOM     26  C   UNL     1      -4.886   0.157  11.388  1.00  0.00     0.002 C 
BRANCH  26  27
ATOM     27  C   UNL     1      -3.822   0.707  12.343  1.00  0.00     0.021 C 
BRANCH  27  28
ATOM     28  C   UNL     1      -4.232   1.995  13.044  1.00  0.00     0.116 C 
BRANCH  28  29
ATOM     29  N   UNL     1      -5.441   1.809  13.828  1.00  0.00    -0.352 N 
ATOM     30  C   UNL     1      -5.651   2.076  15.153  1.00  0.00     0.251 C 
ATOM     31  H   UNL     1      -6.213   1.441  13.340  1.00  0.00     0.163 HD
ATOM     32  O   UNL     1      -6.646   1.627  15.722  1.00  0.00    -0.269 OA
BRANCH  30  33
ATOM     33  C   UNL     1      -4.675   2.899  15.890  1.00  0.00     0.039 A 
ATOM     34  C   UNL     1      -4.292   2.510  17.174  1.00  0.00     0.014 A 
ATOM     35  C   UNL     1      -4.148   4.059  15.314  1.00  0.00     0.014 A 
ATOM     36  C   UNL     1      -3.356   3.274  17.872  1.00  0.00     0.010 A 
ATOM     37  C   UNL     1      -3.156   4.771  15.976  1.00  0.00     0.010 A 
ATOM     38  C   UNL     1      -2.768   4.400  17.272  1.00  0.00    -0.014 A 
BRANCH  38  39
ATOM     39  C   UNL     1      -1.778   5.228  18.002  1.00  0.00     0.031 A 
ATOM     40  C   UNL     1      -2.098   6.661  18.332  1.00  0.00     0.074 A 
ATOM     41  C   UNL     1      -0.579   4.705  18.328  1.00  0.00     0.049 A 
ATOM     42  N   UNL     1      -1.353   7.556  18.929  1.00  0.00    -0.248 NA
ATOM     43  C   UNL     1      -3.417   7.165  17.913  1.00  0.00     0.031 C 
ATOM     44  C   UNL     1      -0.139   3.340  18.028  1.00  0.00     0.029 A 
ATOM     45  N   UNL     1       0.489   5.262  18.983  1.00  0.00    -0.354 N 
ATOM     46  C   UNL     1      -2.103   8.726  18.940  1.00  0.00     0.074 A 
ATOM     47  C   UNL     1      -3.337   8.445  18.240  1.00  0.00     0.031 C 
ATOM     48  C   UNL     1       1.094   3.158  18.525  1.00  0.00     0.029 A 
ATOM     49  C   UNL     1       1.549   4.400  19.141  1.00  0.00     0.049 A 
ATOM     50  H   UNL     1       0.497   6.191  19.309  1.00  0.00     0.167 HD
ATOM     51  C   UNL     1      -1.804   9.921  19.502  1.00  0.00     0.031 A 
ATOM     52  C   UNL     1       2.753   4.590  19.715  1.00  0.00     0.031 A 
ATOM     53  C   UNL     1      -0.580  10.190  20.209  1.00  0.00     0.049 A 
ATOM     54  C   UNL     1       3.064   5.927  20.332  1.00  0.00     0.074 A 
ATOM     55  C   UNL     1      -0.199  11.350  20.859  1.00  0.00     0.029 A 
ATOM     56  N   UNL     1       0.462   9.286  20.359  1.00  0.00    -0.354 N 
ATOM     57  N   UNL     1       2.317   7.005  20.384  1.00  0.00    -0.248 NA
ATOM     58  C   UNL     1       4.372   6.067  20.984  1.00  0.00     0.031 C 
ATOM     59  C   UNL     1       1.095  11.168  21.354  1.00  0.00     0.029 A 
ATOM     60  C   UNL     1       1.493   9.870  21.075  1.00  0.00     0.049 A 
ATOM     61  H   UNL     1       0.467   8.367  20.008  1.00  0.00     0.167 HD
ATOM     62  C   UNL     1       3.051   7.939  21.108  1.00  0.00     0.074 A 
ATOM     63  C   UNL     1       4.293   7.293  21.482  1.00  0.00     0.031 C 
ATOM     64  C   UNL     1       2.723   9.212  21.441  1.00  0.00     0.031 A 
BRANCH  51  65
ATOM     65  C   UNL     1      -2.816  11.030  19.367  1.00  0.00    -0.014 A 
ATOM     66  C   UNL     1      -4.058  10.969  20.026  1.00  0.00     0.010 A 
ATOM     67  C   UNL     1      -2.508  12.166  18.598  1.00  0.00     0.010 A 
ATOM     68  C   UNL     1      -4.989  12.001  19.883  1.00  0.00     0.020 A 
ATOM     69  C   UNL     1      -3.422  13.217  18.478  1.00  0.00     0.020 A 
ATOM     70  C   UNL     1      -4.665  13.119  19.108  1.00  0.00     0.054 A 
BRANCH  70  71
ATOM     71  S   UNL     1      -5.883  14.454  18.959  1.00  0.00     0.124 S 
ATOM     72  O   UNL     1      -6.895  13.844  18.101  1.00  0.00    -0.237 OA
ATOM     73  O   UNL     1      -6.285  14.676  20.345  1.00  0.00    -0.237 OA
ATOM     74  O   UNL     1      -5.128  15.547  18.349  1.00  0.00    -0.744 OA
ENDBRANCH  70  71
ENDBRANCH  51  65
BRANCH  52  75
ATOM     75  C   UNL     1       3.742   3.479  19.753  1.00  0.00    -0.014 A 
ATOM     76  C   UNL     1       4.070   2.851  20.968  1.00  0.00     0.010 A 
ATOM     77  C   UNL     1       4.356   3.033  18.568  1.00  0.00     0.010 A 
ATOM     78  C   UNL     1       5.009   1.816  21.001  1.00  0.00     0.020 A 
ATOM     79  C   UNL     1       5.271   1.978  18.592  1.00  0.00     0.020 A 
ATOM     80  C   UNL     1       5.602   1.384  19.812  1.00  0.00     0.054 A 
BRANCH  80  81
ATOM     81  S   UNL     1       6.783   0.008  19.872  1.00  0.00     0.124 S 
ATOM     82  O   UNL     1       7.945   0.632  20.496  1.00  0.00    -0.237 OA
ATOM     83  O   UNL     1       6.077  -0.976  20.688  1.00  0.00    -0.237 OA
ATOM     84  O   UNL     1       6.948  -0.362  18.468  1.00  0.00    -0.744 OA
ENDBRANCH  80  81
ENDBRANCH  52  75
BRANCH  64  85
ATOM     85  C   UNL     1       3.696   9.977  22.299  1.00  0.00    -0.014 A 
ATOM     86  C   UNL     1       4.935  10.416  21.799  1.00  0.00     0.010 A 
ATOM     87  C   UNL     1       3.338  10.301  23.622  1.00  0.00     0.010 A 
ATOM     88  C   UNL     1       5.815  11.126  22.621  1.00  0.00     0.020 A 
ATOM     89  C   UNL     1       4.200  11.038  24.435  1.00  0.00     0.020 A 
ATOM     90  C   UNL     1       5.443  11.431  23.934  1.00  0.00     0.054 A 
BRANCH  90  91
ATOM     91  S   UNL     1       6.591  12.377  24.971  1.00  0.00     0.124 S 
ATOM     92  O   UNL     1       7.624  11.386  25.261  1.00  0.00    -0.237 OA
ATOM     93  O   UNL     1       6.996  13.467  24.087  1.00  0.00    -0.237 OA
ATOM     94  O   UNL     1       5.775  12.779  26.114  1.00  0.00    -0.744 OA
ENDBRANCH  90  91
ENDBRANCH  64  85
ENDBRANCH  38  39
ENDBRANCH  30  33
ENDBRANCH  28  29
ENDBRANCH  27  28
ENDBRANCH  26  27
ENDBRANCH   1  26
TORSDOF 20
