REMARK SMILES O=C(/C=C/c1ccc(O)cc1)NC[C@@H]1CC[C@H](C(=O)NCCCCCCNC(=O)c2ccc(-c3c4nc(c(-c5ccc(S(=O)(=O)[O-])cc5)c5ccc([nH]5)c(-c5ccc(S(=O)(=O)[O-])cc5)c5nc(c(-c6ccc(S(=O)(=O)[O-])cc6)c6ccc3[nH]6)C=C5)C=C4)cc2)O1
REMARK SMILES IDX 22 1 21 2 20 3 18 4 19 5 17 7 14 8 15 9 90 10 16 11 13 12
REMARK SMILES IDX 12 13 1 14 2 15 3 17 4 18 5 19 6 20 11 21 7 22 10 23 8 24
REMARK SMILES IDX 9 25 23 27 24 28 25 29 26 30 27 31 28 32 29 34 30 35 31 36
REMARK SMILES IDX 89 37 32 38 88 39 33 40 34 41 35 42 82 43 36 44 87 45 81 46
REMARK SMILES IDX 83 47 37 48 86 49 80 50 79 51 38 53 68 54 49 55 67 56 50 57
REMARK SMILES IDX 53 58 66 59 84 60 51 61 52 62 65 64 85 65 54 66 39 67 40 68
REMARK SMILES IDX 48 69 41 70 47 71 42 72 43 73 44 74 45 75 46 76 69 77 70 78
REMARK SMILES IDX 78 79 71 80 77 81 72 82 73 83 74 84 75 85 76 86 55 87 56 88
REMARK SMILES IDX 64 89 57 90 63 91 58 92 59 93 60 94 61 95 62 96
REMARK H PARENT 20 6 12 16 9 26 27 33 83 52 53 63
REMARK Flexibility Score: inf
ROOT
ATOM      1  C   UNL     1      -0.802  -4.460   0.400  1.00  0.00     0.021 C 
ENDROOT
BRANCH   1   2
ATOM      2  C   UNL     1      -0.329  -4.135   1.814  1.00  0.00     0.116 C 
BRANCH   2   3
ATOM      3  N   UNL     1      -0.056  -5.337   2.570  1.00  0.00    -0.354 N 
ATOM      4  C   UNL     1       1.140  -5.837   2.992  1.00  0.00     0.249 C 
ATOM      5  O   UNL     1       1.129  -6.918   3.592  1.00  0.00    -0.272 OA
ATOM      6  H   UNL     1      -0.846  -5.870   2.815  1.00  0.00     0.163 HD
BRANCH   4   7
ATOM      7  C   UNL     1       2.473  -5.109   2.705  1.00  0.00     0.207 C 
ATOM      8  C   UNL     1       3.164  -2.958   2.105  1.00  0.00     0.138 C 
ATOM      9  C   UNL     1       3.007  -3.727   0.802  1.00  0.00     0.037 C 
ATOM     10  O   UNL     1       2.507  -3.742   3.118  1.00  0.00    -0.363 OA
ATOM     11  C   UNL     1       2.910  -5.171   1.248  1.00  0.00     0.045 C 
BRANCH   8  12
ATOM     12  C   UNL     1       2.566  -1.544   2.116  1.00  0.00     0.148 C 
BRANCH  12  13
ATOM     13  N   UNL     1       3.117  -0.661   1.112  1.00  0.00    -0.350 N 
ATOM     14  O   UNL     1       1.249  -0.634  -0.225  1.00  0.00    -0.270 OA
ATOM     15  C   UNL     1       2.397  -0.275   0.007  1.00  0.00     0.244 C 
ATOM     16  H   UNL     1       4.035  -0.326   1.224  1.00  0.00     0.163 HD
BRANCH  15  17
ATOM     17  C   UNL     1       3.094   0.662  -0.913  1.00  0.00     0.072 C 
ATOM     18  C   UNL     1       4.425   0.659  -1.080  1.00  0.00     0.014 C 
BRANCH  18  19
ATOM     19  C   UNL     1       5.165   1.493  -2.036  1.00  0.00    -0.025 A 
ATOM     20  C   UNL     1       4.785   2.797  -2.380  1.00  0.00     0.012 A 
ATOM     21  C   UNL     1       6.347   0.968  -2.580  1.00  0.00     0.012 A 
ATOM     22  C   UNL     1       5.561   3.553  -3.266  1.00  0.00     0.047 A 
ATOM     23  C   UNL     1       7.123   1.721  -3.462  1.00  0.00     0.047 A 
ATOM     24  C   UNL     1       6.724   3.006  -3.799  1.00  0.00     0.115 A 
BRANCH  24  25
ATOM     25  O   UNL     1       7.515   3.707  -4.660  1.00  0.00    -0.508 OA
ATOM     26  H   UNL     1       7.278   4.578  -4.911  1.00  0.00     0.293 HD
ENDBRANCH  24  25
ENDBRANCH  18  19
ENDBRANCH  15  17
ENDBRANCH  12  13
ENDBRANCH   8  12
ENDBRANCH   4   7
ENDBRANCH   2   3
ENDBRANCH   1   2
BRANCH   1  27
ATOM     27  C   UNL     1      -2.299  -4.770   0.321  1.00  0.00     0.002 C 
BRANCH  27  28
ATOM     28  C   UNL     1      -3.215  -3.624   0.770  1.00  0.00     0.002 C 
BRANCH  28  29
ATOM     29  C   UNL     1      -2.974  -2.287   0.063  1.00  0.00     0.021 C 
BRANCH  29  30
ATOM     30  C   UNL     1      -3.182  -2.335  -1.447  1.00  0.00     0.116 C 
BRANCH  30  31
ATOM     31  N   UNL     1      -4.565  -2.643  -1.787  1.00  0.00    -0.352 N 
ATOM     32  C   UNL     1      -5.430  -1.930  -2.579  1.00  0.00     0.251 C 
ATOM     33  H   UNL     1      -4.927  -3.471  -1.398  1.00  0.00     0.163 HD
ATOM     34  O   UNL     1      -6.629  -2.192  -2.589  1.00  0.00    -0.269 OA
BRANCH  32  35
ATOM     35  C   UNL     1      -4.896  -0.837  -3.415  1.00  0.00     0.039 A 
ATOM     36  C   UNL     1      -5.521   0.412  -3.400  1.00  0.00     0.014 A 
ATOM     37  C   UNL     1      -3.759  -1.054  -4.197  1.00  0.00     0.014 A 
ATOM     38  C   UNL     1      -4.967   1.467  -4.128  1.00  0.00     0.010 A 
ATOM     39  C   UNL     1      -3.172   0.013  -4.865  1.00  0.00     0.010 A 
ATOM     40  C   UNL     1      -3.773   1.282  -4.843  1.00  0.00    -0.014 A 
BRANCH  40  41
ATOM     41  C   UNL     1      -3.131   2.380  -5.608  1.00  0.00     0.031 A 
ATOM     42  C   UNL     1      -2.990   2.250  -7.101  1.00  0.00     0.074 A 
ATOM     43  C   UNL     1      -2.586   3.429  -4.959  1.00  0.00     0.049 A 
ATOM     44  N   UNL     1      -2.313   2.996  -7.933  1.00  0.00    -0.248 NA
ATOM     45  C   UNL     1      -3.676   1.110  -7.736  1.00  0.00     0.031 C 
ATOM     46  C   UNL     1      -2.638   3.656  -3.513  1.00  0.00     0.029 A 
ATOM     47  N   UNL     1      -1.858   4.492  -5.434  1.00  0.00    -0.354 N 
ATOM     48  C   UNL     1      -2.456   2.394  -9.179  1.00  0.00     0.074 A 
ATOM     49  C   UNL     1      -3.260   1.208  -8.991  1.00  0.00     0.031 C 
ATOM     50  C   UNL     1      -1.979   4.791  -3.221  1.00  0.00     0.029 A 
ATOM     51  C   UNL     1      -1.414   5.343  -4.448  1.00  0.00     0.049 A 
ATOM     52  H   UNL     1      -1.671   4.633  -6.390  1.00  0.00     0.167 HD
ATOM     53  C   UNL     1      -1.967   2.801 -10.373  1.00  0.00     0.031 A 
ATOM     54  C   UNL     1      -0.621   6.431  -4.522  1.00  0.00     0.031 A 
ATOM     55  C   UNL     1      -1.202   4.004 -10.558  1.00  0.00     0.049 A 
ATOM     56  C   UNL     1      -0.090   6.860  -5.867  1.00  0.00     0.074 A 
ATOM     57  C   UNL     1      -0.723   4.541 -11.740  1.00  0.00     0.029 A 
ATOM     58  N   UNL     1      -0.810   4.857  -9.539  1.00  0.00    -0.354 N 
ATOM     59  N   UNL     1      -0.281   6.309  -7.041  1.00  0.00    -0.248 NA
ATOM     60  C   UNL     1       0.759   8.060  -5.898  1.00  0.00     0.031 C 
ATOM     61  C   UNL     1       0.004   5.693 -11.430  1.00  0.00     0.029 A 
ATOM     62  C   UNL     1      -0.078   5.907 -10.063  1.00  0.00     0.049 A 
ATOM     63  H   UNL     1      -1.021   4.735  -8.585  1.00  0.00     0.167 HD
ATOM     64  C   UNL     1       0.381   7.123  -7.954  1.00  0.00     0.074 A 
ATOM     65  C   UNL     1       0.980   8.202  -7.198  1.00  0.00     0.031 C 
ATOM     66  C   UNL     1       0.479   6.992  -9.299  1.00  0.00     0.031 A 
BRANCH  53  67
ATOM     67  C   UNL     1      -2.237   1.946 -11.581  1.00  0.00    -0.014 A 
ATOM     68  C   UNL     1      -3.521   1.870 -12.148  1.00  0.00     0.010 A 
ATOM     69  C   UNL     1      -1.169   1.280 -12.210  1.00  0.00     0.010 A 
ATOM     70  C   UNL     1      -3.736   1.129 -13.313  1.00  0.00     0.020 A 
ATOM     71  C   UNL     1      -1.374   0.561 -13.390  1.00  0.00     0.020 A 
ATOM     72  C   UNL     1      -2.659   0.484 -13.930  1.00  0.00     0.054 A 
BRANCH  72  73
ATOM     73  S   UNL     1      -2.956  -0.412 -15.479  1.00  0.00     0.124 S 
ATOM     74  O   UNL     1      -3.698  -1.581 -15.014  1.00  0.00    -0.237 OA
ATOM     75  O   UNL     1      -3.726   0.551 -16.262  1.00  0.00    -0.237 OA
ATOM     76  O   UNL     1      -1.613  -0.688 -15.983  1.00  0.00    -0.744 OA
ENDBRANCH  72  73
ENDBRANCH  53  67
BRANCH  54  77
ATOM     77  C   UNL     1      -0.262   7.192  -3.293  1.00  0.00    -0.014 A 
ATOM     78  C   UNL     1      -0.731   8.505  -3.105  1.00  0.00     0.010 A 
ATOM     79  C   UNL     1       0.583   6.624  -2.322  1.00  0.00     0.010 A 
ATOM     80  C   UNL     1      -0.322   9.253  -1.996  1.00  0.00     0.020 A 
ATOM     81  C   UNL     1       0.968   7.357  -1.196  1.00  0.00     0.020 A 
ATOM     82  C   UNL     1       0.531   8.675  -1.053  1.00  0.00     0.054 A 
BRANCH  82  83
ATOM     83  S   UNL     1       1.059   9.665   0.373  1.00  0.00     0.124 S 
ATOM     84  O   UNL     1       2.017  10.582  -0.235  1.00  0.00    -0.237 OA
ATOM     85  O   UNL     1      -0.194  10.264   0.825  1.00  0.00    -0.237 OA
ATOM     86  O   UNL     1       1.632   8.673   1.282  1.00  0.00    -0.744 OA
ENDBRANCH  82  83
ENDBRANCH  54  77
BRANCH  66  87
ATOM     87  C   UNL     1       1.191   8.074 -10.064  1.00  0.00    -0.014 A 
ATOM     88  C   UNL     1       2.591   8.186 -10.046  1.00  0.00     0.010 A 
ATOM     89  C   UNL     1       0.442   8.922 -10.903  1.00  0.00     0.010 A 
ATOM     90  C   UNL     1       3.230   9.136 -10.848  1.00  0.00     0.020 A 
ATOM     91  C   UNL     1       1.079   9.852 -11.725  1.00  0.00     0.020 A 
ATOM     92  C   UNL     1       2.470   9.957 -11.688  1.00  0.00     0.054 A 
BRANCH  92  93
ATOM     93  S   UNL     1       3.330  11.120 -12.782  1.00  0.00     0.124 S 
ATOM     94  O   UNL     1       3.784  12.142 -11.843  1.00  0.00    -0.237 OA
ATOM     95  O   UNL     1       4.383  10.291 -13.365  1.00  0.00    -0.237 OA
ATOM     96  O   UNL     1       2.293  11.549 -13.717  1.00  0.00    -0.744 OA
ENDBRANCH  92  93
ENDBRANCH  66  87
ENDBRANCH  40  41
ENDBRANCH  32  35
ENDBRANCH  30  31
ENDBRANCH  29  30
ENDBRANCH  28  29
ENDBRANCH  27  28
ENDBRANCH   1  27
TORSDOF 21
