REMARK SMILES CCCCNC(=O)[C@@H](C)Oc1ccc(N)cc1C(=O)NCCCCCCNC(=O)c1ccc(-c2c3nc(c(-c4ccc(S(=O)(=O)[O-])cc4)c4ccc([nH]4)c(-c4ccc(S(=O)(=O)[O-])cc4)c4nc(c(-c5ccc(S(=O)(=O)[O-])cc5)c5ccc2[nH]5)C=C4)C=C3)cc1
REMARK SMILES IDX 22 1 21 2 20 3 18 4 19 5 17 7 11 8 12 9 13 10 16 11 14 12
REMARK SMILES IDX 10 13 8 14 9 15 6 16 5 17 7 19 4 20 3 21 2 22 1 23 15 24
REMARK SMILES IDX 23 27 24 28 25 29 26 30 27 31 28 32 29 34 30 35 31 36 89 37
REMARK SMILES IDX 32 38 88 39 33 40 34 41 35 42 82 43 36 44 87 45 81 46 83 47
REMARK SMILES IDX 37 48 86 49 80 50 79 51 38 53 68 54 49 55 67 56 50 57 53 58
REMARK SMILES IDX 66 59 84 60 51 61 52 62 65 64 85 65 54 66 39 67 40 68 48 69
REMARK SMILES IDX 41 70 47 71 42 72 43 73 44 74 45 75 46 76 69 77 70 78 78 79
REMARK SMILES IDX 71 80 77 81 72 82 73 83 74 84 75 85 76 86 55 87 56 88 64 89
REMARK SMILES IDX 57 90 63 91 58 92 59 93 60 94 61 95 62 96
REMARK H PARENT 20 6 5 18 15 25 15 26 27 33 83 52 53 63
REMARK Flexibility Score: inf
ROOT
ATOM      1  C   UNL     1       0.456  -8.233   3.427  1.00  0.00     0.021 C 
ENDROOT
BRANCH   1   2
ATOM      2  C   UNL     1       0.571  -6.846   4.037  1.00  0.00     0.116 C 
BRANCH   2   3
ATOM      3  N   UNL     1       1.879  -6.488   4.481  1.00  0.00    -0.352 N 
ATOM      4  C   UNL     1       2.601  -5.338   4.293  1.00  0.00     0.255 C 
ATOM      5  O   UNL     1       3.769  -5.412   4.699  1.00  0.00    -0.269 OA
ATOM      6  H   UNL     1       2.339  -7.181   5.009  1.00  0.00     0.163 HD
BRANCH   4   7
ATOM      7  C   UNL     1       2.128  -4.017   3.709  1.00  0.00     0.083 A 
ATOM      8  C   UNL     1       0.838  -3.536   3.411  1.00  0.00     0.133 A 
ATOM      9  C   UNL     1       0.631  -2.149   3.345  1.00  0.00     0.049 A 
ATOM     10  C   UNL     1       1.702  -1.256   3.279  1.00  0.00     0.029 A 
ATOM     11  C   UNL     1       3.193  -3.086   3.569  1.00  0.00     0.043 A 
ATOM     12  C   UNL     1       2.999  -1.735   3.272  1.00  0.00     0.032 A 
BRANCH   8  13
ATOM     13  O   UNL     1      -0.283  -4.298   3.291  1.00  0.00    -0.480 OA
BRANCH  13  14
ATOM     14  C   UNL     1      -0.898  -4.451   1.994  1.00  0.00     0.258 C 
ATOM     15  C   UNL     1      -0.146  -5.313   0.953  1.00  0.00     0.064 C 
BRANCH  14  16
ATOM     16  C   UNL     1      -1.655  -3.298   1.284  1.00  0.00     0.260 C 
ATOM     17  N   UNL     1      -1.032  -2.466   0.397  1.00  0.00    -0.353 N 
ATOM     18  H   UNL     1      -1.620  -2.005  -0.243  1.00  0.00     0.163 HD
ATOM     19  O   UNL     1      -2.866  -3.140   1.458  1.00  0.00    -0.271 OA
BRANCH  17  20
ATOM     20  C   UNL     1       0.379  -2.177   0.278  1.00  0.00     0.116 C 
BRANCH  20  21
ATOM     21  C   UNL     1       0.857  -1.948  -1.144  1.00  0.00     0.021 C 
BRANCH  21  22
ATOM     22  C   UNL     1       0.529  -0.555  -1.684  1.00  0.00    -0.002 C 
ATOM     23  C   UNL     1       1.054   0.576  -0.805  1.00  0.00     0.004 C 
ENDBRANCH  21  22
ENDBRANCH  20  21
ENDBRANCH  17  20
ENDBRANCH  14  16
ENDBRANCH  13  14
ENDBRANCH   8  13
BRANCH  12  24
ATOM     24  N   UNL     1       4.077  -0.875   3.141  1.00  0.00    -0.399 N 
ATOM     25  H   UNL     1       3.925   0.074   2.931  1.00  0.00     0.156 HD
ATOM     26  H   UNL     1       4.994  -1.214   3.258  1.00  0.00     0.156 HD
ENDBRANCH  12  24
ENDBRANCH   4   7
ENDBRANCH   2   3
ENDBRANCH   1   2
BRANCH   1  27
ATOM     27  C   UNL     1       0.105  -9.347   4.399  1.00  0.00     0.002 C 
BRANCH  27  28
ATOM     28  C   UNL     1      -1.136  -9.104   5.262  1.00  0.00     0.002 C 
BRANCH  28  29
ATOM     29  C   UNL     1      -2.406  -8.643   4.536  1.00  0.00     0.021 C 
BRANCH  29  30
ATOM     30  C   UNL     1      -2.857  -9.496   3.353  1.00  0.00     0.116 C 
BRANCH  30  31
ATOM     31  N   UNL     1      -2.950 -10.907   3.685  1.00  0.00    -0.352 N 
ATOM     32  C   UNL     1      -4.015 -11.761   3.613  1.00  0.00     0.251 C 
ATOM     33  H   UNL     1      -2.114 -11.312   4.013  1.00  0.00     0.163 HD
ATOM     34  O   UNL     1      -3.923 -12.887   4.111  1.00  0.00    -0.269 OA
BRANCH  32  35
ATOM     35  C   UNL     1      -5.275 -11.345   2.966  1.00  0.00     0.039 A 
ATOM     36  C   UNL     1      -6.484 -11.651   3.597  1.00  0.00     0.014 A 
ATOM     37  C   UNL     1      -5.276 -10.682   1.735  1.00  0.00     0.014 A 
ATOM     38  C   UNL     1      -7.689 -11.242   3.023  1.00  0.00     0.010 A 
ATOM     39  C   UNL     1      -6.475 -10.217   1.197  1.00  0.00     0.010 A 
ATOM     40  C   UNL     1      -7.694 -10.492   1.835  1.00  0.00    -0.014 A 
BRANCH  40  41
ATOM     41  C   UNL     1      -8.964  -9.980   1.258  1.00  0.00     0.031 A 
ATOM     42  C   UNL     1      -9.437 -10.462  -0.087  1.00  0.00     0.074 A 
ATOM     43  C   UNL     1      -9.667  -9.044   1.927  1.00  0.00     0.049 A 
ATOM     44  N   UNL     1     -10.482 -10.082  -0.776  1.00  0.00    -0.248 NA
ATOM     45  C   UNL     1      -8.620 -11.490  -0.753  1.00  0.00     0.031 C 
ATOM     46  C   UNL     1      -9.294  -8.471   3.223  1.00  0.00     0.029 A 
ATOM     47  N   UNL     1     -10.836  -8.400   1.606  1.00  0.00    -0.354 N 
ATOM     48  C   UNL     1     -10.448 -10.819  -1.955  1.00  0.00     0.074 A 
ATOM     49  C   UNL     1      -9.250 -11.629  -1.911  1.00  0.00     0.031 C 
ATOM     50  C   UNL     1     -10.224  -7.574   3.592  1.00  0.00     0.029 A 
ATOM     51  C   UNL     1     -11.233  -7.475   2.543  1.00  0.00     0.049 A 
ATOM     52  H   UNL     1     -11.343  -8.584   0.782  1.00  0.00     0.167 HD
ATOM     53  C   UNL     1     -11.344 -10.837  -2.970  1.00  0.00     0.031 A 
ATOM     54  C   UNL     1     -12.281  -6.629   2.551  1.00  0.00     0.031 A 
ATOM     55  C   UNL     1     -12.536 -10.030  -3.010  1.00  0.00     0.049 A 
ATOM     56  C   UNL     1     -13.245  -6.647   1.395  1.00  0.00     0.074 A 
ATOM     57  C   UNL     1     -13.521 -10.000  -3.982  1.00  0.00     0.029 A 
ATOM     58  N   UNL     1     -12.907  -9.115  -2.037  1.00  0.00    -0.354 N 
ATOM     59  N   UNL     1     -13.223  -7.391   0.315  1.00  0.00    -0.248 NA
ATOM     60  C   UNL     1     -14.383  -5.719   1.464  1.00  0.00     0.031 C 
ATOM     61  C   UNL     1     -14.462  -9.031  -3.621  1.00  0.00     0.029 A 
ATOM     62  C   UNL     1     -14.096  -8.502  -2.394  1.00  0.00     0.049 A 
ATOM     63  H   UNL     1     -12.400  -8.929  -1.214  1.00  0.00     0.167 HD
ATOM     64  C   UNL     1     -14.357  -7.040  -0.410  1.00  0.00     0.074 A 
ATOM     65  C   UNL     1     -15.053  -6.033   0.364  1.00  0.00     0.031 C 
ATOM     66  C   UNL     1     -14.781  -7.506  -1.610  1.00  0.00     0.031 A 
BRANCH  53  67
ATOM     67  C   UNL     1     -11.078 -11.769  -4.123  1.00  0.00    -0.014 A 
ATOM     68  C   UNL     1     -11.196 -13.162  -3.965  1.00  0.00     0.010 A 
ATOM     69  C   UNL     1     -10.773 -11.249  -5.394  1.00  0.00     0.010 A 
ATOM     70  C   UNL     1     -10.987 -14.019  -5.049  1.00  0.00     0.020 A 
ATOM     71  C   UNL     1     -10.590 -12.102  -6.488  1.00  0.00     0.020 A 
ATOM     72  C   UNL     1     -10.687 -13.483  -6.305  1.00  0.00     0.054 A 
BRANCH  72  73
ATOM     73  S   UNL     1     -10.465 -14.619  -7.701  1.00  0.00     0.124 S 
ATOM     74  O   UNL     1      -9.187 -15.248  -7.378  1.00  0.00    -0.237 OA
ATOM     75  O   UNL     1     -11.636 -15.486  -7.596  1.00  0.00    -0.237 OA
ATOM     76  O   UNL     1     -10.448 -13.739  -8.867  1.00  0.00    -0.744 OA
ENDBRANCH  72  73
ENDBRANCH  53  67
BRANCH  54  77
ATOM     77  C   UNL     1     -12.470  -5.680   3.684  1.00  0.00    -0.014 A 
ATOM     78  C   UNL     1     -13.556  -5.817   4.567  1.00  0.00     0.010 A 
ATOM     79  C   UNL     1     -11.567  -4.617   3.874  1.00  0.00     0.010 A 
ATOM     80  C   UNL     1     -13.757  -4.889   5.593  1.00  0.00     0.020 A 
ATOM     81  C   UNL     1     -11.746  -3.707   4.919  1.00  0.00     0.020 A 
ATOM     82  C   UNL     1     -12.851  -3.837   5.761  1.00  0.00     0.054 A 
BRANCH  82  83
ATOM     83  S   UNL     1     -13.122  -2.654   7.109  1.00  0.00     0.124 S 
ATOM     84  O   UNL     1     -14.249  -1.874   6.606  1.00  0.00    -0.237 OA
ATOM     85  O   UNL     1     -13.413  -3.527   8.243  1.00  0.00    -0.237 OA
ATOM     86  O   UNL     1     -11.852  -1.937   7.194  1.00  0.00    -0.744 OA
ENDBRANCH  82  83
ENDBRANCH  54  77
BRANCH  66  87
ATOM     87  C   UNL     1     -16.079  -6.962  -2.146  1.00  0.00    -0.014 A 
ATOM     88  C   UNL     1     -16.175  -5.646  -2.631  1.00  0.00     0.010 A 
ATOM     89  C   UNL     1     -17.206  -7.803  -2.217  1.00  0.00     0.010 A 
ATOM     90  C   UNL     1     -17.383  -5.171  -3.149  1.00  0.00     0.020 A 
ATOM     91  C   UNL     1     -18.406  -7.340  -2.761  1.00  0.00     0.020 A 
ATOM     92  C   UNL     1     -18.491  -6.022  -3.212  1.00  0.00     0.054 A 
BRANCH  92  93
ATOM     93  S   UNL     1     -20.032  -5.394  -3.934  1.00  0.00     0.124 S 
ATOM     94  O   UNL     1     -20.509  -4.489  -2.892  1.00  0.00    -0.237 OA
ATOM     95  O   UNL     1     -19.572  -4.751  -5.162  1.00  0.00    -0.237 OA
ATOM     96  O   UNL     1     -20.838  -6.597  -4.131  1.00  0.00    -0.744 OA
ENDBRANCH  92  93
ENDBRANCH  66  87
ENDBRANCH  40  41
ENDBRANCH  32  35
ENDBRANCH  30  31
ENDBRANCH  29  30
ENDBRANCH  28  29
ENDBRANCH  27  28
ENDBRANCH   1  27
TORSDOF 23
