REMARK SMILES O=C(NCCCCCCNC(=O)[C@H]1[C@H]2CC[C@H](CC2)[C@@H]1C(=O)Nc1sc2c(c1C(=O)N1CCCCC1)CCCC2)c1ccc(-c2c3nc(c(-c4ccc(S(=O)(=O)[O-])cc4)c4ccc([nH]4)c(-c4ccc(S(=O)(=O)[O-])cc4)c4nc(c(-c5ccc(S(=O)(=O)[O-])cc5)c5ccc2[nH]5)C=C4)C=C3)cc1
REMARK SMILES IDX 6 1 5 2 4 3 3 4 1 5 2 6 41 8 42 9 100 10 43 11 99 12 44 13
REMARK SMILES IDX 45 14 46 15 93 16 47 17 98 18 92 19 94 20 48 21 97 22 91 23
REMARK SMILES IDX 90 24 49 26 79 27 60 28 78 29 61 30 64 31 77 32 95 33 62 34
REMARK SMILES IDX 63 35 76 37 96 38 65 39 50 40 51 41 59 42 52 43 58 44 53 45
REMARK SMILES IDX 54 46 55 47 56 48 57 49 80 50 81 51 89 52 82 53 88 54 83 55
REMARK SMILES IDX 84 56 85 57 86 58 87 59 66 60 67 61 75 62 68 63 74 64 69 65
REMARK SMILES IDX 70 66 71 67 72 68 73 69 7 70 8 71 9 72 10 73 11 74 12 76
REMARK SMILES IDX 13 77 14 78 20 79 15 80 19 81 17 82 16 83 18 84 21 85 22 86
REMARK SMILES IDX 23 87 24 89 25 90 28 91 26 92 27 93 40 94 37 95 39 96 38 97
REMARK SMILES IDX 29 98 30 99 31 100 32 101 36 102 33 103 35 104 34 105
REMARK H PARENT 3 7 94 25 64 36 10 75 23 88
REMARK Flexibility Score: inf
ROOT
ATOM      1  C   UNL     1       4.321  -0.516   3.728  1.00  0.00     0.002 C 
ENDROOT
BRANCH   1   2
ATOM      2  C   UNL     1       4.767   0.291   2.507  1.00  0.00     0.021 C 
BRANCH   2   3
ATOM      3  C   UNL     1       4.526  -0.410   1.176  1.00  0.00     0.116 C 
BRANCH   3   4
ATOM      4  N   UNL     1       3.108  -0.608   0.920  1.00  0.00    -0.352 N 
ATOM      5  O   UNL     1       1.125  -0.222  -0.081  1.00  0.00    -0.269 OA
ATOM      6  C   UNL     1       2.351  -0.154  -0.130  1.00  0.00     0.251 C 
ATOM      7  H   UNL     1       2.626  -1.142   1.592  1.00  0.00     0.163 HD
BRANCH   6   8
ATOM      8  C   UNL     1       3.019   0.429  -1.311  1.00  0.00     0.039 A 
ATOM      9  C   UNL     1       4.130  -0.201  -1.880  1.00  0.00     0.014 A 
ATOM     10  C   UNL     1       2.520   1.611  -1.862  1.00  0.00     0.014 A 
ATOM     11  C   UNL     1       4.811   0.409  -2.928  1.00  0.00     0.010 A 
ATOM     12  C   UNL     1       3.158   2.181  -2.964  1.00  0.00     0.010 A 
ATOM     13  C   UNL     1       4.319   1.595  -3.494  1.00  0.00    -0.014 A 
BRANCH  13  14
ATOM     14  C   UNL     1       4.979   2.173  -4.691  1.00  0.00     0.031 A 
ATOM     15  C   UNL     1       5.627   3.526  -4.640  1.00  0.00     0.074 A 
ATOM     16  C   UNL     1       4.956   1.473  -5.841  1.00  0.00     0.049 A 
ATOM     17  N   UNL     1       6.191   4.204  -5.608  1.00  0.00    -0.248 NA
ATOM     18  C   UNL     1       5.634   4.213  -3.340  1.00  0.00     0.031 C 
ATOM     19  C   UNL     1       4.347   0.151  -6.010  1.00  0.00     0.029 A 
ATOM     20  N   UNL     1       5.444   1.776  -7.086  1.00  0.00    -0.354 N 
ATOM     21  C   UNL     1       6.597   5.407  -5.043  1.00  0.00     0.074 A 
ATOM     22  C   UNL     1       6.194   5.374  -3.652  1.00  0.00     0.031 C 
ATOM     23  C   UNL     1       4.506  -0.247  -7.280  1.00  0.00     0.029 A 
ATOM     24  C   UNL     1       5.166   0.816  -8.029  1.00  0.00     0.049 A 
ATOM     25  H   UNL     1       5.945   2.600  -7.285  1.00  0.00     0.167 HD
ATOM     26  C   UNL     1       7.243   6.442  -5.633  1.00  0.00     0.031 A 
ATOM     27  C   UNL     1       5.378   0.802  -9.359  1.00  0.00     0.031 A 
ATOM     28  C   UNL     1       7.620   6.467  -7.023  1.00  0.00     0.049 A 
ATOM     29  C   UNL     1       6.058   1.974 -10.001  1.00  0.00     0.074 A 
ATOM     30  C   UNL     1       8.315   7.449  -7.708  1.00  0.00     0.029 A 
ATOM     31  N   UNL     1       7.318   5.475  -7.946  1.00  0.00    -0.354 N 
ATOM     32  N   UNL     1       6.486   3.080  -9.441  1.00  0.00    -0.248 NA
ATOM     33  C   UNL     1       6.292   1.897 -11.448  1.00  0.00     0.031 C 
ATOM     34  C   UNL     1       8.373   7.082  -9.056  1.00  0.00     0.029 A 
ATOM     35  C   UNL     1       7.781   5.837  -9.201  1.00  0.00     0.049 A 
ATOM     36  H   UNL     1       6.844   4.637  -7.739  1.00  0.00     0.167 HD
ATOM     37  C   UNL     1       7.060   3.825 -10.464  1.00  0.00     0.074 A 
ATOM     38  C   UNL     1       6.932   3.038 -11.675  1.00  0.00     0.031 C 
ATOM     39  C   UNL     1       7.644   5.046 -10.400  1.00  0.00     0.031 A 
BRANCH  26  40
ATOM     40  C   UNL     1       7.534   7.655  -4.784  1.00  0.00    -0.014 A 
ATOM     41  C   UNL     1       8.465   7.611  -3.730  1.00  0.00     0.010 A 
ATOM     42  C   UNL     1       6.870   8.866  -5.054  1.00  0.00     0.010 A 
ATOM     43  C   UNL     1       8.675   8.733  -2.922  1.00  0.00     0.020 A 
ATOM     44  C   UNL     1       7.101  10.000  -4.270  1.00  0.00     0.020 A 
ATOM     45  C   UNL     1       7.982   9.917  -3.191  1.00  0.00     0.054 A 
BRANCH  45  46
ATOM     46  S   UNL     1       8.252  11.349  -2.110  1.00  0.00     0.124 S 
ATOM     47  O   UNL     1       7.556  10.940  -0.892  1.00  0.00    -0.237 OA
ATOM     48  O   UNL     1       9.709  11.406  -2.010  1.00  0.00    -0.237 OA
ATOM     49  O   UNL     1       7.637  12.456  -2.837  1.00  0.00    -0.744 OA
ENDBRANCH  45  46
ENDBRANCH  26  40
BRANCH  27  50
ATOM     50  C   UNL     1       4.903  -0.364 -10.150  1.00  0.00    -0.014 A 
ATOM     51  C   UNL     1       5.811  -1.300 -10.670  1.00  0.00     0.010 A 
ATOM     52  C   UNL     1       3.521  -0.589 -10.308  1.00  0.00     0.010 A 
ATOM     53  C   UNL     1       5.347  -2.444 -11.327  1.00  0.00     0.020 A 
ATOM     54  C   UNL     1       3.053  -1.744 -10.938  1.00  0.00     0.020 A 
ATOM     55  C   UNL     1       3.970  -2.664 -11.447  1.00  0.00     0.054 A 
BRANCH  55  56
ATOM     56  S   UNL     1       3.394  -4.202 -12.217  1.00  0.00     0.124 S 
ATOM     57  O   UNL     1       3.708  -3.974 -13.624  1.00  0.00    -0.237 OA
ATOM     58  O   UNL     1       4.205  -5.213 -11.543  1.00  0.00    -0.237 OA
ATOM     59  O   UNL     1       1.971  -4.237 -11.890  1.00  0.00    -0.744 OA
ENDBRANCH  55  56
ENDBRANCH  27  50
BRANCH  39  60
ATOM     60  C   UNL     1       8.229   5.607 -11.669  1.00  0.00    -0.014 A 
ATOM     61  C   UNL     1       7.409   6.108 -12.695  1.00  0.00     0.010 A 
ATOM     62  C   UNL     1       9.627   5.721 -11.791  1.00  0.00     0.010 A 
ATOM     63  C   UNL     1       7.977   6.707 -13.823  1.00  0.00     0.020 A 
ATOM     64  C   UNL     1      10.197   6.343 -12.904  1.00  0.00     0.020 A 
ATOM     65  C   UNL     1       9.368   6.828 -13.916  1.00  0.00     0.054 A 
BRANCH  65  66
ATOM     66  S   UNL     1      10.075   7.689 -15.347  1.00  0.00     0.124 S 
ATOM     67  O   UNL     1       9.855   6.725 -16.422  1.00  0.00    -0.237 OA
ATOM     68  O   UNL     1       9.270   8.905 -15.419  1.00  0.00    -0.237 OA
ATOM     69  O   UNL     1      11.473   7.895 -14.973  1.00  0.00    -0.744 OA
ENDBRANCH  65  66
ENDBRANCH  39  60
ENDBRANCH  13  14
ENDBRANCH   6   8
ENDBRANCH   3   4
ENDBRANCH   2   3
ENDBRANCH   1   2
BRANCH   1  70
ATOM     70  C   UNL     1       4.977  -1.895   3.859  1.00  0.00     0.002 C 
BRANCH  70  71
ATOM     71  C   UNL     1       6.512  -1.881   3.853  1.00  0.00     0.021 C 
BRANCH  71  72
ATOM     72  C   UNL     1       7.119  -1.027   4.965  1.00  0.00     0.116 C 
BRANCH  72  73
ATOM     73  N   UNL     1       6.837  -1.622   6.261  1.00  0.00    -0.356 N 
ATOM     74  C   UNL     1       7.670  -2.309   7.092  1.00  0.00     0.224 C 
ATOM     75  H   UNL     1       5.913  -1.513   6.583  1.00  0.00     0.163 HD
ATOM     76  O   UNL     1       7.170  -2.977   7.998  1.00  0.00    -0.275 OA
BRANCH  74  77
ATOM     77  C   UNL     1       9.172  -2.107   6.956  1.00  0.00     0.094 C 
ATOM     78  C   UNL     1       9.576  -0.838   7.759  1.00  0.00     0.002 C 
ATOM     79  C   UNL     1       9.996  -3.358   7.414  1.00  0.00     0.094 C 
ATOM     80  C   UNL     1       9.384  -1.067   9.268  1.00  0.00     0.005 C 
ATOM     81  C   UNL     1      11.070  -0.573   7.508  1.00  0.00     0.005 C 
ATOM     82  C   UNL     1      10.973  -2.874   8.526  1.00  0.00     0.002 C 
ATOM     83  C   UNL     1      10.139  -2.324   9.699  1.00  0.00     0.005 C 
ATOM     84  C   UNL     1      11.895  -1.767   7.991  1.00  0.00     0.005 C 
BRANCH  79  85
ATOM     85  C   UNL     1      10.653  -4.016   6.169  1.00  0.00     0.229 C 
ATOM     86  O   UNL     1      10.242  -3.760   5.030  1.00  0.00    -0.274 OA
ATOM     87  N   UNL     1      11.722  -4.862   6.252  1.00  0.00    -0.317 N 
ATOM     88  H   UNL     1      12.200  -5.020   5.405  1.00  0.00     0.170 HD
BRANCH  87  89
ATOM     89  C   UNL     1      12.229  -5.527   7.344  1.00  0.00     0.108 A 
ATOM     90  S   UNL     1      11.135  -6.291   8.396  1.00  0.00    -0.122 S 
ATOM     91  C   UNL     1      13.567  -5.741   7.670  1.00  0.00     0.078 A 
ATOM     92  C   UNL     1      12.360  -6.520   9.540  1.00  0.00     0.011 A 
ATOM     93  C   UNL     1      13.625  -6.315   9.011  1.00  0.00    -0.019 A 
ATOM     94  C   UNL     1      12.043  -6.917  10.947  1.00  0.00     0.047 C 
ATOM     95  C   UNL     1      14.834  -6.576   9.855  1.00  0.00     0.037 C 
ATOM     96  C   UNL     1      13.268  -6.715  11.846  1.00  0.00     0.006 C 
ATOM     97  C   UNL     1      14.522  -7.278  11.183  1.00  0.00     0.005 C 
BRANCH  91  98
ATOM     98  C   UNL     1      14.643  -5.221   6.792  1.00  0.00     0.257 C 
ATOM     99  O   UNL     1      14.385  -4.684   5.713  1.00  0.00    -0.269 OA
ATOM    100  N   UNL     1      15.950  -5.222   7.278  1.00  0.00    -0.339 N 
ATOM    101  C   UNL     1      16.722  -4.003   7.079  1.00  0.00     0.120 C 
ATOM    102  C   UNL     1      16.753  -6.435   7.202  1.00  0.00     0.120 C 
ATOM    103  C   UNL     1      17.768  -3.877   8.178  1.00  0.00     0.022 C 
ATOM    104  C   UNL     1      17.883  -6.413   8.238  1.00  0.00     0.022 C 
ATOM    105  C   UNL     1      18.678  -5.106   8.219  1.00  0.00     0.004 C 
ENDBRANCH  91  98
ENDBRANCH  87  89
ENDBRANCH  79  85
ENDBRANCH  74  77
ENDBRANCH  72  73
ENDBRANCH  71  72
ENDBRANCH  70  71
ENDBRANCH   1  70
TORSDOF 19
