REMARK SMILES COc1ncccc1C[C@H](C(=O)NCCCCCCNC(=O)c1ccc(-c2c3nc(c(-c4ccc(S(=O)(=O)[O-])cc4)c4ccc([nH]4)c(-c4ccc(S(=O)(=O)[O-])cc4)c4nc(c(-c5ccc(S(=O)(=O)[O-])cc5)c5ccc2[nH]5)C=C4)C=C3)cc1)c1ccc(F)cc1
REMARK SMILES IDX 16 1 15 2 14 3 13 4 11 5 12 6 10 8 9 9 8 10 3 11 4 12 5 13
REMARK SMILES IDX 7 14 6 15 2 16 1 17 83 18 84 19 89 20 85 21 88 22 86 23
REMARK SMILES IDX 87 24 17 25 18 26 19 27 20 28 21 29 22 31 23 32 24 33 82 34
REMARK SMILES IDX 25 35 81 36 26 37 27 38 28 39 75 40 29 41 80 42 74 43 76 44
REMARK SMILES IDX 30 45 79 46 73 47 72 48 31 50 61 51 42 52 60 53 43 54 46 55
REMARK SMILES IDX 59 56 77 57 44 58 45 59 58 61 78 62 47 63 32 64 33 65 41 66
REMARK SMILES IDX 34 67 40 68 35 69 36 70 37 71 38 72 39 73 62 74 63 75 71 76
REMARK SMILES IDX 64 77 70 78 65 79 66 80 67 81 68 82 69 83 48 84 49 85 57 86
REMARK SMILES IDX 50 87 56 88 51 89 52 90 53 91 54 92 55 93
REMARK H PARENT 13 7 20 30 76 49 46 60
REMARK Flexibility Score: inf
ROOT
ATOM      1  C   UNL     1       0.542  -3.643  -3.597  1.00  0.00     0.002 C 
ENDROOT
BRANCH   1   2
ATOM      2  C   UNL     1       0.383  -2.138  -3.406  1.00  0.00     0.021 C 
BRANCH   2   3
ATOM      3  C   UNL     1       0.921  -1.571  -2.104  1.00  0.00     0.116 C 
BRANCH   3   4
ATOM      4  N   UNL     1       2.324  -1.752  -1.898  1.00  0.00    -0.356 N 
ATOM      5  C   UNL     1       3.223  -0.894  -1.353  1.00  0.00     0.227 C 
ATOM      6  O   UNL     1       4.403  -1.251  -1.472  1.00  0.00    -0.274 OA
ATOM      7  H   UNL     1       2.689  -2.618  -2.193  1.00  0.00     0.163 HD
BRANCH   5   8
ATOM      8  C   UNL     1       2.848   0.482  -0.694  1.00  0.00     0.113 C 
BRANCH   8   9
ATOM      9  C   UNL     1       1.496   0.625   0.108  1.00  0.00     0.059 C 
BRANCH   9  10
ATOM     10  C   UNL     1       0.458   1.599  -0.453  1.00  0.00     0.015 A 
ATOM     11  C   UNL     1       0.539   2.978  -0.256  1.00  0.00     0.216 A 
ATOM     12  N   UNL     1      -0.287   3.896  -0.814  1.00  0.00    -0.222 NA
ATOM     13  C   UNL     1      -1.303   3.422  -1.566  1.00  0.00     0.115 A 
ATOM     14  C   UNL     1      -0.679   1.166  -1.147  1.00  0.00     0.011 A 
ATOM     15  C   UNL     1      -1.556   2.076  -1.734  1.00  0.00     0.021 A 
BRANCH  11  16
ATOM     16  O   UNL     1       1.283   3.424   0.807  1.00  0.00    -0.481 OA
ATOM     17  C   UNL     1       2.442   4.108   0.375  1.00  0.00     0.280 C 
ENDBRANCH  11  16
ENDBRANCH   9  10
ENDBRANCH   8   9
BRANCH   8  18
ATOM     18  C   UNL     1       4.009   0.841   0.261  1.00  0.00    -0.035 A 
ATOM     19  C   UNL     1       4.265   0.033   1.387  1.00  0.00     0.007 A 
ATOM     20  C   UNL     1       4.831   1.954   0.032  1.00  0.00     0.007 A 
ATOM     21  C   UNL     1       5.246   0.386   2.311  1.00  0.00     0.039 A 
ATOM     22  C   UNL     1       5.789   2.328   0.979  1.00  0.00     0.039 A 
ATOM     23  C   UNL     1       5.975   1.550   2.116  1.00  0.00     0.123 A 
ATOM     24  F   UNL     1       6.870   1.931   3.038  1.00  0.00    -0.207 F 
ENDBRANCH   8  18
ENDBRANCH   5   8
ENDBRANCH   3   4
ENDBRANCH   2   3
ENDBRANCH   1   2
BRANCH   1  25
ATOM     25  C   UNL     1      -0.052  -4.523  -2.495  1.00  0.00     0.002 C 
BRANCH  25  26
ATOM     26  C   UNL     1      -1.529  -4.285  -2.175  1.00  0.00     0.021 C 
BRANCH  26  27
ATOM     27  C   UNL     1      -2.473  -4.316  -3.373  1.00  0.00     0.116 C 
BRANCH  27  28
ATOM     28  N   UNL     1      -2.425  -5.578  -4.093  1.00  0.00    -0.352 N 
ATOM     29  C   UNL     1      -3.453  -6.413  -4.451  1.00  0.00     0.251 C 
ATOM     30  H   UNL     1      -1.526  -5.876  -4.364  1.00  0.00     0.163 HD
ATOM     31  O   UNL     1      -3.208  -7.524  -4.920  1.00  0.00    -0.269 OA
BRANCH  29  32
ATOM     32  C   UNL     1      -4.853  -5.986  -4.244  1.00  0.00     0.039 A 
ATOM     33  C   UNL     1      -5.749  -6.873  -3.645  1.00  0.00     0.014 A 
ATOM     34  C   UNL     1      -5.274  -4.709  -4.625  1.00  0.00     0.014 A 
ATOM     35  C   UNL     1      -7.051  -6.454  -3.364  1.00  0.00     0.010 A 
ATOM     36  C   UNL     1      -6.548  -4.269  -4.277  1.00  0.00     0.010 A 
ATOM     37  C   UNL     1      -7.450  -5.136  -3.641  1.00  0.00    -0.014 A 
BRANCH  37  38
ATOM     38  C   UNL     1      -8.798  -4.641  -3.258  1.00  0.00     0.031 A 
ATOM     39  C   UNL     1      -9.768  -4.188  -4.315  1.00  0.00     0.074 A 
ATOM     40  C   UNL     1      -9.123  -4.537  -1.954  1.00  0.00     0.049 A 
ATOM     41  N   UNL     1     -10.960  -3.667  -4.171  1.00  0.00    -0.248 NA
ATOM     42  C   UNL     1      -9.335  -4.315  -5.716  1.00  0.00     0.031 C 
ATOM     43  C   UNL     1      -8.257  -4.909  -0.832  1.00  0.00     0.029 A 
ATOM     44  N   UNL     1     -10.267  -4.079  -1.348  1.00  0.00    -0.354 N 
ATOM     45  C   UNL     1     -11.412  -3.393  -5.456  1.00  0.00     0.074 A 
ATOM     46  C   UNL     1     -10.346  -3.756  -6.364  1.00  0.00     0.031 C 
ATOM     47  C   UNL     1      -8.910  -4.692   0.321  1.00  0.00     0.029 A 
ATOM     48  C   UNL     1     -10.220  -4.119   0.026  1.00  0.00     0.049 A 
ATOM     49  H   UNL     1     -11.049  -3.754  -1.851  1.00  0.00     0.167 HD
ATOM     50  C   UNL     1     -12.612  -2.901  -5.847  1.00  0.00     0.031 A 
ATOM     51  C   UNL     1     -11.122  -3.728   0.948  1.00  0.00     0.031 A 
ATOM     52  C   UNL     1     -13.670  -2.545  -4.939  1.00  0.00     0.049 A 
ATOM     53  C   UNL     1     -12.436  -3.156   0.490  1.00  0.00     0.074 A 
ATOM     54  C   UNL     1     -14.941  -2.086  -5.239  1.00  0.00     0.029 A 
ATOM     55  N   UNL     1     -13.582  -2.599  -3.556  1.00  0.00    -0.354 N 
ATOM     56  N   UNL     1     -12.870  -2.967  -0.734  1.00  0.00    -0.248 NA
ATOM     57  C   UNL     1     -13.386  -2.754   1.536  1.00  0.00     0.031 C 
ATOM     58  C   UNL     1     -15.598  -1.802  -4.038  1.00  0.00     0.029 A 
ATOM     59  C   UNL     1     -14.763  -2.152  -2.988  1.00  0.00     0.049 A 
ATOM     60  H   UNL     1     -12.795  -2.909  -3.052  1.00  0.00     0.167 HD
ATOM     61  C   UNL     1     -14.155  -2.451  -0.603  1.00  0.00     0.074 A 
ATOM     62  C   UNL     1     -14.432  -2.373   0.816  1.00  0.00     0.031 C 
ATOM     63  C   UNL     1     -15.027  -2.078  -1.573  1.00  0.00     0.031 A 
BRANCH  50  64
ATOM     64  C   UNL     1     -12.841  -2.709  -7.324  1.00  0.00    -0.014 A 
ATOM     65  C   UNL     1     -12.954  -3.809  -8.194  1.00  0.00     0.010 A 
ATOM     66  C   UNL     1     -12.992  -1.410  -7.844  1.00  0.00     0.010 A 
ATOM     67  C   UNL     1     -13.168  -3.612  -9.561  1.00  0.00     0.020 A 
ATOM     68  C   UNL     1     -13.239  -1.210  -9.206  1.00  0.00     0.020 A 
ATOM     69  C   UNL     1     -13.309  -2.313 -10.058  1.00  0.00     0.054 A 
BRANCH  69  70
ATOM     70  S   UNL     1     -13.608  -2.091 -11.833  1.00  0.00     0.124 S 
ATOM     71  O   UNL     1     -12.314  -2.454 -12.404  1.00  0.00    -0.237 OA
ATOM     72  O   UNL     1     -14.695  -3.032 -12.093  1.00  0.00    -0.237 OA
ATOM     73  O   UNL     1     -13.966  -0.680 -11.951  1.00  0.00    -0.744 OA
ENDBRANCH  69  70
ENDBRANCH  50  64
BRANCH  51  74
ATOM     74  C   UNL     1     -10.813  -3.869   2.398  1.00  0.00    -0.014 A 
ATOM     75  C   UNL     1     -11.506  -4.800   3.192  1.00  0.00     0.010 A 
ATOM     76  C   UNL     1      -9.812  -3.077   2.993  1.00  0.00     0.010 A 
ATOM     77  C   UNL     1     -11.219  -4.923   4.554  1.00  0.00     0.020 A 
ATOM     78  C   UNL     1      -9.500  -3.220   4.347  1.00  0.00     0.020 A 
ATOM     79  C   UNL     1     -10.215  -4.135   5.123  1.00  0.00     0.054 A 
BRANCH  79  80
ATOM     80  S   UNL     1      -9.825  -4.349   6.882  1.00  0.00     0.124 S 
ATOM     81  O   UNL     1     -10.992  -3.754   7.526  1.00  0.00    -0.237 OA
ATOM     82  O   UNL     1      -9.705  -5.800   7.002  1.00  0.00    -0.237 OA
ATOM     83  O   UNL     1      -8.574  -3.612   7.046  1.00  0.00    -0.744 OA
ENDBRANCH  79  80
ENDBRANCH  51  74
BRANCH  63  84
ATOM     84  C   UNL     1     -16.382  -1.583  -1.139  1.00  0.00    -0.014 A 
ATOM     85  C   UNL     1     -16.540  -0.332  -0.517  1.00  0.00     0.010 A 
ATOM     86  C   UNL     1     -17.524  -2.357  -1.419  1.00  0.00     0.010 A 
ATOM     87  C   UNL     1     -17.812   0.124  -0.159  1.00  0.00     0.020 A 
ATOM     88  C   UNL     1     -18.799  -1.891  -1.092  1.00  0.00     0.020 A 
ATOM     89  C   UNL     1     -18.934  -0.658  -0.453  1.00  0.00     0.054 A 
BRANCH  89  90
ATOM     90  S   UNL     1     -20.577  -0.017  -0.029  1.00  0.00     0.124 S 
ATOM     91  O   UNL     1     -20.578  -0.125   1.428  1.00  0.00    -0.237 OA
ATOM     92  O   UNL     1     -20.535   1.343  -0.558  1.00  0.00    -0.237 OA
ATOM     93  O   UNL     1     -21.492  -0.922  -0.721  1.00  0.00    -0.744 OA
ENDBRANCH  89  90
ENDBRANCH  63  84
ENDBRANCH  37  38
ENDBRANCH  29  32
ENDBRANCH  27  28
ENDBRANCH  26  27
ENDBRANCH  25  26
ENDBRANCH   1  25
TORSDOF 20
