REMARK SMILES O=C(NCCCCCCNC(=O)[C@H](CO)NC(=O)[C@H](CS)NC(=O)[C@H](Cc1ccccc1)NC(=O)c1ccc(F)cc1)c1ccc(-c2c3nc(c(-c4ccc(S(=O)(=O)[O-])cc4)c4ccc([nH]4)c(-c4ccc(S(=O)(=O)[O-])cc4)c4nc(c(-c5ccc(S(=O)(=O)[O-])cc5)c5ccc2[nH]5)C=C4)C=C3)cc1
REMARK SMILES IDX 8 1 7 2 6 3 5 4 4 5 3 6 1 7 2 8 43 10 44 11 102 12 45 13
REMARK SMILES IDX 101 14 46 15 47 16 48 17 95 18 49 19 100 20 94 21 96 22
REMARK SMILES IDX 50 23 99 24 93 25 92 26 51 28 81 29 62 30 80 31 63 32 66 33
REMARK SMILES IDX 79 34 97 35 64 36 65 37 78 39 98 40 67 41 52 42 53 43 61 44
REMARK SMILES IDX 54 45 60 46 55 47 56 48 57 49 58 50 59 51 82 52 83 53 91 54
REMARK SMILES IDX 84 55 90 56 85 57 86 58 87 59 88 60 89 61 68 62 69 63 77 64
REMARK SMILES IDX 70 65 76 66 71 67 72 68 73 69 74 70 75 71 9 72 10 73 11 74
REMARK SMILES IDX 12 76 13 77 16 78 17 79 18 81 19 82 22 83 23 84 24 86 25 87
REMARK SMILES IDX 33 88 34 89 35 91 36 92 37 93 42 94 38 95 41 96 39 97 40 98
REMARK SMILES IDX 26 99 27 100 28 101 32 102 29 103 31 104 30 105 20 106
REMARK SMILES IDX 21 107 14 109 15 110
REMARK H PARENT 3 9 96 27 66 38 10 75 16 80 22 85 33 90 21 108 15 111
REMARK Flexibility Score: inf
ROOT
ATOM      1  C   UNL     1       7.476   9.749   4.560  1.00  0.00     0.021 C 
ENDROOT
BRANCH   1   2
ATOM      2  C   UNL     1       6.675   9.413   3.303  1.00  0.00     0.002 C 
BRANCH   2   3
ATOM      3  C   UNL     1       5.666   8.271   3.459  1.00  0.00     0.002 C 
BRANCH   3   4
ATOM      4  C   UNL     1       4.725   8.392   4.658  1.00  0.00     0.021 C 
BRANCH   4   5
ATOM      5  C   UNL     1       3.998   9.723   4.759  1.00  0.00     0.116 C 
BRANCH   5   6
ATOM      6  N   UNL     1       3.146   9.964   3.611  1.00  0.00    -0.352 N 
ATOM      7  O   UNL     1       1.180  10.228   2.539  1.00  0.00    -0.269 OA
ATOM      8  C   UNL     1       1.802  10.246   3.591  1.00  0.00     0.251 C 
ATOM      9  H   UNL     1       3.587   9.920   2.732  1.00  0.00     0.163 HD
BRANCH   8  10
ATOM     10  C   UNL     1       1.122  10.553   4.867  1.00  0.00     0.039 A 
ATOM     11  C   UNL     1       1.699  11.444   5.777  1.00  0.00     0.014 A 
ATOM     12  C   UNL     1      -0.098   9.939   5.153  1.00  0.00     0.014 A 
ATOM     13  C   UNL     1       1.111  11.639   7.019  1.00  0.00     0.010 A 
ATOM     14  C   UNL     1      -0.734  10.207   6.366  1.00  0.00     0.010 A 
ATOM     15  C   UNL     1      -0.130  11.052   7.311  1.00  0.00    -0.014 A 
BRANCH  15  16
ATOM     16  C   UNL     1      -0.839  11.431   8.557  1.00  0.00     0.031 A 
ATOM     17  C   UNL     1      -1.134  10.421   9.628  1.00  0.00     0.074 A 
ATOM     18  C   UNL     1      -1.231  12.713   8.695  1.00  0.00     0.049 A 
ATOM     19  N   UNL     1      -1.776  10.590  10.755  1.00  0.00    -0.248 NA
ATOM     20  C   UNL     1      -0.656   9.047   9.409  1.00  0.00     0.031 C 
ATOM     21  C   UNL     1      -1.004  13.775   7.708  1.00  0.00     0.029 A 
ATOM     22  N   UNL     1      -1.898  13.346   9.711  1.00  0.00    -0.354 N 
ATOM     23  C   UNL     1      -1.806   9.344  11.368  1.00  0.00     0.074 A 
ATOM     24  C   UNL     1      -1.126   8.423  10.482  1.00  0.00     0.031 C 
ATOM     25  C   UNL     1      -1.494  14.929   8.181  1.00  0.00     0.029 A 
ATOM     26  C   UNL     1      -2.137  14.677   9.463  1.00  0.00     0.049 A 
ATOM     27  H   UNL     1      -2.179  12.892  10.538  1.00  0.00     0.167 HD
ATOM     28  C   UNL     1      -2.354   9.005  12.560  1.00  0.00     0.031 A 
ATOM     29  C   UNL     1      -2.831  15.590  10.167  1.00  0.00     0.031 A 
ATOM     30  C   UNL     1      -3.030   9.936  13.428  1.00  0.00     0.049 A 
ATOM     31  C   UNL     1      -3.466  15.173  11.461  1.00  0.00     0.074 A 
ATOM     32  C   UNL     1      -3.571   9.703  14.681  1.00  0.00     0.029 A 
ATOM     33  N   UNL     1      -3.272  11.269  13.132  1.00  0.00    -0.354 N 
ATOM     34  N   UNL     1      -3.425  14.005  12.056  1.00  0.00    -0.248 NA
ATOM     35  C   UNL     1      -4.241  16.193  12.178  1.00  0.00     0.031 C 
ATOM     36  C   UNL     1      -4.202  10.874  15.110  1.00  0.00     0.029 A 
ATOM     37  C   UNL     1      -3.993  11.859  14.157  1.00  0.00     0.049 A 
ATOM     38  H   UNL     1      -2.976  11.729  12.313  1.00  0.00     0.167 HD
ATOM     39  C   UNL     1      -4.157  14.153  13.226  1.00  0.00     0.074 A 
ATOM     40  C   UNL     1      -4.607  15.530  13.267  1.00  0.00     0.031 C 
ATOM     41  C   UNL     1      -4.436  13.231  14.180  1.00  0.00     0.031 A 
BRANCH  28  42
ATOM     42  C   UNL     1      -2.287   7.562  12.989  1.00  0.00    -0.014 A 
ATOM     43  C   UNL     1      -1.078   6.973  13.400  1.00  0.00     0.010 A 
ATOM     44  C   UNL     1      -3.472   6.805  13.058  1.00  0.00     0.010 A 
ATOM     45  C   UNL     1      -1.052   5.647  13.844  1.00  0.00     0.020 A 
ATOM     46  C   UNL     1      -3.455   5.488  13.526  1.00  0.00     0.020 A 
ATOM     47  C   UNL     1      -2.241   4.913  13.905  1.00  0.00     0.054 A 
BRANCH  47  48
ATOM     48  S   UNL     1      -2.180   3.208  14.521  1.00  0.00     0.124 S 
ATOM     49  O   UNL     1      -1.498   2.517  13.429  1.00  0.00    -0.237 OA
ATOM     50  O   UNL     1      -1.410   3.341  15.755  1.00  0.00    -0.237 OA
ATOM     51  O   UNL     1      -3.585   2.852  14.702  1.00  0.00    -0.744 OA
ENDBRANCH  47  48
ENDBRANCH  28  42
BRANCH  29  52
ATOM     52  C   UNL     1      -2.994  16.969   9.632  1.00  0.00    -0.014 A 
ATOM     53  C   UNL     1      -2.393  18.066  10.272  1.00  0.00     0.010 A 
ATOM     54  C   UNL     1      -3.746  17.187   8.461  1.00  0.00     0.010 A 
ATOM     55  C   UNL     1      -2.561  19.357   9.764  1.00  0.00     0.020 A 
ATOM     56  C   UNL     1      -3.887  18.471   7.932  1.00  0.00     0.020 A 
ATOM     57  C   UNL     1      -3.307  19.551   8.597  1.00  0.00     0.054 A 
BRANCH  57  58
ATOM     58  S   UNL     1      -3.483  21.232   7.941  1.00  0.00     0.124 S 
ATOM     59  O   UNL     1      -4.409  21.834   8.895  1.00  0.00    -0.237 OA
ATOM     60  O   UNL     1      -2.112  21.734   7.986  1.00  0.00    -0.237 OA
ATOM     61  O   UNL     1      -4.017  21.020   6.597  1.00  0.00    -0.744 OA
ENDBRANCH  57  58
ENDBRANCH  29  52
BRANCH  41  62
ATOM     62  C   UNL     1      -5.247  13.685  15.363  1.00  0.00    -0.014 A 
ATOM     63  C   UNL     1      -6.621  13.957  15.240  1.00  0.00     0.010 A 
ATOM     64  C   UNL     1      -4.638  13.779  16.627  1.00  0.00     0.010 A 
ATOM     65  C   UNL     1      -7.367  14.334  16.359  1.00  0.00     0.020 A 
ATOM     66  C   UNL     1      -5.387  14.125  17.754  1.00  0.00     0.020 A 
ATOM     67  C   UNL     1      -6.746  14.410  17.610  1.00  0.00     0.054 A 
BRANCH  67  68
ATOM     68  S   UNL     1      -7.753  14.835  19.057  1.00  0.00     0.124 S 
ATOM     69  O   UNL     1      -8.017  16.255  18.838  1.00  0.00    -0.237 OA
ATOM     70  O   UNL     1      -8.907  13.952  18.914  1.00  0.00    -0.237 OA
ATOM     71  O   UNL     1      -6.880  14.532  20.189  1.00  0.00    -0.744 OA
ENDBRANCH  67  68
ENDBRANCH  41  62
ENDBRANCH  15  16
ENDBRANCH   8  10
ENDBRANCH   5   6
ENDBRANCH   4   5
ENDBRANCH   3   4
ENDBRANCH   2   3
ENDBRANCH   1   2
BRANCH   1  72
ATOM     72  C   UNL     1       8.157   8.558   5.210  1.00  0.00     0.116 C 
BRANCH  72  73
ATOM     73  N   UNL     1       9.184   8.002   4.362  1.00  0.00    -0.354 N 
ATOM     74  C   UNL     1      10.452   7.648   4.688  1.00  0.00     0.244 C 
ATOM     75  H   UNL     1       8.931   7.862   3.421  1.00  0.00     0.163 HD
ATOM     76  O   UNL     1      11.224   7.381   3.762  1.00  0.00    -0.273 OA
BRANCH  74  77
ATOM     77  C   UNL     1      10.962   7.739   6.136  1.00  0.00     0.197 C 
BRANCH  77  78
ATOM     78  N   UNL     1      11.348   9.126   6.377  1.00  0.00    -0.340 N 
ATOM     79  C   UNL     1      12.565   9.734   6.296  1.00  0.00     0.244 C 
ATOM     80  H   UNL     1      10.609   9.720   6.641  1.00  0.00     0.164 HD
ATOM     81  O   UNL     1      12.551  10.967   6.352  1.00  0.00    -0.273 OA
BRANCH  79  82
ATOM     82  C   UNL     1      13.873   8.922   6.439  1.00  0.00     0.181 C 
BRANCH  82  83
ATOM     83  N   UNL     1      13.977   7.697   5.624  1.00  0.00    -0.342 N 
ATOM     84  C   UNL     1      14.432   6.442   5.905  1.00  0.00     0.243 C 
ATOM     85  H   UNL     1      13.658   7.806   4.699  1.00  0.00     0.164 HD
ATOM     86  O   UNL     1      15.048   5.879   4.994  1.00  0.00    -0.273 OA
BRANCH  84  87
ATOM     87  C   UNL     1      14.102   5.663   7.215  1.00  0.00     0.176 C 
BRANCH  87  88
ATOM     88  N   UNL     1      13.726   6.521   8.348  1.00  0.00    -0.340 N 
ATOM     89  C   UNL     1      14.460   7.080   9.355  1.00  0.00     0.251 C 
ATOM     90  H   UNL     1      12.765   6.733   8.388  1.00  0.00     0.164 HD
ATOM     91  O   UNL     1      13.869   7.742  10.205  1.00  0.00    -0.269 OA
BRANCH  89  92
ATOM     92  C   UNL     1      15.926   6.919   9.445  1.00  0.00     0.040 A 
ATOM     93  C   UNL     1      16.475   6.752  10.723  1.00  0.00     0.017 A 
ATOM     94  C   UNL     1      16.771   6.999   8.333  1.00  0.00     0.017 A 
ATOM     95  C   UNL     1      17.854   6.607  10.876  1.00  0.00     0.040 A 
ATOM     96  C   UNL     1      18.148   6.846   8.487  1.00  0.00     0.040 A 
ATOM     97  C   UNL     1      18.676   6.643   9.755  1.00  0.00     0.123 A 
ATOM     98  F   UNL     1      19.998   6.492   9.899  1.00  0.00    -0.207 F 
ENDBRANCH  89  92
ENDBRANCH  87  88
BRANCH  87  99
ATOM     99  C   UNL     1      13.012   4.561   7.070  1.00  0.00     0.070 C 
BRANCH  99 100
ATOM    100  C   UNL     1      12.852   3.750   5.807  1.00  0.00    -0.045 A 
ATOM    101  C   UNL     1      12.962   2.353   5.831  1.00  0.00     0.004 A 
ATOM    102  C   UNL     1      12.457   4.353   4.606  1.00  0.00     0.004 A 
ATOM    103  C   UNL     1      12.716   1.596   4.680  1.00  0.00     0.000 A 
ATOM    104  C   UNL     1      12.220   3.603   3.454  1.00  0.00     0.000 A 
ATOM    105  C   UNL     1      12.352   2.222   3.490  1.00  0.00     0.000 A 
ENDBRANCH  99 100
ENDBRANCH  87  99
ENDBRANCH  84  87
ENDBRANCH  82  83
BRANCH  82 106
ATOM    106  C   UNL     1      15.111   9.835   6.241  1.00  0.00     0.101 C 
BRANCH 106 107
ATOM    107  S   UNL     1      15.713   9.932   4.517  1.00  0.00    -0.177 SA
ATOM    108  H   UNL     1      16.118   8.700   4.108  1.00  0.00     0.102 HD
ENDBRANCH 106 107
ENDBRANCH  82 106
ENDBRANCH  79  82
ENDBRANCH  77  78
BRANCH  77 109
ATOM    109  C   UNL     1      10.057   7.142   7.224  1.00  0.00     0.191 C 
BRANCH 109 110
ATOM    110  O   UNL     1       9.500   8.132   8.086  1.00  0.00    -0.394 OA
ATOM    111  H   UNL     1      10.214   8.598   8.548  1.00  0.00     0.210 HD
ENDBRANCH 109 110
ENDBRANCH  77 109
ENDBRANCH  74  77
ENDBRANCH  72  73
ENDBRANCH   1  72
TORSDOF 28
