REMARK SMILES Cc1cccc(-n2ncc(C(=O)Nc3cccc(C(=O)NCCCCCCNC(=O)c4ccc(-c5c6nc(c(-c7ccc(S(=O)(=O)[O-])cc7)c7ccc([nH]7)c(-c7ccc(S(=O)(=O)[O-])cc7)c7nc(c(-c8ccc(S(=O)(=O)[O-])cc8)c8ccc5[nH]8)C=C7)C=C6)cc4)c3C)c2C)c1
REMARK SMILES IDX 24 1 23 2 22 3 21 4 19 5 20 6 18 8 14 9 15 10 91 11 16 12
REMARK SMILES IDX 92 13 17 14 13 15 11 16 12 17 10 19 7 20 8 21 93 22 9 23
REMARK SMILES IDX 94 24 6 25 1 26 2 27 3 28 95 29 4 30 5 31 25 32 26 33 27 34
REMARK SMILES IDX 28 35 29 36 30 38 31 39 32 40 90 41 33 42 89 43 34 44 35 45
REMARK SMILES IDX 36 46 83 47 37 48 88 49 82 50 84 51 38 52 87 53 81 54 80 55
REMARK SMILES IDX 39 57 69 58 50 59 68 60 51 61 54 62 67 63 85 64 52 65 53 66
REMARK SMILES IDX 66 68 86 69 55 70 40 71 41 72 49 73 42 74 48 75 43 76 44 77
REMARK SMILES IDX 45 78 46 79 47 80 70 81 71 82 79 83 72 84 78 85 73 86 74 87
REMARK SMILES IDX 75 88 76 89 77 90 56 91 57 92 65 93 58 94 64 95 59 96 60 97
REMARK SMILES IDX 61 98 62 99 63 100
REMARK H PARENT 21 7 13 18 28 37 84 56 54 67
REMARK Flexibility Score: inf
ROOT
ATOM      1  C   UNL     1      -0.829  11.837  -4.830  1.00  0.00     0.002 C 
ENDROOT
BRANCH   1   2
ATOM      2  C   UNL     1      -1.947  10.755  -4.759  1.00  0.00     0.021 C 
BRANCH   2   3
ATOM      3  C   UNL     1      -1.679   9.535  -3.940  1.00  0.00     0.116 C 
BRANCH   3   4
ATOM      4  N   UNL     1      -1.498   9.863  -2.548  1.00  0.00    -0.352 N 
ATOM      5  C   UNL     1      -1.982   9.308  -1.399  1.00  0.00     0.251 C 
ATOM      6  O   UNL     1      -1.611   9.825  -0.344  1.00  0.00    -0.269 OA
ATOM      7  H   UNL     1      -0.911  10.638  -2.396  1.00  0.00     0.163 HD
BRANCH   5   8
ATOM      8  C   UNL     1      -2.893   8.113  -1.381  1.00  0.00     0.044 A 
ATOM      9  C   UNL     1      -4.287   6.556  -0.172  1.00  0.00     0.045 A 
ATOM     10  C   UNL     1      -4.400   5.739  -1.301  1.00  0.00     0.026 A 
ATOM     11  C   UNL     1      -3.686   7.830  -0.241  1.00  0.00    -0.015 A 
ATOM     12  C   UNL     1      -3.685   6.050  -2.439  1.00  0.00     0.003 A 
ATOM     13  C   UNL     1      -3.754   8.754   0.950  1.00  0.00     0.047 C 
ATOM     14  C   UNL     1      -2.854   7.165  -2.422  1.00  0.00     0.014 A 
BRANCH   9  15
ATOM     15  N   UNL     1      -4.614   6.014   1.079  1.00  0.00    -0.322 N 
ATOM     16  C   UNL     1      -4.217   4.788   1.587  1.00  0.00     0.259 C 
ATOM     17  O   UNL     1      -4.760   4.396   2.623  1.00  0.00    -0.269 OA
ATOM     18  H   UNL     1      -5.188   6.564   1.659  1.00  0.00     0.170 HD
BRANCH  16  19
ATOM     19  C   UNL     1      -3.111   4.035   0.973  1.00  0.00     0.081 A 
ATOM     20  N   UNL     1      -1.696   2.394   0.414  1.00  0.00    -0.237 N 
ATOM     21  N   UNL     1      -1.169   3.509  -0.137  1.00  0.00    -0.175 NA
ATOM     22  C   UNL     1      -2.786   2.701   1.220  1.00  0.00     0.054 A 
ATOM     23  C   UNL     1      -2.029   4.473   0.177  1.00  0.00     0.149 A 
ATOM     24  C   UNL     1      -3.345   1.800   2.263  1.00  0.00     0.068 C 
BRANCH  20  25
ATOM     25  C   UNL     1      -1.052   1.146   0.201  1.00  0.00     0.065 A 
ATOM     26  C   UNL     1       2.528  -0.099  -0.149  1.00  0.00     0.044 C 
ATOM     27  C   UNL     1       1.031  -0.080  -0.074  1.00  0.00    -0.049 A 
ATOM     28  C   UNL     1       0.308  -1.279  -0.047  1.00  0.00     0.003 A 
ATOM     29  C   UNL     1       0.339   1.133   0.011  1.00  0.00     0.031 A 
ATOM     30  C   UNL     1      -1.084  -1.266   0.068  1.00  0.00     0.002 A 
ATOM     31  C   UNL     1      -1.767  -0.055   0.199  1.00  0.00     0.028 A 
ENDBRANCH  20  25
ENDBRANCH  16  19
ENDBRANCH   9  15
ENDBRANCH   5   8
ENDBRANCH   3   4
ENDBRANCH   2   3
ENDBRANCH   1   2
BRANCH   1  32
ATOM     32  C   UNL     1       0.694  11.612  -5.210  1.00  0.00     0.002 C 
BRANCH  32  33
ATOM     33  C   UNL     1       1.414  11.273  -6.638  1.00  0.00     0.021 C 
BRANCH  33  34
ATOM     34  C   UNL     1       1.534  12.380  -7.803  1.00  0.00     0.116 C 
BRANCH  34  35
ATOM     35  N   UNL     1       2.061  12.075  -9.277  1.00  0.00    -0.352 N 
ATOM     36  C   UNL     1       1.711  12.517 -10.625  1.00  0.00     0.251 C 
ATOM     37  H   UNL     1       2.806  11.431  -9.278  1.00  0.00     0.163 HD
ATOM     38  O   UNL     1       2.542  13.288 -11.137  1.00  0.00    -0.269 OA
BRANCH  36  39
ATOM     39  C   UNL     1       0.533  12.101 -11.624  1.00  0.00     0.039 A 
ATOM     40  C   UNL     1      -0.053  13.059 -12.507  1.00  0.00     0.014 A 
ATOM     41  C   UNL     1      -0.126  10.877 -11.669  1.00  0.00     0.014 A 
ATOM     42  C   UNL     1      -1.459  12.977 -12.887  1.00  0.00     0.010 A 
ATOM     43  C   UNL     1      -1.526  10.809 -11.983  1.00  0.00     0.010 A 
ATOM     44  C   UNL     1      -2.262  11.931 -12.394  1.00  0.00    -0.014 A 
BRANCH  44  45
ATOM     45  C   UNL     1      -3.747  12.060 -12.038  1.00  0.00     0.031 A 
ATOM     46  C   UNL     1      -4.794  11.453 -12.856  1.00  0.00     0.074 A 
ATOM     47  C   UNL     1      -4.308  12.572 -10.897  1.00  0.00     0.049 A 
ATOM     48  N   UNL     1      -5.895  12.038 -13.209  1.00  0.00    -0.248 NA
ATOM     49  C   UNL     1      -4.704  10.055 -13.226  1.00  0.00     0.031 C 
ATOM     50  C   UNL     1      -5.680  12.607 -10.350  1.00  0.00     0.029 A 
ATOM     51  N   UNL     1      -3.663  13.190  -9.856  1.00  0.00    -0.354 N 
ATOM     52  C   UNL     1      -6.776  11.016 -13.496  1.00  0.00     0.074 A 
ATOM     53  C   UNL     1      -5.934   9.850 -13.702  1.00  0.00     0.031 C 
ATOM     54  C   UNL     1      -5.752  13.504  -9.337  1.00  0.00     0.029 A 
ATOM     55  C   UNL     1      -4.454  14.133  -9.210  1.00  0.00     0.049 A 
ATOM     56  H   UNL     1      -2.736  12.986  -9.593  1.00  0.00     0.167 HD
ATOM     57  C   UNL     1      -8.123  11.139 -13.269  1.00  0.00     0.031 A 
ATOM     58  C   UNL     1      -4.095  15.457  -9.275  1.00  0.00     0.031 A 
ATOM     59  C   UNL     1      -8.477  12.383 -12.547  1.00  0.00     0.049 A 
ATOM     60  C   UNL     1      -5.035  16.186 -10.197  1.00  0.00     0.074 A 
ATOM     61  C   UNL     1      -9.037  12.634 -11.299  1.00  0.00     0.029 A 
ATOM     62  N   UNL     1      -7.989  13.616 -12.978  1.00  0.00    -0.354 N 
ATOM     63  N   UNL     1      -6.110  15.640 -10.684  1.00  0.00    -0.248 NA
ATOM     64  C   UNL     1      -4.839  17.538 -10.705  1.00  0.00     0.031 C 
ATOM     65  C   UNL     1      -8.843  14.011 -10.977  1.00  0.00     0.029 A 
ATOM     66  C   UNL     1      -8.203  14.618 -12.041  1.00  0.00     0.049 A 
ATOM     67  H   UNL     1      -7.544  13.758 -13.845  1.00  0.00     0.167 HD
ATOM     68  C   UNL     1      -6.689  16.444 -11.614  1.00  0.00     0.074 A 
ATOM     69  C   UNL     1      -5.872  17.649 -11.564  1.00  0.00     0.031 C 
ATOM     70  C   UNL     1      -7.767  15.995 -12.328  1.00  0.00     0.031 A 
BRANCH  57  71
ATOM     71  C   UNL     1      -9.084   9.961 -13.438  1.00  0.00    -0.014 A 
ATOM     72  C   UNL     1     -10.360   9.952 -12.840  1.00  0.00     0.010 A 
ATOM     73  C   UNL     1      -8.784   8.827 -14.223  1.00  0.00     0.010 A 
ATOM     74  C   UNL     1     -11.229   8.845 -12.940  1.00  0.00     0.020 A 
ATOM     75  C   UNL     1      -9.602   7.689 -14.276  1.00  0.00     0.020 A 
ATOM     76  C   UNL     1     -10.831   7.707 -13.638  1.00  0.00     0.054 A 
BRANCH  76  77
ATOM     77  S   UNL     1     -11.947   6.286 -13.774  1.00  0.00     0.124 S 
ATOM     78  O   UNL     1     -12.219   5.955 -12.378  1.00  0.00    -0.237 OA
ATOM     79  O   UNL     1     -13.071   6.843 -14.522  1.00  0.00    -0.237 OA
ATOM     80  O   UNL     1     -11.158   5.290 -14.499  1.00  0.00    -0.744 OA
ENDBRANCH  76  77
ENDBRANCH  57  71
BRANCH  58  81
ATOM     81  C   UNL     1      -2.582  15.739  -9.137  1.00  0.00    -0.014 A 
ATOM     82  C   UNL     1      -2.066  15.454  -7.860  1.00  0.00     0.010 A 
ATOM     83  C   UNL     1      -1.819  15.243 -10.185  1.00  0.00     0.010 A 
ATOM     84  C   UNL     1      -1.432  14.220  -7.639  1.00  0.00     0.020 A 
ATOM     85  C   UNL     1      -1.243  13.985  -9.938  1.00  0.00     0.020 A 
ATOM     86  C   UNL     1      -1.226  13.372  -8.711  1.00  0.00     0.054 A 
BRANCH  86  87
ATOM     87  S   UNL     1      -1.373  11.435  -8.579  1.00  0.00     0.124 S 
ATOM     88  O   UNL     1      -1.384  11.293  -7.167  1.00  0.00    -0.237 OA
ATOM     89  O   UNL     1      -2.641  11.061  -9.184  1.00  0.00    -0.237 OA
ATOM     90  O   UNL     1      -0.207  10.809  -9.162  1.00  0.00    -0.744 OA
ENDBRANCH  86  87
ENDBRANCH  58  81
BRANCH  70  91
ATOM     91  C   UNL     1      -8.548  16.770 -13.366  1.00  0.00    -0.014 A 
ATOM     92  C   UNL     1      -8.443  18.147 -13.592  1.00  0.00     0.010 A 
ATOM     93  C   UNL     1      -9.516  16.079 -14.138  1.00  0.00     0.010 A 
ATOM     94  C   UNL     1      -9.206  18.785 -14.581  1.00  0.00     0.020 A 
ATOM     95  C   UNL     1     -10.283  16.698 -15.123  1.00  0.00     0.020 A 
ATOM     96  C   UNL     1     -10.113  18.054 -15.347  1.00  0.00     0.054 A 
BRANCH  96  97
ATOM     97  S   UNL     1     -11.081  18.903 -16.611  1.00  0.00     0.124 S 
ATOM     98  O   UNL     1     -11.812  19.894 -15.826  1.00  0.00    -0.237 OA
ATOM     99  O   UNL     1     -10.041  19.439 -17.485  1.00  0.00    -0.237 OA
ATOM    100  O   UNL     1     -11.901  17.846 -17.198  1.00  0.00    -0.744 OA
ENDBRANCH  96  97
ENDBRANCH  70  91
ENDBRANCH  44  45
ENDBRANCH  36  39
ENDBRANCH  34  35
ENDBRANCH  33  34
ENDBRANCH  32  33
ENDBRANCH   1  32
TORSDOF 19
