REMARK SMILES Cc1n[nH]c(C(=O)N[C@H]2CC[C@@H](C(=O)NCCCCCCNC(=O)c3ccc(-c4c5nc(c(-c6ccc(S(=O)(=O)[O-])cc6)c6ccc([nH]6)c(-c6ccc(S(=O)(=O)[O-])cc6)c6nc(c(-c7ccc(S(=O)(=O)[O-])cc7)c7ccc4[nH]7)C=C6)C=C5)cc3)C2)n1
REMARK SMILES IDX 19 1 18 2 17 3 16 4 15 5 13 6 14 7 12 9 9 10 10 11 85 12
REMARK SMILES IDX 11 13 8 14 6 15 7 16 5 18 1 19 2 20 3 21 86 22 4 23 20 25
REMARK SMILES IDX 21 26 22 27 23 28 24 30 25 31 26 32 84 33 27 34 83 35 28 36
REMARK SMILES IDX 29 37 30 38 77 39 31 40 82 41 76 42 78 43 32 44 81 45 75 46
REMARK SMILES IDX 74 47 33 49 63 50 44 51 62 52 45 53 48 54 61 55 79 56 46 57
REMARK SMILES IDX 47 58 60 60 80 61 49 62 34 63 35 64 43 65 36 66 42 67 37 68
REMARK SMILES IDX 38 69 39 70 40 71 41 72 64 73 65 74 73 75 66 76 72 77 67 78
REMARK SMILES IDX 68 79 69 80 70 81 71 82 50 83 51 84 59 85 52 86 58 87 53 88
REMARK SMILES IDX 54 89 55 90 56 91 57 92
REMARK H PARENT 15 8 8 17 4 24 22 29 78 48 48 59
REMARK Flexibility Score: inf
ROOT
ATOM      1  C   UNL     1      -5.301   9.658  -2.639  1.00  0.00     0.002 C 
ENDROOT
BRANCH   1   2
ATOM      2  C   UNL     1      -5.048   9.680  -4.153  1.00  0.00     0.002 C 
BRANCH   2   3
ATOM      3  C   UNL     1      -3.607   9.490  -4.640  1.00  0.00     0.021 C 
BRANCH   3   4
ATOM      4  C   UNL     1      -2.862   8.259  -4.135  1.00  0.00     0.116 C 
BRANCH   4   5
ATOM      5  N   UNL     1      -3.526   7.002  -4.400  1.00  0.00    -0.356 N 
ATOM      6  C   UNL     1      -3.052   5.732  -4.484  1.00  0.00     0.223 C 
ATOM      7  O   UNL     1      -3.907   4.844  -4.569  1.00  0.00    -0.275 OA
ATOM      8  H   UNL     1      -4.497   7.081  -4.545  1.00  0.00     0.163 HD
BRANCH   6   9
ATOM      9  C   UNL     1      -1.554   5.396  -4.590  1.00  0.00     0.080 C 
ATOM     10  C   UNL     1      -0.679   5.244  -2.343  1.00  0.00     0.083 C 
ATOM     11  C   UNL     1      -0.733   3.810  -2.874  1.00  0.00     0.026 C 
ATOM     12  C   UNL     1      -0.577   6.060  -3.624  1.00  0.00     0.038 C 
ATOM     13  C   UNL     1      -1.312   3.896  -4.295  1.00  0.00     0.015 C 
BRANCH  10  14
ATOM     14  N   UNL     1      -1.860   5.577  -1.561  1.00  0.00    -0.347 N 
ATOM     15  C   UNL     1      -2.213   6.672  -0.801  1.00  0.00     0.288 C 
ATOM     16  O   UNL     1      -3.321   6.591  -0.264  1.00  0.00    -0.266 OA
ATOM     17  H   UNL     1      -2.550   4.875  -1.578  1.00  0.00     0.164 HD
BRANCH  15  18
ATOM     18  C   UNL     1      -1.371   7.851  -0.685  1.00  0.00     0.214 A 
ATOM     19  C   UNL     1      -0.829  11.288   0.026  1.00  0.00     0.092 C 
ATOM     20  C   UNL     1      -0.757   9.862  -0.351  1.00  0.00     0.148 A 
ATOM     21  N   UNL     1       0.328   9.307  -0.896  1.00  0.00    -0.159 NA
ATOM     22  N   UNL     1      -1.807   9.001  -0.189  1.00  0.00    -0.207 NA
ATOM     23  N   UNL     1      -0.076   8.040  -1.069  1.00  0.00    -0.255 N 
ATOM     24  H   UNL     1       0.497   7.327  -1.433  1.00  0.00     0.192 HD
ENDBRANCH  15  18
ENDBRANCH  10  14
ENDBRANCH   6   9
ENDBRANCH   4   5
ENDBRANCH   3   4
ENDBRANCH   2   3
ENDBRANCH   1   2
BRANCH   1  25
ATOM     25  C   UNL     1      -4.471  10.605  -1.765  1.00  0.00     0.021 C 
BRANCH  25  26
ATOM     26  C   UNL     1      -4.558  12.077  -2.131  1.00  0.00     0.116 C 
BRANCH  26  27
ATOM     27  N   UNL     1      -5.893  12.657  -1.959  1.00  0.00    -0.352 N 
ATOM     28  C   UNL     1      -6.294  13.956  -2.217  1.00  0.00     0.251 C 
ATOM     29  H   UNL     1      -6.588  12.049  -1.619  1.00  0.00     0.163 HD
ATOM     30  O   UNL     1      -7.306  14.422  -1.687  1.00  0.00    -0.269 OA
BRANCH  28  31
ATOM     31  C   UNL     1      -5.501  14.775  -3.151  1.00  0.00     0.039 A 
ATOM     32  C   UNL     1      -5.287  16.146  -2.968  1.00  0.00     0.014 A 
ATOM     33  C   UNL     1      -4.938  14.115  -4.236  1.00  0.00     0.014 A 
ATOM     34  C   UNL     1      -4.440  16.820  -3.852  1.00  0.00     0.010 A 
ATOM     35  C   UNL     1      -3.947  14.717  -4.956  1.00  0.00     0.010 A 
ATOM     36  C   UNL     1      -3.765  16.088  -4.839  1.00  0.00    -0.014 A 
BRANCH  36  37
ATOM     37  C   UNL     1      -2.757  16.680  -5.713  1.00  0.00     0.031 A 
ATOM     38  C   UNL     1      -1.594  17.252  -4.982  1.00  0.00     0.074 A 
ATOM     39  C   UNL     1      -2.754  16.431  -7.045  1.00  0.00     0.049 A 
ATOM     40  N   UNL     1      -1.221  18.486  -4.922  1.00  0.00    -0.248 NA
ATOM     41  C   UNL     1      -0.849  16.364  -4.066  1.00  0.00     0.031 C 
ATOM     42  C   UNL     1      -3.693  15.589  -7.805  1.00  0.00     0.029 A 
ATOM     43  N   UNL     1      -1.828  16.745  -7.990  1.00  0.00    -0.354 N 
ATOM     44  C   UNL     1      -0.047  18.487  -4.173  1.00  0.00     0.074 A 
ATOM     45  C   UNL     1      -0.009  17.222  -3.487  1.00  0.00     0.031 C 
ATOM     46  C   UNL     1      -3.148  15.252  -8.994  1.00  0.00     0.029 A 
ATOM     47  C   UNL     1      -1.907  15.985  -9.158  1.00  0.00     0.049 A 
ATOM     48  H   UNL     1      -1.155  17.451  -7.860  1.00  0.00     0.167 HD
ATOM     49  C   UNL     1       0.951  19.382  -4.422  1.00  0.00     0.031 A 
ATOM     50  C   UNL     1      -1.001  15.932 -10.171  1.00  0.00     0.031 A 
ATOM     51  C   UNL     1       0.486  20.468  -5.250  1.00  0.00     0.049 A 
ATOM     52  C   UNL     1      -0.158  17.145 -10.044  1.00  0.00     0.074 A 
ATOM     53  C   UNL     1      -0.500  21.426  -5.137  1.00  0.00     0.029 A 
ATOM     54  N   UNL     1       0.803  20.401  -6.587  1.00  0.00    -0.354 N 
ATOM     55  N   UNL     1      -0.622  18.356 -10.184  1.00  0.00    -0.248 NA
ATOM     56  C   UNL     1       1.075  17.032  -9.281  1.00  0.00     0.031 C 
ATOM     57  C   UNL     1      -1.051  21.540  -6.448  1.00  0.00     0.029 A 
ATOM     58  C   UNL     1      -0.320  20.715  -7.306  1.00  0.00     0.049 A 
ATOM     59  H   UNL     1       1.683  20.168  -6.962  1.00  0.00     0.167 HD
ATOM     60  C   UNL     1      -0.011  19.086  -9.174  1.00  0.00     0.074 A 
ATOM     61  C   UNL     1       1.093  18.241  -8.713  1.00  0.00     0.031 C 
ATOM     62  C   UNL     1      -0.630  20.167  -8.611  1.00  0.00     0.031 A 
BRANCH  49  63
ATOM     63  C   UNL     1       2.422  19.041  -4.313  1.00  0.00    -0.014 A 
ATOM     64  C   UNL     1       3.370  20.044  -4.606  1.00  0.00     0.010 A 
ATOM     65  C   UNL     1       2.906  17.720  -4.217  1.00  0.00     0.010 A 
ATOM     66  C   UNL     1       4.709  19.725  -4.874  1.00  0.00     0.020 A 
ATOM     67  C   UNL     1       4.246  17.397  -4.437  1.00  0.00     0.020 A 
ATOM     68  C   UNL     1       5.133  18.399  -4.801  1.00  0.00     0.054 A 
BRANCH  68  69
ATOM     69  S   UNL     1       6.834  17.982  -5.251  1.00  0.00     0.124 S 
ATOM     70  O   UNL     1       6.855  18.306  -6.674  1.00  0.00    -0.237 OA
ATOM     71  O   UNL     1       7.606  18.867  -4.385  1.00  0.00    -0.237 OA
ATOM     72  O   UNL     1       6.933  16.560  -4.930  1.00  0.00    -0.744 OA
ENDBRANCH  68  69
ENDBRANCH  49  63
BRANCH  50  73
ATOM     73  C   UNL     1      -0.613  14.765 -11.015  1.00  0.00    -0.014 A 
ATOM     74  C   UNL     1       0.180  14.922 -12.171  1.00  0.00     0.010 A 
ATOM     75  C   UNL     1      -0.784  13.454 -10.524  1.00  0.00     0.010 A 
ATOM     76  C   UNL     1       0.824  13.820 -12.772  1.00  0.00     0.020 A 
ATOM     77  C   UNL     1      -0.151  12.353 -11.119  1.00  0.00     0.020 A 
ATOM     78  C   UNL     1       0.670  12.543 -12.227  1.00  0.00     0.054 A 
BRANCH  78  79
ATOM     79  S   UNL     1       1.640  11.151 -12.889  1.00  0.00     0.124 S 
ATOM     80  O   UNL     1       1.021  10.929 -14.193  1.00  0.00    -0.237 OA
ATOM     81  O   UNL     1       2.997  11.691 -12.917  1.00  0.00    -0.237 OA
ATOM     82  O   UNL     1       1.423  10.085 -11.912  1.00  0.00    -0.744 OA
ENDBRANCH  78  79
ENDBRANCH  50  73
BRANCH  62  83
ATOM     83  C   UNL     1      -1.873  20.717  -9.279  1.00  0.00    -0.014 A 
ATOM     84  C   UNL     1      -3.094  20.017  -9.371  1.00  0.00     0.010 A 
ATOM     85  C   UNL     1      -1.849  22.069  -9.658  1.00  0.00     0.010 A 
ATOM     86  C   UNL     1      -4.256  20.659  -9.835  1.00  0.00     0.020 A 
ATOM     87  C   UNL     1      -3.003  22.717 -10.104  1.00  0.00     0.020 A 
ATOM     88  C   UNL     1      -4.202  22.009 -10.194  1.00  0.00     0.054 A 
BRANCH  88  89
ATOM     89  S   UNL     1      -5.716  22.862 -10.722  1.00  0.00     0.124 S 
ATOM     90  O   UNL     1      -5.996  22.242 -12.014  1.00  0.00    -0.237 OA
ATOM     91  O   UNL     1      -6.660  22.543  -9.653  1.00  0.00    -0.237 OA
ATOM     92  O   UNL     1      -5.320  24.269 -10.785  1.00  0.00    -0.744 OA
ENDBRANCH  88  89
ENDBRANCH  62  83
ENDBRANCH  36  37
ENDBRANCH  28  31
ENDBRANCH  26  27
ENDBRANCH  25  26
ENDBRANCH   1  25
TORSDOF 18
