REMARK SMILES Cc1ccc(NC(=O)CN2C(=O)S/C(=C\c3cc(Cl)c(OCC(=O)NCCCCCCNC(=O)c4ccc(-c5c6nc(c(-c7ccc(S(=O)(=O)[O-])cc7)c7ccc([nH]7)c(-c7ccc(S(=O)(=O)[O-])cc7)c7nc(c(-c8ccc(S(=O)(=O)[O-])cc8)c8ccc5[nH]8)C=C7)C=C6)cc4)c(Cl)c3)C2=O)cc1
REMARK SMILES IDX 27 1 26 2 25 3 23 4 24 5 22 7 21 8 20 9 16 10 17 11 97 12
REMARK SMILES IDX 18 13 95 14 19 15 96 16 15 17 10 18 11 19 98 20 12 21 13 22
REMARK SMILES IDX 14 23 99 24 9 25 7 26 6 27 8 29 5 30 1 31 2 32 3 33 101 34
REMARK SMILES IDX 4 35 100 36 28 37 29 38 30 39 31 40 32 41 33 42 34 44 35 45
REMARK SMILES IDX 36 46 94 47 37 48 93 49 38 50 39 51 40 52 87 53 41 54 92 55
REMARK SMILES IDX 86 56 88 57 42 58 91 59 85 60 84 61 43 63 73 64 54 65 72 66
REMARK SMILES IDX 55 67 58 68 71 69 89 70 56 71 57 72 70 74 90 75 59 76 44 77
REMARK SMILES IDX 45 78 53 79 46 80 52 81 47 82 48 83 49 84 50 85 51 86 74 87
REMARK SMILES IDX 75 88 83 89 76 90 82 91 77 92 78 93 79 94 80 95 81 96 60 97
REMARK SMILES IDX 61 98 69 99 62 100 68 101 63 102 64 103 65 104 66 105 67 106
REMARK H PARENT 25 6 6 28 32 43 88 62 58 73
REMARK Flexibility Score: inf
ROOT
ATOM      1  C   UNL     1      -5.501  -5.732 -12.069  1.00  0.00     0.021 C 
ENDROOT
BRANCH   1   2
ATOM      2  C   UNL     1      -6.499  -4.632 -12.415  1.00  0.00     0.116 C 
BRANCH   2   3
ATOM      3  N   UNL     1      -7.396  -4.324 -11.322  1.00  0.00    -0.353 N 
ATOM      4  C   UNL     1      -7.570  -3.139 -10.673  1.00  0.00     0.257 C 
ATOM      5  O   UNL     1      -8.543  -3.029  -9.925  1.00  0.00    -0.271 OA
ATOM      6  H   UNL     1      -7.955  -5.069 -11.006  1.00  0.00     0.163 HD
BRANCH   4   7
ATOM      7  C   UNL     1      -6.611  -1.967 -10.948  1.00  0.00     0.329 C 
BRANCH   7   8
ATOM      8  O   UNL     1      -5.222  -2.155 -10.753  1.00  0.00    -0.481 OA
BRANCH   8   9
ATOM      9  C   UNL     1      -4.646  -2.322  -9.524  1.00  0.00     0.157 A 
ATOM     10  C   UNL     1      -3.110  -2.772  -7.144  1.00  0.00    -0.021 A 
ATOM     11  C   UNL     1      -2.506  -2.874  -8.391  1.00  0.00     0.032 A 
ATOM     12  C   UNL     1      -4.481  -2.488  -7.111  1.00  0.00     0.032 A 
ATOM     13  C   UNL     1      -3.269  -2.664  -9.559  1.00  0.00     0.085 A 
ATOM     14  C   UNL     1      -5.226  -2.191  -8.261  1.00  0.00     0.085 A 
ATOM     15  Cl  UNL     1      -2.438  -2.824 -11.076  1.00  0.00    -0.080 Cl
ATOM     16  Cl  UNL     1      -6.795  -1.568  -7.907  1.00  0.00    -0.080 Cl
BRANCH  10  17
ATOM     17  C   UNL     1      -2.402  -3.019  -5.869  1.00  0.00     0.029 C 
ATOM     18  N   UNL     1      -3.110  -2.075  -2.506  1.00  0.00    -0.259 N 
ATOM     19  C   UNL     1      -3.916  -1.132  -3.070  1.00  0.00     0.294 C 
ATOM     20  C   UNL     1      -2.294  -2.772  -3.386  1.00  0.00     0.268 C 
ATOM     21  O   UNL     1      -4.953  -0.652  -2.610  1.00  0.00    -0.261 OA
ATOM     22  S   UNL     1      -3.330  -0.722  -4.657  1.00  0.00    -0.022 SA
ATOM     23  C   UNL     1      -2.528  -2.247  -4.774  1.00  0.00     0.083 C 
ATOM     24  O   UNL     1      -1.625  -3.748  -3.125  1.00  0.00    -0.268 OA
BRANCH  18  25
ATOM     25  C   UNL     1      -3.438  -2.622  -1.197  1.00  0.00     0.230 C 
BRANCH  25  26
ATOM     26  C   UNL     1      -3.796  -1.542  -0.170  1.00  0.00     0.244 C 
ATOM     27  N   UNL     1      -2.983  -0.466   0.042  1.00  0.00    -0.325 N 
ATOM     28  H   UNL     1      -3.455   0.355   0.312  1.00  0.00     0.169 HD
ATOM     29  O   UNL     1      -4.851  -1.612   0.469  1.00  0.00    -0.273 OA
BRANCH  27  30
ATOM     30  C   UNL     1      -1.592  -0.327  -0.058  1.00  0.00     0.041 A 
ATOM     31  C   UNL     1       2.676   0.307  -0.038  1.00  0.00     0.044 C 
ATOM     32  C   UNL     1       1.190   0.104  -0.044  1.00  0.00    -0.051 A 
ATOM     33  C   UNL     1       0.668  -1.191   0.019  1.00  0.00     0.005 A 
ATOM     34  C   UNL     1       0.308   1.186  -0.109  1.00  0.00     0.005 A 
ATOM     35  C   UNL     1      -0.713  -1.405   0.014  1.00  0.00     0.026 A 
ATOM     36  C   UNL     1      -1.073   0.971  -0.101  1.00  0.00     0.026 A 
ENDBRANCH  27  30
ENDBRANCH  25  26
ENDBRANCH  18  25
ENDBRANCH  10  17
ENDBRANCH   8   9
ENDBRANCH   7   8
ENDBRANCH   4   7
ENDBRANCH   2   3
ENDBRANCH   1   2
BRANCH   1  37
ATOM     37  C   UNL     1      -6.098  -7.072 -11.616  1.00  0.00     0.002 C 
BRANCH  37  38
ATOM     38  C   UNL     1      -7.198  -7.693 -12.490  1.00  0.00     0.002 C 
BRANCH  38  39
ATOM     39  C   UNL     1      -6.921  -7.777 -13.989  1.00  0.00     0.021 C 
BRANCH  39  40
ATOM     40  C   UNL     1      -5.769  -8.696 -14.371  1.00  0.00     0.116 C 
BRANCH  40  41
ATOM     41  N   UNL     1      -6.210  -9.904 -15.063  1.00  0.00    -0.352 N 
ATOM     42  C   UNL     1      -5.487 -10.682 -15.954  1.00  0.00     0.251 C 
ATOM     43  H   UNL     1      -7.130 -10.200 -14.875  1.00  0.00     0.163 HD
ATOM     44  O   UNL     1      -5.999 -11.424 -16.781  1.00  0.00    -0.269 OA
BRANCH  42  45
ATOM     45  C   UNL     1      -4.028 -10.695 -15.756  1.00  0.00     0.039 A 
ATOM     46  C   UNL     1      -3.500 -11.801 -15.075  1.00  0.00     0.014 A 
ATOM     47  C   UNL     1      -3.338  -9.493 -15.851  1.00  0.00     0.014 A 
ATOM     48  C   UNL     1      -2.383 -11.629 -14.276  1.00  0.00     0.010 A 
ATOM     49  C   UNL     1      -2.312  -9.288 -14.965  1.00  0.00     0.010 A 
ATOM     50  C   UNL     1      -1.880 -10.341 -14.147  1.00  0.00    -0.014 A 
BRANCH  50  51
ATOM     51  C   UNL     1      -0.876  -9.954 -13.181  1.00  0.00     0.031 A 
ATOM     52  C   UNL     1       0.497  -9.783 -13.676  1.00  0.00     0.074 A 
ATOM     53  C   UNL     1      -1.282  -9.587 -11.948  1.00  0.00     0.049 A 
ATOM     54  N   UNL     1       1.529  -9.664 -12.924  1.00  0.00    -0.248 NA
ATOM     55  C   UNL     1       0.828  -9.794 -15.104  1.00  0.00     0.031 C 
ATOM     56  C   UNL     1      -0.559  -8.816 -10.943  1.00  0.00     0.029 A 
ATOM     57  N   UNL     1      -2.407 -10.039 -11.273  1.00  0.00    -0.354 N 
ATOM     58  C   UNL     1       2.567  -9.249 -13.727  1.00  0.00     0.074 A 
ATOM     59  C   UNL     1       2.125  -9.479 -15.077  1.00  0.00     0.031 C 
ATOM     60  C   UNL     1      -1.115  -9.041  -9.738  1.00  0.00     0.029 A 
ATOM     61  C   UNL     1      -2.104 -10.098  -9.908  1.00  0.00     0.049 A 
ATOM     62  H   UNL     1      -3.269 -10.278 -11.683  1.00  0.00     0.167 HD
ATOM     63  C   UNL     1       3.605  -8.595 -13.142  1.00  0.00     0.031 A 
ATOM     64  C   UNL     1      -2.022 -11.321  -9.296  1.00  0.00     0.031 A 
ATOM     65  C   UNL     1       3.508  -8.701 -11.686  1.00  0.00     0.049 A 
ATOM     66  C   UNL     1      -0.601 -11.669  -8.887  1.00  0.00     0.074 A 
ATOM     67  C   UNL     1       3.065  -7.828 -10.709  1.00  0.00     0.029 A 
ATOM     68  N   UNL     1       3.531  -9.967 -11.110  1.00  0.00    -0.354 N 
ATOM     69  N   UNL     1       0.470 -11.137  -9.416  1.00  0.00    -0.248 NA
ATOM     70  C   UNL     1      -0.279 -12.601  -7.810  1.00  0.00     0.031 C 
ATOM     71  C   UNL     1       2.693  -8.607  -9.576  1.00  0.00     0.029 A 
ATOM     72  C   UNL     1       2.958  -9.939  -9.853  1.00  0.00     0.049 A 
ATOM     73  H   UNL     1       3.905 -10.771 -11.538  1.00  0.00     0.167 HD
ATOM     74  C   UNL     1       1.587 -11.591  -8.765  1.00  0.00     0.074 A 
ATOM     75  C   UNL     1       1.063 -12.511  -7.769  1.00  0.00     0.031 C 
ATOM     76  C   UNL     1       2.851 -11.169  -9.074  1.00  0.00     0.031 A 
BRANCH  63  77
ATOM     77  C   UNL     1       4.543  -7.649 -13.855  1.00  0.00    -0.014 A 
ATOM     78  C   UNL     1       5.435  -6.873 -13.086  1.00  0.00     0.010 A 
ATOM     79  C   UNL     1       4.530  -7.383 -15.240  1.00  0.00     0.010 A 
ATOM     80  C   UNL     1       6.234  -5.870 -13.657  1.00  0.00     0.020 A 
ATOM     81  C   UNL     1       5.334  -6.394 -15.827  1.00  0.00     0.020 A 
ATOM     82  C   UNL     1       6.173  -5.632 -15.027  1.00  0.00     0.054 A 
BRANCH  82  83
ATOM     83  S   UNL     1       7.186  -4.314 -15.743  1.00  0.00     0.124 S 
ATOM     84  O   UNL     1       6.647  -3.120 -15.097  1.00  0.00    -0.237 OA
ATOM     85  O   UNL     1       8.535  -4.698 -15.337  1.00  0.00    -0.237 OA
ATOM     86  O   UNL     1       6.921  -4.412 -17.178  1.00  0.00    -0.744 OA
ENDBRANCH  82  83
ENDBRANCH  63  77
BRANCH  64  87
ATOM     87  C   UNL     1      -3.074 -12.277  -9.774  1.00  0.00    -0.014 A 
ATOM     88  C   UNL     1      -4.417 -11.951  -9.469  1.00  0.00     0.010 A 
ATOM     89  C   UNL     1      -2.829 -13.161 -10.840  1.00  0.00     0.010 A 
ATOM     90  C   UNL     1      -5.463 -12.335 -10.316  1.00  0.00     0.020 A 
ATOM     91  C   UNL     1      -3.883 -13.564 -11.683  1.00  0.00     0.020 A 
ATOM     92  C   UNL     1      -5.179 -13.089 -11.453  1.00  0.00     0.054 A 
BRANCH  92  93
ATOM     93  S   UNL     1      -6.487 -13.259 -12.711  1.00  0.00     0.124 S 
ATOM     94  O   UNL     1      -7.482 -14.068 -12.015  1.00  0.00    -0.237 OA
ATOM     95  O   UNL     1      -6.869 -11.867 -12.957  1.00  0.00    -0.237 OA
ATOM     96  O   UNL     1      -5.806 -13.920 -13.819  1.00  0.00    -0.744 OA
ENDBRANCH  92  93
ENDBRANCH  64  87
BRANCH  76  97
ATOM     97  C   UNL     1       4.139 -11.822  -8.618  1.00  0.00    -0.014 A 
ATOM     98  C   UNL     1       4.225 -13.122  -8.099  1.00  0.00     0.010 A 
ATOM     99  C   UNL     1       5.367 -11.149  -8.846  1.00  0.00     0.010 A 
ATOM    100  C   UNL     1       5.459 -13.689  -7.753  1.00  0.00     0.020 A 
ATOM    101  C   UNL     1       6.606 -11.728  -8.566  1.00  0.00     0.020 A 
ATOM    102  C   UNL     1       6.641 -12.988  -7.986  1.00  0.00     0.054 A 
BRANCH 102 103
ATOM    103  S   UNL     1       8.224 -13.752  -7.569  1.00  0.00     0.124 S 
ATOM    104  O   UNL     1       8.307 -13.501  -6.132  1.00  0.00    -0.237 OA
ATOM    105  O   UNL     1       8.020 -15.148  -7.950  1.00  0.00    -0.237 OA
ATOM    106  O   UNL     1       9.188 -13.024  -8.389  1.00  0.00    -0.744 OA
ENDBRANCH 102 103
ENDBRANCH  76  97
ENDBRANCH  50  51
ENDBRANCH  42  45
ENDBRANCH  40  41
ENDBRANCH  39  40
ENDBRANCH  38  39
ENDBRANCH  37  38
ENDBRANCH   1  37
TORSDOF 22
