REMARK SMILES CC[C@](NC(=O)c1cccc(CS(C)(=O)=O)c1)(C(=O)NCCCCCCNC(=O)c1ccc(-c2c3nc(c(-c4ccc(S(=O)(=O)[O-])cc4)c4ccc([nH]4)c(-c4ccc(S(=O)(=O)[O-])cc4)c4nc(c(-c5ccc(S(=O)(=O)[O-])cc5)c5ccc2[nH]5)C=C4)C=C3)cc1)c1ccccc1
REMARK SMILES IDX 23 1 22 2 21 3 20 4 18 5 19 6 3 8 2 9 1 10 90 11 91 12 95 13
REMARK SMILES IDX 92 14 94 15 93 16 4 17 5 18 6 20 7 21 8 22 17 23 9 24 11 25
REMARK SMILES IDX 10 26 12 27 13 28 14 29 15 30 16 31 24 32 25 33 26 34 27 35
REMARK SMILES IDX 28 36 29 38 30 39 31 40 89 41 32 42 88 43 33 44 34 45 35 46
REMARK SMILES IDX 82 47 36 48 87 49 81 50 83 51 37 52 86 53 80 54 79 55 38 57
REMARK SMILES IDX 68 58 49 59 67 60 50 61 53 62 66 63 84 64 51 65 52 66 65 68
REMARK SMILES IDX 85 69 54 70 39 71 40 72 48 73 41 74 47 75 42 76 43 77 44 78
REMARK SMILES IDX 45 79 46 80 69 81 70 82 78 83 71 84 77 85 72 86 73 87 74 88
REMARK SMILES IDX 75 89 76 90 55 91 56 92 64 93 57 94 63 95 58 96 59 97 60 98
REMARK SMILES IDX 61 99 62 100
REMARK H PARENT 20 7 4 19 27 37 83 56 53 67
REMARK Flexibility Score: inf
ROOT
ATOM      1  C   UNL     1      -3.678   2.050  -2.260  1.00  0.00     0.002 C 
ENDROOT
BRANCH   1   2
ATOM      2  C   UNL     1      -2.810   1.168  -1.383  1.00  0.00     0.021 C 
BRANCH   2   3
ATOM      3  C   UNL     1      -2.180  -0.118  -1.934  1.00  0.00     0.116 C 
BRANCH   3   4
ATOM      4  N   UNL     1      -1.437  -0.176  -3.201  1.00  0.00    -0.354 N 
ATOM      5  C   UNL     1      -0.069  -0.290  -3.457  1.00  0.00     0.250 C 
ATOM      6  O   UNL     1       0.276  -0.759  -4.546  1.00  0.00    -0.272 OA
ATOM      7  H   UNL     1      -2.000  -0.125  -4.006  1.00  0.00     0.163 HD
BRANCH   5   8
ATOM      8  C   UNL     1       0.947   0.099  -2.370  1.00  0.00     0.144 C 
BRANCH   8   9
ATOM      9  C   UNL     1       1.040  -1.127  -1.325  1.00  0.00     0.040 C 
ATOM     10  C   UNL     1      -0.010  -2.249  -1.254  1.00  0.00     0.007 C 
ENDBRANCH   8   9
BRANCH   8  11
ATOM     11  C   UNL     1       2.454   0.401  -2.768  1.00  0.00    -0.013 A 
ATOM     12  C   UNL     1       3.361  -0.639  -3.071  1.00  0.00     0.007 A 
ATOM     13  C   UNL     1       3.045   1.668  -2.551  1.00  0.00     0.007 A 
ATOM     14  C   UNL     1       4.752  -0.466  -2.951  1.00  0.00     0.000 A 
ATOM     15  C   UNL     1       4.433   1.855  -2.481  1.00  0.00     0.000 A 
ATOM     16  C   UNL     1       5.287   0.776  -2.630  1.00  0.00     0.000 A 
ENDBRANCH   8  11
BRANCH   8  17
ATOM     17  N   UNL     1       0.392   1.328  -1.722  1.00  0.00    -0.334 N 
ATOM     18  C   UNL     1       0.083   2.615  -2.142  1.00  0.00     0.252 C 
ATOM     19  H   UNL     1       0.199   1.191  -0.766  1.00  0.00     0.165 HD
ATOM     20  O   UNL     1       0.312   3.459  -1.261  1.00  0.00    -0.269 OA
BRANCH  18  21
ATOM     21  C   UNL     1      -0.577   3.132  -3.419  1.00  0.00     0.040 A 
ATOM     22  C   UNL     1      -0.989   4.481  -3.342  1.00  0.00     0.014 A 
ATOM     23  C   UNL     1      -0.956   2.459  -4.596  1.00  0.00     0.018 A 
ATOM     24  C   UNL     1      -1.789   5.082  -4.321  1.00  0.00     0.001 A 
ATOM     25  C   UNL     1      -1.841   3.018  -5.574  1.00  0.00    -0.032 A 
ATOM     26  C   UNL     1      -2.223   4.352  -5.422  1.00  0.00     0.005 A 
BRANCH  25  27
ATOM     27  C   UNL     1      -2.198   2.246  -6.832  1.00  0.00     0.172 C 
BRANCH  27  28
ATOM     28  S   UNL     1      -3.926   1.819  -7.108  1.00  0.00     0.151 S 
ATOM     29  C   UNL     1      -4.967   3.213  -6.721  1.00  0.00     0.158 C 
ATOM     30  O   UNL     1      -4.070   1.611  -8.540  1.00  0.00    -0.229 OA
ATOM     31  O   UNL     1      -4.284   0.736  -6.213  1.00  0.00    -0.229 OA
ENDBRANCH  27  28
ENDBRANCH  25  27
ENDBRANCH  18  21
ENDBRANCH   8  17
ENDBRANCH   5   8
ENDBRANCH   3   4
ENDBRANCH   2   3
ENDBRANCH   1   2
BRANCH   1  32
ATOM     32  C   UNL     1      -4.458   1.336  -3.339  1.00  0.00     0.002 C 
BRANCH  32  33
ATOM     33  C   UNL     1      -5.653   0.533  -2.860  1.00  0.00     0.021 C 
BRANCH  33  34
ATOM     34  C   UNL     1      -6.771   1.395  -2.303  1.00  0.00     0.116 C 
BRANCH  34  35
ATOM     35  N   UNL     1      -7.321   2.340  -3.270  1.00  0.00    -0.352 N 
ATOM     36  C   UNL     1      -8.614   2.800  -3.346  1.00  0.00     0.251 C 
ATOM     37  H   UNL     1      -6.695   2.687  -3.946  1.00  0.00     0.163 HD
ATOM     38  O   UNL     1      -8.975   3.531  -4.263  1.00  0.00    -0.269 OA
BRANCH  36  39
ATOM     39  C   UNL     1      -9.561   2.346  -2.310  1.00  0.00     0.039 A 
ATOM     40  C   UNL     1     -10.735   1.698  -2.691  1.00  0.00     0.014 A 
ATOM     41  C   UNL     1      -9.195   2.438  -0.966  1.00  0.00     0.014 A 
ATOM     42  C   UNL     1     -11.517   1.079  -1.715  1.00  0.00     0.010 A 
ATOM     43  C   UNL     1      -9.909   1.723  -0.018  1.00  0.00     0.010 A 
ATOM     44  C   UNL     1     -11.089   1.055  -0.376  1.00  0.00    -0.014 A 
BRANCH  44  45
ATOM     45  C   UNL     1     -11.881   0.383   0.684  1.00  0.00     0.031 A 
ATOM     46  C   UNL     1     -12.393   1.195   1.845  1.00  0.00     0.074 A 
ATOM     47  C   UNL     1     -12.072  -0.951   0.646  1.00  0.00     0.049 A 
ATOM     48  N   UNL     1     -13.035   0.797   2.913  1.00  0.00    -0.248 NA
ATOM     49  C   UNL     1     -12.102   2.639   1.828  1.00  0.00     0.031 C 
ATOM     50  C   UNL     1     -11.566  -1.858  -0.389  1.00  0.00     0.029 A 
ATOM     51  N   UNL     1     -12.749  -1.779   1.506  1.00  0.00    -0.354 N 
ATOM     52  C   UNL     1     -13.177   1.929   3.708  1.00  0.00     0.074 A 
ATOM     53  C   UNL     1     -12.501   3.012   3.033  1.00  0.00     0.031 C 
ATOM     54  C   UNL     1     -11.994  -3.105  -0.129  1.00  0.00     0.029 A 
ATOM     55  C   UNL     1     -12.774  -3.094   1.104  1.00  0.00     0.049 A 
ATOM     56  H   UNL     1     -13.177  -1.461   2.333  1.00  0.00     0.167 HD
ATOM     57  C   UNL     1     -13.841   2.066   4.880  1.00  0.00     0.031 A 
ATOM     58  C   UNL     1     -13.373  -4.164   1.661  1.00  0.00     0.031 A 
ATOM     59  C   UNL     1     -14.568   1.000   5.510  1.00  0.00     0.049 A 
ATOM     60  C   UNL     1     -14.169  -3.975   2.924  1.00  0.00     0.074 A 
ATOM     61  C   UNL     1     -15.352   1.046   6.648  1.00  0.00     0.029 A 
ATOM     62  N   UNL     1     -14.613  -0.305   5.042  1.00  0.00    -0.354 N 
ATOM     63  N   UNL     1     -14.354  -2.881   3.626  1.00  0.00    -0.248 NA
ATOM     64  C   UNL     1     -14.852  -5.159   3.460  1.00  0.00     0.031 C 
ATOM     65  C   UNL     1     -15.848  -0.241   6.885  1.00  0.00     0.029 A 
ATOM     66  C   UNL     1     -15.407  -1.076   5.870  1.00  0.00     0.049 A 
ATOM     67  H   UNL     1     -14.148  -0.633   4.239  1.00  0.00     0.167 HD
ATOM     68  C   UNL     1     -15.204  -3.239   4.666  1.00  0.00     0.074 A 
ATOM     69  C   UNL     1     -15.503  -4.647   4.495  1.00  0.00     0.031 C 
ATOM     70  C   UNL     1     -15.697  -2.473   5.670  1.00  0.00     0.031 A 
BRANCH  57  71
ATOM     71  C   UNL     1     -13.814   3.420   5.536  1.00  0.00    -0.014 A 
ATOM     72  C   UNL     1     -14.474   4.523   4.962  1.00  0.00     0.010 A 
ATOM     73  C   UNL     1     -13.117   3.596   6.745  1.00  0.00     0.010 A 
ATOM     74  C   UNL     1     -14.386   5.787   5.550  1.00  0.00     0.020 A 
ATOM     75  C   UNL     1     -13.054   4.853   7.354  1.00  0.00     0.020 A 
ATOM     76  C   UNL     1     -13.670   5.945   6.739  1.00  0.00     0.054 A 
BRANCH  76  77
ATOM     77  S   UNL     1     -13.573   7.596   7.484  1.00  0.00     0.124 S 
ATOM     78  O   UNL     1     -12.599   8.258   6.619  1.00  0.00    -0.237 OA
ATOM     79  O   UNL     1     -14.946   8.082   7.369  1.00  0.00    -0.237 OA
ATOM     80  O   UNL     1     -13.120   7.334   8.847  1.00  0.00    -0.744 OA
ENDBRANCH  76  77
ENDBRANCH  57  71
BRANCH  58  81
ATOM     81  C   UNL     1     -13.301  -5.493   0.995  1.00  0.00    -0.014 A 
ATOM     82  C   UNL     1     -14.435  -6.022   0.351  1.00  0.00     0.010 A 
ATOM     83  C   UNL     1     -12.105  -6.233   0.989  1.00  0.00     0.010 A 
ATOM     84  C   UNL     1     -14.382  -7.275  -0.266  1.00  0.00     0.020 A 
ATOM     85  C   UNL     1     -12.041  -7.476   0.350  1.00  0.00     0.020 A 
ATOM     86  C   UNL     1     -13.184  -7.995  -0.263  1.00  0.00     0.054 A 
BRANCH  86  87
ATOM     87  S   UNL     1     -13.126  -9.599  -1.110  1.00  0.00     0.124 S 
ATOM     88  O   UNL     1     -13.852 -10.460  -0.181  1.00  0.00    -0.237 OA
ATOM     89  O   UNL     1     -13.804  -9.315  -2.372  1.00  0.00    -0.237 OA
ATOM     90  O   UNL     1     -11.695  -9.870  -1.228  1.00  0.00    -0.744 OA
ENDBRANCH  86  87
ENDBRANCH  58  81
BRANCH  70  91
ATOM     91  C   UNL     1     -16.648  -3.128   6.633  1.00  0.00    -0.014 A 
ATOM     92  C   UNL     1     -16.193  -4.040   7.601  1.00  0.00     0.010 A 
ATOM     93  C   UNL     1     -18.011  -2.781   6.599  1.00  0.00     0.010 A 
ATOM     94  C   UNL     1     -17.093  -4.621   8.497  1.00  0.00     0.020 A 
ATOM     95  C   UNL     1     -18.908  -3.340   7.510  1.00  0.00     0.020 A 
ATOM     96  C   UNL     1     -18.446  -4.270   8.444  1.00  0.00     0.054 A 
BRANCH  96  97
ATOM     97  S   UNL     1     -19.590  -5.008   9.641  1.00  0.00     0.124 S 
ATOM     98  O   UNL     1     -19.770  -6.352   9.098  1.00  0.00    -0.237 OA
ATOM     99  O   UNL     1     -18.840  -4.931  10.893  1.00  0.00    -0.237 OA
ATOM    100  O   UNL     1     -20.766  -4.145   9.573  1.00  0.00    -0.744 OA
ENDBRANCH  96  97
ENDBRANCH  70  91
ENDBRANCH  44  45
ENDBRANCH  36  39
ENDBRANCH  34  35
ENDBRANCH  33  34
ENDBRANCH  32  33
ENDBRANCH   1  32
TORSDOF 22
