REMARK SMILES C=CC[N@@H+](CC(=O)NCCCCCCNC(=O)c1ccc(-c2c3nc(c(-c4ccc(S(=O)(=O)[O-])cc4)c4ccc([nH]4)c(-c4ccc(S(=O)(=O)[O-])cc4)c4nc(c(-c5ccc(S(=O)(=O)[O-])cc5)c5ccc2[nH]5)C=C4)C=C3)cc1)[C@@H]1CC[N@@H+](C(C)C)C1
REMARK SMILES IDX 11 1 10 2 9 3 8 4 6 5 7 6 5 8 4 9 3 11 2 12 1 13 78 14 79 15
REMARK SMILES IDX 85 16 80 17 81 18 82 20 83 21 84 22 12 23 13 24 14 25 15 26
REMARK SMILES IDX 16 27 17 29 18 30 19 31 77 32 20 33 76 34 21 35 22 36 23 37
REMARK SMILES IDX 70 38 24 39 75 40 69 41 71 42 25 43 74 44 68 45 67 46 26 48
REMARK SMILES IDX 56 49 37 50 55 51 38 52 41 53 54 54 72 55 39 56 40 57 53 59
REMARK SMILES IDX 73 60 42 61 27 62 28 63 36 64 29 65 35 66 30 67 31 68 32 69
REMARK SMILES IDX 33 70 34 71 57 72 58 73 66 74 59 75 65 76 60 77 61 78 62 79
REMARK SMILES IDX 63 80 64 81 43 82 44 83 52 84 45 85 51 86 46 87 47 88 48 89
REMARK SMILES IDX 49 90 50 91
REMARK H PARENT 8 7 4 10 81 19 15 28 71 47 41 58
REMARK Flexibility Score: inf
ROOT
ATOM      1  C   UNL     1      -2.489  -1.225  -2.814  1.00  0.00     0.002 C 
ENDROOT
BRANCH   1   2
ATOM      2  C   UNL     1      -2.167  -0.298  -1.645  1.00  0.00     0.021 C 
BRANCH   2   3
ATOM      3  C   UNL     1      -3.370   0.432  -1.034  1.00  0.00     0.116 C 
BRANCH   3   4
ATOM      4  N   UNL     1      -3.936  -0.323   0.068  1.00  0.00    -0.351 N 
ATOM      5  C   UNL     1      -3.771  -0.202   1.417  1.00  0.00     0.275 C 
ATOM      6  O   UNL     1      -4.310  -1.062   2.124  1.00  0.00    -0.269 OA
ATOM      7  H   UNL     1      -4.543  -1.048  -0.205  1.00  0.00     0.163 HD
BRANCH   5   8
ATOM      8  C   UNL     1      -3.007   0.960   2.065  1.00  0.00     0.364 C 
BRANCH   8   9
ATOM      9  N   UNL     1      -1.524   0.902   2.072  1.00  0.00    -0.317 N 
ATOM     10  H   UNL     1      -1.184   1.540   2.792  1.00  0.00     0.349 HD
BRANCH   9  11
ATOM     11  C   UNL     1      -0.930   1.519   0.898  1.00  0.00     0.291 C 
BRANCH  11  12
ATOM     12  C   UNL     1       0.399   2.199   1.039  1.00  0.00     0.025 C 
ATOM     13  C   UNL     1       1.360   2.106   0.106  1.00  0.00     0.010 C 
ENDBRANCH  11  12
ENDBRANCH   9  11
BRANCH   9  14
ATOM     14  C   UNL     1      -0.925  -0.302   2.692  1.00  0.00     0.246 C 
ATOM     15  C   UNL     1       0.599  -0.297   2.838  1.00  0.00     0.132 C 
ATOM     16  C   UNL     1      -1.145  -1.721   2.083  1.00  0.00     0.328 C 
ATOM     17  C   UNL     1       1.085  -1.094   1.640  1.00  0.00     0.269 C 
ATOM     18  N   UNL     1       0.125  -2.188   1.499  1.00  0.00    -0.328 N 
ATOM     19  H   UNL     1      -0.053  -2.406   0.518  1.00  0.00     0.348 HD
BRANCH  18  20
ATOM     20  C   UNL     1       0.635  -3.499   1.926  1.00  0.00     0.177 C 
ATOM     21  C   UNL     1       1.205  -3.557   3.349  1.00  0.00     0.075 C 
ATOM     22  C   UNL     1      -0.390  -4.624   1.733  1.00  0.00     0.075 C 
ENDBRANCH  18  20
ENDBRANCH   9  14
ENDBRANCH   8   9
ENDBRANCH   5   8
ENDBRANCH   3   4
ENDBRANCH   2   3
ENDBRANCH   1   2
BRANCH   1  23
ATOM     23  C   UNL     1      -2.942  -0.513  -4.092  1.00  0.00     0.002 C 
BRANCH  23  24
ATOM     24  C   UNL     1      -2.018   0.602  -4.596  1.00  0.00     0.021 C 
BRANCH  24  25
ATOM     25  C   UNL     1      -0.568   0.184  -4.839  1.00  0.00     0.116 C 
BRANCH  25  26
ATOM     26  N   UNL     1      -0.466  -0.833  -5.872  1.00  0.00    -0.352 N 
ATOM     27  C   UNL     1       0.085  -0.753  -7.127  1.00  0.00     0.251 C 
ATOM     28  H   UNL     1      -0.849  -1.710  -5.638  1.00  0.00     0.163 HD
ATOM     29  O   UNL     1      -0.147  -1.628  -7.954  1.00  0.00    -0.269 OA
BRANCH  27  30
ATOM     30  C   UNL     1       0.955   0.390  -7.483  1.00  0.00     0.039 A 
ATOM     31  C   UNL     1       0.787   1.012  -8.723  1.00  0.00     0.014 A 
ATOM     32  C   UNL     1       1.961   0.821  -6.613  1.00  0.00     0.014 A 
ATOM     33  C   UNL     1       1.594   2.100  -9.069  1.00  0.00     0.010 A 
ATOM     34  C   UNL     1       2.720   1.944  -6.932  1.00  0.00     0.010 A 
ATOM     35  C   UNL     1       2.551   2.590  -8.166  1.00  0.00    -0.014 A 
BRANCH  35  36
ATOM     36  C   UNL     1       3.396   3.767  -8.496  1.00  0.00     0.031 A 
ATOM     37  C   UNL     1       4.887   3.611  -8.632  1.00  0.00     0.074 A 
ATOM     38  C   UNL     1       2.832   4.987  -8.605  1.00  0.00     0.049 A 
ATOM     39  N   UNL     1       5.798   4.529  -8.833  1.00  0.00    -0.248 NA
ATOM     40  C   UNL     1       5.428   2.248  -8.499  1.00  0.00     0.031 C 
ATOM     41  C   UNL     1       1.403   5.276  -8.463  1.00  0.00     0.029 A 
ATOM     42  N   UNL     1       3.396   6.214  -8.851  1.00  0.00    -0.354 N 
ATOM     43  C   UNL     1       7.017   3.860  -8.829  1.00  0.00     0.074 A 
ATOM     44  C   UNL     1       6.733   2.467  -8.561  1.00  0.00     0.031 C 
ATOM     45  C   UNL     1       1.201   6.591  -8.642  1.00  0.00     0.029 A 
ATOM     46  C   UNL     1       2.486   7.245  -8.871  1.00  0.00     0.049 A 
ATOM     47  H   UNL     1       4.360   6.344  -8.999  1.00  0.00     0.167 HD
ATOM     48  C   UNL     1       8.259   4.356  -9.044  1.00  0.00     0.031 A 
ATOM     49  C   UNL     1       2.665   8.569  -9.044  1.00  0.00     0.031 A 
ATOM     50  C   UNL     1       8.537   5.740  -9.325  1.00  0.00     0.049 A 
ATOM     51  C   UNL     1       4.054   9.098  -9.278  1.00  0.00     0.074 A 
ATOM     52  C   UNL     1       9.754   6.332  -9.611  1.00  0.00     0.029 A 
ATOM     53  N   UNL     1       7.585   6.748  -9.355  1.00  0.00    -0.354 N 
ATOM     54  N   UNL     1       5.188   8.441  -9.328  1.00  0.00    -0.248 NA
ATOM     55  C   UNL     1       4.186  10.546  -9.493  1.00  0.00     0.031 C 
ATOM     56  C   UNL     1       9.546   7.706  -9.768  1.00  0.00     0.029 A 
ATOM     57  C   UNL     1       8.190   7.961  -9.636  1.00  0.00     0.049 A 
ATOM     58  H   UNL     1       6.621   6.620  -9.200  1.00  0.00     0.167 HD
ATOM     59  C   UNL     1       6.164   9.390  -9.608  1.00  0.00     0.074 A 
ATOM     60  C   UNL     1       5.486  10.665  -9.729  1.00  0.00     0.031 C 
ATOM     61  C   UNL     1       7.501   9.221  -9.757  1.00  0.00     0.031 A 
BRANCH  48  62
ATOM     62  C   UNL     1       9.416   3.393  -8.977  1.00  0.00    -0.014 A 
ATOM     63  C   UNL     1       9.604   2.411  -9.967  1.00  0.00     0.010 A 
ATOM     64  C   UNL     1      10.349   3.493  -7.929  1.00  0.00     0.010 A 
ATOM     65  C   UNL     1      10.677   1.520  -9.886  1.00  0.00     0.020 A 
ATOM     66  C   UNL     1      11.440   2.622  -7.860  1.00  0.00     0.020 A 
ATOM     67  C   UNL     1      11.586   1.628  -8.830  1.00  0.00     0.054 A 
BRANCH  67  68
ATOM     68  S   UNL     1      12.979   0.468  -8.759  1.00  0.00     0.124 S 
ATOM     69  O   UNL     1      12.320  -0.768  -8.344  1.00  0.00    -0.237 OA
ATOM     70  O   UNL     1      13.479   0.483 -10.131  1.00  0.00    -0.237 OA
ATOM     71  O   UNL     1      13.873   1.060  -7.767  1.00  0.00    -0.744 OA
ENDBRANCH  67  68
ENDBRANCH  48  62
BRANCH  49  72
ATOM     72  C   UNL     1       1.493   9.486  -9.017  1.00  0.00    -0.014 A 
ATOM     73  C   UNL     1       1.038  10.099 -10.198  1.00  0.00     0.010 A 
ATOM     74  C   UNL     1       0.814   9.740  -7.811  1.00  0.00     0.010 A 
ATOM     75  C   UNL     1      -0.061  10.962 -10.171  1.00  0.00     0.020 A 
ATOM     76  C   UNL     1      -0.303  10.580  -7.785  1.00  0.00     0.020 A 
ATOM     77  C   UNL     1      -0.727  11.195  -8.964  1.00  0.00     0.054 A 
BRANCH  77  78
ATOM     78  S   UNL     1      -2.185  12.275  -8.963  1.00  0.00     0.124 S 
ATOM     79  O   UNL     1      -1.583  13.597  -9.105  1.00  0.00    -0.237 OA
ATOM     80  O   UNL     1      -2.937  11.793 -10.119  1.00  0.00    -0.237 OA
ATOM     81  O   UNL     1      -2.808  12.005  -7.669  1.00  0.00    -0.744 OA
ENDBRANCH  77  78
ENDBRANCH  49  72
BRANCH  61  82
ATOM     82  C   UNL     1       8.320  10.434 -10.106  1.00  0.00    -0.014 A 
ATOM     83  C   UNL     1       8.583  11.437  -9.157  1.00  0.00     0.010 A 
ATOM     84  C   UNL     1       8.887  10.538 -11.390  1.00  0.00     0.010 A 
ATOM     85  C   UNL     1       9.377  12.537  -9.495  1.00  0.00     0.020 A 
ATOM     86  C   UNL     1       9.703  11.622 -11.723  1.00  0.00     0.020 A 
ATOM     87  C   UNL     1       9.932  12.622 -10.776  1.00  0.00     0.054 A 
BRANCH  87  88
ATOM     88  S   UNL     1      11.000  14.033 -11.174  1.00  0.00     0.124 S 
ATOM     89  O   UNL     1      10.031  15.116 -11.316  1.00  0.00    -0.237 OA
ATOM     90  O   UNL     1      11.870  14.118 -10.003  1.00  0.00    -0.237 OA
ATOM     91  O   UNL     1      11.667  13.627 -12.409  1.00  0.00    -0.744 OA
ENDBRANCH  87  88
ENDBRANCH  61  82
ENDBRANCH  35  36
ENDBRANCH  27  30
ENDBRANCH  25  26
ENDBRANCH  24  25
ENDBRANCH  23  24
ENDBRANCH   1  23
TORSDOF 21
