REMARK SMILES C[C@@H]1[NH2+]CC[C@@H]1C(=O)Nc1ccccc1CC(=O)NCCCCCCNC(=O)c1ccc(-c2c3nc(c(-c4ccc(S(=O)(=O)[O-])cc4)c4ccc([nH]4)c(-c4ccc(S(=O)(=O)[O-])cc4)c4nc(c(-c5ccc(S(=O)(=O)[O-])cc5)c5ccc2[nH]5)C=C4)C=C3)cc1
REMARK SMILES IDX 22 1 21 2 20 3 19 4 17 5 18 6 16 8 15 9 10 10 11 11 12 12
REMARK SMILES IDX 14 13 13 14 9 15 7 16 8 17 6 19 1 20 2 21 3 22 4 23 5 26
REMARK SMILES IDX 23 27 24 28 25 29 26 30 27 31 28 33 29 34 30 35 88 36 31 37
REMARK SMILES IDX 87 38 32 39 33 40 34 41 81 42 35 43 86 44 80 45 82 46 36 47
REMARK SMILES IDX 85 48 79 49 78 50 37 52 67 53 48 54 66 55 49 56 52 57 65 58
REMARK SMILES IDX 83 59 50 60 51 61 64 63 84 64 53 65 38 66 39 67 47 68 40 69
REMARK SMILES IDX 46 70 41 71 42 72 43 73 44 74 45 75 68 76 69 77 77 78 70 79
REMARK SMILES IDX 76 80 71 81 72 82 73 83 74 84 75 85 54 86 55 87 63 88 56 89
REMARK SMILES IDX 62 90 57 91 58 92 59 93 60 94 61 95
REMARK H PARENT 19 7 9 18 3 24 3 25 26 32 82 51 52 62
REMARK Flexibility Score: inf
ROOT
ATOM      1  C   UNL     1       3.438  -2.308  -5.006  1.00  0.00     0.002 C 
ENDROOT
BRANCH   1   2
ATOM      2  C   UNL     1       3.208  -1.195  -3.979  1.00  0.00     0.021 C 
BRANCH   2   3
ATOM      3  C   UNL     1       1.751  -1.105  -3.535  1.00  0.00     0.116 C 
BRANCH   3   4
ATOM      4  N   UNL     1       1.377  -2.321  -2.846  1.00  0.00    -0.356 N 
ATOM      5  C   UNL     1       1.583  -2.599  -1.528  1.00  0.00     0.224 C 
ATOM      6  O   UNL     1       1.631  -3.777  -1.169  1.00  0.00    -0.275 OA
ATOM      7  H   UNL     1       0.931  -3.016  -3.382  1.00  0.00     0.163 HD
BRANCH   5   8
ATOM      8  C   UNL     1       1.608  -1.466  -0.526  1.00  0.00     0.137 C 
BRANCH   8   9
ATOM      9  C   UNL     1       2.873  -0.647  -0.407  1.00  0.00    -0.015 A 
ATOM     10  C   UNL     1       2.977   0.739  -0.649  1.00  0.00     0.044 A 
ATOM     11  C   UNL     1       4.244   1.355  -0.573  1.00  0.00     0.026 A 
ATOM     12  C   UNL     1       5.380   0.650  -0.186  1.00  0.00     0.002 A 
ATOM     13  C   UNL     1       4.038  -1.339  -0.003  1.00  0.00     0.006 A 
ATOM     14  C   UNL     1       5.273  -0.698   0.116  1.00  0.00     0.000 A 
BRANCH  10  15
ATOM     15  N   UNL     1       1.946   1.643  -0.998  1.00  0.00    -0.325 N 
ATOM     16  C   UNL     1       0.603   1.473  -1.139  1.00  0.00     0.233 C 
ATOM     17  O   UNL     1       0.154   1.521  -2.291  1.00  0.00    -0.274 OA
ATOM     18  H   UNL     1       2.257   2.562  -1.169  1.00  0.00     0.169 HD
BRANCH  16  19
ATOM     19  C   UNL     1      -0.321   1.714   0.069  1.00  0.00     0.142 C 
ATOM     20  C   UNL     1       0.985   0.517   2.075  1.00  0.00     0.076 C 
ATOM     21  C   UNL     1      -0.304   0.925   1.386  1.00  0.00     0.192 C 
ATOM     22  N   UNL     1      -1.289  -0.169   1.268  1.00  0.00    -0.343 N 
ATOM     23  C   UNL     1      -1.990   0.007  -0.006  1.00  0.00     0.261 C 
ATOM     24  H   UNL     1      -1.953  -0.126   2.040  1.00  0.00     0.346 HD
ATOM     25  H   UNL     1      -0.824  -1.077   1.299  1.00  0.00     0.346 HD
ATOM     26  C   UNL     1      -1.779   1.467  -0.359  1.00  0.00     0.081 C 
ENDBRANCH  16  19
ENDBRANCH  10  15
ENDBRANCH   8   9
ENDBRANCH   5   8
ENDBRANCH   3   4
ENDBRANCH   2   3
ENDBRANCH   1   2
BRANCH   1  27
ATOM     27  C   UNL     1       2.652  -2.118  -6.306  1.00  0.00     0.002 C 
BRANCH  27  28
ATOM     28  C   UNL     1       2.958  -0.807  -7.034  1.00  0.00     0.021 C 
BRANCH  28  29
ATOM     29  C   UNL     1       4.438  -0.602  -7.340  1.00  0.00     0.116 C 
BRANCH  29  30
ATOM     30  N   UNL     1       4.973  -1.693  -8.139  1.00  0.00    -0.352 N 
ATOM     31  C   UNL     1       5.661  -1.637  -9.325  1.00  0.00     0.251 C 
ATOM     32  H   UNL     1       4.819  -2.597  -7.780  1.00  0.00     0.163 HD
ATOM     33  O   UNL     1       5.832  -2.645  -9.991  1.00  0.00    -0.269 OA
BRANCH  31  34
ATOM     34  C   UNL     1       6.186  -0.335  -9.780  1.00  0.00     0.039 A 
ATOM     35  C   UNL     1       5.982   0.049 -11.106  1.00  0.00     0.014 A 
ATOM     36  C   UNL     1       6.874   0.499  -8.893  1.00  0.00     0.014 A 
ATOM     37  C   UNL     1       6.434   1.296 -11.533  1.00  0.00     0.010 A 
ATOM     38  C   UNL     1       7.262   1.769  -9.303  1.00  0.00     0.010 A 
ATOM     39  C   UNL     1       7.056   2.174 -10.629  1.00  0.00    -0.014 A 
BRANCH  39  40
ATOM     40  C   UNL     1       7.483   3.526 -11.058  1.00  0.00     0.031 A 
ATOM     41  C   UNL     1       8.940   3.893 -11.079  1.00  0.00     0.074 A 
ATOM     42  C   UNL     1       6.547   4.442 -11.369  1.00  0.00     0.049 A 
ATOM     43  N   UNL     1       9.498   5.023 -11.430  1.00  0.00    -0.248 NA
ATOM     44  C   UNL     1       9.890   2.870 -10.617  1.00  0.00     0.031 C 
ATOM     45  C   UNL     1       5.099   4.224 -11.311  1.00  0.00     0.029 A 
ATOM     46  N   UNL     1       6.672   5.742 -11.785  1.00  0.00    -0.354 N 
ATOM     47  C   UNL     1      10.860   4.854 -11.214  1.00  0.00     0.074 A 
ATOM     48  C   UNL     1      11.037   3.531 -10.654  1.00  0.00     0.031 C 
ATOM     49  C   UNL     1       4.472   5.345 -11.701  1.00  0.00     0.029 A 
ATOM     50  C   UNL     1       5.469   6.365 -12.009  1.00  0.00     0.049 A 
ATOM     51  H   UNL     1       7.542   6.186 -11.912  1.00  0.00     0.167 HD
ATOM     52  C   UNL     1      11.873   5.716 -11.472  1.00  0.00     0.031 A 
ATOM     53  C   UNL     1       5.196   7.618 -12.418  1.00  0.00     0.031 A 
ATOM     54  C   UNL     1      11.687   7.028 -12.032  1.00  0.00     0.049 A 
ATOM     55  C   UNL     1       6.332   8.546 -12.739  1.00  0.00     0.074 A 
ATOM     56  C   UNL     1      12.648   7.947 -12.413  1.00  0.00     0.029 A 
ATOM     57  N   UNL     1      10.453   7.615 -12.278  1.00  0.00    -0.354 N 
ATOM     58  N   UNL     1       7.622   8.333 -12.630  1.00  0.00    -0.248 NA
ATOM     59  C   UNL     1       5.977   9.874 -13.254  1.00  0.00     0.031 C 
ATOM     60  C   UNL     1      11.995   9.110 -12.839  1.00  0.00     0.029 A 
ATOM     61  C   UNL     1      10.627   8.896 -12.775  1.00  0.00     0.049 A 
ATOM     62  H   UNL     1       9.582   7.183 -12.122  1.00  0.00     0.167 HD
ATOM     63  C   UNL     1       8.236   9.498 -13.072  1.00  0.00     0.074 A 
ATOM     64  C   UNL     1       7.174  10.402 -13.472  1.00  0.00     0.031 C 
ATOM     65  C   UNL     1       9.559   9.793 -13.140  1.00  0.00     0.031 A 
BRANCH  52  66
ATOM     66  C   UNL     1      13.267   5.262 -11.125  1.00  0.00    -0.014 A 
ATOM     67  C   UNL     1      13.894   4.217 -11.831  1.00  0.00     0.010 A 
ATOM     68  C   UNL     1      13.959   5.882 -10.070  1.00  0.00     0.010 A 
ATOM     69  C   UNL     1      15.156   3.758 -11.445  1.00  0.00     0.020 A 
ATOM     70  C   UNL     1      15.235   5.446  -9.700  1.00  0.00     0.020 A 
ATOM     71  C   UNL     1      15.813   4.368 -10.373  1.00  0.00     0.054 A 
BRANCH  71  72
ATOM     72  S   UNL     1      17.440   3.739  -9.875  1.00  0.00     0.124 S 
ATOM     73  O   UNL     1      17.084   2.504  -9.181  1.00  0.00    -0.237 OA
ATOM     74  O   UNL     1      18.124   3.565 -11.154  1.00  0.00    -0.237 OA
ATOM     75  O   UNL     1      17.976   4.800  -9.025  1.00  0.00    -0.744 OA
ENDBRANCH  71  72
ENDBRANCH  52  66
BRANCH  53  76
ATOM     76  C   UNL     1       3.777   8.038 -12.568  1.00  0.00    -0.014 A 
ATOM     77  C   UNL     1       3.195   8.147 -13.842  1.00  0.00     0.010 A 
ATOM     78  C   UNL     1       2.980   8.248 -11.428  1.00  0.00     0.010 A 
ATOM     79  C   UNL     1       1.837   8.452 -13.974  1.00  0.00     0.020 A 
ATOM     80  C   UNL     1       1.617   8.530 -11.556  1.00  0.00     0.020 A 
ATOM     81  C   UNL     1       1.054   8.631 -12.830  1.00  0.00     0.054 A 
BRANCH  81  82
ATOM     82  S   UNL     1      -0.727   8.918 -13.023  1.00  0.00     0.124 S 
ATOM     83  O   UNL     1      -0.765  10.306 -13.471  1.00  0.00    -0.237 OA
ATOM     84  O   UNL     1      -1.101   7.919 -14.022  1.00  0.00    -0.237 OA
ATOM     85  O   UNL     1      -1.259   8.675 -11.684  1.00  0.00    -0.744 OA
ENDBRANCH  81  82
ENDBRANCH  53  76
BRANCH  65  86
ATOM     86  C   UNL     1       9.928  11.155 -13.663  1.00  0.00    -0.014 A 
ATOM     87  C   UNL     1       9.707  12.312 -12.893  1.00  0.00     0.010 A 
ATOM     88  C   UNL     1      10.534  11.277 -14.926  1.00  0.00     0.010 A 
ATOM     89  C   UNL     1      10.048  13.570 -13.396  1.00  0.00     0.020 A 
ATOM     90  C   UNL     1      10.901  12.532 -15.420  1.00  0.00     0.020 A 
ATOM     91  C   UNL     1      10.639  13.672 -14.659  1.00  0.00     0.054 A 
BRANCH  91  92
ATOM     92  S   UNL     1      11.094  15.314 -15.280  1.00  0.00     0.124 S 
ATOM     93  O   UNL     1       9.796  15.864 -15.661  1.00  0.00    -0.237 OA
ATOM     94  O   UNL     1      11.723  15.936 -14.118  1.00  0.00    -0.237 OA
ATOM     95  O   UNL     1      11.998  15.025 -16.391  1.00  0.00    -0.744 OA
ENDBRANCH  91  92
ENDBRANCH  65  86
ENDBRANCH  39  40
ENDBRANCH  31  34
ENDBRANCH  29  30
ENDBRANCH  28  29
ENDBRANCH  27  28
ENDBRANCH   1  27
TORSDOF 19
