REMARK SMILES C[C@H]1[C@@H](C)CCC[C@H]1NC(=O)N[C@@](C)(C(=O)NCCCCCCNC(=O)c1ccc(-c2c3nc(c(-c4ccc(S(=O)(=O)[O-])cc4)c4ccc([nH]4)c(-c4ccc(S(=O)(=O)[O-])cc4)c4nc(c(-c5ccc(S(=O)(=O)[O-])cc5)c5ccc2[nH]5)C=C4)C=C3)cc1)C(F)(F)F
REMARK SMILES IDX 21 1 20 2 19 3 18 4 17 5 15 6 16 7 13 9 14 10 12 11 9 12
REMARK SMILES IDX 10 13 11 15 8 17 1 18 2 19 3 20 5 21 4 22 7 23 6 24 87 25
REMARK SMILES IDX 88 26 89 27 90 28 22 29 23 30 24 31 25 32 26 34 27 35 28 36
REMARK SMILES IDX 86 37 29 38 85 39 30 40 31 41 32 42 79 43 33 44 84 45 78 46
REMARK SMILES IDX 80 47 34 48 83 49 77 50 76 51 35 53 65 54 46 55 64 56 47 57
REMARK SMILES IDX 50 58 63 59 81 60 48 61 49 62 62 64 82 65 51 66 36 67 37 68
REMARK SMILES IDX 45 69 38 70 44 71 39 72 40 73 41 74 42 75 43 76 66 77 67 78
REMARK SMILES IDX 75 79 68 80 74 81 69 82 70 83 71 84 72 85 73 86 52 87 53 88
REMARK SMILES IDX 61 89 54 90 60 91 55 92 56 93 57 94 58 95 59 96
REMARK H PARENT 17 8 9 14 12 16 24 33 80 52 50 63
REMARK Flexibility Score: inf
ROOT
ATOM      1  C   UNL     1       0.083  -3.492  -8.920  1.00  0.00     0.002 C 
ENDROOT
BRANCH   1   2
ATOM      2  C   UNL     1      -0.980  -2.907  -7.985  1.00  0.00     0.002 C 
BRANCH   2   3
ATOM      3  C   UNL     1      -1.344  -3.791  -6.785  1.00  0.00     0.021 C 
BRANCH   3   4
ATOM      4  C   UNL     1      -0.146  -4.320  -6.001  1.00  0.00     0.116 C 
BRANCH   4   5
ATOM      5  N   UNL     1       0.701  -3.224  -5.577  1.00  0.00    -0.354 N 
ATOM      6  C   UNL     1       1.273  -2.865  -4.404  1.00  0.00     0.255 C 
ATOM      7  O   UNL     1       1.738  -1.720  -4.407  1.00  0.00    -0.272 OA
ATOM      8  H   UNL     1       0.907  -2.597  -6.309  1.00  0.00     0.163 HD
BRANCH   6   9
ATOM      9  C   UNL     1       1.232  -3.743  -3.139  1.00  0.00     0.213 C 
ATOM     10  C   UNL     1       1.604  -5.217  -3.390  1.00  0.00     0.056 C 
BRANCH   9  11
ATOM     11  N   UNL     1      -0.221  -3.674  -2.734  1.00  0.00    -0.316 N 
ATOM     12  N   UNL     1      -0.855  -3.137  -0.508  1.00  0.00    -0.335 N 
ATOM     13  C   UNL     1      -1.094  -3.509  -1.756  1.00  0.00     0.316 C 
ATOM     14  H   UNL     1      -1.672  -3.074   0.039  1.00  0.00     0.165 HD
ATOM     15  O   UNL     1      -2.274  -3.718  -2.058  1.00  0.00    -0.249 OA
ATOM     16  H   UNL     1      -0.746  -3.812  -3.555  1.00  0.00     0.166 HD
BRANCH  12  17
ATOM     17  C   UNL     1       0.341  -2.805   0.222  1.00  0.00     0.087 C 
ATOM     18  C   UNL     1       0.173  -0.273  -0.278  1.00  0.00     0.010 C 
ATOM     19  C   UNL     1       0.415  -1.363   0.772  1.00  0.00     0.011 C 
ATOM     20  C   UNL     1      -0.406  -1.155   2.060  1.00  0.00    -0.009 C 
ATOM     21  C   UNL     1       0.001  -2.219   3.094  1.00  0.00     0.004 C 
ATOM     22  C   UNL     1      -1.923  -1.085   1.853  1.00  0.00     0.008 C 
ATOM     23  C   UNL     1       0.628  -3.868   1.282  1.00  0.00     0.025 C 
ATOM     24  C   UNL     1      -0.145  -3.647   2.577  1.00  0.00     0.002 C 
ENDBRANCH  12  17
ENDBRANCH   9  11
BRANCH   9  25
ATOM     25  C   UNL     1       2.412  -3.169  -2.317  1.00  0.00     0.420 C 
ATOM     26  F   UNL     1       2.246  -1.903  -1.888  1.00  0.00    -0.168 F 
ATOM     27  F   UNL     1       2.673  -3.945  -1.228  1.00  0.00    -0.168 F 
ATOM     28  F   UNL     1       3.569  -3.193  -3.035  1.00  0.00    -0.168 F 
ENDBRANCH   9  25
ENDBRANCH   6   9
ENDBRANCH   4   5
ENDBRANCH   3   4
ENDBRANCH   2   3
ENDBRANCH   1   2
BRANCH   1  29
ATOM     29  C   UNL     1      -0.231  -4.891  -9.447  1.00  0.00     0.021 C 
BRANCH  29  30
ATOM     30  C   UNL     1      -1.588  -5.008 -10.123  1.00  0.00     0.116 C 
BRANCH  30  31
ATOM     31  N   UNL     1      -1.686  -4.148 -11.289  1.00  0.00    -0.352 N 
ATOM     32  C   UNL     1      -2.067  -4.482 -12.565  1.00  0.00     0.251 C 
ATOM     33  H   UNL     1      -1.448  -3.203 -11.146  1.00  0.00     0.163 HD
ATOM     34  O   UNL     1      -1.896  -3.701 -13.489  1.00  0.00    -0.269 OA
BRANCH  32  35
ATOM     35  C   UNL     1      -2.666  -5.813 -12.800  1.00  0.00     0.039 A 
ATOM     36  C   UNL     1      -2.205  -6.583 -13.868  1.00  0.00     0.014 A 
ATOM     37  C   UNL     1      -3.657  -6.304 -11.944  1.00  0.00     0.014 A 
ATOM     38  C   UNL     1      -2.710  -7.870 -14.051  1.00  0.00     0.010 A 
ATOM     39  C   UNL     1      -4.093  -7.617 -12.077  1.00  0.00     0.010 A 
ATOM     40  C   UNL     1      -3.636  -8.408 -13.141  1.00  0.00    -0.014 A 
BRANCH  40  41
ATOM     41  C   UNL     1      -4.153  -9.790 -13.297  1.00  0.00     0.031 A 
ATOM     42  C   UNL     1      -5.620 -10.017 -13.545  1.00  0.00     0.074 A 
ATOM     43  C   UNL     1      -3.316 -10.836 -13.162  1.00  0.00     0.049 A 
ATOM     44  N   UNL     1      -6.270 -11.146 -13.660  1.00  0.00    -0.248 NA
ATOM     45  C   UNL     1      -6.473  -8.821 -13.653  1.00  0.00     0.031 C 
ATOM     46  C   UNL     1      -1.880 -10.744 -12.884  1.00  0.00     0.029 A 
ATOM     47  N   UNL     1      -3.551 -12.186 -13.239  1.00  0.00    -0.354 N 
ATOM     48  C   UNL     1      -7.604 -10.797 -13.839  1.00  0.00     0.074 A 
ATOM     49  C   UNL     1      -7.680  -9.356 -13.758  1.00  0.00     0.031 C 
ATOM     50  C   UNL     1      -1.359 -11.981 -12.845  1.00  0.00     0.029 A 
ATOM     51  C   UNL     1      -2.427 -12.955 -13.048  1.00  0.00     0.049 A 
ATOM     52  H   UNL     1      -4.441 -12.568 -13.414  1.00  0.00     0.167 HD
ATOM     53  C   UNL     1      -8.667 -11.603 -14.071  1.00  0.00     0.031 A 
ATOM     54  C   UNL     1      -2.274 -14.293 -13.030  1.00  0.00     0.031 A 
ATOM     55  C   UNL     1      -8.584 -13.036 -14.157  1.00  0.00     0.049 A 
ATOM     56  C   UNL     1      -3.475 -15.168 -13.268  1.00  0.00     0.074 A 
ATOM     57  C   UNL     1      -9.593 -13.940 -14.439  1.00  0.00     0.029 A 
ATOM     58  N   UNL     1      -7.428 -13.776 -13.958  1.00  0.00    -0.354 N 
ATOM     59  N   UNL     1      -4.718 -14.817 -13.500  1.00  0.00    -0.248 NA
ATOM     60  C   UNL     1      -3.251 -16.620 -13.253  1.00  0.00     0.031 C 
ATOM     61  C   UNL     1      -9.060 -15.230 -14.349  1.00  0.00     0.029 A 
ATOM     62  C   UNL     1      -7.704 -15.127 -14.083  1.00  0.00     0.049 A 
ATOM     63  H   UNL     1      -6.542 -13.397 -13.758  1.00  0.00     0.167 HD
ATOM     64  C   UNL     1      -5.417 -16.004 -13.690  1.00  0.00     0.074 A 
ATOM     65  C   UNL     1      -4.456 -17.080 -13.561  1.00  0.00     0.031 C 
ATOM     66  C   UNL     1      -6.735 -16.187 -13.950  1.00  0.00     0.031 A 
BRANCH  53  67
ATOM     67  C   UNL     1     -10.015 -10.949 -14.239  1.00  0.00    -0.014 A 
ATOM     68  C   UNL     1     -10.304 -10.153 -15.363  1.00  0.00     0.010 A 
ATOM     69  C   UNL     1     -11.021 -11.166 -13.280  1.00  0.00     0.010 A 
ATOM     70  C   UNL     1     -11.558  -9.552 -15.503  1.00  0.00     0.020 A 
ATOM     71  C   UNL     1     -12.287 -10.593 -13.433  1.00  0.00     0.020 A 
ATOM     72  C   UNL     1     -12.542  -9.776 -14.535  1.00  0.00     0.054 A 
BRANCH  72  73
ATOM     73  S   UNL     1     -14.168  -9.004 -14.757  1.00  0.00     0.124 S 
ATOM     74  O   UNL     1     -13.869  -7.596 -14.505  1.00  0.00    -0.237 OA
ATOM     75  O   UNL     1     -14.493  -9.338 -16.141  1.00  0.00    -0.237 OA
ATOM     76  O   UNL     1     -15.002  -9.653 -13.749  1.00  0.00    -0.744 OA
ENDBRANCH  72  73
ENDBRANCH  53  67
BRANCH  54  77
ATOM     77  C   UNL     1      -0.929 -14.886 -12.788  1.00  0.00    -0.014 A 
ATOM     78  C   UNL     1      -0.249 -15.564 -13.815  1.00  0.00     0.010 A 
ATOM     79  C   UNL     1      -0.317 -14.767 -11.527  1.00  0.00     0.010 A 
ATOM     80  C   UNL     1       1.008 -16.129 -13.580  1.00  0.00     0.020 A 
ATOM     81  C   UNL     1       0.954 -15.303 -11.297  1.00  0.00     0.020 A 
ATOM     82  C   UNL     1       1.603 -15.992 -12.323  1.00  0.00     0.054 A 
BRANCH  82  83
ATOM     83  S   UNL     1       3.255 -16.693 -12.056  1.00  0.00     0.124 S 
ATOM     84  O   UNL     1       2.978 -18.126 -12.037  1.00  0.00    -0.237 OA
ATOM     85  O   UNL     1       3.994 -16.205 -13.217  1.00  0.00    -0.237 OA
ATOM     86  O   UNL     1       3.667 -16.118 -10.777  1.00  0.00    -0.744 OA
ENDBRANCH  82  83
ENDBRANCH  54  77
BRANCH  66  87
ATOM     87  C   UNL     1      -7.215 -17.600 -14.154  1.00  0.00    -0.014 A 
ATOM     88  C   UNL     1      -7.294 -18.509 -13.084  1.00  0.00     0.010 A 
ATOM     89  C   UNL     1      -7.648 -18.005 -15.431  1.00  0.00     0.010 A 
ATOM     90  C   UNL     1      -7.767 -19.807 -13.295  1.00  0.00     0.020 A 
ATOM     91  C   UNL     1      -8.153 -19.291 -15.638  1.00  0.00     0.020 A 
ATOM     92  C   UNL     1      -8.195 -20.189 -14.570  1.00  0.00     0.054 A 
BRANCH  92  93
ATOM     93  S   UNL     1      -8.848 -21.864 -14.806  1.00  0.00     0.124 S 
ATOM     94  O   UNL     1      -7.640 -22.678 -14.706  1.00  0.00    -0.237 OA
ATOM     95  O   UNL     1      -9.790 -21.998 -13.697  1.00  0.00    -0.237 OA
ATOM     96  O   UNL     1      -9.459 -21.816 -16.132  1.00  0.00    -0.744 OA
ENDBRANCH  92  93
ENDBRANCH  66  87
ENDBRANCH  40  41
ENDBRANCH  32  35
ENDBRANCH  30  31
ENDBRANCH  29  30
ENDBRANCH   1  29
TORSDOF 19
