REMARK SMILES O=C(CC1(NC(=O)c2ccncc2Cl)CCCCC1)NCCCCCCNC(=O)c1ccc(-c2c3nc(c(-c4ccc(S(=O)(=O)[O-])cc4)c4ccc([nH]4)c(-c4ccc(S(=O)(=O)[O-])cc4)c4nc(c(-c5ccc(S(=O)(=O)[O-])cc5)c5ccc2[nH]5)C=C4)C=C3)cc1
REMARK SMILES IDX 23 1 22 2 21 3 20 4 1 5 2 6 3 8 4 9 15 10 19 11 16 12 18 13
REMARK SMILES IDX 17 14 5 15 6 16 7 18 8 19 9 20 13 21 10 22 12 23 14 24 11 25
REMARK SMILES IDX 24 26 25 27 26 28 27 29 28 30 29 32 30 33 31 34 89 35 32 36
REMARK SMILES IDX 88 37 33 38 34 39 35 40 82 41 36 42 87 43 81 44 83 45 37 46
REMARK SMILES IDX 86 47 80 48 79 49 38 51 68 52 49 53 67 54 50 55 53 56 66 57
REMARK SMILES IDX 84 58 51 59 52 60 65 62 85 63 54 64 39 65 40 66 48 67 41 68
REMARK SMILES IDX 47 69 42 70 43 71 44 72 45 73 46 74 69 75 70 76 78 77 71 78
REMARK SMILES IDX 77 79 72 80 73 81 74 82 75 83 76 84 55 85 56 86 64 87 57 88
REMARK SMILES IDX 63 89 58 90 59 91 60 92 61 93 62 94
REMARK H PARENT 20 7 5 17 27 31 83 50 53 61
REMARK Flexibility Score: inf
ROOT
ATOM      1  C   UNL     1       4.169   1.310   3.728  1.00  0.00     0.002 C 
ENDROOT
BRANCH   1   2
ATOM      2  C   UNL     1       2.658   1.075   3.569  1.00  0.00     0.021 C 
BRANCH   2   3
ATOM      3  C   UNL     1       2.118   1.419   2.184  1.00  0.00     0.116 C 
BRANCH   3   4
ATOM      4  N   UNL     1       2.892   0.743   1.167  1.00  0.00    -0.356 N 
ATOM      5  O   UNL     1       1.288  -0.752   0.550  1.00  0.00    -0.275 OA
ATOM      6  C   UNL     1       2.413  -0.291   0.408  1.00  0.00     0.222 C 
ATOM      7  H   UNL     1       3.817   1.043   1.012  1.00  0.00     0.163 HD
BRANCH   6   8
ATOM      8  C   UNL     1       3.442  -0.902  -0.531  1.00  0.00     0.128 C 
BRANCH   8   9
ATOM      9  C   UNL     1       3.938  -0.084  -1.769  1.00  0.00     0.049 C 
ATOM     10  C   UNL     1       3.696   1.449  -1.656  1.00  0.00     0.029 C 
ATOM     11  C   UNL     1       5.481  -0.349  -1.830  1.00  0.00     0.029 C 
ATOM     12  C   UNL     1       4.493   2.301  -2.649  1.00  0.00     0.002 C 
ATOM     13  C   UNL     1       6.264   0.542  -2.792  1.00  0.00     0.002 C 
ATOM     14  C   UNL     1       5.984   2.013  -2.533  1.00  0.00     0.000 C 
BRANCH   9  15
ATOM     15  N   UNL     1       3.391  -0.513  -3.098  1.00  0.00    -0.346 N 
ATOM     16  C   UNL     1       2.356  -1.256  -3.590  1.00  0.00     0.253 C 
ATOM     17  H   UNL     1       3.940  -0.154  -3.832  1.00  0.00     0.164 HD
ATOM     18  O   UNL     1       2.195  -1.330  -4.807  1.00  0.00    -0.269 OA
BRANCH  16  19
ATOM     19  C   UNL     1       1.492  -2.070  -2.742  1.00  0.00     0.061 A 
ATOM     20  C   UNL     1       1.788  -3.436  -2.666  1.00  0.00     0.035 A 
ATOM     21  C   UNL     1       0.374  -1.551  -2.105  1.00  0.00     0.072 A 
ATOM     22  C   UNL     1       0.980  -4.228  -1.874  1.00  0.00     0.112 A 
ATOM     23  C   UNL     1      -0.353  -2.428  -1.314  1.00  0.00     0.132 A 
ATOM     24  Cl  UNL     1      -0.117   0.091  -2.256  1.00  0.00    -0.082 Cl
ATOM     25  N   UNL     1      -0.077  -3.754  -1.184  1.00  0.00    -0.263 NA
ENDBRANCH  16  19
ENDBRANCH   9  15
ENDBRANCH   8   9
ENDBRANCH   6   8
ENDBRANCH   3   4
ENDBRANCH   2   3
ENDBRANCH   1   2
BRANCH   1  26
ATOM     26  C   UNL     1       4.648   2.723   3.381  1.00  0.00     0.002 C 
BRANCH  26  27
ATOM     27  C   UNL     1       3.986   3.841   4.187  1.00  0.00     0.021 C 
BRANCH  27  28
ATOM     28  C   UNL     1       4.087   3.673   5.699  1.00  0.00     0.116 C 
BRANCH  28  29
ATOM     29  N   UNL     1       5.465   3.623   6.156  1.00  0.00    -0.352 N 
ATOM     30  C   UNL     1       6.048   4.275   7.214  1.00  0.00     0.251 C 
ATOM     31  H   UNL     1       6.064   3.041   5.635  1.00  0.00     0.163 HD
ATOM     32  O   UNL     1       7.267   4.254   7.350  1.00  0.00    -0.269 OA
BRANCH  30  33
ATOM     33  C   UNL     1       5.201   5.021   8.169  1.00  0.00     0.039 A 
ATOM     34  C   UNL     1       5.604   6.296   8.570  1.00  0.00     0.014 A 
ATOM     35  C   UNL     1       4.015   4.469   8.662  1.00  0.00     0.014 A 
ATOM     36  C   UNL     1       4.789   7.038   9.425  1.00  0.00     0.010 A 
ATOM     37  C   UNL     1       3.167   5.240   9.452  1.00  0.00     0.010 A 
ATOM     38  C   UNL     1       3.548   6.530   9.848  1.00  0.00    -0.014 A 
BRANCH  38  39
ATOM     39  C   UNL     1       2.642   7.352  10.689  1.00  0.00     0.031 A 
ATOM     40  C   UNL     1       2.301   6.927  12.091  1.00  0.00     0.074 A 
ATOM     41  C   UNL     1       2.098   8.470  10.170  1.00  0.00     0.049 A 
ATOM     42  N   UNL     1       1.568   7.545  12.982  1.00  0.00    -0.248 NA
ATOM     43  C   UNL     1       2.832   5.632  12.546  1.00  0.00     0.031 C 
ATOM     44  C   UNL     1       2.309   8.959   8.805  1.00  0.00     0.029 A 
ATOM     45  N   UNL     1       1.267   9.406  10.731  1.00  0.00    -0.354 N 
ATOM     46  C   UNL     1       1.537   6.710  14.094  1.00  0.00     0.074 A 
ATOM     47  C   UNL     1       2.281   5.520  13.746  1.00  0.00     0.031 C 
ATOM     48  C   UNL     1       1.671  10.130   8.653  1.00  0.00     0.029 A 
ATOM     49  C   UNL     1       0.975  10.457   9.893  1.00  0.00     0.049 A 
ATOM     50  H   UNL     1       0.913   9.333  11.647  1.00  0.00     0.167 HD
ATOM     51  C   UNL     1       0.956   6.922  15.300  1.00  0.00     0.031 A 
ATOM     52  C   UNL     1       0.240  11.565  10.103  1.00  0.00     0.031 A 
ATOM     53  C   UNL     1       0.218   8.111  15.640  1.00  0.00     0.049 A 
ATOM     54  C   UNL     1      -0.392  11.779  11.449  1.00  0.00     0.074 A 
ATOM     55  C   UNL     1      -0.346   8.456  16.856  1.00  0.00     0.029 A 
ATOM     56  N   UNL     1      -0.071   9.143  14.759  1.00  0.00    -0.354 N 
ATOM     57  N   UNL     1      -0.334  11.021  12.518  1.00  0.00    -0.248 NA
ATOM     58  C   UNL     1      -1.179  13.007  11.620  1.00  0.00     0.031 C 
ATOM     59  C   UNL     1      -1.030   9.666  16.693  1.00  0.00     0.029 A 
ATOM     60  C   UNL     1      -0.837  10.108  15.394  1.00  0.00     0.049 A 
ATOM     61  H   UNL     1       0.224   9.184  13.821  1.00  0.00     0.167 HD
ATOM     62  C   UNL     1      -1.058  11.692  13.497  1.00  0.00     0.074 A 
ATOM     63  C   UNL     1      -1.523  12.927  12.897  1.00  0.00     0.031 C 
ATOM     64  C   UNL     1      -1.314  11.321  14.777  1.00  0.00     0.031 A 
BRANCH  51  65
ATOM     65  C   UNL     1       1.081   5.830  16.332  1.00  0.00    -0.014 A 
ATOM     66  C   UNL     1       2.320   5.515  16.921  1.00  0.00     0.010 A 
ATOM     67  C   UNL     1      -0.065   5.120  16.736  1.00  0.00     0.010 A 
ATOM     68  C   UNL     1       2.420   4.476  17.851  1.00  0.00     0.020 A 
ATOM     69  C   UNL     1       0.025   4.101  17.689  1.00  0.00     0.020 A 
ATOM     70  C   UNL     1       1.272   3.771  18.224  1.00  0.00     0.054 A 
BRANCH  70  71
ATOM     71  S   UNL     1       1.430   2.429  19.435  1.00  0.00     0.124 S 
ATOM     72  O   UNL     1       2.088   1.390  18.647  1.00  0.00    -0.237 OA
ATOM     73  O   UNL     1       2.248   3.037  20.481  1.00  0.00    -0.237 OA
ATOM     74  O   UNL     1       0.049   2.141  19.816  1.00  0.00    -0.744 OA
ENDBRANCH  70  71
ENDBRANCH  51  65
BRANCH  52  75
ATOM     75  C   UNL     1       0.103  12.579   9.021  1.00  0.00    -0.014 A 
ATOM     76  C   UNL     1       0.744  13.826   9.132  1.00  0.00     0.010 A 
ATOM     77  C   UNL     1      -0.647  12.296   7.865  1.00  0.00     0.010 A 
ATOM     78  C   UNL     1       0.628  14.775   8.113  1.00  0.00     0.020 A 
ATOM     79  C   UNL     1      -0.741  13.231   6.831  1.00  0.00     0.020 A 
ATOM     80  C   UNL     1      -0.110  14.469   6.966  1.00  0.00     0.054 A 
BRANCH  80  81
ATOM     81  S   UNL     1      -0.190  15.692   5.628  1.00  0.00     0.124 S 
ATOM     82  O   UNL     1      -1.074  16.706   6.195  1.00  0.00    -0.237 OA
ATOM     83  O   UNL     1       1.209  16.084   5.475  1.00  0.00    -0.237 OA
ATOM     84  O   UNL     1      -0.742  14.935   4.506  1.00  0.00    -0.744 OA
ENDBRANCH  80  81
ENDBRANCH  52  75
BRANCH  64  85
ATOM     85  C   UNL     1      -2.123  12.276  15.616  1.00  0.00    -0.014 A 
ATOM     86  C   UNL     1      -3.489  12.496  15.360  1.00  0.00     0.010 A 
ATOM     87  C   UNL     1      -1.508  12.959  16.681  1.00  0.00     0.010 A 
ATOM     88  C   UNL     1      -4.210  13.422  16.118  1.00  0.00     0.020 A 
ATOM     89  C   UNL     1      -2.234  13.861  17.463  1.00  0.00     0.020 A 
ATOM     90  C   UNL     1      -3.575  14.105  17.160  1.00  0.00     0.054 A 
BRANCH  90  91
ATOM     91  S   UNL     1      -4.532  15.301  18.131  1.00  0.00     0.124 S 
ATOM     92  O   UNL     1      -4.640  16.425  17.205  1.00  0.00    -0.237 OA
ATOM     93  O   UNL     1      -5.775  14.582  18.394  1.00  0.00    -0.237 OA
ATOM     94  O   UNL     1      -3.696  15.540  19.306  1.00  0.00    -0.744 OA
ENDBRANCH  90  91
ENDBRANCH  64  85
ENDBRANCH  38  39
ENDBRANCH  30  33
ENDBRANCH  28  29
ENDBRANCH  27  28
ENDBRANCH  26  27
ENDBRANCH   1  26
TORSDOF 19
