REMARK SMILES O=C(NCCCCCCNC(=O)c1ccc(OC[C@H]2C[C@H]3CC[C@@H]2C3)c(Cl)c1)c1ccc(-c2c3nc(c(-c4ccc(S(=O)(=O)[O-])cc4)c4ccc([nH]4)c(-c4ccc(S(=O)(=O)[O-])cc4)c4nc(c(-c5ccc(S(=O)(=O)[O-])cc5)c5ccc2[nH]5)C=C4)C=C3)cc1
REMARK SMILES IDX 6 1 5 2 4 3 3 4 1 5 2 6 29 8 30 9 88 10 31 11 87 12 32 13
REMARK SMILES IDX 33 14 34 15 81 16 35 17 86 18 80 19 82 20 36 21 85 22 79 23
REMARK SMILES IDX 78 24 37 26 67 27 48 28 66 29 49 30 52 31 65 32 83 33 50 34
REMARK SMILES IDX 51 35 64 37 84 38 53 39 38 40 39 41 47 42 40 43 46 44 41 45
REMARK SMILES IDX 42 46 43 47 44 48 45 49 68 50 69 51 77 52 70 53 76 54 71 55
REMARK SMILES IDX 72 56 73 57 74 58 75 59 54 60 55 61 63 62 56 63 62 64 57 65
REMARK SMILES IDX 58 66 59 67 60 68 61 69 7 70 8 71 9 72 10 73 11 74 12 76
REMARK SMILES IDX 13 77 14 78 28 79 15 80 26 81 16 82 27 83 17 84 18 85 19 86
REMARK SMILES IDX 20 87 24 88 21 89 23 90 25 91 22 92
REMARK H PARENT 3 7 82 25 52 36 10 75
REMARK Flexibility Score: inf
ROOT
ATOM      1  C   UNL     1      11.173 -18.804   2.427  1.00  0.00     0.002 C 
ENDROOT
BRANCH   1   2
ATOM      2  C   UNL     1      10.220 -18.522   3.589  1.00  0.00     0.021 C 
BRANCH   2   3
ATOM      3  C   UNL     1       8.753 -18.785   3.284  1.00  0.00     0.116 C 
BRANCH   3   4
ATOM      4  N   UNL     1       8.487 -20.193   3.056  1.00  0.00    -0.352 N 
ATOM      5  O   UNL     1       7.565 -22.206   3.487  1.00  0.00    -0.269 OA
ATOM      6  C   UNL     1       7.544 -20.991   3.655  1.00  0.00     0.251 C 
ATOM      7  H   UNL     1       9.056 -20.634   2.384  1.00  0.00     0.163 HD
BRANCH   6   8
ATOM      8  C   UNL     1       6.519 -20.372   4.523  1.00  0.00     0.039 A 
ATOM      9  C   UNL     1       5.831 -19.228   4.106  1.00  0.00     0.014 A 
ATOM     10  C   UNL     1       6.248 -20.943   5.768  1.00  0.00     0.014 A 
ATOM     11  C   UNL     1       4.954 -18.593   4.978  1.00  0.00     0.010 A 
ATOM     12  C   UNL     1       5.309 -20.346   6.613  1.00  0.00     0.010 A 
ATOM     13  C   UNL     1       4.670 -19.156   6.233  1.00  0.00    -0.014 A 
BRANCH  13  14
ATOM     14  C   UNL     1       3.641 -18.528   7.098  1.00  0.00     0.031 A 
ATOM     15  C   UNL     1       4.002 -17.907   8.417  1.00  0.00     0.074 A 
ATOM     16  C   UNL     1       2.365 -18.512   6.666  1.00  0.00     0.049 A 
ATOM     17  N   UNL     1       3.224 -17.301   9.278  1.00  0.00    -0.248 NA
ATOM     18  C   UNL     1       5.412 -17.978   8.827  1.00  0.00     0.031 C 
ATOM     19  C   UNL     1       1.896 -19.091   5.404  1.00  0.00     0.029 A 
ATOM     20  N   UNL     1       1.234 -17.978   7.227  1.00  0.00    -0.354 N 
ATOM     21  C   UNL     1       4.042 -16.938  10.341  1.00  0.00     0.074 A 
ATOM     22  C   UNL     1       5.374 -17.409  10.025  1.00  0.00     0.031 C 
ATOM     23  C   UNL     1       0.588 -18.836   5.263  1.00  0.00     0.029 A 
ATOM     24  C   UNL     1       0.112 -18.132   6.448  1.00  0.00     0.049 A 
ATOM     25  H   UNL     1       1.226 -17.528   8.102  1.00  0.00     0.167 HD
ATOM     26  C   UNL     1       3.711 -16.272  11.475  1.00  0.00     0.031 A 
ATOM     27  C   UNL     1      -1.163 -17.760   6.664  1.00  0.00     0.031 A 
ATOM     28  C   UNL     1       2.382 -15.813  11.785  1.00  0.00     0.049 A 
ATOM     29  C   UNL     1      -1.507 -17.047   7.937  1.00  0.00     0.074 A 
ATOM     30  C   UNL     1       1.952 -15.104  12.894  1.00  0.00     0.029 A 
ATOM     31  N   UNL     1       1.265 -16.022  10.989  1.00  0.00    -0.354 N 
ATOM     32  N   UNL     1      -0.713 -16.688   8.918  1.00  0.00    -0.248 NA
ATOM     33  C   UNL     1      -2.917 -16.692   8.135  1.00  0.00     0.031 C 
ATOM     34  C   UNL     1       0.567 -14.925  12.790  1.00  0.00     0.029 A 
ATOM     35  C   UNL     1       0.142 -15.479  11.592  1.00  0.00     0.049 A 
ATOM     36  H   UNL     1       1.270 -16.489  10.122  1.00  0.00     0.167 HD
ATOM     37  C   UNL     1      -1.526 -16.052   9.847  1.00  0.00     0.074 A 
ATOM     38  C   UNL     1      -2.870 -16.061   9.301  1.00  0.00     0.031 C 
ATOM     39  C   UNL     1      -1.190 -15.511  11.043  1.00  0.00     0.031 A 
BRANCH  26  40
ATOM     40  C   UNL     1       4.806 -16.035  12.482  1.00  0.00    -0.014 A 
ATOM     41  C   UNL     1       5.826 -15.096  12.243  1.00  0.00     0.010 A 
ATOM     42  C   UNL     1       4.805 -16.749  13.694  1.00  0.00     0.010 A 
ATOM     43  C   UNL     1       6.852 -14.913  13.175  1.00  0.00     0.020 A 
ATOM     44  C   UNL     1       5.817 -16.552  14.639  1.00  0.00     0.020 A 
ATOM     45  C   UNL     1       6.847 -15.651  14.363  1.00  0.00     0.054 A 
BRANCH  45  46
ATOM     46  S   UNL     1       8.196 -15.405  15.551  1.00  0.00     0.124 S 
ATOM     47  O   UNL     1       9.292 -16.132  14.914  1.00  0.00    -0.237 OA
ATOM     48  O   UNL     1       8.341 -13.952  15.579  1.00  0.00    -0.237 OA
ATOM     49  O   UNL     1       7.686 -16.001  16.783  1.00  0.00    -0.744 OA
ENDBRANCH  45  46
ENDBRANCH  26  40
BRANCH  27  50
ATOM     50  C   UNL     1      -2.193 -18.062   5.637  1.00  0.00    -0.014 A 
ATOM     51  C   UNL     1      -2.719 -17.035   4.834  1.00  0.00     0.010 A 
ATOM     52  C   UNL     1      -2.603 -19.389   5.412  1.00  0.00     0.010 A 
ATOM     53  C   UNL     1      -3.634 -17.331   3.821  1.00  0.00     0.020 A 
ATOM     54  C   UNL     1      -3.499 -19.691   4.384  1.00  0.00     0.020 A 
ATOM     55  C   UNL     1      -4.013 -18.658   3.598  1.00  0.00     0.054 A 
BRANCH  55  56
ATOM     56  S   UNL     1      -5.134 -19.030   2.220  1.00  0.00     0.124 S 
ATOM     57  O   UNL     1      -6.424 -18.609   2.756  1.00  0.00    -0.237 OA
ATOM     58  O   UNL     1      -4.596 -18.203   1.142  1.00  0.00    -0.237 OA
ATOM     59  O   UNL     1      -4.972 -20.470   2.029  1.00  0.00    -0.744 OA
ENDBRANCH  55  56
ENDBRANCH  27  50
BRANCH  39  60
ATOM     60  C   UNL     1      -2.295 -14.869  11.835  1.00  0.00    -0.014 A 
ATOM     61  C   UNL     1      -3.255 -15.649  12.504  1.00  0.00     0.010 A 
ATOM     62  C   UNL     1      -2.353 -13.468  11.939  1.00  0.00     0.010 A 
ATOM     63  C   UNL     1      -4.273 -15.037  13.239  1.00  0.00     0.020 A 
ATOM     64  C   UNL     1      -3.356 -12.853  12.693  1.00  0.00     0.020 A 
ATOM     65  C   UNL     1      -4.318 -13.642  13.326  1.00  0.00     0.054 A 
BRANCH  65  66
ATOM     66  S   UNL     1      -5.627 -12.868  14.316  1.00  0.00     0.124 S 
ATOM     67  O   UNL     1      -6.785 -12.988  13.435  1.00  0.00    -0.237 OA
ATOM     68  O   UNL     1      -5.660 -13.702  15.515  1.00  0.00    -0.237 OA
ATOM     69  O   UNL     1      -5.141 -11.506  14.526  1.00  0.00    -0.744 OA
ENDBRANCH  65  66
ENDBRANCH  39  60
ENDBRANCH  13  14
ENDBRANCH   6   8
ENDBRANCH   3   4
ENDBRANCH   2   3
ENDBRANCH   1   2
BRANCH   1  70
ATOM     70  C   UNL     1      10.845 -18.073   1.120  1.00  0.00     0.002 C 
BRANCH  70  71
ATOM     71  C   UNL     1      10.590 -16.567   1.259  1.00  0.00     0.021 C 
BRANCH  71  72
ATOM     72  C   UNL     1      11.708 -15.816   1.973  1.00  0.00     0.116 C 
BRANCH  72  73
ATOM     73  N   UNL     1      12.911 -15.822   1.169  1.00  0.00    -0.352 N 
ATOM     74  C   UNL     1      13.489 -14.760   0.537  1.00  0.00     0.251 C 
ATOM     75  H   UNL     1      13.364 -16.690   1.067  1.00  0.00     0.163 HD
ATOM     76  O   UNL     1      14.453 -14.887  -0.202  1.00  0.00    -0.269 OA
BRANCH  74  77
ATOM     77  C   UNL     1      12.948 -13.423   0.804  1.00  0.00     0.041 A 
ATOM     78  C   UNL     1      13.506 -12.682   1.843  1.00  0.00     0.018 A 
ATOM     79  C   UNL     1      11.924 -12.906   0.010  1.00  0.00     0.038 A 
ATOM     80  C   UNL     1      13.126 -11.355   1.998  1.00  0.00     0.049 A 
ATOM     81  C   UNL     1      11.542 -11.575   0.183  1.00  0.00     0.083 A 
ATOM     82  C   UNL     1      12.247 -10.763   1.081  1.00  0.00     0.137 A 
ATOM     83  Cl  UNL     1      10.167 -11.026  -0.708  1.00  0.00    -0.080 Cl
BRANCH  82  84
ATOM     84  O   UNL     1      12.214  -9.396   1.154  1.00  0.00    -0.492 OA
BRANCH  84  85
ATOM     85  C   UNL     1      12.445  -8.699  -0.077  1.00  0.00     0.233 C 
BRANCH  85  86
ATOM     86  C   UNL     1      13.900  -8.547  -0.582  1.00  0.00     0.030 C 
ATOM     87  C   UNL     1      15.076  -9.296   0.074  1.00  0.00     0.011 C 
ATOM     88  C   UNL     1      14.097  -8.889  -2.089  1.00  0.00    -0.004 C 
ATOM     89  C   UNL     1      15.802  -9.944  -1.122  1.00  0.00    -0.010 C 
ATOM     90  C   UNL     1      13.802 -10.369  -2.381  1.00  0.00     0.004 C 
ATOM     91  C   UNL     1      15.626  -8.884  -2.205  1.00  0.00     0.007 C 
ATOM     92  C   UNL     1      14.948 -11.098  -1.670  1.00  0.00     0.004 C 
ENDBRANCH  85  86
ENDBRANCH  84  85
ENDBRANCH  82  84
ENDBRANCH  74  77
ENDBRANCH  72  73
ENDBRANCH  71  72
ENDBRANCH  70  71
ENDBRANCH   1  70
TORSDOF 19
