REMARK SMILES Cc1oc2c(C)c3oc(=O)c(CCC(=O)N[C@H](Cc4ccc(Cl)cc4)C(=O)NCCCCCCNC(=O)c4ccc(-c5c6nc(c(-c7ccc(S(=O)(=O)[O-])cc7)c7ccc([nH]7)c(-c7ccc(S(=O)(=O)[O-])cc7)c7nc(c(-c8ccc(S(=O)(=O)[O-])cc8)c8ccc5[nH]8)C=C7)C=C6)cc4)c(C)c3cc2c1C
REMARK SMILES IDX 31 1 30 2 29 3 28 4 26 5 27 6 17 8 16 9 14 10 15 11 13 13
REMARK SMILES IDX 12 14 11 15 1 16 2 17 3 18 103 19 4 20 102 21 104 22 5 23
REMARK SMILES IDX 101 24 6 25 7 26 100 27 8 28 98 29 9 30 99 31 10 32 18 33
REMARK SMILES IDX 19 34 20 35 25 36 21 37 24 38 22 39 23 40 32 41 33 42 34 43
REMARK SMILES IDX 35 44 36 45 37 47 38 48 39 49 97 50 40 51 96 52 41 53 42 54
REMARK SMILES IDX 43 55 90 56 44 57 95 58 89 59 91 60 45 61 94 62 88 63 87 64
REMARK SMILES IDX 46 66 76 67 57 68 75 69 58 70 61 71 74 72 92 73 59 74 60 75
REMARK SMILES IDX 73 77 93 78 62 79 47 80 48 81 56 82 49 83 55 84 50 85 51 86
REMARK SMILES IDX 52 87 53 88 54 89 77 90 78 91 86 92 79 93 85 94 80 95 81 96
REMARK SMILES IDX 82 97 83 98 84 99 63 100 64 101 72 102 65 103 71 104 66 105
REMARK SMILES IDX 67 106 68 107 69 108 70 109
REMARK H PARENT 28 7 16 12 35 46 91 65 61 76
REMARK Flexibility Score: inf
ROOT
ATOM      1  C   UNL     1       5.027   2.099   2.850  1.00  0.00     0.002 C 
ENDROOT
BRANCH   1   2
ATOM      2  C   UNL     1       3.985   3.165   2.446  1.00  0.00     0.021 C 
BRANCH   2   3
ATOM      3  C   UNL     1       2.459   2.887   2.702  1.00  0.00     0.116 C 
BRANCH   3   4
ATOM      4  N   UNL     1       1.316   3.903   3.083  1.00  0.00    -0.354 N 
ATOM      5  C   UNL     1       0.918   4.908   4.073  1.00  0.00     0.242 C 
ATOM      6  O   UNL     1       1.480   5.599   4.918  1.00  0.00    -0.273 OA
ATOM      7  H   UNL     1       0.606   3.839   2.404  1.00  0.00     0.163 HD
BRANCH   5   8
ATOM      8  C   UNL     1      -0.537   5.115   4.268  1.00  0.00     0.175 C 
BRANCH   8   9
ATOM      9  N   UNL     1      -1.014   3.824   3.929  1.00  0.00    -0.344 N 
ATOM     10  C   UNL     1      -0.415   2.717   4.590  1.00  0.00     0.220 C 
ATOM     11  O   UNL     1      -0.927   1.614   4.377  1.00  0.00    -0.275 OA
ATOM     12  H   UNL     1      -1.731   3.699   3.265  1.00  0.00     0.164 HD
BRANCH  10  13
ATOM     13  C   UNL     1       0.898   2.876   5.642  1.00  0.00     0.105 C 
BRANCH  13  14
ATOM     14  C   UNL     1       2.573   3.350   5.554  1.00  0.00     0.053 C 
BRANCH  14  15
ATOM     15  C   UNL     1       3.552   4.729   5.169  1.00  0.00     0.042 A 
ATOM     16  C   UNL     1       3.734  12.184   2.057  1.00  0.00     0.088 C 
ATOM     17  C   UNL     1       4.079  10.855   2.603  1.00  0.00     0.105 A 
ATOM     18  O   UNL     1       4.271  10.751   3.958  1.00  0.00    -0.461 OA
ATOM     19  C   UNL     1       4.206   9.621   1.997  1.00  0.00    -0.002 A 
ATOM     20  C   UNL     1       4.548   9.435   4.229  1.00  0.00     0.141 A 
ATOM     21  C   UNL     1       4.704   8.764   3.024  1.00  0.00     0.025 A 
ATOM     22  C   UNL     1       3.796   9.244   0.613  1.00  0.00     0.049 C 
ATOM     23  C   UNL     1       4.625   8.809   5.493  1.00  0.00     0.036 A 
ATOM     24  C   UNL     1       5.102   7.426   3.061  1.00  0.00     0.024 A 
ATOM     25  C   UNL     1       4.596   9.562   6.775  1.00  0.00     0.052 C 
ATOM     26  C   UNL     1       4.605   7.404   5.433  1.00  0.00     0.145 A 
ATOM     27  C   UNL     1       4.692   6.748   4.225  1.00  0.00     0.022 A 
ATOM     28  O   UNL     1       4.423   6.596   6.573  1.00  0.00    -0.422 OA
ATOM     29  C   UNL     1       3.726   5.621   4.099  1.00  0.00    -0.030 A 
ATOM     30  C   UNL     1       4.266   5.204   6.423  1.00  0.00     0.339 A 
ATOM     31  C   UNL     1       3.011   5.951   2.708  1.00  0.00     0.046 C 
ATOM     32  O   UNL     1       4.569   4.433   7.330  1.00  0.00    -0.246 OA
ENDBRANCH  14  15
ENDBRANCH  13  14
ENDBRANCH  10  13
ENDBRANCH   8   9
BRANCH   8  33
ATOM     33  C   UNL     1      -0.855   6.602   3.926  1.00  0.00     0.070 C 
BRANCH  33  34
ATOM     34  C   UNL     1      -0.586   7.382   2.654  1.00  0.00    -0.045 A 
ATOM     35  C   UNL     1      -0.706   6.855   1.372  1.00  0.00     0.005 A 
ATOM     36  C   UNL     1      -0.322   8.774   2.780  1.00  0.00     0.005 A 
ATOM     37  C   UNL     1      -0.627   7.704   0.253  1.00  0.00     0.021 A 
ATOM     38  C   UNL     1      -0.247   9.618   1.669  1.00  0.00     0.021 A 
ATOM     39  C   UNL     1      -0.422   9.078   0.405  1.00  0.00     0.041 A 
ATOM     40  Cl  UNL     1      -0.407  10.110  -0.972  1.00  0.00    -0.084 Cl
ENDBRANCH  33  34
ENDBRANCH   8  33
ENDBRANCH   5   8
ENDBRANCH   3   4
ENDBRANCH   2   3
ENDBRANCH   1   2
BRANCH   1  41
ATOM     41  C   UNL     1       5.159   0.901   1.925  1.00  0.00     0.002 C 
BRANCH  41  42
ATOM     42  C   UNL     1       5.441   1.240   0.450  1.00  0.00     0.021 C 
BRANCH  42  43
ATOM     43  C   UNL     1       6.783   1.936   0.152  1.00  0.00     0.116 C 
BRANCH  43  44
ATOM     44  N   UNL     1       7.896   1.075   0.508  1.00  0.00    -0.352 N 
ATOM     45  C   UNL     1       8.609   0.247  -0.321  1.00  0.00     0.251 C 
ATOM     46  H   UNL     1       8.171   1.087   1.454  1.00  0.00     0.163 HD
ATOM     47  O   UNL     1       8.866  -0.890   0.070  1.00  0.00    -0.269 OA
BRANCH  45  48
ATOM     48  C   UNL     1       9.151   0.715  -1.625  1.00  0.00     0.039 A 
ATOM     49  C   UNL     1       9.465  -0.259  -2.584  1.00  0.00     0.014 A 
ATOM     50  C   UNL     1       9.531   2.042  -1.849  1.00  0.00     0.014 A 
ATOM     51  C   UNL     1      10.142   0.084  -3.755  1.00  0.00     0.010 A 
ATOM     52  C   UNL     1      10.212   2.385  -3.027  1.00  0.00     0.010 A 
ATOM     53  C   UNL     1      10.517   1.411  -3.992  1.00  0.00    -0.014 A 
BRANCH  53  54
ATOM     54  C   UNL     1      11.118   1.727  -5.310  1.00  0.00     0.031 A 
ATOM     55  C   UNL     1      10.503   2.897  -6.003  1.00  0.00     0.074 A 
ATOM     56  C   UNL     1      12.393   1.397  -5.622  1.00  0.00     0.049 A 
ATOM     57  N   UNL     1      10.812   4.108  -5.654  1.00  0.00    -0.248 NA
ATOM     58  C   UNL     1       9.348   2.836  -6.895  1.00  0.00     0.031 C 
ATOM     59  C   UNL     1      13.466   1.258  -4.625  1.00  0.00     0.029 A 
ATOM     60  N   UNL     1      13.051   1.314  -6.831  1.00  0.00    -0.354 N 
ATOM     61  C   UNL     1       9.905   4.975  -6.239  1.00  0.00     0.074 A 
ATOM     62  C   UNL     1       9.010   4.135  -7.001  1.00  0.00     0.031 C 
ATOM     63  C   UNL     1      14.656   1.251  -5.262  1.00  0.00     0.029 A 
ATOM     64  C   UNL     1      14.438   1.228  -6.707  1.00  0.00     0.049 A 
ATOM     65  H   UNL     1      12.587   1.316  -7.699  1.00  0.00     0.167 HD
ATOM     66  C   UNL     1      10.025   6.324  -6.076  1.00  0.00     0.031 A 
ATOM     67  C   UNL     1      15.346   1.680  -7.614  1.00  0.00     0.031 A 
ATOM     68  C   UNL     1      11.214   6.745  -5.365  1.00  0.00     0.049 A 
ATOM     69  C   UNL     1      15.191   3.171  -7.503  1.00  0.00     0.074 A 
ATOM     70  C   UNL     1      11.596   7.584  -4.342  1.00  0.00     0.029 A 
ATOM     71  N   UNL     1      12.360   6.146  -5.805  1.00  0.00    -0.354 N 
ATOM     72  N   UNL     1      15.699   3.920  -6.561  1.00  0.00    -0.248 NA
ATOM     73  C   UNL     1      14.203   3.854  -8.351  1.00  0.00     0.031 C 
ATOM     74  C   UNL     1      13.015   7.422  -4.176  1.00  0.00     0.029 A 
ATOM     75  C   UNL     1      13.475   6.517  -5.124  1.00  0.00     0.049 A 
ATOM     76  H   UNL     1      12.376   5.503  -6.550  1.00  0.00     0.167 HD
ATOM     77  C   UNL     1      14.886   5.045  -6.514  1.00  0.00     0.074 A 
ATOM     78  C   UNL     1      14.108   5.029  -7.737  1.00  0.00     0.031 C 
ATOM     79  C   UNL     1      14.699   5.789  -5.384  1.00  0.00     0.031 A 
BRANCH  66  80
ATOM     80  C   UNL     1       9.247   7.356  -6.810  1.00  0.00    -0.014 A 
ATOM     81  C   UNL     1       9.925   8.054  -7.832  1.00  0.00     0.010 A 
ATOM     82  C   UNL     1       7.986   7.809  -6.402  1.00  0.00     0.010 A 
ATOM     83  C   UNL     1       9.386   9.208  -8.400  1.00  0.00     0.020 A 
ATOM     84  C   UNL     1       7.435   8.969  -6.976  1.00  0.00     0.020 A 
ATOM     85  C   UNL     1       8.150   9.671  -7.955  1.00  0.00     0.054 A 
BRANCH  85  86
ATOM     86  S   UNL     1       7.537  11.243  -8.627  1.00  0.00     0.124 S 
ATOM     87  O   UNL     1       8.579  12.184  -8.225  1.00  0.00    -0.237 OA
ATOM     88  O   UNL     1       7.462  10.960 -10.058  1.00  0.00    -0.237 OA
ATOM     89  O   UNL     1       6.248  11.423  -7.963  1.00  0.00    -0.744 OA
ENDBRANCH  85  86
ENDBRANCH  66  80
BRANCH  67  90
ATOM     90  C   UNL     1      15.452   0.951  -8.918  1.00  0.00    -0.014 A 
ATOM     91  C   UNL     1      15.627  -0.451  -8.885  1.00  0.00     0.010 A 
ATOM     92  C   UNL     1      15.427   1.562 -10.183  1.00  0.00     0.010 A 
ATOM     93  C   UNL     1      15.627  -1.218 -10.057  1.00  0.00     0.020 A 
ATOM     94  C   UNL     1      15.390   0.800 -11.362  1.00  0.00     0.020 A 
ATOM     95  C   UNL     1      15.460  -0.590 -11.288  1.00  0.00     0.054 A 
BRANCH  95  96
ATOM     96  S   UNL     1      15.262  -1.604 -12.779  1.00  0.00     0.124 S 
ATOM     97  O   UNL     1      16.568  -2.267 -12.879  1.00  0.00    -0.237 OA
ATOM     98  O   UNL     1      14.148  -2.483 -12.402  1.00  0.00    -0.237 OA
ATOM     99  O   UNL     1      14.966  -0.645 -13.819  1.00  0.00    -0.744 OA
ENDBRANCH  95  96
ENDBRANCH  67  90
BRANCH  79 100
ATOM    100  C   UNL     1      15.764   5.710  -4.347  1.00  0.00    -0.014 A 
ATOM    101  C   UNL     1      17.068   6.099  -4.696  1.00  0.00     0.010 A 
ATOM    102  C   UNL     1      15.480   5.365  -3.015  1.00  0.00     0.010 A 
ATOM    103  C   UNL     1      18.066   6.176  -3.731  1.00  0.00     0.020 A 
ATOM    104  C   UNL     1      16.478   5.447  -2.039  1.00  0.00     0.020 A 
ATOM    105  C   UNL     1      17.761   5.868  -2.404  1.00  0.00     0.054 A 
BRANCH 105 106
ATOM    106  S   UNL     1      19.057   6.096  -1.162  1.00  0.00     0.124 S 
ATOM    107  O   UNL     1      20.065   5.124  -1.575  1.00  0.00    -0.237 OA
ATOM    108  O   UNL     1      19.425   7.499  -1.347  1.00  0.00    -0.237 OA
ATOM    109  O   UNL     1      18.387   5.798   0.102  1.00  0.00    -0.744 OA
ENDBRANCH 105 106
ENDBRANCH  79 100
ENDBRANCH  53  54
ENDBRANCH  45  48
ENDBRANCH  43  44
ENDBRANCH  42  43
ENDBRANCH  41  42
ENDBRANCH   1  41
TORSDOF 22
