REMARK SMILES Cc1cc(C(=O)N[C@@H]2C(=O)N3C(C(=O)NCCCCCCNC(=O)c4ccc(-c5c6nc(c(-c7ccc(S(=O)(=O)[O-])cc7)c7ccc([nH]7)c(-c7ccc(S(=O)(=O)[O-])cc7)c7nc(c(-c8ccc(S(=O)(=O)[O-])cc8)c8ccc5[nH]8)C=C7)C=C6)cc4)=C(CSc4nnc(C)s4)CS[C@H]23)n(C)n1
REMARK SMILES IDX 18 1 17 2 16 3 15 4 13 5 14 6 12 8 8 9 9 10 96 11 10 12
REMARK SMILES IDX 11 13 95 14 94 15 85 16 7 17 5 18 6 19 4 21 1 22 2 23 3 24
REMARK SMILES IDX 99 25 97 26 98 27 86 28 87 29 88 30 89 31 93 32 90 33 91 34
REMARK SMILES IDX 92 35 19 36 20 37 21 38 22 39 23 40 24 42 25 43 26 44 84 45
REMARK SMILES IDX 27 46 83 47 28 48 29 49 30 50 77 51 31 52 82 53 76 54 78 55
REMARK SMILES IDX 32 56 81 57 75 58 74 59 33 61 63 62 44 63 62 64 45 65 48 66
REMARK SMILES IDX 61 67 79 68 46 69 47 70 60 72 80 73 49 74 34 75 35 76 43 77
REMARK SMILES IDX 36 78 42 79 37 80 38 81 39 82 40 83 41 84 64 85 65 86 73 87
REMARK SMILES IDX 66 88 72 89 67 90 68 91 69 92 70 93 71 94 50 95 51 96 59 97
REMARK SMILES IDX 52 98 58 99 53 100 54 101 55 102 56 103 57 104
REMARK H PARENT 15 7 7 20 22 41 78 60 48 71
REMARK Flexibility Score: inf
ROOT
ATOM      1  C   UNL     1      -6.285   1.110  -4.637  1.00  0.00     0.002 C 
ENDROOT
BRANCH   1   2
ATOM      2  C   UNL     1      -5.699  -0.157  -4.028  1.00  0.00     0.021 C 
BRANCH   2   3
ATOM      3  C   UNL     1      -4.247  -0.489  -4.400  1.00  0.00     0.116 C 
BRANCH   3   4
ATOM      4  N   UNL     1      -3.385  -0.372  -3.240  1.00  0.00    -0.351 N 
ATOM      5  C   UNL     1      -2.693  -1.170  -2.397  1.00  0.00     0.268 C 
ATOM      6  O   UNL     1      -1.930  -0.512  -1.675  1.00  0.00    -0.268 OA
ATOM      7  H   UNL     1      -3.269   0.573  -2.992  1.00  0.00     0.163 HD
BRANCH   5   8
ATOM      8  C   UNL     1      -2.602  -2.710  -2.377  1.00  0.00     0.111 C 
ATOM      9  C   UNL     1      -0.153  -4.068  -0.354  1.00  0.00     0.206 C 
ATOM     10  C   UNL     1      -1.127  -2.859  -0.343  1.00  0.00     0.253 C 
ATOM     11  C   UNL     1      -0.979  -4.481  -1.604  1.00  0.00     0.181 C 
ATOM     12  O   UNL     1      -1.487  -2.069   0.520  1.00  0.00    -0.272 OA
ATOM     13  N   UNL     1      -1.508  -3.134  -1.625  1.00  0.00    -0.290 N 
ATOM     14  S   UNL     1      -2.353  -5.637  -1.337  1.00  0.00    -0.129 SA
ATOM     15  C   UNL     1      -3.055  -5.150  -2.913  1.00  0.00     0.106 C 
ATOM     16  C   UNL     1      -3.439  -3.675  -2.876  1.00  0.00    -0.020 C 
BRANCH   9  17
ATOM     17  N   UNL     1      -0.116  -4.956   0.841  1.00  0.00    -0.336 N 
ATOM     18  C   UNL     1       0.225  -6.293   0.935  1.00  0.00     0.270 C 
ATOM     19  O   UNL     1       0.205  -6.809   2.051  1.00  0.00    -0.268 OA
ATOM     20  H   UNL     1      -0.371  -4.527   1.690  1.00  0.00     0.164 HD
BRANCH  18  21
ATOM     21  C   UNL     1       0.515  -7.029  -0.277  1.00  0.00     0.126 A 
ATOM     22  C   UNL     1       0.598  -7.389  -3.898  1.00  0.00     0.069 C 
ATOM     23  C   UNL     1       0.655  -7.556  -2.426  1.00  0.00     0.060 A 
ATOM     24  C   UNL     1       1.123  -6.638  -1.461  1.00  0.00     0.059 A 
ATOM     25  N   UNL     1       0.128  -8.633  -1.844  1.00  0.00    -0.178 NA
ATOM     26  N   UNL     1       0.136  -8.332  -0.525  1.00  0.00    -0.263 N 
ATOM     27  C   UNL     1      -0.310  -9.354   0.392  1.00  0.00     0.174 C 
ENDBRANCH  18  21
ENDBRANCH   9  17
BRANCH  16  28
ATOM     28  C   UNL     1      -4.898  -3.540  -3.247  1.00  0.00     0.111 C 
BRANCH  28  29
ATOM     29  S   UNL     1      -5.739  -2.536  -2.034  1.00  0.00    -0.089 SA
BRANCH  29  30
ATOM     30  C   UNL     1      -6.909  -3.528  -1.266  1.00  0.00     0.174 A 
ATOM     31  N   UNL     1      -6.674  -4.730  -0.796  1.00  0.00    -0.132 NA
ATOM     32  S   UNL     1      -8.344  -2.801  -0.681  1.00  0.00    -0.091 S 
ATOM     33  N   UNL     1      -7.477  -4.984   0.308  1.00  0.00    -0.143 NA
ATOM     34  C   UNL     1      -8.258  -3.956   0.580  1.00  0.00     0.115 A 
ATOM     35  C   UNL     1      -8.911  -3.671   1.876  1.00  0.00     0.081 C 
ENDBRANCH  29  30
ENDBRANCH  28  29
ENDBRANCH  16  28
ENDBRANCH   5   8
ENDBRANCH   3   4
ENDBRANCH   2   3
ENDBRANCH   1   2
BRANCH   1  36
ATOM     36  C   UNL     1      -6.398   1.085  -6.157  1.00  0.00     0.002 C 
BRANCH  36  37
ATOM     37  C   UNL     1      -7.182  -0.099  -6.731  1.00  0.00     0.021 C 
BRANCH  37  38
ATOM     38  C   UNL     1      -8.594  -0.265  -6.173  1.00  0.00     0.116 C 
BRANCH  38  39
ATOM     39  N   UNL     1      -9.392   0.937  -6.360  1.00  0.00    -0.352 N 
ATOM     40  C   UNL     1     -10.473   1.139  -7.181  1.00  0.00     0.251 C 
ATOM     41  H   UNL     1      -9.117   1.715  -5.823  1.00  0.00     0.163 HD
ATOM     42  O   UNL     1     -10.855   2.277  -7.433  1.00  0.00    -0.269 OA
BRANCH  40  43
ATOM     43  C   UNL     1     -11.169  -0.029  -7.754  1.00  0.00     0.039 A 
ATOM     44  C   UNL     1     -11.505  -0.036  -9.110  1.00  0.00     0.014 A 
ATOM     45  C   UNL     1     -11.491  -1.116  -6.937  1.00  0.00     0.014 A 
ATOM     46  C   UNL     1     -12.120  -1.163  -9.659  1.00  0.00     0.010 A 
ATOM     47  C   UNL     1     -12.031  -2.264  -7.501  1.00  0.00     0.010 A 
ATOM     48  C   UNL     1     -12.364  -2.294  -8.864  1.00  0.00    -0.014 A 
BRANCH  48  49
ATOM     49  C   UNL     1     -13.002  -3.517  -9.411  1.00  0.00     0.031 A 
ATOM     50  C   UNL     1     -14.332  -3.962  -8.866  1.00  0.00     0.074 A 
ATOM     51  C   UNL     1     -12.351  -4.270 -10.319  1.00  0.00     0.049 A 
ATOM     52  N   UNL     1     -14.992  -5.067  -9.097  1.00  0.00    -0.248 NA
ATOM     53  C   UNL     1     -14.991  -3.057  -7.908  1.00  0.00     0.031 C 
ATOM     54  C   UNL     1     -11.047  -3.956 -10.907  1.00  0.00     0.029 A 
ATOM     55  N   UNL     1     -12.694  -5.468 -10.895  1.00  0.00    -0.354 N 
ATOM     56  C   UNL     1     -16.125  -5.003  -8.294  1.00  0.00     0.074 A 
ATOM     57  C   UNL     1     -16.038  -3.776  -7.533  1.00  0.00     0.031 C 
ATOM     58  C   UNL     1     -10.709  -4.927 -11.771  1.00  0.00     0.029 A 
ATOM     59  C   UNL     1     -11.744  -5.956 -11.761  1.00  0.00     0.049 A 
ATOM     60  H   UNL     1     -13.540  -5.935 -10.705  1.00  0.00     0.167 HD
ATOM     61  C   UNL     1     -17.156  -5.877  -8.211  1.00  0.00     0.031 A 
ATOM     62  C   UNL     1     -11.704  -7.110 -12.456  1.00  0.00     0.031 A 
ATOM     63  C   UNL     1     -17.241  -7.088  -8.982  1.00  0.00     0.049 A 
ATOM     64  C   UNL     1     -12.850  -8.078 -12.333  1.00  0.00     0.074 A 
ATOM     65  C   UNL     1     -18.264  -8.019  -9.010  1.00  0.00     0.029 A 
ATOM     66  N   UNL     1     -16.267  -7.535  -9.863  1.00  0.00    -0.354 N 
ATOM     67  N   UNL     1     -13.937  -7.979 -11.604  1.00  0.00    -0.248 NA
ATOM     68  C   UNL     1     -12.771  -9.307 -13.135  1.00  0.00     0.031 C 
ATOM     69  C   UNL     1     -17.883  -9.058  -9.865  1.00  0.00     0.029 A 
ATOM     70  C   UNL     1     -16.655  -8.739 -10.424  1.00  0.00     0.049 A 
ATOM     71  H   UNL     1     -15.424  -7.066 -10.059  1.00  0.00     0.167 HD
ATOM     72  C   UNL     1     -14.689  -9.114 -11.890  1.00  0.00     0.074 A 
ATOM     73  C   UNL     1     -13.935  -9.881 -12.861  1.00  0.00     0.031 C 
ATOM     74  C   UNL     1     -15.898  -9.482 -11.400  1.00  0.00     0.031 A 
BRANCH  61  75
ATOM     75  C   UNL     1     -18.265  -5.558  -7.243  1.00  0.00    -0.014 A 
ATOM     76  C   UNL     1     -19.129  -4.468  -7.456  1.00  0.00     0.010 A 
ATOM     77  C   UNL     1     -18.468  -6.378  -6.117  1.00  0.00     0.010 A 
ATOM     78  C   UNL     1     -20.140  -4.174  -6.538  1.00  0.00     0.020 A 
ATOM     79  C   UNL     1     -19.500  -6.109  -5.214  1.00  0.00     0.020 A 
ATOM     80  C   UNL     1     -20.317  -4.996  -5.421  1.00  0.00     0.054 A 
BRANCH  80  81
ATOM     81  S   UNL     1     -21.649  -4.600  -4.255  1.00  0.00     0.124 S 
ATOM     82  O   UNL     1     -21.130  -3.401  -3.602  1.00  0.00    -0.237 OA
ATOM     83  O   UNL     1     -22.794  -4.389  -5.138  1.00  0.00    -0.237 OA
ATOM     84  O   UNL     1     -21.730  -5.785  -3.405  1.00  0.00    -0.744 OA
ENDBRANCH  80  81
ENDBRANCH  61  75
BRANCH  62  85
ATOM     85  C   UNL     1     -10.542  -7.406 -13.340  1.00  0.00    -0.014 A 
ATOM     86  C   UNL     1     -10.691  -7.409 -14.738  1.00  0.00     0.010 A 
ATOM     87  C   UNL     1      -9.275  -7.674 -12.789  1.00  0.00     0.010 A 
ATOM     88  C   UNL     1      -9.602  -7.691 -15.568  1.00  0.00     0.020 A 
ATOM     89  C   UNL     1      -8.177  -7.926 -13.615  1.00  0.00     0.020 A 
ATOM     90  C   UNL     1      -8.350  -7.945 -15.000  1.00  0.00     0.054 A 
BRANCH  90  91
ATOM     91  S   UNL     1      -6.940  -8.256 -16.099  1.00  0.00     0.124 S 
ATOM     92  O   UNL     1      -7.243  -9.588 -16.613  1.00  0.00    -0.237 OA
ATOM     93  O   UNL     1      -7.046  -7.164 -17.063  1.00  0.00    -0.237 OA
ATOM     94  O   UNL     1      -5.787  -8.177 -15.204  1.00  0.00    -0.744 OA
ENDBRANCH  90  91
ENDBRANCH  62  85
BRANCH  74  95
ATOM     95  C   UNL     1     -16.521 -10.741 -11.944  1.00  0.00    -0.014 A 
ATOM     96  C   UNL     1     -16.028 -12.013 -11.607  1.00  0.00     0.010 A 
ATOM     97  C   UNL     1     -17.675 -10.642 -12.745  1.00  0.00     0.010 A 
ATOM     98  C   UNL     1     -16.665 -13.164 -12.079  1.00  0.00     0.020 A 
ATOM     99  C   UNL     1     -18.332 -11.790 -13.193  1.00  0.00     0.020 A 
ATOM    100  C   UNL     1     -17.816 -13.044 -12.865  1.00  0.00     0.054 A 
BRANCH 100 101
ATOM    101  S   UNL     1     -18.661 -14.553 -13.411  1.00  0.00     0.124 S 
ATOM    102  O   UNL     1     -17.741 -15.069 -14.421  1.00  0.00    -0.237 OA
ATOM    103  O   UNL     1     -18.745 -15.335 -12.179  1.00  0.00    -0.237 OA
ATOM    104  O   UNL     1     -19.941 -14.069 -13.923  1.00  0.00    -0.744 OA
ENDBRANCH 100 101
ENDBRANCH  74  95
ENDBRANCH  48  49
ENDBRANCH  40  43
ENDBRANCH  38  39
ENDBRANCH  37  38
ENDBRANCH  36  37
ENDBRANCH   1  36
TORSDOF 21
