REMARK SMILES Cc1ccc(O[C@H](C)C(=O)NNC(=O)[C@@H]2[C@@H](C(=O)NCCCCCCNC(=O)c3ccc(-c4c5nc(c(-c6ccc(S(=O)(=O)[O-])cc6)c6ccc([nH]6)c(-c6ccc(S(=O)(=O)[O-])cc6)c6nc(c(-c7ccc(S(=O)(=O)[O-])cc7)c7ccc4[nH]7)C=C6)C=C5)cc3)[C@@H]3C=C[C@H]2C3)cc1C
REMARK SMILES IDX 21 1 20 2 19 3 17 4 18 5 16 7 15 8 92 9 89 10 91 11 93 12
REMARK SMILES IDX 90 13 13 14 12 15 14 17 11 18 9 19 10 20 7 22 8 23 6 24 5 25
REMARK SMILES IDX 1 26 2 27 3 28 95 29 4 30 94 31 96 32 22 33 23 34 24 35
REMARK SMILES IDX 25 36 26 37 27 38 28 40 29 41 30 42 88 43 31 44 87 45 32 46
REMARK SMILES IDX 33 47 34 48 81 49 35 50 86 51 80 52 82 53 36 54 85 55 79 56
REMARK SMILES IDX 78 57 37 59 67 60 48 61 66 62 49 63 52 64 65 65 83 66 50 67
REMARK SMILES IDX 51 68 64 70 84 71 53 72 38 73 39 74 47 75 40 76 46 77 41 78
REMARK SMILES IDX 42 79 43 80 44 81 45 82 68 83 69 84 77 85 70 86 76 87 71 88
REMARK SMILES IDX 72 89 73 90 74 91 75 92 54 93 55 94 63 95 56 96 62 97 57 98
REMARK SMILES IDX 58 99 59 100 60 101 61 102
REMARK H PARENT 19 6 12 16 11 21 26 39 82 58 52 69
REMARK Flexibility Score: inf
ROOT
ATOM      1  C   UNL     1       1.549   3.593  -0.352  1.00  0.00     0.021 C 
ENDROOT
BRANCH   1   2
ATOM      2  C   UNL     1       0.731   4.829   0.018  1.00  0.00     0.116 C 
BRANCH   2   3
ATOM      3  N   UNL     1       0.460   5.615  -1.162  1.00  0.00    -0.356 N 
ATOM      4  C   UNL     1      -0.671   5.676  -1.909  1.00  0.00     0.224 C 
ATOM      5  O   UNL     1      -0.638   6.395  -2.910  1.00  0.00    -0.275 OA
ATOM      6  H   UNL     1       1.200   6.188  -1.467  1.00  0.00     0.163 HD
BRANCH   4   7
ATOM      7  C   UNL     1      -1.925   4.903  -1.490  1.00  0.00     0.098 C 
ATOM      8  C   UNL     1      -1.938   3.375  -1.923  1.00  0.00     0.100 C 
ATOM      9  C   UNL     1      -3.146   3.336  -2.898  1.00  0.00     0.025 C 
ATOM     10  C   UNL     1      -3.144   5.473  -2.267  1.00  0.00     0.025 C 
ATOM     11  C   UNL     1      -4.417   3.564  -2.116  1.00  0.00    -0.027 C 
ATOM     12  C   UNL     1      -3.058   4.699  -3.583  1.00  0.00     0.017 C 
ATOM     13  C   UNL     1      -4.402   4.843  -1.713  1.00  0.00    -0.027 C 
BRANCH   8  14
ATOM     14  C   UNL     1      -1.987   2.446  -0.694  1.00  0.00     0.242 C 
ATOM     15  N   UNL     1      -2.434   1.156  -0.727  1.00  0.00    -0.267 N 
ATOM     16  H   UNL     1      -2.142   0.571   0.009  1.00  0.00     0.191 HD
ATOM     17  O   UNL     1      -1.496   2.794   0.384  1.00  0.00    -0.273 OA
BRANCH  15  18
ATOM     18  N   UNL     1      -3.251   0.584  -1.680  1.00  0.00    -0.264 N 
ATOM     19  C   UNL     1      -4.229  -0.338  -1.390  1.00  0.00     0.279 C 
ATOM     20  O   UNL     1      -5.075  -0.587  -2.254  1.00  0.00    -0.269 OA
ATOM     21  H   UNL     1      -3.127   0.851  -2.620  1.00  0.00     0.191 HD
BRANCH  19  22
ATOM     22  C   UNL     1      -4.177  -1.122  -0.064  1.00  0.00     0.260 C 
ATOM     23  C   UNL     1      -2.883  -1.951  -0.045  1.00  0.00     0.064 C 
BRANCH  22  24
ATOM     24  O   UNL     1      -4.268  -0.267   1.078  1.00  0.00    -0.481 OA
BRANCH  24  25
ATOM     25  C   UNL     1      -4.533  -0.853   2.294  1.00  0.00     0.120 A 
ATOM     26  C   UNL     1      -5.097  -2.455   6.285  1.00  0.00     0.044 C 
ATOM     27  C   UNL     1      -4.926  -1.854   4.915  1.00  0.00    -0.048 A 
ATOM     28  C   UNL     1      -4.964  -2.702   3.802  1.00  0.00     0.007 A 
ATOM     29  C   UNL     1      -4.721  -0.477   4.712  1.00  0.00    -0.045 A 
ATOM     30  C   UNL     1      -4.781  -2.207   2.508  1.00  0.00     0.047 A 
ATOM     31  C   UNL     1      -4.523   0.005   3.399  1.00  0.00     0.050 A 
ATOM     32  C   UNL     1      -4.693   0.514   5.846  1.00  0.00     0.045 C 
ENDBRANCH  24  25
ENDBRANCH  22  24
ENDBRANCH  19  22
ENDBRANCH  15  18
ENDBRANCH   8  14
ENDBRANCH   4   7
ENDBRANCH   2   3
ENDBRANCH   1   2
BRANCH   1  33
ATOM     33  C   UNL     1       3.041   3.904  -0.524  1.00  0.00     0.002 C 
BRANCH  33  34
ATOM     34  C   UNL     1       3.719   4.472   0.730  1.00  0.00     0.002 C 
BRANCH  34  35
ATOM     35  C   UNL     1       3.516   3.634   1.994  1.00  0.00     0.021 C 
BRANCH  35  36
ATOM     36  C   UNL     1       4.066   2.219   1.882  1.00  0.00     0.116 C 
BRANCH  36  37
ATOM     37  N   UNL     1       5.513   2.227   1.723  1.00  0.00    -0.352 N 
ATOM     38  C   UNL     1       6.463   1.648   2.528  1.00  0.00     0.251 C 
ATOM     39  H   UNL     1       5.855   2.711   0.937  1.00  0.00     0.163 HD
ATOM     40  O   UNL     1       7.643   1.956   2.424  1.00  0.00    -0.269 OA
BRANCH  38  41
ATOM     41  C   UNL     1       6.028   0.650   3.524  1.00  0.00     0.039 A 
ATOM     42  C   UNL     1       6.476   0.749   4.842  1.00  0.00     0.014 A 
ATOM     43  C   UNL     1       5.149  -0.368   3.143  1.00  0.00     0.014 A 
ATOM     44  C   UNL     1       5.996  -0.149   5.798  1.00  0.00     0.010 A 
ATOM     45  C   UNL     1       4.614  -1.208   4.109  1.00  0.00     0.010 A 
ATOM     46  C   UNL     1       5.040  -1.115   5.443  1.00  0.00    -0.014 A 
BRANCH  46  47
ATOM     47  C   UNL     1       4.483  -2.073   6.428  1.00  0.00     0.031 A 
ATOM     48  C   UNL     1       4.728  -3.545   6.239  1.00  0.00     0.074 A 
ATOM     49  C   UNL     1       3.689  -1.636   7.424  1.00  0.00     0.049 A 
ATOM     50  N   UNL     1       4.213  -4.558   6.885  1.00  0.00    -0.248 NA
ATOM     51  C   UNL     1       5.651  -3.927   5.156  1.00  0.00     0.031 C 
ATOM     52  C   UNL     1       3.370  -0.234   7.704  1.00  0.00     0.029 A 
ATOM     53  N   UNL     1       2.992  -2.332   8.379  1.00  0.00    -0.354 N 
ATOM     54  C   UNL     1       4.730  -5.694   6.274  1.00  0.00     0.074 A 
ATOM     55  C   UNL     1       5.552  -5.247   5.171  1.00  0.00     0.031 C 
ATOM     56  C   UNL     1       2.559  -0.174   8.773  1.00  0.00     0.029 A 
ATOM     57  C   UNL     1       2.256  -1.530   9.219  1.00  0.00     0.049 A 
ATOM     58  H   UNL     1       3.017  -3.313   8.455  1.00  0.00     0.167 HD
ATOM     59  C   UNL     1       4.553  -6.994   6.612  1.00  0.00     0.031 A 
ATOM     60  C   UNL     1       1.419  -1.853  10.225  1.00  0.00     0.031 A 
ATOM     61  C   UNL     1       3.736  -7.428   7.712  1.00  0.00     0.049 A 
ATOM     62  C   UNL     1       1.194  -3.306  10.552  1.00  0.00     0.074 A 
ATOM     63  C   UNL     1       3.513  -8.717   8.161  1.00  0.00     0.029 A 
ATOM     64  N   UNL     1       3.008  -6.583   8.536  1.00  0.00    -0.354 N 
ATOM     65  N   UNL     1       1.718  -4.368   9.986  1.00  0.00    -0.248 NA
ATOM     66  C   UNL     1       0.271  -3.605  11.655  1.00  0.00     0.031 C 
ATOM     67  C   UNL     1       2.606  -8.656   9.223  1.00  0.00     0.029 A 
ATOM     68  C   UNL     1       2.319  -7.324   9.480  1.00  0.00     0.049 A 
ATOM     69  H   UNL     1       2.985  -5.602   8.461  1.00  0.00     0.167 HD
ATOM     70  C   UNL     1       1.223  -5.457  10.695  1.00  0.00     0.074 A 
ATOM     71  C   UNL     1       0.355  -4.927  11.726  1.00  0.00     0.031 C 
ATOM     72  C   UNL     1       1.476  -6.777  10.514  1.00  0.00     0.031 A 
BRANCH  59  73
ATOM     73  C   UNL     1       5.247  -8.030   5.767  1.00  0.00    -0.014 A 
ATOM     74  C   UNL     1       6.649  -8.145   5.760  1.00  0.00     0.010 A 
ATOM     75  C   UNL     1       4.487  -8.911   4.975  1.00  0.00     0.010 A 
ATOM     76  C   UNL     1       7.281  -9.076   4.933  1.00  0.00     0.020 A 
ATOM     77  C   UNL     1       5.114  -9.868   4.172  1.00  0.00     0.020 A 
ATOM     78  C   UNL     1       6.508  -9.928   4.138  1.00  0.00     0.054 A 
BRANCH  78  79
ATOM     79  S   UNL     1       7.355 -11.122   3.069  1.00  0.00     0.124 S 
ATOM     80  O   UNL     1       7.905 -10.256   2.029  1.00  0.00    -0.237 OA
ATOM     81  O   UNL     1       8.336 -11.720   3.971  1.00  0.00    -0.237 OA
ATOM     82  O   UNL     1       6.286 -12.017   2.633  1.00  0.00    -0.744 OA
ENDBRANCH  78  79
ENDBRANCH  59  73
BRANCH  60  83
ATOM     83  C   UNL     1       0.750  -0.780  11.010  1.00  0.00    -0.014 A 
ATOM     84  C   UNL     1       1.119  -0.546  12.346  1.00  0.00     0.010 A 
ATOM     85  C   UNL     1      -0.245   0.026  10.426  1.00  0.00     0.010 A 
ATOM     86  C   UNL     1       0.495   0.459  13.090  1.00  0.00     0.020 A 
ATOM     87  C   UNL     1      -0.851   1.052  11.157  1.00  0.00     0.020 A 
ATOM     88  C   UNL     1      -0.484   1.255  12.489  1.00  0.00     0.054 A 
BRANCH  88  89
ATOM     89  S   UNL     1      -1.244   2.585  13.461  1.00  0.00     0.124 S 
ATOM     90  O   UNL     1      -2.068   1.837  14.405  1.00  0.00    -0.237 OA
ATOM     91  O   UNL     1      -0.082   3.261  14.031  1.00  0.00    -0.237 OA
ATOM     92  O   UNL     1      -1.980   3.359  12.464  1.00  0.00    -0.744 OA
ENDBRANCH  88  89
ENDBRANCH  60  83
BRANCH  72  93
ATOM     93  C   UNL     1       0.865  -7.752  11.484  1.00  0.00    -0.014 A 
ATOM     94  C   UNL     1      -0.501  -8.078  11.436  1.00  0.00     0.010 A 
ATOM     95  C   UNL     1       1.705  -8.438  12.382  1.00  0.00     0.010 A 
ATOM     96  C   UNL     1      -1.016  -9.074  12.272  1.00  0.00     0.020 A 
ATOM     97  C   UNL     1       1.199  -9.452  13.198  1.00  0.00     0.020 A 
ATOM     98  C   UNL     1      -0.160  -9.762  13.139  1.00  0.00     0.054 A 
BRANCH  98  99
ATOM     99  S   UNL     1      -0.836 -11.118  14.136  1.00  0.00     0.124 S 
ATOM    100  O   UNL     1      -1.641 -10.400  15.120  1.00  0.00    -0.237 OA
ATOM    101  O   UNL     1      -1.588 -11.893  13.153  1.00  0.00    -0.237 OA
ATOM    102  O   UNL     1       0.352 -11.783  14.669  1.00  0.00    -0.744 OA
ENDBRANCH  98  99
ENDBRANCH  72  93
ENDBRANCH  46  47
ENDBRANCH  38  41
ENDBRANCH  36  37
ENDBRANCH  35  36
ENDBRANCH  34  35
ENDBRANCH  33  34
ENDBRANCH   1  33
TORSDOF 21
