REMARK SMILES O=C(NCCCCCCNC(=O)[C@@H]1[C@H](C(=O)Nc2ccc(Cn3cncn3)cc2)[C@@H]2C=C[C@H]1CC2)c1ccc(-c2c3nc(c(-c4ccc(S(=O)(=O)[O-])cc4)c4ccc([nH]4)c(-c4ccc(S(=O)(=O)[O-])cc4)c4nc(c(-c5ccc(S(=O)(=O)[O-])cc5)c5ccc2[nH]5)C=C4)C=C3)cc1
REMARK SMILES IDX 7 1 6 2 5 3 4 4 3 5 1 6 2 7 36 9 37 10 95 11 38 12 94 13
REMARK SMILES IDX 39 14 40 15 41 16 88 17 42 18 93 19 87 20 89 21 43 22 92 23
REMARK SMILES IDX 86 24 85 25 44 27 74 28 55 29 73 30 56 31 59 32 72 33 90 34
REMARK SMILES IDX 57 35 58 36 71 38 91 39 60 40 45 41 46 42 54 43 47 44 53 45
REMARK SMILES IDX 48 46 49 47 50 48 51 49 52 50 75 51 76 52 84 53 77 54 83 55
REMARK SMILES IDX 78 56 79 57 80 58 81 59 82 60 61 61 62 62 70 63 63 64 69 65
REMARK SMILES IDX 64 66 65 67 66 68 67 69 68 70 8 71 9 72 10 73 11 74 12 76
REMARK SMILES IDX 13 77 14 78 33 79 30 80 32 81 34 82 31 83 35 84 15 85 16 86
REMARK SMILES IDX 17 87 18 89 19 90 29 91 20 92 28 93 21 94 22 95 23 96 24 97
REMARK SMILES IDX 27 98 25 99 26 100
REMARK H PARENT 3 8 89 26 59 37 10 75 17 88
REMARK Flexibility Score: inf
ROOT
ATOM      1  C   UNL     1       4.844   2.585   3.289  1.00  0.00     0.002 C 
ENDROOT
BRANCH   1   2
ATOM      2  C   UNL     1       4.285   2.959   1.916  1.00  0.00     0.002 C 
BRANCH   2   3
ATOM      3  C   UNL     1       4.760   2.096   0.742  1.00  0.00     0.021 C 
BRANCH   3   4
ATOM      4  C   UNL     1       4.604   0.589   0.938  1.00  0.00     0.116 C 
BRANCH   4   5
ATOM      5  N   UNL     1       3.236   0.129   1.035  1.00  0.00    -0.352 N 
ATOM      6  O   UNL     1       1.206  -0.612   0.553  1.00  0.00    -0.269 OA
ATOM      7  C   UNL     1       2.247  -0.108   0.121  1.00  0.00     0.251 C 
ATOM      8  H   UNL     1       2.956  -0.052   1.961  1.00  0.00     0.163 HD
BRANCH   7   9
ATOM      9  C   UNL     1       2.323   0.261  -1.317  1.00  0.00     0.039 A 
ATOM     10  C   UNL     1       3.500   0.436  -2.048  1.00  0.00     0.014 A 
ATOM     11  C   UNL     1       1.090   0.423  -1.974  1.00  0.00     0.014 A 
ATOM     12  C   UNL     1       3.449   0.846  -3.378  1.00  0.00     0.010 A 
ATOM     13  C   UNL     1       1.033   0.806  -3.309  1.00  0.00     0.010 A 
ATOM     14  C   UNL     1       2.216   1.044  -4.004  1.00  0.00    -0.014 A 
BRANCH  14  15
ATOM     15  C   UNL     1       2.210   1.319  -5.440  1.00  0.00     0.031 A 
ATOM     16  C   UNL     1       2.740   0.213  -6.294  1.00  0.00     0.074 A 
ATOM     17  C   UNL     1       1.614   2.392  -5.997  1.00  0.00     0.049 A 
ATOM     18  N   UNL     1       3.725   0.239  -7.133  1.00  0.00    -0.248 NA
ATOM     19  C   UNL     1       2.144  -1.122  -6.115  1.00  0.00     0.031 C 
ATOM     20  C   UNL     1       0.781   3.399  -5.335  1.00  0.00     0.029 A 
ATOM     21  N   UNL     1       1.525   2.736  -7.314  1.00  0.00    -0.354 N 
ATOM     22  C   UNL     1       3.764  -1.025  -7.722  1.00  0.00     0.074 A 
ATOM     23  C   UNL     1       2.860  -1.855  -6.967  1.00  0.00     0.031 C 
ATOM     24  C   UNL     1       0.087   4.085  -6.271  1.00  0.00     0.029 A 
ATOM     25  C   UNL     1       0.525   3.661  -7.591  1.00  0.00     0.049 A 
ATOM     26  H   UNL     1       2.117   2.363  -8.007  1.00  0.00     0.167 HD
ATOM     27  C   UNL     1       4.385  -1.266  -8.910  1.00  0.00     0.031 A 
ATOM     28  C   UNL     1       0.039   3.995  -8.814  1.00  0.00     0.031 A 
ATOM     29  C   UNL     1       5.299  -0.220  -9.272  1.00  0.00     0.049 A 
ATOM     30  C   UNL     1       1.044   3.585  -9.823  1.00  0.00     0.074 A 
ATOM     31  C   UNL     1       6.439   0.314  -8.705  1.00  0.00     0.029 A 
ATOM     32  N   UNL     1       4.883   0.692 -10.211  1.00  0.00    -0.354 N 
ATOM     33  N   UNL     1       2.220   4.133  -9.937  1.00  0.00    -0.248 NA
ATOM     34  C   UNL     1       0.902   2.278 -10.444  1.00  0.00     0.031 C 
ATOM     35  C   UNL     1       6.359   1.712  -8.971  1.00  0.00     0.029 A 
ATOM     36  C   UNL     1       5.210   1.935  -9.732  1.00  0.00     0.049 A 
ATOM     37  H   UNL     1       4.435   0.492 -11.065  1.00  0.00     0.167 HD
ATOM     38  C   UNL     1       3.071   3.086 -10.257  1.00  0.00     0.074 A 
ATOM     39  C   UNL     1       2.189   1.990 -10.655  1.00  0.00     0.031 C 
ATOM     40  C   UNL     1       4.393   3.116  -9.914  1.00  0.00     0.031 A 
BRANCH  27  41
ATOM     41  C   UNL     1       3.896  -2.287  -9.908  1.00  0.00    -0.014 A 
ATOM     42  C   UNL     1       4.665  -2.561 -11.058  1.00  0.00     0.010 A 
ATOM     43  C   UNL     1       2.576  -2.787  -9.888  1.00  0.00     0.010 A 
ATOM     44  C   UNL     1       4.120  -3.254 -12.149  1.00  0.00     0.020 A 
ATOM     45  C   UNL     1       2.039  -3.516 -10.951  1.00  0.00     0.020 A 
ATOM     46  C   UNL     1       2.805  -3.717 -12.090  1.00  0.00     0.054 A 
BRANCH  46  47
ATOM     47  S   UNL     1       2.078  -4.522 -13.540  1.00  0.00     0.124 S 
ATOM     48  O   UNL     1       2.023  -3.423 -14.498  1.00  0.00    -0.237 OA
ATOM     49  O   UNL     1       3.050  -5.572 -13.832  1.00  0.00    -0.237 OA
ATOM     50  O   UNL     1       0.784  -4.997 -13.054  1.00  0.00    -0.744 OA
ENDBRANCH  46  47
ENDBRANCH  27  41
BRANCH  28  51
ATOM     51  C   UNL     1      -1.359   4.339  -9.179  1.00  0.00    -0.014 A 
ATOM     52  C   UNL     1      -1.668   4.905 -10.430  1.00  0.00     0.010 A 
ATOM     53  C   UNL     1      -2.428   3.845  -8.403  1.00  0.00     0.010 A 
ATOM     54  C   UNL     1      -2.990   4.920 -10.912  1.00  0.00     0.020 A 
ATOM     55  C   UNL     1      -3.747   3.865  -8.872  1.00  0.00     0.020 A 
ATOM     56  C   UNL     1      -4.019   4.380 -10.136  1.00  0.00     0.054 A 
BRANCH  56  57
ATOM     57  S   UNL     1      -5.690   4.234 -10.837  1.00  0.00     0.124 S 
ATOM     58  O   UNL     1      -6.135   5.624 -10.871  1.00  0.00    -0.237 OA
ATOM     59  O   UNL     1      -5.437   3.619 -12.137  1.00  0.00    -0.237 OA
ATOM     60  O   UNL     1      -6.391   3.381  -9.879  1.00  0.00    -0.744 OA
ENDBRANCH  56  57
ENDBRANCH  28  51
BRANCH  40  61
ATOM     61  C   UNL     1       4.987   4.424  -9.441  1.00  0.00    -0.014 A 
ATOM     62  C   UNL     1       4.531   5.127  -8.308  1.00  0.00     0.010 A 
ATOM     63  C   UNL     1       6.153   4.877 -10.084  1.00  0.00     0.010 A 
ATOM     64  C   UNL     1       5.210   6.267  -7.850  1.00  0.00     0.020 A 
ATOM     65  C   UNL     1       6.844   5.999  -9.621  1.00  0.00     0.020 A 
ATOM     66  C   UNL     1       6.365   6.694  -8.510  1.00  0.00     0.054 A 
BRANCH  66  67
ATOM     67  S   UNL     1       7.275   8.134  -7.884  1.00  0.00     0.124 S 
ATOM     68  O   UNL     1       6.359   9.239  -8.174  1.00  0.00    -0.237 OA
ATOM     69  O   UNL     1       7.443   7.818  -6.464  1.00  0.00    -0.237 OA
ATOM     70  O   UNL     1       8.509   8.134  -8.658  1.00  0.00    -0.744 OA
ENDBRANCH  66  67
ENDBRANCH  40  61
ENDBRANCH  14  15
ENDBRANCH   7   9
ENDBRANCH   4   5
ENDBRANCH   3   4
ENDBRANCH   2   3
ENDBRANCH   1   2
BRANCH   1  71
ATOM     71  C   UNL     1       6.361   2.410   3.377  1.00  0.00     0.021 C 
BRANCH  71  72
ATOM     72  C   UNL     1       7.218   3.628   3.039  1.00  0.00     0.116 C 
BRANCH  72  73
ATOM     73  N   UNL     1       6.978   4.769   3.903  1.00  0.00    -0.356 N 
ATOM     74  C   UNL     1       7.870   5.535   4.594  1.00  0.00     0.224 C 
ATOM     75  H   UNL     1       6.033   5.028   4.005  1.00  0.00     0.163 HD
ATOM     76  O   UNL     1       7.539   6.696   4.849  1.00  0.00    -0.275 OA
BRANCH  74  77
ATOM     77  C   UNL     1       9.242   5.001   4.962  1.00  0.00     0.098 C 
ATOM     78  C   UNL     1       9.399   3.616   5.642  1.00  0.00     0.098 C 
ATOM     79  C   UNL     1      10.154   6.039   5.713  1.00  0.00     0.025 C 
ATOM     80  C   UNL     1      10.655   3.636   6.571  1.00  0.00     0.025 C 
ATOM     81  C   UNL     1      10.102   5.866   7.223  1.00  0.00    -0.027 C 
ATOM     82  C   UNL     1      11.616   5.667   5.362  1.00  0.00     0.009 C 
ATOM     83  C   UNL     1      10.400   4.635   7.668  1.00  0.00    -0.027 C 
ATOM     84  C   UNL     1      11.867   4.187   5.763  1.00  0.00     0.009 C 
BRANCH  78  85
ATOM     85  C   UNL     1       8.269   2.771   6.263  1.00  0.00     0.228 C 
ATOM     86  O   UNL     1       8.230   1.572   5.921  1.00  0.00    -0.274 OA
ATOM     87  N   UNL     1       7.415   3.071   7.277  1.00  0.00    -0.326 N 
ATOM     88  H   UNL     1       6.780   2.349   7.488  1.00  0.00     0.169 HD
BRANCH  87  89
ATOM     89  C   UNL     1       7.261   4.203   8.076  1.00  0.00     0.041 A 
ATOM     90  C   UNL     1       7.411   4.069   9.455  1.00  0.00     0.026 A 
ATOM     91  C   UNL     1       6.907   5.438   7.565  1.00  0.00     0.026 A 
ATOM     92  C   UNL     1       7.471   5.207  10.264  1.00  0.00     0.008 A 
ATOM     93  C   UNL     1       6.974   6.584   8.355  1.00  0.00     0.008 A 
ATOM     94  C   UNL     1       7.337   6.484   9.700  1.00  0.00    -0.026 A 
BRANCH  94  95
ATOM     95  C   UNL     1       7.589   7.729  10.507  1.00  0.00     0.181 C 
BRANCH  95  96
ATOM     96  N   UNL     1       6.361   8.302  11.012  1.00  0.00    -0.249 N 
ATOM     97  C   UNL     1       5.541   7.790  11.969  1.00  0.00     0.220 A 
ATOM     98  N   UNL     1       5.934   9.512  10.605  1.00  0.00    -0.160 NA
ATOM     99  N   UNL     1       4.550   8.623  12.188  1.00  0.00    -0.224 NA
ATOM    100  C   UNL     1       4.817   9.647  11.324  1.00  0.00     0.246 A 
ENDBRANCH  95  96
ENDBRANCH  94  95
ENDBRANCH  87  89
ENDBRANCH  78  85
ENDBRANCH  74  77
ENDBRANCH  72  73
ENDBRANCH  71  72
ENDBRANCH   1  71
TORSDOF 20
