REMARK SMILES Cc1c(C(=O)NCCCCCCNC(=O)c2ccc(-c3c4nc(c(-c5ccc(S(=O)(=O)[O-])cc5)c5ccc([nH]5)c(-c5ccc(S(=O)(=O)[O-])cc5)c5nc(c(-c6ccc(S(=O)(=O)[O-])cc6)c6ccc3[nH]6)C=C5)C=C4)cc2)oc2c1/C(=N/NC(=O)C(c1ccccc1)c1ccccc1)CCC2
REMARK SMILES IDX 9 1 8 2 7 3 6 4 4 5 5 6 3 8 1 9 2 10 78 11 76 12 77 13 79 14
REMARK SMILES IDX 99 15 80 16 97 17 98 18 81 19 82 20 83 22 84 23 85 24 86 25
REMARK SMILES IDX 90 26 87 27 89 28 88 29 91 30 92 31 96 32 93 33 95 34 94 35
REMARK SMILES IDX 10 36 11 37 12 38 13 39 14 40 15 42 16 43 17 44 75 45 18 46
REMARK SMILES IDX 74 47 19 48 20 49 21 50 68 51 22 52 73 53 67 54 69 55 23 56
REMARK SMILES IDX 72 57 66 58 65 59 24 61 54 62 35 63 53 64 36 65 39 66 52 67
REMARK SMILES IDX 70 68 37 69 38 70 51 72 71 73 40 74 25 75 26 76 34 77 27 78
REMARK SMILES IDX 33 79 28 80 29 81 30 82 31 83 32 84 55 85 56 86 64 87 57 88
REMARK SMILES IDX 63 89 58 90 59 91 60 92 61 93 62 94 41 95 42 96 50 97 43 98
REMARK SMILES IDX 49 99 44 100 45 101 46 102 47 103 48 104
REMARK H PARENT 6 7 81 21 13 41 69 60 39 71
REMARK Flexibility Score: inf
ROOT
ATOM      1  C   UNL     1      -5.116   2.617   4.439  1.00  0.00     0.002 C 
ENDROOT
BRANCH   1   2
ATOM      2  C   UNL     1      -3.923   3.014   3.562  1.00  0.00     0.021 C 
BRANCH   2   3
ATOM      3  C   UNL     1      -2.627   2.308   3.975  1.00  0.00     0.116 C 
BRANCH   3   4
ATOM      4  N   UNL     1      -2.566   0.920   3.502  1.00  0.00    -0.349 N 
ATOM      5  C   UNL     1      -1.861   0.345   2.447  1.00  0.00     0.287 C 
ATOM      6  O   UNL     1      -1.871  -0.883   2.356  1.00  0.00    -0.266 OA
ATOM      7  H   UNL     1      -3.116   0.287   4.018  1.00  0.00     0.163 HD
BRANCH   5   8
ATOM      8  C   UNL     1      -1.102   1.213   1.571  1.00  0.00     0.195 A 
ATOM      9  C   UNL     1       0.628  -0.196   0.240  1.00  0.00     0.049 C 
ATOM     10  C   UNL     1      -0.019   1.060   0.693  1.00  0.00     0.010 A 
ATOM     11  C   UNL     1       0.459   2.395   0.462  1.00  0.00     0.043 A 
ATOM     12  O   UNL     1      -1.433   2.524   1.645  1.00  0.00    -0.455 OA
ATOM     13  C   UNL     1      -0.396   3.201   1.183  1.00  0.00     0.114 A 
ATOM     14  C   UNL     1       1.630   3.016  -0.156  1.00  0.00     0.072 C 
ATOM     15  C   UNL     1      -0.264   4.592   1.648  1.00  0.00     0.076 C 
ATOM     16  N   UNL     1       2.273   2.359  -1.075  1.00  0.00    -0.177 NA
ATOM     17  C   UNL     1       1.916   4.335   0.509  1.00  0.00     0.059 C 
ATOM     18  C   UNL     1       0.725   5.261   0.738  1.00  0.00     0.014 C 
BRANCH  16  19
ATOM     19  N   UNL     1       3.368   2.636  -1.873  1.00  0.00    -0.246 N 
ATOM     20  C   UNL     1       4.168   3.685  -2.297  1.00  0.00     0.252 C 
ATOM     21  H   UNL     1       3.689   1.800  -2.281  1.00  0.00     0.193 HD
ATOM     22  O   UNL     1       5.003   3.409  -3.177  1.00  0.00    -0.272 OA
BRANCH  20  23
ATOM     23  C   UNL     1       4.152   5.126  -1.726  1.00  0.00     0.140 C 
BRANCH  23  24
ATOM     24  C   UNL     1       2.777   5.794  -2.117  1.00  0.00    -0.031 A 
ATOM     25  C   UNL     1       2.394   7.088  -1.730  1.00  0.00     0.005 A 
ATOM     26  C   UNL     1       1.811   5.071  -2.871  1.00  0.00     0.005 A 
ATOM     27  C   UNL     1       1.080   7.555  -1.954  1.00  0.00     0.000 A 
ATOM     28  C   UNL     1       0.501   5.516  -3.065  1.00  0.00     0.000 A 
ATOM     29  C   UNL     1       0.127   6.758  -2.589  1.00  0.00     0.000 A 
ENDBRANCH  23  24
BRANCH  23  30
ATOM     30  C   UNL     1       4.719   5.035  -0.243  1.00  0.00    -0.031 A 
ATOM     31  C   UNL     1       5.319   3.819   0.186  1.00  0.00     0.005 A 
ATOM     32  C   UNL     1       4.499   5.997   0.758  1.00  0.00     0.005 A 
ATOM     33  C   UNL     1       5.405   3.464   1.534  1.00  0.00     0.000 A 
ATOM     34  C   UNL     1       4.619   5.650   2.121  1.00  0.00     0.000 A 
ATOM     35  C   UNL     1       5.012   4.367   2.506  1.00  0.00     0.000 A 
ENDBRANCH  23  30
ENDBRANCH  20  23
ENDBRANCH  16  19
ENDBRANCH   5   8
ENDBRANCH   3   4
ENDBRANCH   2   3
ENDBRANCH   1   2
BRANCH   1  36
ATOM     36  C   UNL     1      -4.924   2.843   5.949  1.00  0.00     0.002 C 
BRANCH  36  37
ATOM     37  C   UNL     1      -4.549   4.269   6.380  1.00  0.00     0.021 C 
BRANCH  37  38
ATOM     38  C   UNL     1      -5.660   5.280   6.148  1.00  0.00     0.116 C 
BRANCH  38  39
ATOM     39  N   UNL     1      -6.842   4.994   6.960  1.00  0.00    -0.352 N 
ATOM     40  C   UNL     1      -8.058   5.654   6.984  1.00  0.00     0.251 C 
ATOM     41  H   UNL     1      -6.761   4.228   7.574  1.00  0.00     0.163 HD
ATOM     42  O   UNL     1      -8.808   5.542   7.935  1.00  0.00    -0.269 OA
BRANCH  40  43
ATOM     43  C   UNL     1      -8.417   6.500   5.830  1.00  0.00     0.039 A 
ATOM     44  C   UNL     1      -9.051   7.732   6.003  1.00  0.00     0.014 A 
ATOM     45  C   UNL     1      -8.075   6.050   4.558  1.00  0.00     0.014 A 
ATOM     46  C   UNL     1      -9.257   8.540   4.887  1.00  0.00     0.010 A 
ATOM     47  C   UNL     1      -8.119   6.914   3.495  1.00  0.00     0.010 A 
ATOM     48  C   UNL     1      -8.764   8.135   3.635  1.00  0.00    -0.014 A 
BRANCH  48  49
ATOM     49  C   UNL     1      -8.835   9.023   2.480  1.00  0.00     0.031 A 
ATOM     50  C   UNL     1      -8.304  10.393   2.711  1.00  0.00     0.074 A 
ATOM     51  C   UNL     1      -9.168   8.613   1.237  1.00  0.00     0.049 A 
ATOM     52  N   UNL     1      -8.980  11.491   2.777  1.00  0.00    -0.248 NA
ATOM     53  C   UNL     1      -6.878  10.548   3.039  1.00  0.00     0.031 C 
ATOM     54  C   UNL     1      -9.424   7.251   0.750  1.00  0.00     0.029 A 
ATOM     55  N   UNL     1      -9.241   9.349   0.097  1.00  0.00    -0.354 N 
ATOM     56  C   UNL     1      -8.049  12.508   2.947  1.00  0.00     0.074 A 
ATOM     57  C   UNL     1      -6.802  11.861   3.272  1.00  0.00     0.031 C 
ATOM     58  C   UNL     1      -9.374   7.234  -0.600  1.00  0.00     0.029 A 
ATOM     59  C   UNL     1      -9.278   8.602  -1.074  1.00  0.00     0.049 A 
ATOM     60  H   UNL     1      -9.265  10.333   0.100  1.00  0.00     0.167 HD
ATOM     61  C   UNL     1      -8.323  13.794   2.588  1.00  0.00     0.031 A 
ATOM     62  C   UNL     1      -9.216   9.074  -2.344  1.00  0.00     0.031 A 
ATOM     63  C   UNL     1      -9.730  13.995   2.350  1.00  0.00     0.049 A 
ATOM     64  C   UNL     1      -9.633  10.497  -2.290  1.00  0.00     0.074 A 
ATOM     65  C   UNL     1     -10.868  13.836   3.118  1.00  0.00     0.029 A 
ATOM     66  N   UNL     1     -10.158  13.993   1.042  1.00  0.00    -0.354 N 
ATOM     67  N   UNL     1     -10.838  10.873  -1.960  1.00  0.00    -0.248 NA
ATOM     68  C   UNL     1      -8.601  11.509  -2.133  1.00  0.00     0.031 C 
ATOM     69  C   UNL     1     -11.819  13.238   2.239  1.00  0.00     0.029 A 
ATOM     70  C   UNL     1     -11.240  13.150   0.970  1.00  0.00     0.049 A 
ATOM     71  H   UNL     1      -9.763  14.501   0.297  1.00  0.00     0.167 HD
ATOM     72  C   UNL     1     -10.654  11.986  -1.151  1.00  0.00     0.074 A 
ATOM     73  C   UNL     1      -9.264  12.385  -1.372  1.00  0.00     0.031 C 
ATOM     74  C   UNL     1     -11.552  12.316  -0.174  1.00  0.00     0.031 A 
BRANCH  61  75
ATOM     75  C   UNL     1      -7.278  14.763   2.099  1.00  0.00    -0.014 A 
ATOM     76  C   UNL     1      -7.636  16.106   1.865  1.00  0.00     0.010 A 
ATOM     77  C   UNL     1      -6.020  14.343   1.619  1.00  0.00     0.010 A 
ATOM     78  C   UNL     1      -6.794  16.968   1.147  1.00  0.00     0.020 A 
ATOM     79  C   UNL     1      -5.156  15.204   0.941  1.00  0.00     0.020 A 
ATOM     80  C   UNL     1      -5.562  16.505   0.683  1.00  0.00     0.054 A 
BRANCH  80  81
ATOM     81  S   UNL     1      -4.518  17.597  -0.312  1.00  0.00     0.124 S 
ATOM     82  O   UNL     1      -5.319  17.761  -1.521  1.00  0.00    -0.237 OA
ATOM     83  O   UNL     1      -4.405  18.778   0.540  1.00  0.00    -0.237 OA
ATOM     84  O   UNL     1      -3.283  16.833  -0.476  1.00  0.00    -0.744 OA
ENDBRANCH  80  81
ENDBRANCH  61  75
BRANCH  62  85
ATOM     85  C   UNL     1      -8.516   8.473  -3.506  1.00  0.00    -0.014 A 
ATOM     86  C   UNL     1      -8.712   8.969  -4.809  1.00  0.00     0.010 A 
ATOM     87  C   UNL     1      -7.430   7.598  -3.297  1.00  0.00     0.010 A 
ATOM     88  C   UNL     1      -7.813   8.658  -5.846  1.00  0.00     0.020 A 
ATOM     89  C   UNL     1      -6.535   7.279  -4.325  1.00  0.00     0.020 A 
ATOM     90  C   UNL     1      -6.714   7.833  -5.589  1.00  0.00     0.054 A 
BRANCH  90  91
ATOM     91  S   UNL     1      -5.448   7.596  -6.873  1.00  0.00     0.124 S 
ATOM     92  O   UNL     1      -6.140   6.750  -7.840  1.00  0.00    -0.237 OA
ATOM     93  O   UNL     1      -5.177   8.964  -7.308  1.00  0.00    -0.237 OA
ATOM     94  O   UNL     1      -4.350   6.950  -6.155  1.00  0.00    -0.744 OA
ENDBRANCH  90  91
ENDBRANCH  62  85
BRANCH  74  95
ATOM     95  C   UNL     1     -12.886  11.597  -0.138  1.00  0.00    -0.014 A 
ATOM     96  C   UNL     1     -13.029  10.202   0.009  1.00  0.00     0.010 A 
ATOM     97  C   UNL     1     -14.047  12.389  -0.095  1.00  0.00     0.010 A 
ATOM     98  C   UNL     1     -14.298   9.619   0.167  1.00  0.00     0.020 A 
ATOM     99  C   UNL     1     -15.311  11.819   0.080  1.00  0.00     0.020 A 
ATOM    100  C   UNL     1     -15.433  10.435   0.200  1.00  0.00     0.054 A 
BRANCH 100 101
ATOM    101  S   UNL     1     -17.070   9.687   0.441  1.00  0.00     0.124 S 
ATOM    102  O   UNL     1     -17.272   8.955  -0.806  1.00  0.00    -0.237 OA
ATOM    103  O   UNL     1     -16.880   8.861   1.631  1.00  0.00    -0.237 OA
ATOM    104  O   UNL     1     -17.954  10.837   0.631  1.00  0.00    -0.744 OA
ENDBRANCH 100 101
ENDBRANCH  74  95
ENDBRANCH  48  49
ENDBRANCH  40  43
ENDBRANCH  38  39
ENDBRANCH  37  38
ENDBRANCH  36  37
ENDBRANCH   1  36
TORSDOF 20
