REMARK SMILES Cc1cccc(O[C@H](C)C(=O)NNC(=O)[C@H]2[C@@H]3CC[C@@H](C3)[C@@H]2C(=O)NCCCCCCNC(=O)c2ccc(-c3c4nc(c(-c5ccc(S(=O)(=O)[O-])cc5)c5ccc([nH]5)c(-c5ccc(S(=O)(=O)[O-])cc5)c5nc(c(-c6ccc(S(=O)(=O)[O-])cc6)c6ccc3[nH]6)C=C5)C=C4)cc2)c1
REMARK SMILES IDX 27 1 26 2 25 3 23 4 24 5 22 7 16 8 17 9 18 10 21 11 20 12
REMARK SMILES IDX 19 13 14 14 13 15 15 17 12 18 10 19 11 20 8 22 9 23 7 24
REMARK SMILES IDX 6 25 1 26 2 27 3 28 95 29 4 30 5 31 28 32 29 33 30 34 31 35
REMARK SMILES IDX 32 36 33 37 34 39 35 40 36 41 94 42 37 43 93 44 38 45 39 46
REMARK SMILES IDX 40 47 87 48 41 49 92 50 86 51 88 52 42 53 91 54 85 55 84 56
REMARK SMILES IDX 43 58 73 59 54 60 72 61 55 62 58 63 71 64 89 65 56 66 57 67
REMARK SMILES IDX 70 69 90 70 59 71 44 72 45 73 53 74 46 75 52 76 47 77 48 78
REMARK SMILES IDX 49 79 50 80 51 81 74 82 75 83 83 84 76 85 82 86 77 87 78 88
REMARK SMILES IDX 79 89 80 90 81 91 60 92 61 93 69 94 62 95 68 96 63 97 64 98
REMARK SMILES IDX 65 99 66 100 67 101
REMARK H PARENT 25 6 13 16 12 21 32 38 88 57 58 68
REMARK Flexibility Score: inf
ROOT
ATOM      1  C   UNL     1       3.637   6.112  -2.033  1.00  0.00     0.021 C 
ENDROOT
BRANCH   1   2
ATOM      2  C   UNL     1       3.819   5.094  -3.159  1.00  0.00     0.116 C 
BRANCH   2   3
ATOM      3  N   UNL     1       4.806   4.076  -2.840  1.00  0.00    -0.356 N 
ATOM      4  C   UNL     1       4.644   2.727  -2.698  1.00  0.00     0.224 C 
ATOM      5  O   UNL     1       5.622   2.027  -2.445  1.00  0.00    -0.275 OA
ATOM      6  H   UNL     1       5.724   4.406  -2.707  1.00  0.00     0.163 HD
BRANCH   4   7
ATOM      7  C   UNL     1       3.246   2.159  -2.884  1.00  0.00     0.094 C 
ATOM      8  C   UNL     1       3.009   0.793  -2.224  1.00  0.00     0.096 C 
ATOM      9  C   UNL     1       2.405  -0.060  -3.368  1.00  0.00     0.002 C 
ATOM     10  C   UNL     1       3.558  -0.444  -4.321  1.00  0.00     0.005 C 
ATOM     11  C   UNL     1       1.668   0.955  -4.239  1.00  0.00     0.009 C 
ATOM     12  C   UNL     1       2.886   1.876  -4.367  1.00  0.00     0.002 C 
ATOM     13  C   UNL     1       3.893   0.894  -5.006  1.00  0.00     0.005 C 
BRANCH   8  14
ATOM     14  C   UNL     1       2.217   0.754  -0.917  1.00  0.00     0.242 C 
ATOM     15  N   UNL     1       1.190   1.589  -0.582  1.00  0.00    -0.267 N 
ATOM     16  H   UNL     1       0.903   1.550   0.359  1.00  0.00     0.191 HD
ATOM     17  O   UNL     1       2.502  -0.126  -0.092  1.00  0.00    -0.273 OA
BRANCH  15  18
ATOM     18  N   UNL     1       0.502   2.475  -1.371  1.00  0.00    -0.264 N 
ATOM     19  C   UNL     1      -0.507   3.324  -1.042  1.00  0.00     0.279 C 
ATOM     20  O   UNL     1      -0.881   4.057  -1.974  1.00  0.00    -0.269 OA
ATOM     21  H   UNL     1       0.781   2.500  -2.315  1.00  0.00     0.191 HD
BRANCH  19  22
ATOM     22  C   UNL     1      -1.249   3.394   0.321  1.00  0.00     0.260 C 
ATOM     23  C   UNL     1      -2.671   2.832   0.195  1.00  0.00     0.064 C 
BRANCH  22  24
ATOM     24  O   UNL     1      -0.667   3.290   1.600  1.00  0.00    -0.481 OA
BRANCH  24  25
ATOM     25  C   UNL     1      -0.267   2.152   2.214  1.00  0.00     0.120 A 
ATOM     26  C   UNL     1       2.340   1.567   4.938  1.00  0.00     0.044 C 
ATOM     27  C   UNL     1       1.294   1.313   3.893  1.00  0.00    -0.047 A 
ATOM     28  C   UNL     1       0.956   0.006   3.536  1.00  0.00     0.003 A 
ATOM     29  C   UNL     1       0.668   2.375   3.233  1.00  0.00     0.049 A 
ATOM     30  C   UNL     1      -0.005  -0.226   2.554  1.00  0.00     0.004 A 
ATOM     31  C   UNL     1      -0.625   0.845   1.901  1.00  0.00     0.046 A 
ENDBRANCH  24  25
ENDBRANCH  22  24
ENDBRANCH  19  22
ENDBRANCH  15  18
ENDBRANCH   8  14
ENDBRANCH   4   7
ENDBRANCH   2   3
ENDBRANCH   1   2
BRANCH   1  32
ATOM     32  C   UNL     1       4.835   7.037  -1.784  1.00  0.00     0.002 C 
BRANCH  32  33
ATOM     33  C   UNL     1       5.457   7.696  -3.023  1.00  0.00     0.002 C 
BRANCH  33  34
ATOM     34  C   UNL     1       4.488   8.408  -3.969  1.00  0.00     0.021 C 
BRANCH  34  35
ATOM     35  C   UNL     1       3.843   9.648  -3.365  1.00  0.00     0.116 C 
BRANCH  35  36
ATOM     36  N   UNL     1       4.122  10.849  -4.141  1.00  0.00    -0.352 N 
ATOM     37  C   UNL     1       3.501  12.080  -4.043  1.00  0.00     0.251 C 
ATOM     38  H   UNL     1       4.837  10.775  -4.813  1.00  0.00     0.163 HD
ATOM     39  O   UNL     1       3.627  12.954  -4.882  1.00  0.00    -0.269 OA
BRANCH  37  40
ATOM     40  C   UNL     1       2.780  12.344  -2.784  1.00  0.00     0.039 A 
ATOM     41  C   UNL     1       3.407  13.191  -1.862  1.00  0.00     0.014 A 
ATOM     42  C   UNL     1       1.694  11.553  -2.423  1.00  0.00     0.014 A 
ATOM     43  C   UNL     1       3.045  13.125  -0.521  1.00  0.00     0.010 A 
ATOM     44  C   UNL     1       1.397  11.425  -1.079  1.00  0.00     0.010 A 
ATOM     45  C   UNL     1       2.104  12.175  -0.125  1.00  0.00    -0.014 A 
BRANCH  45  46
ATOM     46  C   UNL     1       1.853  11.829   1.270  1.00  0.00     0.031 A 
ATOM     47  C   UNL     1       0.601  12.268   1.930  1.00  0.00     0.074 A 
ATOM     48  C   UNL     1       2.717  11.035   1.941  1.00  0.00     0.049 A 
ATOM     49  N   UNL     1       0.433  12.352   3.209  1.00  0.00    -0.248 NA
ATOM     50  C   UNL     1      -0.561  12.715   1.170  1.00  0.00     0.031 C 
ATOM     51  C   UNL     1       2.460  10.332   3.195  1.00  0.00     0.029 A 
ATOM     52  N   UNL     1       4.091  10.876   1.742  1.00  0.00    -0.354 N 
ATOM     53  C   UNL     1      -0.912  12.546   3.436  1.00  0.00     0.074 A 
ATOM     54  C   UNL     1      -1.467  12.862   2.140  1.00  0.00     0.031 C 
ATOM     55  C   UNL     1       3.634  10.095   3.800  1.00  0.00     0.029 A 
ATOM     56  C   UNL     1       4.661  10.766   3.022  1.00  0.00     0.049 A 
ATOM     57  H   UNL     1       4.564  10.846   0.879  1.00  0.00     0.167 HD
ATOM     58  C   UNL     1      -1.442  12.268   4.662  1.00  0.00     0.031 A 
ATOM     59  C   UNL     1       5.599  11.620   3.525  1.00  0.00     0.031 A 
ATOM     60  C   UNL     1      -0.408  11.927   5.638  1.00  0.00     0.049 A 
ATOM     61  C   UNL     1       5.175  12.268   4.827  1.00  0.00     0.074 A 
ATOM     62  C   UNL     1       0.047  10.725   6.155  1.00  0.00     0.029 A 
ATOM     63  N   UNL     1       0.516  12.894   6.016  1.00  0.00    -0.354 N 
ATOM     64  N   UNL     1       3.951  12.255   5.277  1.00  0.00    -0.248 NA
ATOM     65  C   UNL     1       6.075  13.022   5.697  1.00  0.00     0.031 C 
ATOM     66  C   UNL     1       1.301  10.962   6.776  1.00  0.00     0.029 A 
ATOM     67  C   UNL     1       1.590  12.310   6.661  1.00  0.00     0.049 A 
ATOM     68  H   UNL     1       0.419  13.859   5.848  1.00  0.00     0.167 HD
ATOM     69  C   UNL     1       3.879  12.967   6.445  1.00  0.00     0.074 A 
ATOM     70  C   UNL     1       5.240  13.419   6.674  1.00  0.00     0.031 C 
ATOM     71  C   UNL     1       2.703  13.131   7.118  1.00  0.00     0.031 A 
BRANCH  58  72
ATOM     72  C   UNL     1      -2.920  12.002   4.882  1.00  0.00    -0.014 A 
ATOM     73  C   UNL     1      -3.326  11.129   5.914  1.00  0.00     0.010 A 
ATOM     74  C   UNL     1      -3.949  12.511   4.069  1.00  0.00     0.010 A 
ATOM     75  C   UNL     1      -4.655  10.695   6.046  1.00  0.00     0.020 A 
ATOM     76  C   UNL     1      -5.274  12.058   4.162  1.00  0.00     0.020 A 
ATOM     77  C   UNL     1      -5.617  11.136   5.143  1.00  0.00     0.054 A 
BRANCH  77  78
ATOM     78  S   UNL     1      -7.305  10.486   5.253  1.00  0.00     0.124 S 
ATOM     79  O   UNL     1      -7.094   9.043   5.169  1.00  0.00    -0.237 OA
ATOM     80  O   UNL     1      -7.749  10.984   6.552  1.00  0.00    -0.237 OA
ATOM     81  O   UNL     1      -7.980  11.076   4.098  1.00  0.00    -0.744 OA
ENDBRANCH  77  78
ENDBRANCH  58  72
BRANCH  59  82
ATOM     82  C   UNL     1       6.475  12.248   2.500  1.00  0.00    -0.014 A 
ATOM     83  C   UNL     1       7.411  11.413   1.853  1.00  0.00     0.010 A 
ATOM     84  C   UNL     1       6.094  13.452   1.881  1.00  0.00     0.010 A 
ATOM     85  C   UNL     1       7.811  11.678   0.542  1.00  0.00     0.020 A 
ATOM     86  C   UNL     1       6.499  13.722   0.566  1.00  0.00     0.020 A 
ATOM     87  C   UNL     1       7.296  12.795  -0.115  1.00  0.00     0.054 A 
BRANCH  87  88
ATOM     88  S   UNL     1       7.522  12.906  -1.916  1.00  0.00     0.124 S 
ATOM     89  O   UNL     1       8.974  12.862  -2.054  1.00  0.00    -0.237 OA
ATOM     90  O   UNL     1       6.809  11.718  -2.385  1.00  0.00    -0.237 OA
ATOM     91  O   UNL     1       6.895  14.180  -2.255  1.00  0.00    -0.744 OA
ENDBRANCH  87  88
ENDBRANCH  59  82
BRANCH  71  92
ATOM     92  C   UNL     1       2.486  14.021   8.316  1.00  0.00    -0.014 A 
ATOM     93  C   UNL     1       3.232  15.178   8.582  1.00  0.00     0.010 A 
ATOM     94  C   UNL     1       1.378  13.761   9.160  1.00  0.00     0.010 A 
ATOM     95  C   UNL     1       2.922  16.009   9.670  1.00  0.00     0.020 A 
ATOM     96  C   UNL     1       1.036  14.602  10.221  1.00  0.00     0.020 A 
ATOM     97  C   UNL     1       1.827  15.714  10.484  1.00  0.00     0.054 A 
BRANCH  97  98
ATOM     98  S   UNL     1       1.382  16.829  11.841  1.00  0.00     0.124 S 
ATOM     99  O   UNL     1       2.139  16.265  12.955  1.00  0.00    -0.237 OA
ATOM    100  O   UNL     1       1.846  18.131  11.365  1.00  0.00    -0.237 OA
ATOM    101  O   UNL     1      -0.069  16.690  11.933  1.00  0.00    -0.744 OA
ENDBRANCH  97  98
ENDBRANCH  71  92
ENDBRANCH  45  46
ENDBRANCH  37  40
ENDBRANCH  35  36
ENDBRANCH  34  35
ENDBRANCH  33  34
ENDBRANCH  32  33
ENDBRANCH   1  32
TORSDOF 21
