REMARK SMILES COc1ccc(CCNC(=O)c2cccnc2C(=O)NCCCCCCNC(=O)c2ccc(-c3c4nc(c(-c5ccc(S(=O)(=O)[O-])cc5)c5ccc([nH]5)c(-c5ccc(S(=O)(=O)[O-])cc5)c5nc(c(-c6ccc(S(=O)(=O)[O-])cc6)c6ccc3[nH]6)C=C5)C=C4)cc2)cc1OC
REMARK SMILES IDX 22 1 21 2 20 3 18 4 19 5 17 7 12 8 13 9 14 10 16 11 15 12
REMARK SMILES IDX 10 13 9 14 11 16 8 17 7 18 6 19 3 20 4 21 91 22 5 23 90 24
REMARK SMILES IDX 2 25 1 26 92 27 93 28 23 29 24 30 25 31 26 32 27 33 28 34
REMARK SMILES IDX 29 36 30 37 31 38 89 39 32 40 88 41 33 42 34 43 35 44 82 45
REMARK SMILES IDX 36 46 87 47 81 48 83 49 37 50 86 51 80 52 79 53 38 55 68 56
REMARK SMILES IDX 49 57 67 58 50 59 53 60 66 61 84 62 51 63 52 64 65 66 85 67
REMARK SMILES IDX 54 68 39 69 40 70 48 71 41 72 47 73 42 74 43 75 44 76 45 77
REMARK SMILES IDX 46 78 69 79 70 80 78 81 71 82 77 83 72 84 73 85 74 86 75 87
REMARK SMILES IDX 76 88 55 89 56 90 64 91 57 92 63 93 58 94 59 95 60 96 61 97
REMARK SMILES IDX 62 98
REMARK H PARENT 20 6 9 15 27 35 83 54 53 65
REMARK Flexibility Score: inf
ROOT
ATOM      1  C   UNL     1      -2.322  -6.615   0.556  1.00  0.00     0.021 C 
ENDROOT
BRANCH   1   2
ATOM      2  C   UNL     1      -1.753  -7.556   1.610  1.00  0.00     0.116 C 
BRANCH   2   3
ATOM      3  N   UNL     1      -2.171  -8.927   1.510  1.00  0.00    -0.351 N 
ATOM      4  C   UNL     1      -1.558 -10.104   1.882  1.00  0.00     0.270 C 
ATOM      5  O   UNL     1      -2.262 -11.112   1.730  1.00  0.00    -0.267 OA
ATOM      6  H   UNL     1      -3.058  -9.048   1.101  1.00  0.00     0.163 HD
BRANCH   4   7
ATOM      7  C   UNL     1      -0.128 -10.298   2.371  1.00  0.00     0.140 A 
ATOM      8  C   UNL     1       0.687  -9.459   3.130  1.00  0.00     0.071 A 
ATOM      9  C   UNL     1       1.908  -9.966   3.622  1.00  0.00     0.018 A 
ATOM     10  C   UNL     1       2.328 -11.249   3.297  1.00  0.00     0.021 A 
ATOM     11  N   UNL     1       0.317 -11.557   2.029  1.00  0.00    -0.250 NA
ATOM     12  C   UNL     1       1.504 -12.001   2.492  1.00  0.00     0.112 A 
BRANCH   8  13
ATOM     13  C   UNL     1       0.325  -8.130   3.629  1.00  0.00     0.253 C 
ATOM     14  N   UNL     1       1.080  -7.021   3.293  1.00  0.00    -0.352 N 
ATOM     15  H   UNL     1       0.730  -6.169   3.641  1.00  0.00     0.163 HD
ATOM     16  O   UNL     1      -0.644  -8.025   4.374  1.00  0.00    -0.269 OA
BRANCH  14  17
ATOM     17  C   UNL     1       2.313  -6.897   2.506  1.00  0.00     0.121 C 
BRANCH  17  18
ATOM     18  C   UNL     1       2.152  -6.270   1.113  1.00  0.00     0.057 C 
BRANCH  18  19
ATOM     19  C   UNL     1       1.985  -4.768   1.061  1.00  0.00    -0.042 A 
ATOM     20  C   UNL     1       1.604  -1.984   0.737  1.00  0.00     0.160 A 
ATOM     21  C   UNL     1       0.556  -2.823   1.120  1.00  0.00     0.051 A 
ATOM     22  C   UNL     1       2.879  -2.523   0.563  1.00  0.00     0.160 A 
ATOM     23  C   UNL     1       0.742  -4.193   1.296  1.00  0.00     0.008 A 
ATOM     24  C   UNL     1       3.049  -3.916   0.713  1.00  0.00     0.054 A 
BRANCH  20  25
ATOM     25  O   UNL     1       1.353  -0.641   0.660  1.00  0.00    -0.493 OA
ATOM     26  C   UNL     1       0.622  -0.278  -0.513  1.00  0.00     0.278 C 
ENDBRANCH  20  25
BRANCH  22  27
ATOM     27  O   UNL     1       4.038  -1.868   0.240  1.00  0.00    -0.493 OA
ATOM     28  C   UNL     1       4.002  -0.453   0.089  1.00  0.00     0.278 C 
ENDBRANCH  22  27
ENDBRANCH  18  19
ENDBRANCH  17  18
ENDBRANCH  14  17
ENDBRANCH   8  13
ENDBRANCH   4   7
ENDBRANCH   2   3
ENDBRANCH   1   2
BRANCH   1  29
ATOM     29  C   UNL     1      -3.779  -6.168   0.692  1.00  0.00     0.002 C 
BRANCH  29  30
ATOM     30  C   UNL     1      -4.280  -5.684   2.057  1.00  0.00     0.002 C 
BRANCH  30  31
ATOM     31  C   UNL     1      -3.448  -4.653   2.828  1.00  0.00     0.021 C 
BRANCH  31  32
ATOM     32  C   UNL     1      -3.103  -3.345   2.119  1.00  0.00     0.116 C 
BRANCH  32  33
ATOM     33  N   UNL     1      -4.256  -2.544   1.750  1.00  0.00    -0.352 N 
ATOM     34  C   UNL     1      -4.526  -1.201   1.923  1.00  0.00     0.251 C 
ATOM     35  H   UNL     1      -4.972  -3.046   1.298  1.00  0.00     0.163 HD
ATOM     36  O   UNL     1      -5.621  -0.772   1.579  1.00  0.00    -0.269 OA
BRANCH  34  37
ATOM     37  C   UNL     1      -3.533  -0.262   2.516  1.00  0.00     0.039 A 
ATOM     38  C   UNL     1      -3.973   0.766   3.355  1.00  0.00     0.014 A 
ATOM     39  C   UNL     1      -2.181  -0.323   2.193  1.00  0.00     0.014 A 
ATOM     40  C   UNL     1      -3.054   1.676   3.904  1.00  0.00     0.010 A 
ATOM     41  C   UNL     1      -1.251   0.524   2.805  1.00  0.00     0.010 A 
ATOM     42  C   UNL     1      -1.676   1.548   3.659  1.00  0.00    -0.014 A 
BRANCH  42  43
ATOM     43  C   UNL     1      -0.680   2.468   4.284  1.00  0.00     0.031 A 
ATOM     44  C   UNL     1       0.188   3.369   3.436  1.00  0.00     0.074 A 
ATOM     45  C   UNL     1      -0.508   2.454   5.622  1.00  0.00     0.049 A 
ATOM     46  N   UNL     1       1.106   4.226   3.814  1.00  0.00    -0.248 NA
ATOM     47  C   UNL     1       0.022   3.286   1.976  1.00  0.00     0.031 C 
ATOM     48  C   UNL     1      -1.224   1.584   6.559  1.00  0.00     0.029 A 
ATOM     49  N   UNL     1       0.329   3.187   6.429  1.00  0.00    -0.354 N 
ATOM     50  C   UNL     1       1.634   4.767   2.646  1.00  0.00     0.074 A 
ATOM     51  C   UNL     1       0.965   4.112   1.543  1.00  0.00     0.031 C 
ATOM     52  C   UNL     1      -0.814   1.849   7.810  1.00  0.00     0.029 A 
ATOM     53  C   UNL     1       0.213   2.886   7.767  1.00  0.00     0.049 A 
ATOM     54  H   UNL     1       0.953   3.865   6.083  1.00  0.00     0.167 HD
ATOM     55  C   UNL     1       2.573   5.734   2.501  1.00  0.00     0.031 A 
ATOM     56  C   UNL     1       0.855   3.385   8.842  1.00  0.00     0.031 A 
ATOM     57  C   UNL     1       3.223   6.406   3.597  1.00  0.00     0.049 A 
ATOM     58  C   UNL     1       1.868   4.483   8.656  1.00  0.00     0.074 A 
ATOM     59  C   UNL     1       4.125   7.456   3.547  1.00  0.00     0.029 A 
ATOM     60  N   UNL     1       3.041   6.101   4.936  1.00  0.00    -0.354 N 
ATOM     61  N   UNL     1       2.278   5.046   7.545  1.00  0.00    -0.248 NA
ATOM     62  C   UNL     1       2.486   5.031   9.873  1.00  0.00     0.031 C 
ATOM     63  C   UNL     1       4.526   7.754   4.853  1.00  0.00     0.029 A 
ATOM     64  C   UNL     1       3.827   6.931   5.720  1.00  0.00     0.049 A 
ATOM     65  H   UNL     1       2.443   5.399   5.280  1.00  0.00     0.167 HD
ATOM     66  C   UNL     1       3.171   6.041   7.933  1.00  0.00     0.074 A 
ATOM     67  C   UNL     1       3.232   6.010   9.379  1.00  0.00     0.031 C 
ATOM     68  C   UNL     1       3.872   6.905   7.159  1.00  0.00     0.031 A 
BRANCH  55  69
ATOM     69  C   UNL     1       2.959   6.149   1.103  1.00  0.00    -0.014 A 
ATOM     70  C   UNL     1       2.075   6.889   0.297  1.00  0.00     0.010 A 
ATOM     71  C   UNL     1       4.257   5.884   0.627  1.00  0.00     0.010 A 
ATOM     72  C   UNL     1       2.473   7.335  -0.967  1.00  0.00     0.020 A 
ATOM     73  C   UNL     1       4.668   6.351  -0.626  1.00  0.00     0.020 A 
ATOM     74  C   UNL     1       3.768   7.066  -1.419  1.00  0.00     0.054 A 
BRANCH  74  75
ATOM     75  S   UNL     1       4.273   7.705  -3.041  1.00  0.00     0.124 S 
ATOM     76  O   UNL     1       3.528   6.837  -3.950  1.00  0.00    -0.237 OA
ATOM     77  O   UNL     1       3.825   9.094  -2.991  1.00  0.00    -0.237 OA
ATOM     78  O   UNL     1       5.721   7.519  -3.052  1.00  0.00    -0.744 OA
ENDBRANCH  74  75
ENDBRANCH  55  69
BRANCH  56  79
ATOM     79  C   UNL     1       0.545   2.869  10.205  1.00  0.00    -0.014 A 
ATOM     80  C   UNL     1      -0.132   3.675  11.138  1.00  0.00     0.010 A 
ATOM     81  C   UNL     1       0.941   1.574  10.582  1.00  0.00     0.010 A 
ATOM     82  C   UNL     1      -0.371   3.210  12.435  1.00  0.00     0.020 A 
ATOM     83  C   UNL     1       0.676   1.093  11.867  1.00  0.00     0.020 A 
ATOM     84  C   UNL     1       0.038   1.923  12.792  1.00  0.00     0.054 A 
BRANCH  84  85
ATOM     85  S   UNL     1      -0.298   1.331  14.474  1.00  0.00     0.124 S 
ATOM     86  O   UNL     1       0.698   2.058  15.255  1.00  0.00    -0.237 OA
ATOM     87  O   UNL     1      -1.686   1.737  14.681  1.00  0.00    -0.237 OA
ATOM     88  O   UNL     1      -0.087  -0.112  14.376  1.00  0.00    -0.744 OA
ENDBRANCH  84  85
ENDBRANCH  56  79
BRANCH  68  89
ATOM     89  C   UNL     1       4.723   7.933   7.857  1.00  0.00    -0.014 A 
ATOM     90  C   UNL     1       5.910   7.578   8.521  1.00  0.00     0.010 A 
ATOM     91  C   UNL     1       4.346   9.288   7.807  1.00  0.00     0.010 A 
ATOM     92  C   UNL     1       6.683   8.555   9.157  1.00  0.00     0.020 A 
ATOM     93  C   UNL     1       5.130  10.270   8.416  1.00  0.00     0.020 A 
ATOM     94  C   UNL     1       6.286   9.895   9.103  1.00  0.00     0.054 A 
BRANCH  94  95
ATOM     95  S   UNL     1       7.321  11.148   9.909  1.00  0.00     0.124 S 
ATOM     96  O   UNL     1       7.024  10.924  11.321  1.00  0.00    -0.237 OA
ATOM     97  O   UNL     1       8.667  10.775   9.482  1.00  0.00    -0.237 OA
ATOM     98  O   UNL     1       6.827  12.409   9.361  1.00  0.00    -0.744 OA
ENDBRANCH  94  95
ENDBRANCH  68  89
ENDBRANCH  42  43
ENDBRANCH  34  37
ENDBRANCH  32  33
ENDBRANCH  31  32
ENDBRANCH  30  31
ENDBRANCH  29  30
ENDBRANCH   1  29
TORSDOF 22
