REMARK SMILES Cc1c(NC(=O)c2cccc(-c3cc4ccccc4oc3=O)c2)cccc1C(=O)NCCCCCCNC(=O)c1ccc(-c2c3nc(c(-c4ccc(S(=O)(=O)[O-])cc4)c4ccc([nH]4)c(-c4ccc(S(=O)(=O)[O-])cc4)c4nc(c(-c5ccc(S(=O)(=O)[O-])cc5)c5ccc2[nH]5)C=C4)C=C3)cc1
REMARK SMILES IDX 33 1 32 2 31 3 30 4 28 5 29 6 27 8 1 9 2 10 3 11 24 12 26 13
REMARK SMILES IDX 25 14 4 15 5 16 6 18 7 19 8 20 23 21 9 22 11 23 10 24 12 25
REMARK SMILES IDX 13 26 21 27 14 28 20 29 22 30 15 31 19 32 16 33 18 34 17 35
REMARK SMILES IDX 34 36 35 37 36 38 37 39 38 40 39 42 40 43 41 44 99 45 42 46
REMARK SMILES IDX 98 47 43 48 44 49 45 50 92 51 46 52 97 53 91 54 93 55 47 56
REMARK SMILES IDX 96 57 90 58 89 59 48 61 78 62 59 63 77 64 60 65 63 66 76 67
REMARK SMILES IDX 94 68 61 69 62 70 75 72 95 73 64 74 49 75 50 76 58 77 51 78
REMARK SMILES IDX 57 79 52 80 53 81 54 82 55 83 56 84 79 85 80 86 88 87 81 88
REMARK SMILES IDX 87 89 82 90 83 91 84 92 85 93 86 94 65 95 66 96 74 97 67 98
REMARK SMILES IDX 73 99 68 100 69 101 70 102 71 103 72 104
REMARK H PARENT 30 7 4 17 37 41 93 60 63 71
REMARK Flexibility Score: inf
ROOT
ATOM      1  C   UNL     1       5.419   2.833  -0.707  1.00  0.00     0.002 C 
ENDROOT
BRANCH   1   2
ATOM      2  C   UNL     1       4.278   1.834  -0.465  1.00  0.00     0.021 C 
BRANCH   2   3
ATOM      3  C   UNL     1       3.409   2.096   0.778  1.00  0.00     0.116 C 
BRANCH   3   4
ATOM      4  N   UNL     1       2.136   2.678   0.394  1.00  0.00    -0.352 N 
ATOM      5  C   UNL     1       0.831   2.282   0.322  1.00  0.00     0.251 C 
ATOM      6  O   UNL     1       0.063   3.167  -0.084  1.00  0.00    -0.269 OA
ATOM      7  H   UNL     1       2.242   3.614   0.108  1.00  0.00     0.163 HD
BRANCH   5   8
ATOM      8  C   UNL     1       0.211   0.957   0.684  1.00  0.00     0.044 A 
ATOM      9  C   UNL     1       2.093  -0.665   0.032  1.00  0.00     0.047 C 
ATOM     10  C   UNL     1       0.721  -0.358   0.558  1.00  0.00    -0.015 A 
ATOM     11  C   UNL     1      -0.138  -1.468   0.827  1.00  0.00     0.045 A 
ATOM     12  C   UNL     1      -1.481  -1.278   1.163  1.00  0.00     0.026 A 
ATOM     13  C   UNL     1      -1.156   1.094   1.038  1.00  0.00     0.014 A 
ATOM     14  C   UNL     1      -1.994   0.004   1.258  1.00  0.00     0.003 A 
BRANCH  11  15
ATOM     15  N   UNL     1       0.384  -2.778   0.778  1.00  0.00    -0.322 N 
ATOM     16  C   UNL     1      -0.215  -3.978   0.457  1.00  0.00     0.255 C 
ATOM     17  H   UNL     1       1.337  -2.847   1.013  1.00  0.00     0.170 HD
ATOM     18  O   UNL     1       0.276  -5.024   0.884  1.00  0.00    -0.269 OA
BRANCH  16  19
ATOM     19  C   UNL     1      -1.350  -4.059  -0.510  1.00  0.00     0.040 A 
ATOM     20  C   UNL     1      -2.139  -5.215  -0.522  1.00  0.00     0.014 A 
ATOM     21  C   UNL     1      -1.553  -3.090  -1.502  1.00  0.00     0.022 A 
ATOM     22  C   UNL     1      -3.135  -5.379  -1.486  1.00  0.00     0.001 A 
ATOM     23  C   UNL     1      -2.559  -3.233  -2.471  1.00  0.00    -0.010 A 
ATOM     24  C   UNL     1      -3.347  -4.391  -2.450  1.00  0.00     0.009 A 
BRANCH  23  25
ATOM     25  C   UNL     1      -2.742  -2.275  -3.593  1.00  0.00     0.068 A 
ATOM     26  C   UNL     1      -2.615  -0.938  -3.445  1.00  0.00     0.028 A 
ATOM     27  C   UNL     1      -2.145  -2.725  -4.891  1.00  0.00     0.344 A 
ATOM     28  C   UNL     1      -1.207  -0.489  -3.538  1.00  0.00     0.018 A 
ATOM     29  O   UNL     1      -0.807  -2.359  -5.046  1.00  0.00    -0.422 OA
ATOM     30  O   UNL     1      -2.760  -3.423  -5.687  1.00  0.00    -0.246 OA
ATOM     31  C   UNL     1      -0.739   0.650  -2.891  1.00  0.00     0.012 A 
ATOM     32  C   UNL     1      -0.317  -1.279  -4.279  1.00  0.00     0.138 A 
ATOM     33  C   UNL     1       0.623   0.956  -2.952  1.00  0.00     0.001 A 
ATOM     34  C   UNL     1       1.044  -1.007  -4.306  1.00  0.00     0.048 A 
ATOM     35  C   UNL     1       1.515   0.115  -3.627  1.00  0.00     0.004 A 
ENDBRANCH  23  25
ENDBRANCH  16  19
ENDBRANCH  11  15
ENDBRANCH   5   8
ENDBRANCH   3   4
ENDBRANCH   2   3
ENDBRANCH   1   2
BRANCH   1  36
ATOM     36  C   UNL     1       6.447   2.991   0.424  1.00  0.00     0.002 C 
BRANCH  36  37
ATOM     37  C   UNL     1       6.964   1.691   1.044  1.00  0.00     0.021 C 
BRANCH  37  38
ATOM     38  C   UNL     1       7.870   0.891   0.119  1.00  0.00     0.116 C 
BRANCH  38  39
ATOM     39  N   UNL     1       9.286   1.106   0.378  1.00  0.00    -0.352 N 
ATOM     40  C   UNL     1      10.245   0.182  -0.000  1.00  0.00     0.251 C 
ATOM     41  H   UNL     1       9.570   1.932   0.833  1.00  0.00     0.163 HD
ATOM     42  O   UNL     1      11.111  -0.273   0.740  1.00  0.00    -0.269 OA
BRANCH  40  43
ATOM     43  C   UNL     1      10.181  -0.214  -1.419  1.00  0.00     0.039 A 
ATOM     44  C   UNL     1      10.961   0.477  -2.349  1.00  0.00     0.014 A 
ATOM     45  C   UNL     1       9.161  -1.076  -1.821  1.00  0.00     0.014 A 
ATOM     46  C   UNL     1      10.629   0.404  -3.700  1.00  0.00     0.010 A 
ATOM     47  C   UNL     1       8.786  -1.082  -3.149  1.00  0.00     0.010 A 
ATOM     48  C   UNL     1       9.494  -0.314  -4.085  1.00  0.00    -0.014 A 
BRANCH  48  49
ATOM     49  C   UNL     1       8.941  -0.296  -5.435  1.00  0.00     0.031 A 
ATOM     50  C   UNL     1       9.167  -1.448  -6.338  1.00  0.00     0.074 A 
ATOM     51  C   UNL     1       8.165   0.731  -5.846  1.00  0.00     0.049 A 
ATOM     52  N   UNL     1       9.046  -1.405  -7.624  1.00  0.00    -0.248 NA
ATOM     53  C   UNL     1       9.605  -2.750  -5.847  1.00  0.00     0.031 C 
ATOM     54  C   UNL     1       7.314   0.768  -7.034  1.00  0.00     0.029 A 
ATOM     55  N   UNL     1       8.171   2.054  -5.399  1.00  0.00    -0.354 N 
ATOM     56  C   UNL     1       9.099  -2.699  -8.090  1.00  0.00     0.074 A 
ATOM     57  C   UNL     1       9.521  -3.489  -6.956  1.00  0.00     0.031 C 
ATOM     58  C   UNL     1       7.150   2.049  -7.399  1.00  0.00     0.029 A 
ATOM     59  C   UNL     1       8.016   2.849  -6.549  1.00  0.00     0.049 A 
ATOM     60  H   UNL     1       8.265   2.366  -4.470  1.00  0.00     0.167 HD
ATOM     61  C   UNL     1       8.666  -2.985  -9.350  1.00  0.00     0.031 A 
ATOM     62  C   UNL     1       8.963   3.730  -6.988  1.00  0.00     0.031 A 
ATOM     63  C   UNL     1       8.312  -1.783 -10.103  1.00  0.00     0.049 A 
ATOM     64  C   UNL     1       9.458   3.447  -8.399  1.00  0.00     0.074 A 
ATOM     65  C   UNL     1       7.123  -1.182 -10.483  1.00  0.00     0.029 A 
ATOM     66  N   UNL     1       9.307  -0.857 -10.364  1.00  0.00    -0.354 N 
ATOM     67  N   UNL     1       9.066   2.442  -9.134  1.00  0.00    -0.248 NA
ATOM     68  C   UNL     1      10.518   4.222  -9.048  1.00  0.00     0.031 C 
ATOM     69  C   UNL     1       7.421   0.125 -10.968  1.00  0.00     0.029 A 
ATOM     70  C   UNL     1       8.789   0.309 -10.891  1.00  0.00     0.049 A 
ATOM     71  H   UNL     1      10.265  -1.011 -10.196  1.00  0.00     0.167 HD
ATOM     72  C   UNL     1       9.815   2.393 -10.279  1.00  0.00     0.074 A 
ATOM     73  C   UNL     1      10.702   3.537 -10.190  1.00  0.00     0.031 C 
ATOM     74  C   UNL     1       9.700   1.394 -11.200  1.00  0.00     0.031 A 
BRANCH  61  75
ATOM     75  C   UNL     1       8.356  -4.388  -9.824  1.00  0.00    -0.014 A 
ATOM     76  C   UNL     1       7.364  -4.590 -10.807  1.00  0.00     0.010 A 
ATOM     77  C   UNL     1       8.966  -5.549  -9.313  1.00  0.00     0.010 A 
ATOM     78  C   UNL     1       6.929  -5.873 -11.174  1.00  0.00     0.020 A 
ATOM     79  C   UNL     1       8.515  -6.837  -9.638  1.00  0.00     0.020 A 
ATOM     80  C   UNL     1       7.486  -6.992 -10.560  1.00  0.00     0.054 A 
BRANCH  80  81
ATOM     81  S   UNL     1       6.844  -8.637 -10.964  1.00  0.00     0.124 S 
ATOM     82  O   UNL     1       5.415  -8.494 -10.695  1.00  0.00    -0.237 OA
ATOM     83  O   UNL     1       7.210  -8.779 -12.370  1.00  0.00    -0.237 OA
ATOM     84  O   UNL     1       7.556  -9.522 -10.044  1.00  0.00    -0.744 OA
ENDBRANCH  80  81
ENDBRANCH  61  75
BRANCH  62  85
ATOM     85  C   UNL     1       9.798   4.313  -5.898  1.00  0.00    -0.014 A 
ATOM     86  C   UNL     1       9.154   5.140  -4.951  1.00  0.00     0.010 A 
ATOM     87  C   UNL     1      11.038   3.742  -5.568  1.00  0.00     0.010 A 
ATOM     88  C   UNL     1       9.640   5.239  -3.645  1.00  0.00     0.020 A 
ATOM     89  C   UNL     1      11.537   3.855  -4.262  1.00  0.00     0.020 A 
ATOM     90  C   UNL     1      10.792   4.535  -3.294  1.00  0.00     0.054 A 
BRANCH  90  91
ATOM     91  S   UNL     1      11.202   4.377  -1.528  1.00  0.00     0.124 S 
ATOM     92  O   UNL     1      11.260   5.768  -1.093  1.00  0.00    -0.237 OA
ATOM     93  O   UNL     1      10.072   3.599  -1.013  1.00  0.00    -0.237 OA
ATOM     94  O   UNL     1      12.475   3.664  -1.542  1.00  0.00    -0.744 OA
ENDBRANCH  90  91
ENDBRANCH  62  85
BRANCH  74  95
ATOM     95  C   UNL     1      10.496   1.348 -12.471  1.00  0.00    -0.014 A 
ATOM     96  C   UNL     1      10.639   2.472 -13.301  1.00  0.00     0.010 A 
ATOM     97  C   UNL     1      11.022   0.122 -12.933  1.00  0.00     0.010 A 
ATOM     98  C   UNL     1      11.330   2.386 -14.517  1.00  0.00     0.020 A 
ATOM     99  C   UNL     1      11.696   0.022 -14.153  1.00  0.00     0.020 A 
ATOM    100  C   UNL     1      11.864   1.163 -14.930  1.00  0.00     0.054 A 
BRANCH 100 101
ATOM    101  S   UNL     1      12.729   1.063 -16.519  1.00  0.00     0.124 S 
ATOM    102  O   UNL     1      11.899   1.890 -17.392  1.00  0.00    -0.237 OA
ATOM    103  O   UNL     1      14.036   1.621 -16.184  1.00  0.00    -0.237 OA
ATOM    104  O   UNL     1      12.719  -0.364 -16.830  1.00  0.00    -0.744 OA
ENDBRANCH 100 101
ENDBRANCH  74  95
ENDBRANCH  48  49
ENDBRANCH  40  43
ENDBRANCH  38  39
ENDBRANCH  37  38
ENDBRANCH  36  37
ENDBRANCH   1  36
TORSDOF 19
