REMARK SMILES O=C(NCCCCCCNC(=O)[C@H]1[C@H]2CC[C@H](CC2)[C@@H]1C(=O)Nc1ccc(Cc2ccncc2)cc1)c1ccc(-c2c3nc(c(-c4ccc(S(=O)(=O)[O-])cc4)c4ccc([nH]4)c(-c4ccc(S(=O)(=O)[O-])cc4)c4nc(c(-c5ccc(S(=O)(=O)[O-])cc5)c5ccc2[nH]5)C=C4)C=C3)cc1
REMARK SMILES IDX 7 1 6 2 5 3 4 4 3 5 1 6 2 7 37 9 38 10 96 11 39 12 95 13
REMARK SMILES IDX 40 14 41 15 42 16 89 17 43 18 94 19 88 20 90 21 44 22 93 23
REMARK SMILES IDX 87 24 86 25 45 27 75 28 56 29 74 30 57 31 60 32 73 33 91 34
REMARK SMILES IDX 58 35 59 36 72 38 92 39 61 40 46 41 47 42 55 43 48 44 54 45
REMARK SMILES IDX 49 46 50 47 51 48 52 49 53 50 76 51 77 52 85 53 78 54 84 55
REMARK SMILES IDX 79 56 80 57 81 58 82 59 83 60 62 61 63 62 71 63 64 64 70 65
REMARK SMILES IDX 65 66 66 67 67 68 68 69 69 70 8 71 9 72 10 73 11 74 12 76
REMARK SMILES IDX 13 77 14 78 20 79 15 80 19 81 17 82 16 83 18 84 21 85 22 86
REMARK SMILES IDX 23 87 24 89 25 90 36 91 26 92 35 93 27 94 28 95 29 96 30 97
REMARK SMILES IDX 34 98 31 99 33 100 32 101
REMARK H PARENT 3 8 90 26 60 37 10 75 23 88
REMARK Flexibility Score: inf
ROOT
ATOM      1  C   UNL     1       4.772  -1.347   4.084  1.00  0.00     0.002 C 
ENDROOT
BRANCH   1   2
ATOM      2  C   UNL     1       4.107   0.005   3.804  1.00  0.00     0.002 C 
BRANCH   2   3
ATOM      3  C   UNL     1       4.555   0.681   2.507  1.00  0.00     0.021 C 
BRANCH   3   4
ATOM      4  C   UNL     1       4.336  -0.160   1.257  1.00  0.00     0.116 C 
BRANCH   4   5
ATOM      5  N   UNL     1       2.924  -0.398   1.006  1.00  0.00    -0.352 N 
ATOM      6  O   UNL     1       0.962  -0.170  -0.082  1.00  0.00    -0.269 OA
ATOM      7  C   UNL     1       2.187  -0.097  -0.112  1.00  0.00     0.251 C 
ATOM      8  H   UNL     1       2.429  -0.833   1.737  1.00  0.00     0.163 HD
BRANCH   7   9
ATOM      9  C   UNL     1       2.881   0.329  -1.345  1.00  0.00     0.039 A 
ATOM     10  C   UNL     1       4.010  -0.361  -1.796  1.00  0.00     0.014 A 
ATOM     11  C   UNL     1       2.390   1.423  -2.061  1.00  0.00     0.014 A 
ATOM     12  C   UNL     1       4.716   0.113  -2.895  1.00  0.00     0.010 A 
ATOM     13  C   UNL     1       3.055   1.849  -3.212  1.00  0.00     0.010 A 
ATOM     14  C   UNL     1       4.235   1.210  -3.627  1.00  0.00    -0.014 A 
BRANCH  14  15
ATOM     15  C   UNL     1       4.927   1.620  -4.873  1.00  0.00     0.031 A 
ATOM     16  C   UNL     1       5.581   2.967  -4.993  1.00  0.00     0.074 A 
ATOM     17  C   UNL     1       4.942   0.762  -5.911  1.00  0.00     0.049 A 
ATOM     18  N   UNL     1       6.200   3.489  -6.021  1.00  0.00    -0.248 NA
ATOM     19  C   UNL     1       5.526   3.844  -3.814  1.00  0.00     0.031 C 
ATOM     20  C   UNL     1       4.325  -0.568  -5.913  1.00  0.00     0.029 A 
ATOM     21  N   UNL     1       5.490   0.876  -7.162  1.00  0.00    -0.354 N 
ATOM     22  C   UNL     1       6.588   4.763  -5.625  1.00  0.00     0.074 A 
ATOM     23  C   UNL     1       6.115   4.943  -4.268  1.00  0.00     0.031 C 
ATOM     24  C   UNL     1       4.545  -1.153  -7.098  1.00  0.00     0.029 A 
ATOM     25  C   UNL     1       5.260  -0.219  -7.961  1.00  0.00     0.049 A 
ATOM     26  H   UNL     1       5.998   1.664  -7.460  1.00  0.00     0.167 HD
ATOM     27  C   UNL     1       7.275   5.696  -6.330  1.00  0.00     0.031 A 
ATOM     28  C   UNL     1       5.556  -0.441  -9.255  1.00  0.00     0.031 A 
ATOM     29  C   UNL     1       7.727   5.510  -7.685  1.00  0.00     0.049 A 
ATOM     30  C   UNL     1       6.290   0.616 -10.025  1.00  0.00     0.074 A 
ATOM     31  C   UNL     1       8.468   6.375  -8.471  1.00  0.00     0.029 A 
ATOM     32  N   UNL     1       7.468   4.389  -8.461  1.00  0.00    -0.354 N 
ATOM     33  N   UNL     1       6.700   1.793  -9.615  1.00  0.00    -0.248 NA
ATOM     34  C   UNL     1       6.608   0.317 -11.426  1.00  0.00     0.031 C 
ATOM     35  C   UNL     1       8.603   5.804  -9.741  1.00  0.00     0.029 A 
ATOM     36  C   UNL     1       8.005   4.554  -9.728  1.00  0.00     0.049 A 
ATOM     37  H   UNL     1       6.975   3.593  -8.157  1.00  0.00     0.167 HD
ATOM     38  C   UNL     1       7.338   2.371 -10.705  1.00  0.00     0.074 A 
ATOM     39  C   UNL     1       7.274   1.407 -11.786  1.00  0.00     0.031 C 
ATOM     40  C   UNL     1       7.925   3.589 -10.798  1.00  0.00     0.031 A 
BRANCH  27  41
ATOM     41  C   UNL     1       7.537   7.021  -5.659  1.00  0.00    -0.014 A 
ATOM     42  C   UNL     1       8.434   7.134  -4.581  1.00  0.00     0.010 A 
ATOM     43  C   UNL     1       6.888   8.178  -6.129  1.00  0.00     0.010 A 
ATOM     44  C   UNL     1       8.631   8.366  -3.950  1.00  0.00     0.020 A 
ATOM     45  C   UNL     1       7.105   9.417  -5.520  1.00  0.00     0.020 A 
ATOM     46  C   UNL     1       7.957   9.498  -4.417  1.00  0.00     0.054 A 
BRANCH  46  47
ATOM     47  S   UNL     1       8.217  11.080  -3.568  1.00  0.00     0.124 S 
ATOM     48  O   UNL     1       7.475  10.879  -2.326  1.00  0.00    -0.237 OA
ATOM     49  O   UNL     1       9.670  11.134  -3.427  1.00  0.00    -0.237 OA
ATOM     50  O   UNL     1       7.646  12.065  -4.483  1.00  0.00    -0.744 OA
ENDBRANCH  46  47
ENDBRANCH  27  41
BRANCH  28  51
ATOM     51  C   UNL     1       5.123  -1.716  -9.886  1.00  0.00    -0.014 A 
ATOM     52  C   UNL     1       6.056  -2.717 -10.200  1.00  0.00     0.010 A 
ATOM     53  C   UNL     1       3.753  -1.960 -10.102  1.00  0.00     0.010 A 
ATOM     54  C   UNL     1       5.625  -3.944 -10.716  1.00  0.00     0.020 A 
ATOM     55  C   UNL     1       3.318  -3.195 -10.590  1.00  0.00     0.020 A 
ATOM     56  C   UNL     1       4.258  -4.178 -10.899  1.00  0.00     0.054 A 
BRANCH  56  57
ATOM     57  S   UNL     1       3.720  -5.808 -11.483  1.00  0.00     0.124 S 
ATOM     58  O   UNL     1       4.102  -5.768 -12.890  1.00  0.00    -0.237 OA
ATOM     59  O   UNL     1       4.495  -6.717 -10.641  1.00  0.00    -0.237 OA
ATOM     60  O   UNL     1       2.282  -5.807 -11.223  1.00  0.00    -0.744 OA
ENDBRANCH  56  57
ENDBRANCH  28  51
BRANCH  40  61
ATOM     61  C   UNL     1       8.570   3.947 -12.110  1.00  0.00    -0.014 A 
ATOM     62  C   UNL     1       7.797   4.271 -13.239  1.00  0.00     0.010 A 
ATOM     63  C   UNL     1       9.972   4.029 -12.192  1.00  0.00     0.010 A 
ATOM     64  C   UNL     1       8.416   4.653 -14.432  1.00  0.00     0.020 A 
ATOM     65  C   UNL     1      10.594   4.437 -13.374  1.00  0.00     0.020 A 
ATOM     66  C   UNL     1       9.811   4.738 -14.490  1.00  0.00     0.054 A 
BRANCH  66  67
ATOM     67  S   UNL     1      10.588   5.302 -16.030  1.00  0.00     0.124 S 
ATOM     68  O   UNL     1      10.412   4.144 -16.901  1.00  0.00    -0.237 OA
ATOM     69  O   UNL     1       9.793   6.477 -16.377  1.00  0.00    -0.237 OA
ATOM     70  O   UNL     1      11.967   5.584 -15.639  1.00  0.00    -0.744 OA
ENDBRANCH  66  67
ENDBRANCH  40  61
ENDBRANCH  14  15
ENDBRANCH   7   9
ENDBRANCH   4   5
ENDBRANCH   3   4
ENDBRANCH   2   3
ENDBRANCH   1   2
BRANCH   1  71
ATOM     71  C   UNL     1       6.306  -1.329   4.063  1.00  0.00     0.021 C 
BRANCH  71  72
ATOM     72  C   UNL     1       6.923  -0.309   5.020  1.00  0.00     0.116 C 
BRANCH  72  73
ATOM     73  N   UNL     1       6.621  -0.663   6.396  1.00  0.00    -0.356 N 
ATOM     74  C   UNL     1       7.434  -1.200   7.346  1.00  0.00     0.224 C 
ATOM     75  H   UNL     1       5.695  -0.490   6.683  1.00  0.00     0.163 HD
ATOM     76  O   UNL     1       6.913  -1.722   8.333  1.00  0.00    -0.275 OA
BRANCH  74  77
ATOM     77  C   UNL     1       8.938  -1.039   7.215  1.00  0.00     0.094 C 
ATOM     78  C   UNL     1       9.407   0.200   8.026  1.00  0.00     0.002 C 
ATOM     79  C   UNL     1       9.698  -2.334   7.645  1.00  0.00     0.094 C 
ATOM     80  C   UNL     1       9.257  -0.041   9.536  1.00  0.00     0.005 C 
ATOM     81  C   UNL     1      10.903   0.408   7.731  1.00  0.00     0.005 C 
ATOM     82  C   UNL     1      10.742  -1.906   8.715  1.00  0.00     0.002 C 
ATOM     83  C   UNL     1       9.981  -1.329   9.927  1.00  0.00     0.005 C 
ATOM     84  C   UNL     1      11.691  -0.833   8.157  1.00  0.00     0.005 C 
BRANCH  79  85
ATOM     85  C   UNL     1      10.223  -3.030   6.365  1.00  0.00     0.228 C 
ATOM     86  O   UNL     1       9.740  -2.775   5.254  1.00  0.00    -0.274 OA
ATOM     87  N   UNL     1      11.235  -3.940   6.379  1.00  0.00    -0.326 N 
ATOM     88  H   UNL     1      11.575  -4.200   5.492  1.00  0.00     0.169 HD
BRANCH  87  89
ATOM     89  C   UNL     1      11.863  -4.558   7.456  1.00  0.00     0.041 A 
ATOM     90  C   UNL     1      13.254  -4.525   7.482  1.00  0.00     0.026 A 
ATOM     91  C   UNL     1      11.150  -5.139   8.505  1.00  0.00     0.026 A 
ATOM     92  C   UNL     1      13.927  -4.934   8.628  1.00  0.00     0.006 A 
ATOM     93  C   UNL     1      11.833  -5.598   9.634  1.00  0.00     0.006 A 
ATOM     94  C   UNL     1      13.225  -5.459   9.724  1.00  0.00    -0.043 A 
BRANCH  94  95
ATOM     95  C   UNL     1      13.965  -5.855  10.980  1.00  0.00     0.071 C 
BRANCH  95  96
ATOM     96  C   UNL     1      14.672  -7.183  10.874  1.00  0.00    -0.041 A 
ATOM     97  C   UNL     1      15.852  -7.313  10.135  1.00  0.00     0.024 A 
ATOM     98  C   UNL     1      14.152  -8.321  11.493  1.00  0.00     0.024 A 
ATOM     99  C   UNL     1      16.444  -8.561  10.032  1.00  0.00     0.111 A 
ATOM    100  C   UNL     1      14.827  -9.524  11.345  1.00  0.00     0.111 A 
ATOM    101  N   UNL     1      15.961  -9.670  10.628  1.00  0.00    -0.265 NA
ENDBRANCH  95  96
ENDBRANCH  94  95
ENDBRANCH  87  89
ENDBRANCH  79  85
ENDBRANCH  74  77
ENDBRANCH  72  73
ENDBRANCH  71  72
ENDBRANCH   1  71
TORSDOF 20
