REMARK SMILES Cc1cccc(-c2ncc(C[NH+]3CCC4(CC3)NC(=O)C[C@H]4C(=O)NCCCCCCNC(=O)c3ccc(-c4c5nc(c(-c6ccc(S(=O)(=O)[O-])cc6)c6ccc([nH]6)c(-c6ccc(S(=O)(=O)[O-])cc6)c6nc(c(-c7ccc(S(=O)(=O)[O-])cc7)c7ccc4[nH]7)C=C6)C=C5)cc3)cn2)c1
REMARK SMILES IDX 28 1 27 2 26 3 25 4 23 5 24 6 22 8 12 9 13 10 17 11 14 13
REMARK SMILES IDX 16 14 15 15 18 16 19 17 21 19 20 20 11 21 10 22 7 23 8 24
REMARK SMILES IDX 96 25 9 26 95 27 6 28 1 29 2 30 3 31 97 32 4 33 5 34 29 35
REMARK SMILES IDX 30 36 31 37 32 38 33 39 34 41 35 42 36 43 94 44 37 45 93 46
REMARK SMILES IDX 38 47 39 48 40 49 87 50 41 51 92 52 86 53 88 54 42 55 91 56
REMARK SMILES IDX 85 57 84 58 43 60 73 61 54 62 72 63 55 64 58 65 71 66 89 67
REMARK SMILES IDX 56 68 57 69 70 71 90 72 59 73 44 74 45 75 53 76 46 77 52 78
REMARK SMILES IDX 47 79 48 80 49 81 50 82 51 83 74 84 75 85 83 86 76 87 82 88
REMARK SMILES IDX 77 89 78 90 79 91 80 92 81 93 60 94 61 95 69 96 62 97 68 98
REMARK SMILES IDX 63 99 64 100 65 101 66 102 67 103
REMARK H PARENT 25 7 12 12 18 18 32 40 88 59 58 70
REMARK Flexibility Score: inf
ROOT
ATOM      1  C   UNL     1      -0.654   3.063  -4.916  1.00  0.00     0.002 C 
ENDROOT
BRANCH   1   2
ATOM      2  C   UNL     1      -0.549   3.269  -3.404  1.00  0.00     0.021 C 
BRANCH   2   3
ATOM      3  C   UNL     1       0.731   3.962  -2.895  1.00  0.00     0.116 C 
BRANCH   3   4
ATOM      4  N   UNL     1       0.836   5.389  -3.203  1.00  0.00    -0.356 N 
ATOM      5  C   UNL     1       0.885   6.525  -2.443  1.00  0.00     0.226 C 
ATOM      6  O   UNL     1       0.952   7.596  -3.059  1.00  0.00    -0.275 OA
ATOM      7  H   UNL     1       0.881   5.572  -4.169  1.00  0.00     0.163 HD
BRANCH   5   8
ATOM      8  C   UNL     1       0.859   6.576  -0.896  1.00  0.00     0.114 C 
ATOM      9  N   UNL     1      -3.143   6.902   0.161  1.00  0.00    -0.331 N 
ATOM     10  C   UNL     1      -2.126   7.348   1.105  1.00  0.00     0.264 C 
ATOM     11  C   UNL     1      -2.558   6.681  -1.144  1.00  0.00     0.264 C 
ATOM     12  H   UNL     1      -3.779   7.699   0.119  1.00  0.00     0.348 HD
ATOM     13  C   UNL     1      -0.818   6.543   1.162  1.00  0.00     0.091 C 
ATOM     14  C   UNL     1      -1.476   5.621  -1.111  1.00  0.00     0.091 C 
ATOM     15  C   UNL     1      -0.313   5.886  -0.157  1.00  0.00     0.063 C 
ATOM     16  N   UNL     1       0.332   4.658   0.298  1.00  0.00    -0.349 N 
ATOM     17  C   UNL     1       1.710   4.681   0.281  1.00  0.00     0.221 C 
ATOM     18  H   UNL     1      -0.179   3.872   0.595  1.00  0.00     0.164 HD
ATOM     19  C   UNL     1       2.152   5.973  -0.341  1.00  0.00     0.116 C 
ATOM     20  O   UNL     1       2.435   3.808   0.701  1.00  0.00    -0.275 OA
BRANCH   9  21
ATOM     21  C   UNL     1      -4.168   5.921   0.576  1.00  0.00     0.302 C 
BRANCH  21  22
ATOM     22  C   UNL     1      -3.783   4.466   0.567  1.00  0.00     0.043 A 
ATOM     23  C   UNL     1      -2.541   2.053   0.340  1.00  0.00     0.159 A 
ATOM     24  N   UNL     1      -2.393   2.736   1.494  1.00  0.00    -0.236 NA
ATOM     25  N   UNL     1      -3.330   2.442  -0.678  1.00  0.00    -0.236 NA
ATOM     26  C   UNL     1      -3.067   3.899   1.597  1.00  0.00     0.124 A 
ATOM     27  C   UNL     1      -3.947   3.639  -0.536  1.00  0.00     0.124 A 
BRANCH  23  28
ATOM     28  C   UNL     1      -1.676   0.881   0.144  1.00  0.00     0.019 A 
ATOM     29  C   UNL     1       2.068   0.045  -0.018  1.00  0.00     0.044 C 
ATOM     30  C   UNL     1       0.574  -0.110  -0.014  1.00  0.00    -0.050 A 
ATOM     31  C   UNL     1      -0.001  -1.378  -0.104  1.00  0.00     0.003 A 
ATOM     32  C   UNL     1      -0.270   1.003   0.113  1.00  0.00     0.015 A 
ATOM     33  C   UNL     1      -1.389  -1.524  -0.094  1.00  0.00     0.001 A 
ATOM     34  C   UNL     1      -2.219  -0.403   0.017  1.00  0.00     0.012 A 
ENDBRANCH  23  28
ENDBRANCH  21  22
ENDBRANCH   9  21
ENDBRANCH   5   8
ENDBRANCH   3   4
ENDBRANCH   2   3
ENDBRANCH   1   2
BRANCH   1  35
ATOM     35  C   UNL     1       0.533   2.358  -5.579  1.00  0.00     0.002 C 
BRANCH  35  36
ATOM     36  C   UNL     1       1.025   1.087  -4.890  1.00  0.00     0.021 C 
BRANCH  36  37
ATOM     37  C   UNL     1       0.036  -0.058  -4.908  1.00  0.00     0.116 C 
BRANCH  37  38
ATOM     38  N   UNL     1       0.007  -0.818  -6.148  1.00  0.00    -0.352 N 
ATOM     39  C   UNL     1      -0.228  -2.191  -6.151  1.00  0.00     0.251 C 
ATOM     40  H   UNL     1       0.157  -0.353  -7.003  1.00  0.00     0.163 HD
ATOM     41  O   UNL     1       0.548  -3.022  -6.601  1.00  0.00    -0.269 OA
BRANCH  39  42
ATOM     42  C   UNL     1      -1.559  -2.582  -5.638  1.00  0.00     0.039 A 
ATOM     43  C   UNL     1      -2.499  -3.153  -6.503  1.00  0.00     0.014 A 
ATOM     44  C   UNL     1      -1.926  -2.127  -4.377  1.00  0.00     0.014 A 
ATOM     45  C   UNL     1      -3.847  -3.088  -6.168  1.00  0.00     0.010 A 
ATOM     46  C   UNL     1      -3.245  -1.903  -4.127  1.00  0.00     0.010 A 
ATOM     47  C   UNL     1      -4.199  -2.373  -5.030  1.00  0.00    -0.014 A 
BRANCH  47  48
ATOM     48  C   UNL     1      -5.537  -2.131  -4.551  1.00  0.00     0.031 A 
ATOM     49  C   UNL     1      -6.013  -3.014  -3.469  1.00  0.00     0.074 A 
ATOM     50  C   UNL     1      -6.107  -0.951  -4.875  1.00  0.00     0.049 A 
ATOM     51  N   UNL     1      -7.218  -3.034  -3.038  1.00  0.00    -0.248 NA
ATOM     52  C   UNL     1      -5.154  -3.989  -2.784  1.00  0.00     0.031 C 
ATOM     53  C   UNL     1      -7.161  -0.226  -4.180  1.00  0.00     0.029 A 
ATOM     54  N   UNL     1      -5.932  -0.215  -6.032  1.00  0.00    -0.354 N 
ATOM     55  C   UNL     1      -7.220  -3.732  -1.850  1.00  0.00     0.074 A 
ATOM     56  C   UNL     1      -5.947  -4.399  -1.789  1.00  0.00     0.031 C 
ATOM     57  C   UNL     1      -7.710   0.667  -5.026  1.00  0.00     0.029 A 
ATOM     58  C   UNL     1      -7.129   0.431  -6.342  1.00  0.00     0.049 A 
ATOM     59  H   UNL     1      -5.098  -0.155  -6.552  1.00  0.00     0.167 HD
ATOM     60  C   UNL     1      -8.255  -3.522  -0.995  1.00  0.00     0.031 A 
ATOM     61  C   UNL     1      -7.856   0.027  -7.434  1.00  0.00     0.031 A 
ATOM     62  C   UNL     1      -9.234  -2.636  -1.615  1.00  0.00     0.049 A 
ATOM     63  C   UNL     1      -9.156  -0.651  -7.038  1.00  0.00     0.074 A 
ATOM     64  C   UNL     1      -9.447  -1.272  -1.522  1.00  0.00     0.029 A 
ATOM     65  N   UNL     1      -9.893  -3.074  -2.752  1.00  0.00    -0.354 N 
ATOM     66  N   UNL     1      -9.354  -1.236  -5.888  1.00  0.00    -0.248 NA
ATOM     67  C   UNL     1     -10.349  -0.673  -7.880  1.00  0.00     0.031 C 
ATOM     68  C   UNL     1     -10.175  -0.876  -2.676  1.00  0.00     0.029 A 
ATOM     69  C   UNL     1     -10.421  -2.003  -3.442  1.00  0.00     0.049 A 
ATOM     70  H   UNL     1      -9.972  -4.016  -3.029  1.00  0.00     0.167 HD
ATOM     71  C   UNL     1     -10.656  -1.654  -5.797  1.00  0.00     0.074 A 
ATOM     72  C   UNL     1     -11.234  -1.297  -7.080  1.00  0.00     0.031 C 
ATOM     73  C   UNL     1     -11.165  -2.234  -4.670  1.00  0.00     0.031 A 
BRANCH  60  74
ATOM     74  C   UNL     1      -8.309  -3.885   0.465  1.00  0.00    -0.014 A 
ATOM     75  C   UNL     1      -9.287  -3.251   1.262  1.00  0.00     0.010 A 
ATOM     76  C   UNL     1      -7.446  -4.778   1.128  1.00  0.00     0.010 A 
ATOM     77  C   UNL     1      -9.382  -3.458   2.640  1.00  0.00     0.020 A 
ATOM     78  C   UNL     1      -7.528  -4.994   2.516  1.00  0.00     0.020 A 
ATOM     79  C   UNL     1      -8.496  -4.327   3.263  1.00  0.00     0.054 A 
BRANCH  79  80
ATOM     80  S   UNL     1      -8.650  -4.574   5.049  1.00  0.00     0.124 S 
ATOM     81  O   UNL     1      -8.408  -3.231   5.571  1.00  0.00    -0.237 OA
ATOM     82  O   UNL     1     -10.020  -5.062   5.181  1.00  0.00    -0.237 OA
ATOM     83  O   UNL     1      -7.610  -5.553   5.356  1.00  0.00    -0.744 OA
ENDBRANCH  79  80
ENDBRANCH  60  74
BRANCH  61  84
ATOM     84  C   UNL     1      -6.976  -0.358  -8.589  1.00  0.00    -0.014 A 
ATOM     85  C   UNL     1      -6.245   0.690  -9.195  1.00  0.00     0.010 A 
ATOM     86  C   UNL     1      -6.479  -1.671  -8.693  1.00  0.00     0.010 A 
ATOM     87  C   UNL     1      -4.942   0.474  -9.657  1.00  0.00     0.020 A 
ATOM     88  C   UNL     1      -5.179  -1.891  -9.180  1.00  0.00     0.020 A 
ATOM     89  C   UNL     1      -4.390  -0.803  -9.563  1.00  0.00     0.054 A 
BRANCH  89  90
ATOM     90  S   UNL     1      -2.585  -0.973  -9.750  1.00  0.00     0.124 S 
ATOM     91  O   UNL     1      -2.344  -0.343 -11.045  1.00  0.00    -0.237 OA
ATOM     92  O   UNL     1      -2.081  -0.235  -8.587  1.00  0.00    -0.237 OA
ATOM     93  O   UNL     1      -2.374  -2.416  -9.709  1.00  0.00    -0.744 OA
ENDBRANCH  89  90
ENDBRANCH  61  84
BRANCH  73  94
ATOM     94  C   UNL     1     -12.456  -3.014  -4.562  1.00  0.00    -0.014 A 
ATOM     95  C   UNL     1     -13.175  -3.502  -5.660  1.00  0.00     0.010 A 
ATOM     96  C   UNL     1     -12.914  -3.409  -3.276  1.00  0.00     0.010 A 
ATOM     97  C   UNL     1     -14.331  -4.274  -5.485  1.00  0.00     0.020 A 
ATOM     98  C   UNL     1     -14.023  -4.232  -3.091  1.00  0.00     0.020 A 
ATOM     99  C   UNL     1     -14.750  -4.629  -4.202  1.00  0.00     0.054 A 
BRANCH  99 100
ATOM    100  S   UNL     1     -16.238  -5.633  -4.002  1.00  0.00     0.124 S 
ATOM    101  O   UNL     1     -17.292  -4.640  -4.189  1.00  0.00    -0.237 OA
ATOM    102  O   UNL     1     -16.107  -6.618  -5.073  1.00  0.00    -0.237 OA
ATOM    103  O   UNL     1     -16.116  -6.171  -2.650  1.00  0.00    -0.744 OA
ENDBRANCH  99 100
ENDBRANCH  73  94
ENDBRANCH  47  48
ENDBRANCH  39  42
ENDBRANCH  37  38
ENDBRANCH  36  37
ENDBRANCH  35  36
ENDBRANCH   1  35
TORSDOF 19
