REMARK SMILES COc1ccc2c(c1)OC[C@@]1(C(=O)NCCCCCCNC(=O)c3ccc(-c4c5nc(c(-c6ccc(S(=O)(=O)[O-])cc6)c6ccc([nH]6)c(-c6ccc(S(=O)(=O)[O-])cc6)c6nc(c(-c7ccc(S(=O)(=O)[O-])cc7)c7ccc4[nH]7)C=C6)C=C5)cc3)C[N@@H+](Cc3cc(C(C)(C)C)n[nH]3)C[C@H]21
REMARK SMILES IDX 17 1 16 2 15 3 14 4 12 5 13 6 11 8 3 9 4 10 8 11 5 12 7 13
REMARK SMILES IDX 6 14 9 15 97 16 10 17 96 18 84 19 85 20 2 22 1 23 86 24
REMARK SMILES IDX 87 25 88 26 95 27 89 28 94 29 90 31 91 32 92 33 93 34 18 35
REMARK SMILES IDX 19 36 20 37 21 38 22 39 23 41 24 42 25 43 83 44 26 45 82 46
REMARK SMILES IDX 27 47 28 48 29 49 76 50 30 51 81 52 75 53 77 54 31 55 80 56
REMARK SMILES IDX 74 57 73 58 32 60 62 61 43 62 61 63 44 64 47 65 60 66 78 67
REMARK SMILES IDX 45 68 46 69 59 71 79 72 48 73 33 74 34 75 42 76 35 77 41 78
REMARK SMILES IDX 36 79 37 80 38 81 39 82 40 83 63 84 64 85 72 86 65 87 71 88
REMARK SMILES IDX 66 89 67 90 68 91 69 92 70 93 49 94 50 95 58 96 51 97 57 98
REMARK SMILES IDX 52 99 53 100 54 101 55 102 56 103
REMARK H PARENT 14 7 85 21 95 30 21 40 77 59 47 70
REMARK Flexibility Score: inf
ROOT
ATOM      1  C   UNL     1       6.905   7.258   5.293  1.00  0.00     0.002 C 
ENDROOT
BRANCH   1   2
ATOM      2  C   UNL     1       5.415   6.941   5.148  1.00  0.00     0.021 C 
BRANCH   2   3
ATOM      3  C   UNL     1       4.716   7.455   3.901  1.00  0.00     0.116 C 
BRANCH   3   4
ATOM      4  N   UNL     1       5.417   7.194   2.656  1.00  0.00    -0.355 N 
ATOM      5  C   UNL     1       4.804   7.061   1.426  1.00  0.00     0.236 C 
ATOM      6  O   UNL     1       5.432   7.394   0.418  1.00  0.00    -0.274 OA
ATOM      7  H   UNL     1       6.397   7.105   2.692  1.00  0.00     0.163 HD
BRANCH   5   8
ATOM      8  C   UNL     1       3.364   6.452   1.429  1.00  0.00     0.144 C 
ATOM      9  C   UNL     1       0.643   2.216  -0.224  1.00  0.00     0.122 A 
ATOM     10  C   UNL     1      -0.189   3.301  -0.505  1.00  0.00     0.047 A 
ATOM     11  C   UNL     1       1.894   2.446   0.348  1.00  0.00     0.093 A 
ATOM     12  C   UNL     1       0.209   4.602  -0.192  1.00  0.00     0.012 A 
ATOM     13  C   UNL     1       2.293   3.754   0.627  1.00  0.00     0.126 A 
ATOM     14  C   UNL     1       1.458   4.834   0.399  1.00  0.00     0.005 A 
ATOM     15  O   UNL     1       3.548   3.964   1.110  1.00  0.00    -0.492 OA
ATOM     16  C   UNL     1       1.960   6.230   0.695  1.00  0.00     0.103 C 
ATOM     17  C   UNL     1       4.064   5.240   0.653  1.00  0.00     0.253 C 
ATOM     18  C   UNL     1       0.958   6.945   1.613  1.00  0.00     0.272 C 
ATOM     19  C   UNL     1       2.982   8.033   1.352  1.00  0.00     0.284 C 
ATOM     20  N   UNL     1       1.696   8.106   2.068  1.00  0.00    -0.328 N 
ATOM     21  H   UNL     1       1.836   8.079   3.078  1.00  0.00     0.348 HD
BRANCH   9  22
ATOM     22  O   UNL     1       0.140   0.999  -0.594  1.00  0.00    -0.497 OA
ATOM     23  C   UNL     1       0.748  -0.138   0.006  1.00  0.00     0.278 C 
ENDBRANCH   9  22
BRANCH  20  24
ATOM     24  C   UNL     1       0.988   9.387   1.983  1.00  0.00     0.319 C 
BRANCH  24  25
ATOM     25  C   UNL     1       0.857   9.879   0.591  1.00  0.00     0.090 A 
ATOM     26  C   UNL     1       0.108   9.434  -0.474  1.00  0.00     0.055 A 
ATOM     27  N   UNL     1       1.638  10.883   0.091  1.00  0.00    -0.277 N 
ATOM     28  C   UNL     1       0.701  10.034  -1.608  1.00  0.00     0.068 A 
ATOM     29  N   UNL     1       1.593  10.967  -1.247  1.00  0.00    -0.180 NA
ATOM     30  H   UNL     1       2.178  11.483   0.655  1.00  0.00     0.190 HD
BRANCH  28  31
ATOM     31  C   UNL     1       0.494   9.686  -3.069  1.00  0.00     0.006 C 
ATOM     32  C   UNL     1      -0.213  10.844  -3.791  1.00  0.00     0.017 C 
ATOM     33  C   UNL     1       1.857   9.412  -3.742  1.00  0.00     0.017 C 
ATOM     34  C   UNL     1      -0.360   8.409  -3.228  1.00  0.00     0.017 C 
ENDBRANCH  28  31
ENDBRANCH  24  25
ENDBRANCH  20  24
ENDBRANCH   5   8
ENDBRANCH   3   4
ENDBRANCH   2   3
ENDBRANCH   1   2
BRANCH   1  35
ATOM     35  C   UNL     1       7.362   8.697   5.040  1.00  0.00     0.002 C 
BRANCH  35  36
ATOM     36  C   UNL     1       6.633   9.805   5.795  1.00  0.00     0.021 C 
BRANCH  36  37
ATOM     37  C   UNL     1       6.484   9.609   7.296  1.00  0.00     0.116 C 
BRANCH  37  38
ATOM     38  N   UNL     1       7.752   9.497   7.997  1.00  0.00    -0.352 N 
ATOM     39  C   UNL     1       8.172  10.137   9.140  1.00  0.00     0.251 C 
ATOM     40  H   UNL     1       8.402   8.875   7.597  1.00  0.00     0.163 HD
ATOM     41  O   UNL     1       9.323   9.983   9.541  1.00  0.00    -0.269 OA
BRANCH  39  42
ATOM     42  C   UNL     1       7.248  11.045   9.858  1.00  0.00     0.039 A 
ATOM     43  C   UNL     1       5.922  10.679  10.096  1.00  0.00     0.014 A 
ATOM     44  C   UNL     1       7.713  12.296  10.274  1.00  0.00     0.014 A 
ATOM     45  C   UNL     1       5.025  11.620  10.590  1.00  0.00     0.010 A 
ATOM     46  C   UNL     1       6.828  13.210  10.856  1.00  0.00     0.010 A 
ATOM     47  C   UNL     1       5.466  12.897  10.979  1.00  0.00    -0.014 A 
BRANCH  47  48
ATOM     48  C   UNL     1       4.487  13.870  11.533  1.00  0.00     0.031 A 
ATOM     49  C   UNL     1       4.178  15.156  10.814  1.00  0.00     0.074 A 
ATOM     50  C   UNL     1       3.831  13.558  12.669  1.00  0.00     0.049 A 
ATOM     51  N   UNL     1       3.332  16.097  11.150  1.00  0.00    -0.248 NA
ATOM     52  C   UNL     1       4.903  15.428   9.562  1.00  0.00     0.031 C 
ATOM     53  C   UNL     1       4.042  12.337  13.452  1.00  0.00     0.029 A 
ATOM     54  N   UNL     1       2.840  14.220  13.350  1.00  0.00    -0.354 N 
ATOM     55  C   UNL     1       3.426  17.070  10.162  1.00  0.00     0.074 A 
ATOM     56  C   UNL     1       4.435  16.624   9.226  1.00  0.00     0.031 C 
ATOM     57  C   UNL     1       3.171  12.311  14.470  1.00  0.00     0.029 A 
ATOM     58  C   UNL     1       2.386  13.542  14.458  1.00  0.00     0.049 A 
ATOM     59  H   UNL     1       2.488  15.096  13.072  1.00  0.00     0.167 HD
ATOM     60  C   UNL     1       2.723  18.220  10.040  1.00  0.00     0.031 A 
ATOM     61  C   UNL     1       1.456  13.871  15.376  1.00  0.00     0.031 A 
ATOM     62  C   UNL     1       1.708  18.651  10.967  1.00  0.00     0.049 A 
ATOM     63  C   UNL     1       0.715  15.168  15.233  1.00  0.00     0.074 A 
ATOM     64  C   UNL     1       0.937  19.800  10.915  1.00  0.00     0.029 A 
ATOM     65  N   UNL     1       1.314  17.958  12.101  1.00  0.00    -0.354 N 
ATOM     66  N   UNL     1       0.819  16.070  14.287  1.00  0.00    -0.248 NA
ATOM     67  C   UNL     1      -0.267  15.497  16.276  1.00  0.00     0.031 C 
ATOM     68  C   UNL     1       0.117  19.829  12.044  1.00  0.00     0.029 A 
ATOM     69  C   UNL     1       0.328  18.666  12.767  1.00  0.00     0.049 A 
ATOM     70  H   UNL     1       1.681  17.091  12.390  1.00  0.00     0.167 HD
ATOM     71  C   UNL     1      -0.081  17.074  14.621  1.00  0.00     0.074 A 
ATOM     72  C   UNL     1      -0.746  16.654  15.837  1.00  0.00     0.031 C 
ATOM     73  C   UNL     1      -0.323  18.244  13.982  1.00  0.00     0.031 A 
BRANCH  60  74
ATOM     74  C   UNL     1       2.991  19.111   8.855  1.00  0.00    -0.014 A 
ATOM     75  C   UNL     1       3.578  20.376   9.048  1.00  0.00     0.010 A 
ATOM     76  C   UNL     1       2.507  18.768   7.580  1.00  0.00     0.010 A 
ATOM     77  C   UNL     1       3.632  21.300   8.002  1.00  0.00     0.020 A 
ATOM     78  C   UNL     1       2.582  19.682   6.524  1.00  0.00     0.020 A 
ATOM     79  C   UNL     1       3.117  20.953   6.750  1.00  0.00     0.054 A 
BRANCH  79  80
ATOM     80  S   UNL     1       3.131  22.190   5.423  1.00  0.00     0.124 S 
ATOM     81  O   UNL     1       2.067  23.099   5.838  1.00  0.00    -0.237 OA
ATOM     82  O   UNL     1       4.487  22.727   5.502  1.00  0.00    -0.237 OA
ATOM     83  O   UNL     1       2.851  21.406   4.222  1.00  0.00    -0.744 OA
ENDBRANCH  79  80
ENDBRANCH  60  74
BRANCH  61  84
ATOM     84  C   UNL     1       1.195  12.940  16.508  1.00  0.00    -0.014 A 
ATOM     85  C   UNL     1       2.192  12.710  17.475  1.00  0.00     0.010 A 
ATOM     86  C   UNL     1      -0.009  12.219  16.584  1.00  0.00     0.010 A 
ATOM     87  C   UNL     1       2.017  11.737  18.460  1.00  0.00     0.020 A 
ATOM     88  C   UNL     1      -0.202  11.267  17.591  1.00  0.00     0.020 A 
ATOM     89  C   UNL     1       0.825  11.011  18.503  1.00  0.00     0.054 A 
BRANCH  89  90
ATOM     90  S   UNL     1       0.631   9.724  19.766  1.00  0.00     0.124 S 
ATOM     91  O   UNL     1       1.385   8.618  19.182  1.00  0.00    -0.237 OA
ATOM     92  O   UNL     1       1.230  10.339  20.948  1.00  0.00    -0.237 OA
ATOM     93  O   UNL     1      -0.815   9.530  19.834  1.00  0.00    -0.744 OA
ENDBRANCH  89  90
ENDBRANCH  61  84
BRANCH  73  94
ATOM     94  C   UNL     1      -1.339  19.181  14.579  1.00  0.00    -0.014 A 
ATOM     95  C   UNL     1      -2.550  19.423  13.906  1.00  0.00     0.010 A 
ATOM     96  C   UNL     1      -1.038  19.916  15.739  1.00  0.00     0.010 A 
ATOM     97  C   UNL     1      -3.429  20.408  14.363  1.00  0.00     0.020 A 
ATOM     98  C   UNL     1      -1.928  20.883  16.214  1.00  0.00     0.020 A 
ATOM     99  C   UNL     1      -3.106  21.140  15.509  1.00  0.00     0.054 A 
BRANCH  99 100
ATOM    100  S   UNL     1      -4.245  22.434  16.072  1.00  0.00     0.124 S 
ATOM    101  O   UNL     1      -3.958  23.522  15.143  1.00  0.00    -0.237 OA
ATOM    102  O   UNL     1      -5.554  21.802  15.916  1.00  0.00    -0.237 OA
ATOM    103  O   UNL     1      -3.838  22.669  17.456  1.00  0.00    -0.744 OA
ENDBRANCH  99 100
ENDBRANCH  73  94
ENDBRANCH  47  48
ENDBRANCH  39  42
ENDBRANCH  37  38
ENDBRANCH  36  37
ENDBRANCH  35  36
ENDBRANCH   1  35
TORSDOF 20
