REMARK SMILES C[C@@H](C(=O)NCCCCCCNC(=O)c1ccc(-c2c3nc(c(-c4ccc(S(=O)(=O)[O-])cc4)c4ccc([nH]4)c(-c4ccc(S(=O)(=O)[O-])cc4)c4nc(c(-c5ccc(S(=O)(=O)[O-])cc5)c5ccc2[nH]5)C=C4)C=C3)cc1)c1ccc(-c2ccc3[nH]ccc3c2)cc1
REMARK SMILES IDX 9 1 8 2 7 3 6 4 5 5 3 6 4 7 2 9 1 10 75 11 76 12 89 13 77 14
REMARK SMILES IDX 88 15 78 16 79 17 80 18 87 19 81 20 86 21 82 22 85 23 83 24
REMARK SMILES IDX 84 25 10 27 11 28 12 29 13 30 14 32 15 33 16 34 74 35 17 36
REMARK SMILES IDX 73 37 18 38 19 39 20 40 67 41 21 42 72 43 66 44 68 45 22 46
REMARK SMILES IDX 71 47 65 48 64 49 23 51 53 52 34 53 52 54 35 55 38 56 51 57
REMARK SMILES IDX 69 58 36 59 37 60 50 62 70 63 39 64 24 65 25 66 33 67 26 68
REMARK SMILES IDX 32 69 27 70 28 71 29 72 30 73 31 74 54 75 55 76 63 77 56 78
REMARK SMILES IDX 62 79 57 80 58 81 59 82 60 83 61 84 40 85 41 86 49 87 42 88
REMARK SMILES IDX 48 89 43 90 44 91 45 92 46 93 47 94
REMARK H PARENT 5 8 83 26 12 31 68 50 38 61
REMARK Flexibility Score: inf
ROOT
ATOM      1  C   UNL     1       5.913  -1.048  -3.140  1.00  0.00     0.002 C 
ENDROOT
BRANCH   1   2
ATOM      2  C   UNL     1       4.974  -1.782  -2.180  1.00  0.00     0.002 C 
BRANCH   2   3
ATOM      3  C   UNL     1       4.250  -0.882  -1.169  1.00  0.00     0.021 C 
BRANCH   3   4
ATOM      4  C   UNL     1       3.441   0.248  -1.811  1.00  0.00     0.116 C 
BRANCH   4   5
ATOM      5  N   UNL     1       2.359  -0.297  -2.601  1.00  0.00    -0.356 N 
ATOM      6  C   UNL     1       1.034  -0.418  -2.306  1.00  0.00     0.227 C 
ATOM      7  O   UNL     1       0.359  -1.082  -3.095  1.00  0.00    -0.274 OA
ATOM      8  H   UNL     1       2.620  -0.632  -3.489  1.00  0.00     0.163 HD
BRANCH   6   9
ATOM      9  C   UNL     1       0.453   0.298  -1.072  1.00  0.00     0.105 C 
ATOM     10  C   UNL     1       0.894  -0.318   0.258  1.00  0.00     0.023 C 
BRANCH   9  11
ATOM     11  C   UNL     1      -1.070   0.354  -1.103  1.00  0.00    -0.036 A 
ATOM     12  C   UNL     1      -1.734   1.587  -1.131  1.00  0.00     0.005 A 
ATOM     13  C   UNL     1      -1.833  -0.824  -1.086  1.00  0.00     0.005 A 
ATOM     14  C   UNL     1      -3.129   1.636  -1.156  1.00  0.00     0.009 A 
ATOM     15  C   UNL     1      -3.225  -0.773  -1.112  1.00  0.00     0.009 A 
ATOM     16  C   UNL     1      -3.889   0.457  -1.152  1.00  0.00    -0.018 A 
BRANCH  16  17
ATOM     17  C   UNL     1      -5.349   0.507  -1.218  1.00  0.00    -0.018 A 
ATOM     18  C   UNL     1      -5.988   0.771  -2.437  1.00  0.00     0.011 A 
ATOM     19  C   UNL     1      -6.122   0.281  -0.066  1.00  0.00     0.019 A 
ATOM     20  C   UNL     1      -7.381   0.810  -2.544  1.00  0.00     0.027 A 
ATOM     21  C   UNL     1      -7.527   0.334  -0.144  1.00  0.00    -0.000 A 
ATOM     22  C   UNL     1      -8.121   0.589  -1.379  1.00  0.00     0.045 A 
ATOM     23  C   UNL     1      -8.576   0.188   0.804  1.00  0.00     0.028 A 
ATOM     24  N   UNL     1      -9.483   0.570  -1.183  1.00  0.00    -0.361 N 
ATOM     25  C   UNL     1      -9.769   0.347   0.138  1.00  0.00     0.083 A 
ATOM     26  H   UNL     1     -10.156   0.698  -1.891  1.00  0.00     0.166 HD
ENDBRANCH  16  17
ENDBRANCH   9  11
ENDBRANCH   6   9
ENDBRANCH   4   5
ENDBRANCH   3   4
ENDBRANCH   2   3
ENDBRANCH   1   2
BRANCH   1  27
ATOM     27  C   UNL     1       6.961  -0.163  -2.461  1.00  0.00     0.021 C 
BRANCH  27  28
ATOM     28  C   UNL     1       7.889  -0.905  -1.507  1.00  0.00     0.116 C 
BRANCH  28  29
ATOM     29  N   UNL     1       8.704  -1.888  -2.199  1.00  0.00    -0.352 N 
ATOM     30  C   UNL     1      10.061  -2.082  -2.141  1.00  0.00     0.251 C 
ATOM     31  H   UNL     1       8.214  -2.500  -2.794  1.00  0.00     0.163 HD
ATOM     32  O   UNL     1      10.606  -2.822  -2.954  1.00  0.00    -0.269 OA
BRANCH  30  33
ATOM     33  C   UNL     1      10.863  -1.392  -1.107  1.00  0.00     0.039 A 
ATOM     34  C   UNL     1      12.103  -0.856  -1.463  1.00  0.00     0.014 A 
ATOM     35  C   UNL     1      10.414  -1.302   0.214  1.00  0.00     0.014 A 
ATOM     36  C   UNL     1      12.880  -0.207  -0.500  1.00  0.00     0.010 A 
ATOM     37  C   UNL     1      11.153  -0.588   1.153  1.00  0.00     0.010 A 
ATOM     38  C   UNL     1      12.405  -0.055   0.813  1.00  0.00    -0.014 A 
BRANCH  38  39
ATOM     39  C   UNL     1      13.228   0.617   1.851  1.00  0.00     0.031 A 
ATOM     40  C   UNL     1      13.726  -0.165   3.039  1.00  0.00     0.074 A 
ATOM     41  C   UNL     1      13.497   1.933   1.746  1.00  0.00     0.049 A 
ATOM     42  N   UNL     1      14.446   0.243   4.052  1.00  0.00    -0.248 NA
ATOM     43  C   UNL     1      13.342  -1.585   3.112  1.00  0.00     0.031 C 
ATOM     44  C   UNL     1      13.040   2.808   0.664  1.00  0.00     0.029 A 
ATOM     45  N   UNL     1      14.225   2.764   2.560  1.00  0.00    -0.354 N 
ATOM     46  C   UNL     1      14.581  -0.859   4.890  1.00  0.00     0.074 A 
ATOM     47  C   UNL     1      13.826  -1.938   4.293  1.00  0.00     0.031 C 
ATOM     48  C   UNL     1      13.530   4.043   0.861  1.00  0.00     0.029 A 
ATOM     49  C   UNL     1      14.305   4.057   2.099  1.00  0.00     0.049 A 
ATOM     50  H   UNL     1      14.650   2.463   3.395  1.00  0.00     0.167 HD
ATOM     51  C   UNL     1      15.286  -0.970   6.041  1.00  0.00     0.031 A 
ATOM     52  C   UNL     1      14.936   5.131   2.611  1.00  0.00     0.031 A 
ATOM     53  C   UNL     1      16.055   0.099   6.619  1.00  0.00     0.049 A 
ATOM     54  C   UNL     1      15.722   4.980   3.885  1.00  0.00     0.074 A 
ATOM     55  C   UNL     1      16.859   0.070   7.745  1.00  0.00     0.029 A 
ATOM     56  N   UNL     1      16.117   1.390   6.116  1.00  0.00    -0.354 N 
ATOM     57  N   UNL     1      15.895   3.911   4.626  1.00  0.00    -0.248 NA
ATOM     58  C   UNL     1      16.412   6.178   4.382  1.00  0.00     0.031 C 
ATOM     59  C   UNL     1      17.365   1.358   7.953  1.00  0.00     0.029 A 
ATOM     60  C   UNL     1      16.927   2.173   6.921  1.00  0.00     0.049 A 
ATOM     61  H   UNL     1      15.653   1.704   5.306  1.00  0.00     0.167 HD
ATOM     62  C   UNL     1      16.745   4.299   5.657  1.00  0.00     0.074 A 
ATOM     63  C   UNL     1      17.056   5.697   5.437  1.00  0.00     0.031 C 
ATOM     64  C   UNL     1      17.229   3.563   6.688  1.00  0.00     0.031 A 
BRANCH  51  65
ATOM     65  C   UNL     1      15.248  -2.296   6.757  1.00  0.00    -0.014 A 
ATOM     66  C   UNL     1      15.868  -3.438   6.216  1.00  0.00     0.010 A 
ATOM     67  C   UNL     1      14.604  -2.396   8.004  1.00  0.00     0.010 A 
ATOM     68  C   UNL     1      15.803  -4.663   6.885  1.00  0.00     0.020 A 
ATOM     69  C   UNL     1      14.564  -3.612   8.691  1.00  0.00     0.020 A 
ATOM     70  C   UNL     1      15.147  -4.744   8.117  1.00  0.00     0.054 A 
BRANCH  70  71
ATOM     71  S   UNL     1      15.089  -6.343   8.969  1.00  0.00     0.124 S 
ATOM     72  O   UNL     1      14.119  -7.079   8.162  1.00  0.00    -0.237 OA
ATOM     73  O   UNL     1      16.469  -6.810   8.871  1.00  0.00    -0.237 OA
ATOM     74  O   UNL     1      14.644  -6.002  10.318  1.00  0.00    -0.744 OA
ENDBRANCH  70  71
ENDBRANCH  51  65
BRANCH  52  75
ATOM     75  C   UNL     1      14.884   6.436   1.896  1.00  0.00    -0.014 A 
ATOM     76  C   UNL     1      16.030   6.943   1.258  1.00  0.00     0.010 A 
ATOM     77  C   UNL     1      13.688   7.174   1.841  1.00  0.00     0.010 A 
ATOM     78  C   UNL     1      15.988   8.174   0.598  1.00  0.00     0.020 A 
ATOM     79  C   UNL     1      13.635   8.392   1.157  1.00  0.00     0.020 A 
ATOM     80  C   UNL     1      14.789   8.890   0.550  1.00  0.00     0.054 A 
BRANCH  80  81
ATOM     81  S   UNL     1      14.745  10.463  -0.355  1.00  0.00     0.124 S 
ATOM     82  O   UNL     1      15.479  11.349   0.542  1.00  0.00    -0.237 OA
ATOM     83  O   UNL     1      15.420  10.126  -1.606  1.00  0.00    -0.237 OA
ATOM     84  O   UNL     1      13.316  10.743  -0.483  1.00  0.00    -0.744 OA
ENDBRANCH  80  81
ENDBRANCH  52  75
BRANCH  64  85
ATOM     85  C   UNL     1      18.186   4.241   7.632  1.00  0.00    -0.014 A 
ATOM     86  C   UNL     1      17.751   5.224   8.539  1.00  0.00     0.010 A 
ATOM     87  C   UNL     1      19.539   3.854   7.637  1.00  0.00     0.010 A 
ATOM     88  C   UNL     1      18.661   5.838   9.403  1.00  0.00     0.020 A 
ATOM     89  C   UNL     1      20.445   4.443   8.521  1.00  0.00     0.020 A 
ATOM     90  C   UNL     1      20.004   5.445   9.386  1.00  0.00     0.054 A 
BRANCH  90  91
ATOM     91  S   UNL     1      21.161   6.237  10.537  1.00  0.00     0.124 S 
ATOM     92  O   UNL     1      21.344   7.551   9.927  1.00  0.00    -0.237 OA
ATOM     93  O   UNL     1      20.420   6.226  11.796  1.00  0.00    -0.237 OA
ATOM     94  O   UNL     1      22.333   5.365  10.504  1.00  0.00    -0.744 OA
ENDBRANCH  90  91
ENDBRANCH  64  85
ENDBRANCH  38  39
ENDBRANCH  30  33
ENDBRANCH  28  29
ENDBRANCH  27  28
ENDBRANCH   1  27
TORSDOF 18
