REMARK SMILES O=C(NCCCCCCNC(=O)[C@@H](c1ccccc1)[C@H](C(=O)c1ccccc1)c1ccccc1)c1ccc(-c2c3nc(c(-c4ccc(S(=O)(=O)[O-])cc4)c4ccc([nH]4)c(-c4ccc(S(=O)(=O)[O-])cc4)c4nc(c(-c5ccc(S(=O)(=O)[O-])cc5)c5ccc2[nH]5)C=C4)C=C3)cc1
REMARK SMILES IDX 6 1 5 2 4 3 3 4 1 5 2 6 35 8 36 9 94 10 37 11 93 12 38 13
REMARK SMILES IDX 39 14 40 15 87 16 41 17 92 18 86 19 88 20 42 21 91 22 85 23
REMARK SMILES IDX 84 24 43 26 73 27 54 28 72 29 55 30 58 31 71 32 89 33 56 34
REMARK SMILES IDX 57 35 70 37 90 38 59 39 44 40 45 41 53 42 46 43 52 44 47 45
REMARK SMILES IDX 48 46 49 47 50 48 51 49 74 50 75 51 83 52 76 53 82 54 77 55
REMARK SMILES IDX 78 56 79 57 80 58 81 59 60 60 61 61 69 62 62 63 68 64 63 65
REMARK SMILES IDX 64 66 65 67 66 68 67 69 7 70 8 71 9 72 10 73 11 74 12 76
REMARK SMILES IDX 13 77 14 78 15 79 19 80 16 81 18 82 17 83 20 84 29 85 30 86
REMARK SMILES IDX 34 87 31 88 33 89 32 90 21 91 22 92 23 93 24 94 28 95 25 96
REMARK SMILES IDX 27 97 26 98
REMARK H PARENT 3 7 88 25 58 36 10 75
REMARK Flexibility Score: inf
ROOT
ATOM      1  C   UNL     1       7.001  -1.723  -6.063  1.00  0.00     0.002 C 
ENDROOT
BRANCH   1   2
ATOM      2  C   UNL     1       6.289  -1.679  -4.711  1.00  0.00     0.021 C 
BRANCH   2   3
ATOM      3  C   UNL     1       4.777  -1.830  -4.789  1.00  0.00     0.116 C 
BRANCH   3   4
ATOM      4  N   UNL     1       4.381  -3.158  -5.224  1.00  0.00    -0.352 N 
ATOM      5  O   UNL     1       3.404  -5.182  -5.010  1.00  0.00    -0.269 OA
ATOM      6  C   UNL     1       3.495  -4.020  -4.625  1.00  0.00     0.251 C 
ATOM      7  H   UNL     1       4.800  -3.481  -6.053  1.00  0.00     0.163 HD
BRANCH   6   8
ATOM      8  C   UNL     1       2.666  -3.537  -3.499  1.00  0.00     0.039 A 
ATOM      9  C   UNL     1       2.022  -2.300  -3.584  1.00  0.00     0.014 A 
ATOM     10  C   UNL     1       2.535  -4.323  -2.351  1.00  0.00     0.014 A 
ATOM     11  C   UNL     1       1.352  -1.796  -2.477  1.00  0.00     0.010 A 
ATOM     12  C   UNL     1       1.784  -3.851  -1.270  1.00  0.00     0.010 A 
ATOM     13  C   UNL     1       1.201  -2.576  -1.318  1.00  0.00    -0.014 A 
BRANCH  13  14
ATOM     14  C   UNL     1       0.337  -2.063  -0.226  1.00  0.00     0.031 A 
ATOM     15  C   UNL     1       0.894  -1.713   1.125  1.00  0.00     0.074 A 
ATOM     16  C   UNL     1      -0.969  -1.864  -0.498  1.00  0.00     0.049 A 
ATOM     17  N   UNL     1       0.275  -1.191   2.153  1.00  0.00    -0.248 NA
ATOM     18  C   UNL     1       2.321  -1.985   1.360  1.00  0.00     0.031 C 
ATOM     19  C   UNL     1      -1.622  -2.189  -1.771  1.00  0.00     0.029 A 
ATOM     20  N   UNL     1      -1.972  -1.312   0.255  1.00  0.00    -0.354 N 
ATOM     21  C   UNL     1       1.227  -1.080   3.159  1.00  0.00     0.074 A 
ATOM     22  C   UNL     1       2.464  -1.612   2.626  1.00  0.00     0.031 C 
ATOM     23  C   UNL     1      -2.895  -1.772  -1.734  1.00  0.00     0.029 A 
ATOM     24  C   UNL     1      -3.167  -1.210  -0.417  1.00  0.00     0.049 A 
ATOM     25  H   UNL     1      -1.848  -1.017   1.186  1.00  0.00     0.167 HD
ATOM     26  C   UNL     1       1.082  -0.577   4.409  1.00  0.00     0.031 A 
ATOM     27  C   UNL     1      -4.358  -0.728  -0.018  1.00  0.00     0.031 A 
ATOM     28  C   UNL     1      -0.155  -0.053   4.933  1.00  0.00     0.049 A 
ATOM     29  C   UNL     1      -4.487  -0.180   1.371  1.00  0.00     0.074 A 
ATOM     30  C   UNL     1      -0.401   0.483   6.186  1.00  0.00     0.029 A 
ATOM     31  N   UNL     1      -1.351   0.004   4.234  1.00  0.00    -0.354 N 
ATOM     32  N   UNL     1      -3.567  -0.073   2.300  1.00  0.00    -0.248 NA
ATOM     33  C   UNL     1      -5.812   0.312   1.767  1.00  0.00     0.031 C 
ATOM     34  C   UNL     1      -1.756   0.828   6.257  1.00  0.00     0.029 A 
ATOM     35  C   UNL     1      -2.342   0.553   5.032  1.00  0.00     0.049 A 
ATOM     36  H   UNL     1      -1.478  -0.300   3.306  1.00  0.00     0.167 HD
ATOM     37  C   UNL     1      -4.204   0.497   3.394  1.00  0.00     0.074 A 
ATOM     38  C   UNL     1      -5.575   0.749   2.996  1.00  0.00     0.031 C 
ATOM     39  C   UNL     1      -3.704   0.777   4.623  1.00  0.00     0.031 A 
BRANCH  26  40
ATOM     40  C   UNL     1       2.288  -0.576   5.312  1.00  0.00    -0.014 A 
ATOM     41  C   UNL     1       3.334   0.345   5.121  1.00  0.00     0.010 A 
ATOM     42  C   UNL     1       2.342  -1.453   6.411  1.00  0.00     0.010 A 
ATOM     43  C   UNL     1       4.421   0.374   6.000  1.00  0.00     0.020 A 
ATOM     44  C   UNL     1       3.417  -1.413   7.304  1.00  0.00     0.020 A 
ATOM     45  C   UNL     1       4.455  -0.505   7.087  1.00  0.00     0.054 A 
BRANCH  45  46
ATOM     46  S   UNL     1       5.855  -0.414   8.239  1.00  0.00     0.124 S 
ATOM     47  O   UNL     1       6.929  -1.018   7.455  1.00  0.00    -0.237 OA
ATOM     48  O   UNL     1       5.983   1.022   8.476  1.00  0.00    -0.237 OA
ATOM     49  O   UNL     1       5.410  -1.195   9.390  1.00  0.00    -0.744 OA
ENDBRANCH  45  46
ENDBRANCH  26  40
BRANCH  27  50
ATOM     50  C   UNL     1      -5.522  -0.773  -0.942  1.00  0.00    -0.014 A 
ATOM     51  C   UNL     1      -6.060   0.406  -1.484  1.00  0.00     0.010 A 
ATOM     52  C   UNL     1      -6.088  -2.012  -1.298  1.00  0.00     0.010 A 
ATOM     53  C   UNL     1      -7.159   0.349  -2.346  1.00  0.00     0.020 A 
ATOM     54  C   UNL     1      -7.165  -2.075  -2.183  1.00  0.00     0.020 A 
ATOM     55  C   UNL     1      -7.705  -0.891  -2.689  1.00  0.00     0.054 A 
BRANCH  55  56
ATOM     56  S   UNL     1      -9.104  -0.952  -3.842  1.00  0.00     0.124 S 
ATOM     57  O   UNL     1     -10.225  -0.604  -2.976  1.00  0.00    -0.237 OA
ATOM     58  O   UNL     1      -8.739   0.051  -4.840  1.00  0.00    -0.237 OA
ATOM     59  O   UNL     1      -9.086  -2.332  -4.324  1.00  0.00    -0.744 OA
ENDBRANCH  55  56
ENDBRANCH  27  50
BRANCH  39  60
ATOM     60  C   UNL     1      -4.655   1.390   5.613  1.00  0.00    -0.014 A 
ATOM     61  C   UNL     1      -5.675   0.623   6.204  1.00  0.00     0.010 A 
ATOM     62  C   UNL     1      -4.527   2.748   5.955  1.00  0.00     0.010 A 
ATOM     63  C   UNL     1      -6.582   1.216   7.084  1.00  0.00     0.020 A 
ATOM     64  C   UNL     1      -5.418   3.338   6.854  1.00  0.00     0.020 A 
ATOM     65  C   UNL     1      -6.453   2.573   7.397  1.00  0.00     0.054 A 
BRANCH  65  66
ATOM     66  S   UNL     1      -7.639   3.323   8.545  1.00  0.00     0.124 S 
ATOM     67  O   UNL     1      -8.813   3.500   7.695  1.00  0.00    -0.237 OA
ATOM     68  O   UNL     1      -7.766   2.307   9.588  1.00  0.00    -0.237 OA
ATOM     69  O   UNL     1      -6.980   4.557   8.964  1.00  0.00    -0.744 OA
ENDBRANCH  65  66
ENDBRANCH  39  60
ENDBRANCH  13  14
ENDBRANCH   6   8
ENDBRANCH   3   4
ENDBRANCH   2   3
ENDBRANCH   1   2
BRANCH   1  70
ATOM     70  C   UNL     1       6.529  -0.682  -7.085  1.00  0.00     0.002 C 
BRANCH  70  71
ATOM     71  C   UNL     1       6.447   0.758  -6.566  1.00  0.00     0.021 C 
BRANCH  71  72
ATOM     72  C   UNL     1       7.744   1.270  -5.946  1.00  0.00     0.116 C 
BRANCH  72  73
ATOM     73  N   UNL     1       8.764   1.457  -6.953  1.00  0.00    -0.356 N 
ATOM     74  C   UNL     1       9.235   2.592  -7.530  1.00  0.00     0.228 C 
ATOM     75  H   UNL     1       9.186   0.626  -7.273  1.00  0.00     0.163 HD
ATOM     76  O   UNL     1       9.995   2.454  -8.496  1.00  0.00    -0.274 OA
BRANCH  74  77
ATOM     77  C   UNL     1       8.868   4.002  -7.033  1.00  0.00     0.124 C 
BRANCH  77  78
ATOM     78  C   UNL     1       7.382   4.299  -7.272  1.00  0.00    -0.035 A 
ATOM     79  C   UNL     1       6.441   4.446  -6.238  1.00  0.00     0.004 A 
ATOM     80  C   UNL     1       6.926   4.436  -8.596  1.00  0.00     0.004 A 
ATOM     81  C   UNL     1       5.100   4.722  -6.515  1.00  0.00     0.000 A 
ATOM     82  C   UNL     1       5.585   4.719  -8.871  1.00  0.00     0.000 A 
ATOM     83  C   UNL     1       4.673   4.862  -7.830  1.00  0.00     0.000 A 
ENDBRANCH  77  78
BRANCH  77  84
ATOM     84  C   UNL     1       9.445   4.342  -5.633  1.00  0.00     0.108 C 
BRANCH  84  85
ATOM     85  C   UNL     1      10.945   4.074  -5.457  1.00  0.00    -0.036 A 
ATOM     86  C   UNL     1      11.381   2.765  -5.170  1.00  0.00     0.004 A 
ATOM     87  C   UNL     1      11.914   5.086  -5.514  1.00  0.00     0.004 A 
ATOM     88  C   UNL     1      12.729   2.475  -4.955  1.00  0.00     0.000 A 
ATOM     89  C   UNL     1      13.262   4.799  -5.271  1.00  0.00     0.000 A 
ATOM     90  C   UNL     1      13.670   3.496  -4.997  1.00  0.00     0.000 A 
ENDBRANCH  84  85
BRANCH  84  91
ATOM     91  C   UNL     1       9.021   5.682  -4.984  1.00  0.00     0.171 C 
ATOM     92  O   UNL     1       8.714   5.670  -3.784  1.00  0.00    -0.293 OA
BRANCH  91  93
ATOM     93  C   UNL     1       9.002   7.030  -5.666  1.00  0.00     0.018 A 
ATOM     94  C   UNL     1       8.944   8.155  -4.822  1.00  0.00     0.012 A 
ATOM     95  C   UNL     1       8.995   7.261  -7.044  1.00  0.00     0.012 A 
ATOM     96  C   UNL     1       8.864   9.453  -5.336  1.00  0.00     0.001 A 
ATOM     97  C   UNL     1       8.899   8.559  -7.563  1.00  0.00     0.001 A 
ATOM     98  C   UNL     1       8.832   9.655  -6.710  1.00  0.00     0.000 A 
ENDBRANCH  91  93
ENDBRANCH  84  91
ENDBRANCH  77  84
ENDBRANCH  74  77
ENDBRANCH  72  73
ENDBRANCH  71  72
ENDBRANCH  70  71
ENDBRANCH   1  70
TORSDOF 21
