REMARK SMILES O=C(NCCCCCCNC(=O)[C@H]1CS[C@@H](c2cccc(OCc3ccc(Cl)cc3Cl)c2)[NH2+]1)c1ccc(-c2c3nc(c(-c4ccc(S(=O)(=O)[O-])cc4)c4ccc([nH]4)c(-c4ccc(S(=O)(=O)[O-])cc4)c4nc(c(-c5ccc(S(=O)(=O)[O-])cc5)c5ccc2[nH]5)C=C4)C=C3)cc1
REMARK SMILES IDX 7 1 6 2 5 3 4 4 3 5 1 6 2 7 34 9 35 10 93 11 36 12 92 13
REMARK SMILES IDX 37 14 38 15 39 16 86 17 40 18 91 19 85 20 87 21 41 22 90 23
REMARK SMILES IDX 84 24 83 25 42 27 72 28 53 29 71 30 54 31 57 32 70 33 88 34
REMARK SMILES IDX 55 35 56 36 69 38 89 39 58 40 43 41 44 42 52 43 45 44 51 45
REMARK SMILES IDX 46 46 47 47 48 48 49 49 50 50 73 51 74 52 82 53 75 54 81 55
REMARK SMILES IDX 76 56 77 57 78 58 79 59 80 60 59 61 60 62 68 63 61 64 67 65
REMARK SMILES IDX 62 66 63 67 64 68 65 69 66 70 8 71 9 72 10 73 11 74 12 76
REMARK SMILES IDX 13 77 14 78 33 79 15 80 16 81 17 84 18 85 32 86 19 87 21 88
REMARK SMILES IDX 20 89 22 90 23 91 24 92 25 93 30 94 26 95 29 96 31 97 27 98
REMARK SMILES IDX 28 99
REMARK H PARENT 3 8 87 26 57 37 10 75 33 82 33 83
REMARK Flexibility Score: inf
ROOT
ATOM      1  C   UNL     1       4.738   3.922  -2.222  1.00  0.00     0.002 C 
ENDROOT
BRANCH   1   2
ATOM      2  C   UNL     1       3.947   2.762  -2.842  1.00  0.00     0.002 C 
BRANCH   2   3
ATOM      3  C   UNL     1       4.410   1.362  -2.436  1.00  0.00     0.021 C 
BRANCH   3   4
ATOM      4  C   UNL     1       4.309   1.076  -0.944  1.00  0.00     0.116 C 
BRANCH   4   5
ATOM      5  N   UNL     1       2.928   1.003  -0.493  1.00  0.00    -0.352 N 
ATOM      6  O   UNL     1       1.082   0.004   0.333  1.00  0.00    -0.269 OA
ATOM      7  C   UNL     1       2.298  -0.005   0.201  1.00  0.00     0.251 C 
ATOM      8  H   UNL     1       2.367   1.781  -0.714  1.00  0.00     0.163 HD
BRANCH   7   9
ATOM      9  C   UNL     1       3.107  -1.105   0.773  1.00  0.00     0.039 A 
ATOM     10  C   UNL     1       4.297  -0.825   1.447  1.00  0.00     0.014 A 
ATOM     11  C   UNL     1       2.665  -2.426   0.645  1.00  0.00     0.014 A 
ATOM     12  C   UNL     1       5.108  -1.867   1.876  1.00  0.00     0.010 A 
ATOM     13  C   UNL     1       3.441  -3.471   1.159  1.00  0.00     0.010 A 
ATOM     14  C   UNL     1       4.678  -3.200   1.763  1.00  0.00    -0.014 A 
BRANCH  14  15
ATOM     15  C   UNL     1       5.506  -4.266   2.382  1.00  0.00     0.031 A 
ATOM     16  C   UNL     1       6.182  -5.322   1.554  1.00  0.00     0.074 A 
ATOM     17  C   UNL     1       5.687  -4.227   3.718  1.00  0.00     0.049 A 
ATOM     18  N   UNL     1       6.990  -6.274   1.946  1.00  0.00    -0.248 NA
ATOM     19  C   UNL     1       5.919  -5.318   0.106  1.00  0.00     0.031 C 
ATOM     20  C   UNL     1       5.062  -3.255   4.623  1.00  0.00     0.029 A 
ATOM     21  N   UNL     1       6.469  -4.990   4.544  1.00  0.00    -0.354 N 
ATOM     22  C   UNL     1       7.326  -6.988   0.801  1.00  0.00     0.074 A 
ATOM     23  C   UNL     1       6.612  -6.375  -0.299  1.00  0.00     0.031 C 
ATOM     24  C   UNL     1       5.536  -3.440   5.863  1.00  0.00     0.029 A 
ATOM     25  C   UNL     1       6.442  -4.581   5.856  1.00  0.00     0.049 A 
ATOM     26  H   UNL     1       6.999  -5.758   4.229  1.00  0.00     0.167 HD
ATOM     27  C   UNL     1       8.159  -8.051   0.682  1.00  0.00     0.031 A 
ATOM     28  C   UNL     1       7.066  -5.074   6.942  1.00  0.00     0.031 A 
ATOM     29  C   UNL     1       8.863  -8.656   1.786  1.00  0.00     0.049 A 
ATOM     30  C   UNL     1       7.972  -6.258   6.778  1.00  0.00     0.074 A 
ATOM     31  C   UNL     1       9.734  -9.732   1.765  1.00  0.00     0.029 A 
ATOM     32  N   UNL     1       8.782  -8.236   3.105  1.00  0.00    -0.354 N 
ATOM     33  N   UNL     1       8.286  -6.907   5.682  1.00  0.00    -0.248 NA
ATOM     34  C   UNL     1       8.607  -6.776   7.995  1.00  0.00     0.031 C 
ATOM     35  C   UNL     1      10.146  -9.989   3.078  1.00  0.00     0.029 A 
ATOM     36  C   UNL     1       9.573  -9.041   3.909  1.00  0.00     0.049 A 
ATOM     37  H   UNL     1       8.242  -7.477   3.424  1.00  0.00     0.167 HD
ATOM     38  C   UNL     1       9.159  -7.911   6.079  1.00  0.00     0.074 A 
ATOM     39  C   UNL     1       9.352  -7.757   7.507  1.00  0.00     0.031 C 
ATOM     40  C   UNL     1       9.739  -8.882   5.331  1.00  0.00     0.031 A 
BRANCH  27  41
ATOM     41  C   UNL     1       8.350  -8.647  -0.689  1.00  0.00    -0.014 A 
ATOM     42  C   UNL     1       9.118  -7.987  -1.665  1.00  0.00     0.010 A 
ATOM     43  C   UNL     1       7.825  -9.919  -0.980  1.00  0.00     0.010 A 
ATOM     44  C   UNL     1       9.341  -8.580  -2.912  1.00  0.00     0.020 A 
ATOM     45  C   UNL     1       8.064 -10.526  -2.217  1.00  0.00     0.020 A 
ATOM     46  C   UNL     1       8.813  -9.847  -3.180  1.00  0.00     0.054 A 
BRANCH  46  47
ATOM     47  S   UNL     1       9.162 -10.614  -4.788  1.00  0.00     0.124 S 
ATOM     48  O   UNL     1       8.321  -9.827  -5.686  1.00  0.00    -0.237 OA
ATOM     49  O   UNL     1      10.601 -10.409  -4.936  1.00  0.00    -0.237 OA
ATOM     50  O   UNL     1       8.749 -12.003  -4.607  1.00  0.00    -0.744 OA
ENDBRANCH  46  47
ENDBRANCH  27  41
BRANCH  28  51
ATOM     51  C   UNL     1       6.824  -4.465   8.277  1.00  0.00    -0.014 A 
ATOM     52  C   UNL     1       7.842  -3.770   8.951  1.00  0.00     0.010 A 
ATOM     53  C   UNL     1       5.556  -4.576   8.879  1.00  0.00     0.010 A 
ATOM     54  C   UNL     1       7.605  -3.220  10.215  1.00  0.00     0.020 A 
ATOM     55  C   UNL     1       5.306  -4.000  10.126  1.00  0.00     0.020 A 
ATOM     56  C   UNL     1       6.338  -3.341  10.795  1.00  0.00     0.054 A 
BRANCH  56  57
ATOM     57  S   UNL     1       6.037  -2.594  12.419  1.00  0.00     0.124 S 
ATOM     58  O   UNL     1       6.669  -3.556  13.316  1.00  0.00    -0.237 OA
ATOM     59  O   UNL     1       6.707  -1.300  12.305  1.00  0.00    -0.237 OA
ATOM     60  O   UNL     1       4.579  -2.526  12.497  1.00  0.00    -0.744 OA
ENDBRANCH  56  57
ENDBRANCH  28  51
BRANCH  40  61
ATOM     61  C   UNL     1      10.645  -9.840   6.055  1.00  0.00    -0.014 A 
ATOM     62  C   UNL     1      10.121 -10.811   6.928  1.00  0.00     0.010 A 
ATOM     63  C   UNL     1      12.035  -9.770   5.859  1.00  0.00     0.010 A 
ATOM     64  C   UNL     1      10.976 -11.662   7.631  1.00  0.00     0.020 A 
ATOM     65  C   UNL     1      12.892 -10.638   6.540  1.00  0.00     0.020 A 
ATOM     66  C   UNL     1      12.357 -11.564   7.439  1.00  0.00     0.054 A 
BRANCH  66  67
ATOM     67  S   UNL     1      13.449 -12.683   8.357  1.00  0.00     0.124 S 
ATOM     68  O   UNL     1      13.440 -12.088   9.691  1.00  0.00    -0.237 OA
ATOM     69  O   UNL     1      12.767 -13.970   8.239  1.00  0.00    -0.237 OA
ATOM     70  O   UNL     1      14.720 -12.591   7.642  1.00  0.00    -0.744 OA
ENDBRANCH  66  67
ENDBRANCH  40  61
ENDBRANCH  14  15
ENDBRANCH   7   9
ENDBRANCH   4   5
ENDBRANCH   3   4
ENDBRANCH   2   3
ENDBRANCH   1   2
BRANCH   1  71
ATOM     71  C   UNL     1       6.265   3.825  -2.351  1.00  0.00     0.021 C 
BRANCH  71  72
ATOM     72  C   UNL     1       6.756   3.736  -3.798  1.00  0.00     0.116 C 
BRANCH  72  73
ATOM     73  N   UNL     1       6.806   5.046  -4.431  1.00  0.00    -0.351 N 
ATOM     74  C   UNL     1       7.803   5.951  -4.635  1.00  0.00     0.279 C 
ATOM     75  H   UNL     1       5.936   5.339  -4.786  1.00  0.00     0.163 HD
ATOM     76  O   UNL     1       7.479   6.994  -5.221  1.00  0.00    -0.268 OA
BRANCH  74  77
ATOM     77  C   UNL     1       9.274   5.760  -4.213  1.00  0.00     0.283 C 
ATOM     78  C   UNL     1       9.745   6.970  -3.398  1.00  0.00     0.151 C 
ATOM     79  N   UNL     1       9.518   4.553  -3.420  1.00  0.00    -0.321 N 
ATOM     80  S   UNL     1      10.919   6.318  -2.161  1.00  0.00    -0.088 SA
ATOM     81  C   UNL     1      10.849   4.653  -2.826  1.00  0.00     0.274 C 
ATOM     82  H   UNL     1       9.470   3.730  -4.021  1.00  0.00     0.348 HD
ATOM     83  H   UNL     1       8.813   4.466  -2.688  1.00  0.00     0.348 HD
BRANCH  81  84
ATOM     84  C   UNL     1      10.997   3.466  -1.897  1.00  0.00     0.024 A 
ATOM     85  C   UNL     1      10.680   3.475  -0.534  1.00  0.00     0.011 A 
ATOM     86  C   UNL     1      11.247   2.221  -2.518  1.00  0.00     0.057 A 
ATOM     87  C   UNL     1      10.596   2.272   0.172  1.00  0.00     0.004 A 
ATOM     88  C   UNL     1      11.080   1.017  -1.845  1.00  0.00     0.120 A 
ATOM     89  C   UNL     1      10.779   1.052  -0.485  1.00  0.00     0.046 A 
BRANCH  88  90
ATOM     90  O   UNL     1      11.146  -0.227  -2.405  1.00  0.00    -0.489 OA
BRANCH  90  91
ATOM     91  C   UNL     1      11.165  -0.361  -3.831  1.00  0.00     0.267 C 
BRANCH  91  92
ATOM     92  C   UNL     1       9.798  -0.199  -4.472  1.00  0.00     0.008 A 
ATOM     93  C   UNL     1       9.505   0.967  -5.205  1.00  0.00     0.010 A 
ATOM     94  C   UNL     1       8.796  -1.178  -4.362  1.00  0.00     0.049 A 
ATOM     95  C   UNL     1       8.248   1.161  -5.781  1.00  0.00     0.021 A 
ATOM     96  C   UNL     1       7.538  -0.988  -4.948  1.00  0.00     0.041 A 
ATOM     97  Cl  UNL     1       9.060  -2.660  -3.518  1.00  0.00    -0.084 Cl
ATOM     98  C   UNL     1       7.267   0.186  -5.642  1.00  0.00     0.042 A 
ATOM     99  Cl  UNL     1       5.708   0.448  -6.321  1.00  0.00    -0.084 Cl
ENDBRANCH  91  92
ENDBRANCH  90  91
ENDBRANCH  88  90
ENDBRANCH  81  84
ENDBRANCH  74  77
ENDBRANCH  72  73
ENDBRANCH  71  72
ENDBRANCH   1  71
TORSDOF 20
