REMARK SMILES O=C(NCCCCCCNC(=O)c1nccnc1C(=O)Nc1ccc2c(c1)OCO2)c1ccc(-c2c3nc(c(-c4ccc(S(=O)(=O)[O-])cc4)c4ccc([nH]4)c(-c4ccc(S(=O)(=O)[O-])cc4)c4nc(c(-c5ccc(S(=O)(=O)[O-])cc5)c5ccc2[nH]5)C=C4)C=C3)cc1
REMARK SMILES IDX 6 1 5 2 4 3 3 4 1 5 2 6 31 8 32 9 90 10 33 11 89 12 34 13
REMARK SMILES IDX 35 14 36 15 83 16 37 17 88 18 82 19 84 20 38 21 87 22 81 23
REMARK SMILES IDX 80 24 39 26 69 27 50 28 68 29 51 30 54 31 67 32 85 33 52 34
REMARK SMILES IDX 53 35 66 37 86 38 55 39 40 40 41 41 49 42 42 43 48 44 43 45
REMARK SMILES IDX 44 46 45 47 46 48 47 49 70 50 71 51 79 52 72 53 78 54 73 55
REMARK SMILES IDX 74 56 75 57 76 58 77 59 56 60 57 61 65 62 58 63 64 64 59 65
REMARK SMILES IDX 60 66 61 67 62 68 63 69 7 70 8 71 9 72 10 73 11 74 12 76
REMARK SMILES IDX 13 77 14 78 18 79 15 80 17 81 16 82 19 83 20 84 21 85 22 87
REMARK SMILES IDX 23 88 27 89 24 90 26 91 25 92 28 93 30 94 29 95
REMARK H PARENT 3 7 84 25 54 36 10 75 21 86
REMARK Flexibility Score: inf
ROOT
ATOM      1  C   UNL     1       4.688  -2.309   2.752  1.00  0.00     0.002 C 
ENDROOT
BRANCH   1   2
ATOM      2  C   UNL     1       4.859  -0.860   2.301  1.00  0.00     0.021 C 
BRANCH   2   3
ATOM      3  C   UNL     1       4.455  -0.600   0.856  1.00  0.00     0.116 C 
BRANCH   3   4
ATOM      4  N   UNL     1       3.037  -0.817   0.610  1.00  0.00    -0.352 N 
ATOM      5  O   UNL     1       0.990  -0.287  -0.199  1.00  0.00    -0.269 OA
ATOM      6  C   UNL     1       2.195  -0.062  -0.170  1.00  0.00     0.251 C 
ATOM      7  H   UNL     1       2.634  -1.597   1.056  1.00  0.00     0.163 HD
BRANCH   6   8
ATOM      8  C   UNL     1       2.773   1.053  -0.945  1.00  0.00     0.039 A 
ATOM      9  C   UNL     1       3.884   0.832  -1.765  1.00  0.00     0.014 A 
ATOM     10  C   UNL     1       2.245   2.335  -0.787  1.00  0.00     0.014 A 
ATOM     11  C   UNL     1       4.548   1.915  -2.326  1.00  0.00     0.010 A 
ATOM     12  C   UNL     1       2.871   3.412  -1.415  1.00  0.00     0.010 A 
ATOM     13  C   UNL     1       4.042   3.214  -2.165  1.00  0.00    -0.014 A 
BRANCH  13  14
ATOM     14  C   UNL     1       4.707   4.360  -2.829  1.00  0.00     0.031 A 
ATOM     15  C   UNL     1       5.325   5.466  -2.022  1.00  0.00     0.074 A 
ATOM     16  C   UNL     1       4.714   4.411  -4.174  1.00  0.00     0.049 A 
ATOM     17  N   UNL     1       5.852   6.590  -2.436  1.00  0.00    -0.248 NA
ATOM     18  C   UNL     1       5.346   5.293  -0.561  1.00  0.00     0.031 C 
ATOM     19  C   UNL     1       4.155   3.386  -5.059  1.00  0.00     0.029 A 
ATOM     20  N   UNL     1       5.195   5.365  -5.032  1.00  0.00    -0.354 N 
ATOM     21  C   UNL     1       6.239   7.273  -1.289  1.00  0.00     0.074 A 
ATOM     22  C   UNL     1       5.871   6.443  -0.161  1.00  0.00     0.031 C 
ATOM     23  C   UNL     1       4.333   3.761  -6.333  1.00  0.00     0.029 A 
ATOM     24  C   UNL     1       4.951   5.081  -6.354  1.00  0.00     0.049 A 
ATOM     25  H   UNL     1       5.669   6.174  -4.731  1.00  0.00     0.167 HD
ATOM     26  C   UNL     1       6.839   8.485  -1.189  1.00  0.00     0.031 A 
ATOM     27  C   UNL     1       5.159   5.816  -7.462  1.00  0.00     0.031 A 
ATOM     28  C   UNL     1       7.183   9.305  -2.322  1.00  0.00     0.049 A 
ATOM     29  C   UNL     1       5.780   7.174  -7.328  1.00  0.00     0.074 A 
ATOM     30  C   UNL     1       7.816  10.536  -2.334  1.00  0.00     0.029 A 
ATOM     31  N   UNL     1       6.913   8.982  -3.646  1.00  0.00    -0.354 N 
ATOM     32  N   UNL     1       6.160   7.797  -6.238  1.00  0.00    -0.248 NA
ATOM     33  C   UNL     1       6.008   7.926  -8.568  1.00  0.00     0.031 C 
ATOM     34  C   UNL     1       7.875  10.983  -3.658  1.00  0.00     0.029 A 
ATOM     35  C   UNL     1       7.344  10.001  -4.479  1.00  0.00     0.049 A 
ATOM     36  H   UNL     1       6.479   8.152  -3.947  1.00  0.00     0.167 HD
ATOM     37  C   UNL     1       6.699   9.005  -6.662  1.00  0.00     0.074 A 
ATOM     38  C   UNL     1       6.598   9.022  -8.108  1.00  0.00     0.031 C 
ATOM     39  C   UNL     1       7.239  10.002  -5.919  1.00  0.00     0.031 A 
BRANCH  26  40
ATOM     40  C   UNL     1       7.111   9.015   0.196  1.00  0.00    -0.014 A 
ATOM     41  C   UNL     1       8.077   8.428   1.033  1.00  0.00     0.010 A 
ATOM     42  C   UNL     1       6.390  10.129   0.666  1.00  0.00     0.010 A 
ATOM     43  C   UNL     1       8.271   8.904   2.333  1.00  0.00     0.020 A 
ATOM     44  C   UNL     1       6.602  10.628   1.954  1.00  0.00     0.020 A 
ATOM     45  C   UNL     1       7.523   9.994   2.790  1.00  0.00     0.054 A 
BRANCH  45  46
ATOM     46  S   UNL     1       7.774  10.573   4.491  1.00  0.00     0.124 S 
ATOM     47  O   UNL     1       7.120   9.520   5.264  1.00  0.00    -0.237 OA
ATOM     48  O   UNL     1       9.230  10.620   4.603  1.00  0.00    -0.237 OA
ATOM     49  O   UNL     1       7.107  11.872   4.519  1.00  0.00    -0.744 OA
ENDBRANCH  45  46
ENDBRANCH  26  40
BRANCH  27  50
ATOM     50  C   UNL     1       4.750   5.263  -8.780  1.00  0.00    -0.014 A 
ATOM     51  C   UNL     1       5.714   4.806  -9.693  1.00  0.00     0.010 A 
ATOM     52  C   UNL     1       3.384   5.106  -9.086  1.00  0.00     0.010 A 
ATOM     53  C   UNL     1       5.321   4.194 -10.886  1.00  0.00     0.020 A 
ATOM     54  C   UNL     1       2.988   4.469 -10.265  1.00  0.00     0.020 A 
ATOM     55  C   UNL     1       3.960   4.020 -11.159  1.00  0.00     0.054 A 
BRANCH  55  56
ATOM     56  S   UNL     1       3.479   3.135 -12.668  1.00  0.00     0.124 S 
ATOM     57  O   UNL     1       3.785   4.114 -13.705  1.00  0.00    -0.237 OA
ATOM     58  O   UNL     1       4.345   1.959 -12.632  1.00  0.00    -0.237 OA
ATOM     59  O   UNL     1       2.058   2.859 -12.465  1.00  0.00    -0.744 OA
ENDBRANCH  55  56
ENDBRANCH  27  50
BRANCH  39  60
ATOM     60  C   UNL     1       7.814  11.183  -6.652  1.00  0.00    -0.014 A 
ATOM     61  C   UNL     1       6.988  12.153  -7.244  1.00  0.00     0.010 A 
ATOM     62  C   UNL     1       9.210  11.365  -6.668  1.00  0.00     0.010 A 
ATOM     63  C   UNL     1       7.550  13.282  -7.848  1.00  0.00     0.020 A 
ATOM     64  C   UNL     1       9.772  12.504  -7.247  1.00  0.00     0.020 A 
ATOM     65  C   UNL     1       8.938  13.453  -7.839  1.00  0.00     0.054 A 
BRANCH  65  66
ATOM     66  S   UNL     1       9.637  14.966  -8.554  1.00  0.00     0.124 S 
ATOM     67  O   UNL     1       9.464  14.734  -9.986  1.00  0.00    -0.237 OA
ATOM     68  O   UNL     1       8.793  16.011  -7.980  1.00  0.00    -0.237 OA
ATOM     69  O   UNL     1      11.021  14.964  -8.085  1.00  0.00    -0.744 OA
ENDBRANCH  65  66
ENDBRANCH  39  60
ENDBRANCH  13  14
ENDBRANCH   6   8
ENDBRANCH   3   4
ENDBRANCH   2   3
ENDBRANCH   1   2
BRANCH   1  70
ATOM     70  C   UNL     1       5.601  -3.308   2.038  1.00  0.00     0.002 C 
BRANCH  70  71
ATOM     71  C   UNL     1       7.098  -3.276   2.374  1.00  0.00     0.021 C 
BRANCH  71  72
ATOM     72  C   UNL     1       7.537  -2.739   3.737  1.00  0.00     0.116 C 
BRANCH  72  73
ATOM     73  N   UNL     1       7.153  -3.546   4.887  1.00  0.00    -0.351 N 
ATOM     74  C   UNL     1       7.910  -4.456   5.602  1.00  0.00     0.272 C 
ATOM     75  H   UNL     1       6.226  -3.426   5.199  1.00  0.00     0.163 HD
ATOM     76  O   UNL     1       7.561  -4.831   6.718  1.00  0.00    -0.267 OA
BRANCH  74  77
ATOM     77  C   UNL     1       9.207  -4.893   5.069  1.00  0.00     0.159 A 
ATOM     78  N   UNL     1      10.120  -3.857   5.105  1.00  0.00    -0.247 NA
ATOM     79  C   UNL     1       9.532  -6.174   4.640  1.00  0.00     0.159 A 
ATOM     80  C   UNL     1      11.370  -4.127   4.698  1.00  0.00     0.132 A 
ATOM     81  N   UNL     1      10.823  -6.388   4.192  1.00  0.00    -0.247 NA
ATOM     82  C   UNL     1      11.714  -5.373   4.241  1.00  0.00     0.132 A 
BRANCH  79  83
ATOM     83  C   UNL     1       8.774  -7.493   4.667  1.00  0.00     0.276 C 
ATOM     84  O   UNL     1       9.367  -8.504   4.258  1.00  0.00    -0.267 OA
ATOM     85  N   UNL     1       7.583  -7.765   5.294  1.00  0.00    -0.320 N 
ATOM     86  H   UNL     1       7.586  -8.630   5.764  1.00  0.00     0.170 HD
BRANCH  85  87
ATOM     87  C   UNL     1       6.374  -7.089   5.413  1.00  0.00     0.045 A 
ATOM     88  C   UNL     1       5.805  -6.362   4.357  1.00  0.00     0.030 A 
ATOM     89  C   UNL     1       5.721  -7.184   6.649  1.00  0.00     0.076 A 
ATOM     90  C   UNL     1       4.631  -5.628   4.575  1.00  0.00     0.053 A 
ATOM     91  C   UNL     1       4.640  -6.359   6.858  1.00  0.00     0.167 A 
ATOM     92  C   UNL     1       4.123  -5.584   5.852  1.00  0.00     0.165 A 
ATOM     93  O   UNL     1       4.014  -6.141   8.046  1.00  0.00    -0.454 OA
ATOM     94  O   UNL     1       3.124  -4.769   6.284  1.00  0.00    -0.454 OA
ATOM     95  C   UNL     1       3.238  -4.972   7.709  1.00  0.00     0.468 C 
ENDBRANCH  85  87
ENDBRANCH  79  83
ENDBRANCH  74  77
ENDBRANCH  72  73
ENDBRANCH  71  72
ENDBRANCH  70  71
ENDBRANCH   1  70
TORSDOF 18
