REMARK SMILES CCCCc1cc(S(F)(F)(F)(F)F)cc2c1O[C@@H](C(F)(F)F)C(C(=O)NCCCCCCNC(=O)c1ccc(-c3c4nc(c(-c5ccc(S(=O)(=O)[O-])cc5)c5ccc([nH]5)c(-c5ccc(S(=O)(=O)[O-])cc5)c5nc(c(-c6ccc(S(=O)(=O)[O-])cc6)c6ccc3[nH]6)C=C5)C=C4)cc1)=C2
REMARK SMILES IDX 29 1 28 2 27 3 26 4 24 5 25 6 23 8 5 9 6 10 16 11 7 12 15 13
REMARK SMILES IDX 17 14 14 15 96 16 18 17 4 18 3 19 2 20 1 21 8 22 9 23 10 24
REMARK SMILES IDX 11 25 12 26 13 27 19 28 20 29 21 30 22 31 30 32 31 33 32 34
REMARK SMILES IDX 33 35 34 36 35 38 36 39 37 40 95 41 38 42 94 43 39 44 40 45
REMARK SMILES IDX 41 46 88 47 42 48 93 49 87 50 89 51 43 52 92 53 86 54 85 55
REMARK SMILES IDX 44 57 74 58 55 59 73 60 56 61 59 62 72 63 90 64 57 65 58 66
REMARK SMILES IDX 71 68 91 69 60 70 45 71 46 72 54 73 47 74 53 75 48 76 49 77
REMARK SMILES IDX 50 78 51 79 52 80 75 81 76 82 84 83 77 84 83 85 78 86 79 87
REMARK SMILES IDX 80 88 81 89 82 90 61 91 62 92 70 93 63 94 69 95 64 96 65 97
REMARK SMILES IDX 66 98 67 99 68 100
REMARK H PARENT 26 7 33 37 89 56 59 67
REMARK Flexibility Score: inf
ROOT
ATOM      1  C   UNL     1      -7.958  -7.141   1.329  1.00  0.00     0.002 C 
ENDROOT
BRANCH   1   2
ATOM      2  C   UNL     1      -7.045  -5.932   1.204  1.00  0.00     0.021 C 
BRANCH   2   3
ATOM      3  C   UNL     1      -5.916  -6.044   2.215  1.00  0.00     0.116 C 
BRANCH   3   4
ATOM      4  N   UNL     1      -5.145  -7.268   1.956  1.00  0.00    -0.352 N 
ATOM      5  C   UNL     1      -3.713  -7.182   1.636  1.00  0.00     0.251 C 
ATOM      6  O   UNL     1      -3.047  -8.241   1.412  1.00  0.00    -0.270 OA
ATOM      7  H   UNL     1      -5.588  -8.146   1.997  1.00  0.00     0.163 HD
BRANCH   5   8
ATOM      8  C   UNL     1      -3.029  -5.826   1.573  1.00  0.00     0.067 C 
ATOM      9  C   UNL     1      -0.980  -2.198   1.873  1.00  0.00    -0.004 A 
ATOM     10  C   UNL     1      -1.685  -1.009   1.918  1.00  0.00     0.032 A 
ATOM     11  C   UNL     1      -1.680  -3.379   1.828  1.00  0.00     0.131 A 
ATOM     12  C   UNL     1      -3.055  -1.002   1.923  1.00  0.00     0.108 A 
ATOM     13  C   UNL     1      -3.063  -3.410   1.813  1.00  0.00     0.019 A 
ATOM     14  O   UNL     1      -0.970  -4.552   1.898  1.00  0.00    -0.475 OA
ATOM     15  C   UNL     1      -3.741  -2.197   1.864  1.00  0.00     0.036 A 
ATOM     16  C   UNL     1      -3.711  -4.711   1.804  1.00  0.00     0.025 C 
ATOM     17  C   UNL     1      -1.546  -5.717   1.243  1.00  0.00     0.314 C 
BRANCH   9  18
ATOM     18  C   UNL     1       0.540  -2.198   1.873  1.00  0.00     0.039 C 
BRANCH  18  19
ATOM     19  C   UNL     1       1.046  -2.499   0.472  1.00  0.00     0.005 C 
BRANCH  19  20
ATOM     20  C   UNL     1       0.540  -1.437  -0.490  1.00  0.00    -0.003 C 
ATOM     21  C   UNL     1       1.046  -0.073  -0.050  1.00  0.00     0.004 C 
ENDBRANCH  19  20
ENDBRANCH  18  19
ENDBRANCH   9  18
BRANCH  12  22
ATOM     22  S   UNL     1      -3.959   0.564   2.006  1.00  0.00     0.310 S 
ATOM     23  F   UNL     1      -3.915   0.576   3.592  1.00  0.00    -0.094 F 
ATOM     24  F   UNL     1      -5.304  -0.249   2.118  1.00  0.00    -0.094 F 
ATOM     25  F   UNL     1      -4.734   1.910   2.079  1.00  0.00    -0.094 F 
ATOM     26  F   UNL     1      -2.594   1.358   2.035  1.00  0.00    -0.094 F 
ATOM     27  F   UNL     1      -3.153  -0.795   2.046  1.00  0.00    -0.094 F 
ENDBRANCH  12  22
BRANCH  17  28
ATOM     28  C   UNL     1      -0.835  -6.966   1.737  1.00  0.00     0.429 C 
ATOM     29  F   UNL     1      -1.353  -8.036   1.140  1.00  0.00    -0.167 F 
ATOM     30  F   UNL     1       0.461  -6.882   1.449  1.00  0.00    -0.167 F 
ATOM     31  F   UNL     1      -0.991  -7.074   3.053  1.00  0.00    -0.167 F 
ENDBRANCH  17  28
ENDBRANCH   5   8
ENDBRANCH   3   4
ENDBRANCH   2   3
ENDBRANCH   1   2
BRANCH   1  32
ATOM     32  C   UNL     1      -8.538  -7.195   2.733  1.00  0.00     0.002 C 
BRANCH  32  33
ATOM     33  C   UNL     1      -9.335  -5.929   3.001  1.00  0.00     0.021 C 
BRANCH  33  34
ATOM     34  C   UNL     1     -10.464  -5.817   1.990  1.00  0.00     0.116 C 
BRANCH  34  35
ATOM     35  N   UNL     1     -11.347  -6.987   2.111  1.00  0.00    -0.352 N 
ATOM     36  C   UNL     1     -12.767  -6.804   2.447  1.00  0.00     0.251 C 
ATOM     37  H   UNL     1     -10.988  -7.892   1.968  1.00  0.00     0.163 HD
ATOM     38  O   UNL     1     -13.530  -7.815   2.551  1.00  0.00    -0.269 OA
BRANCH  36  39
ATOM     39  C   UNL     1     -13.322  -5.407   2.669  1.00  0.00     0.039 A 
ATOM     40  C   UNL     1     -14.159  -5.182   3.749  1.00  0.00     0.014 A 
ATOM     41  C   UNL     1     -13.007  -4.429   1.826  1.00  0.00     0.014 A 
ATOM     42  C   UNL     1     -14.851  -3.949   3.692  1.00  0.00     0.010 A 
ATOM     43  C   UNL     1     -13.624  -3.205   1.913  1.00  0.00     0.010 A 
ATOM     44  C   UNL     1     -14.508  -2.933   2.921  1.00  0.00    -0.014 A 
BRANCH  44  45
ATOM     45  C   UNL     1     -15.065  -1.536   3.142  1.00  0.00     0.031 A 
ATOM     46  C   UNL     1     -15.794  -0.923   2.122  1.00  0.00     0.074 A 
ATOM     47  C   UNL     1     -14.816  -0.954   4.373  1.00  0.00     0.049 A 
ATOM     48  N   UNL     1     -16.392   0.269   2.153  1.00  0.00    -0.248 NA
ATOM     49  C   UNL     1     -16.031  -1.525   0.802  1.00  0.00     0.031 C 
ATOM     50  C   UNL     1     -14.088  -1.569   5.411  1.00  0.00     0.029 A 
ATOM     51  N   UNL     1     -15.211   0.289   4.816  1.00  0.00    -0.354 N 
ATOM     52  C   UNL     1     -17.010   0.505   0.994  1.00  0.00     0.074 A 
ATOM     53  C   UNL     1     -16.781  -0.643   0.106  1.00  0.00     0.031 C 
ATOM     54  C   UNL     1     -14.034  -0.705   6.458  1.00  0.00     0.029 A 
ATOM     55  C   UNL     1     -14.729   0.464   6.094  1.00  0.00     0.049 A 
ATOM     56  H   UNL     1     -15.745   0.940   4.306  1.00  0.00     0.167 HD
ATOM     57  C   UNL     1     -17.756   1.631   0.643  1.00  0.00     0.031 A 
ATOM     58  C   UNL     1     -14.874   1.574   6.912  1.00  0.00     0.031 A 
ATOM     59  C   UNL     1     -17.938   2.723   1.477  1.00  0.00     0.049 A 
ATOM     60  C   UNL     1     -15.572   2.725   6.539  1.00  0.00     0.074 A 
ATOM     61  C   UNL     1     -18.694   3.862   1.142  1.00  0.00     0.029 A 
ATOM     62  N   UNL     1     -17.436   2.908   2.746  1.00  0.00    -0.354 N 
ATOM     63  N   UNL     1     -16.223   2.944   5.395  1.00  0.00    -0.248 NA
ATOM     64  C   UNL     1     -15.705   3.919   7.384  1.00  0.00     0.031 C 
ATOM     65  C   UNL     1     -18.641   4.727   2.190  1.00  0.00     0.029 A 
ATOM     66  C   UNL     1     -17.849   4.141   3.197  1.00  0.00     0.049 A 
ATOM     67  H   UNL     1     -16.877   2.268   3.244  1.00  0.00     0.167 HD
ATOM     68  C   UNL     1     -16.785   4.154   5.411  1.00  0.00     0.074 A 
ATOM     69  C   UNL     1     -16.454   4.802   6.687  1.00  0.00     0.031 C 
ATOM     70  C   UNL     1     -17.564   4.742   4.413  1.00  0.00     0.031 A 
BRANCH  57  71
ATOM     71  C   UNL     1     -18.406   1.661  -0.731  1.00  0.00    -0.014 A 
ATOM     72  C   UNL     1     -19.328   0.684  -1.068  1.00  0.00     0.010 A 
ATOM     73  C   UNL     1     -18.081   2.625  -1.584  1.00  0.00     0.010 A 
ATOM     74  C   UNL     1     -19.640   0.642  -2.448  1.00  0.00     0.020 A 
ATOM     75  C   UNL     1     -18.532   2.592  -2.881  1.00  0.00     0.020 A 
ATOM     76  C   UNL     1     -19.398   1.621  -3.300  1.00  0.00     0.054 A 
BRANCH  76  77
ATOM     77  S   UNL     1     -20.173   1.674  -4.935  1.00  0.00     0.124 S 
ATOM     78  O   UNL     1     -19.781   0.424  -5.727  1.00  0.00    -0.237 OA
ATOM     79  O   UNL     1     -21.695   1.722  -4.777  1.00  0.00    -0.237 OA
ATOM     80  O   UNL     1     -19.643   3.068  -5.772  1.00  0.00    -0.744 OA
ENDBRANCH  76  77
ENDBRANCH  57  71
BRANCH  58  81
ATOM     81  C   UNL     1     -14.238   1.536   8.292  1.00  0.00    -0.014 A 
ATOM     82  C   UNL     1     -15.040   1.670   9.413  1.00  0.00     0.010 A 
ATOM     83  C   UNL     1     -12.924   1.375   8.399  1.00  0.00     0.010 A 
ATOM     84  C   UNL     1     -14.319   1.913  10.607  1.00  0.00     0.020 A 
ATOM     85  C   UNL     1     -12.303   1.492   9.619  1.00  0.00     0.020 A 
ATOM     86  C   UNL     1     -13.028   1.685  10.762  1.00  0.00     0.054 A 
BRANCH  86  87
ATOM     87  S   UNL     1     -12.260   1.630  12.400  1.00  0.00     0.124 S 
ATOM     88  O   UNL     1     -12.458   2.975  13.102  1.00  0.00    -0.237 OA
ATOM     89  O   UNL     1     -12.908   0.520  13.230  1.00  0.00    -0.237 OA
ATOM     90  O   UNL     1     -10.587   1.314  12.234  1.00  0.00    -0.744 OA
ENDBRANCH  86  87
ENDBRANCH  58  81
BRANCH  70  91
ATOM     91  C   UNL     1     -18.134   6.127   4.676  1.00  0.00    -0.014 A 
ATOM     92  C   UNL     1     -17.256   7.166   4.939  1.00  0.00     0.010 A 
ATOM     93  C   UNL     1     -19.448   6.320   4.668  1.00  0.00     0.010 A 
ATOM     94  C   UNL     1     -17.878   8.321   5.470  1.00  0.00     0.020 A 
ATOM     95  C   UNL     1     -19.980   7.521   5.072  1.00  0.00     0.020 A 
ATOM     96  C   UNL     1     -19.172   8.573   5.402  1.00  0.00     0.054 A 
BRANCH  96  97
ATOM     97  S   UNL     1     -19.841  10.223   5.730  1.00  0.00     0.124 S 
ATOM     98  O   UNL     1     -19.482  10.645   7.157  1.00  0.00    -0.237 OA
ATOM     99  O   UNL     1     -19.243  11.222   4.737  1.00  0.00    -0.237 OA
ATOM    100  O   UNL     1     -21.542  10.193   5.555  1.00  0.00    -0.744 OA
ENDBRANCH  96  97
ENDBRANCH  70  91
ENDBRANCH  44  45
ENDBRANCH  36  39
ENDBRANCH  34  35
ENDBRANCH  33  34
ENDBRANCH  32  33
ENDBRANCH   1  32
TORSDOF 21
