REMARK SMILES O=C(NCCCCCCNC(=O)c1cc(-c2ccc(C(F)(F)F)cc2)cc([N+](=O)[O-])c1)c1ccc(-c2c3nc(c(-c4ccc(S(=O)(=O)[O-])cc4)c4ccc([nH]4)c(-c4ccc(S(=O)(=O)[O-])cc4)c4nc(c(-c5ccc(S(=O)(=O)[O-])cc5)c5ccc2[nH]5)C=C4)C=C3)cc1
REMARK SMILES IDX 6 1 5 2 4 3 3 4 1 5 2 6 32 8 33 9 91 10 34 11 90 12 35 13
REMARK SMILES IDX 36 14 37 15 84 16 38 17 89 18 83 19 85 20 39 21 88 22 82 23
REMARK SMILES IDX 81 24 40 26 70 27 51 28 69 29 52 30 55 31 68 32 86 33 53 34
REMARK SMILES IDX 54 35 67 37 87 38 56 39 41 40 42 41 50 42 43 43 49 44 44 45
REMARK SMILES IDX 45 46 46 47 47 48 48 49 71 50 72 51 80 52 73 53 79 54 74 55
REMARK SMILES IDX 75 56 76 57 77 58 78 59 57 60 58 61 66 62 59 63 65 64 60 65
REMARK SMILES IDX 61 66 62 67 63 68 64 69 7 70 8 71 9 72 10 73 11 74 12 76
REMARK SMILES IDX 13 77 14 78 31 79 15 80 27 81 26 82 16 83 17 84 25 85 18 86
REMARK SMILES IDX 24 87 19 88 20 89 21 90 22 91 23 92 28 93 29 94 30 95
REMARK H PARENT 3 7 85 25 55 36 10 75
REMARK Flexibility Score: inf
ROOT
ATOM      1  C   UNL     1       4.141  -1.525   3.420  1.00  0.00     0.002 C 
ENDROOT
BRANCH   1   2
ATOM      2  C   UNL     1       4.622  -0.396   2.505  1.00  0.00     0.021 C 
BRANCH   2   3
ATOM      3  C   UNL     1       4.380  -0.616   1.015  1.00  0.00     0.116 C 
BRANCH   3   4
ATOM      4  N   UNL     1       2.970  -0.751   0.699  1.00  0.00    -0.352 N 
ATOM      5  O   UNL     1       0.986  -0.179  -0.198  1.00  0.00    -0.269 OA
ATOM      6  C   UNL     1       2.207  -0.038  -0.190  1.00  0.00     0.251 C 
ATOM      7  H   UNL     1       2.493  -1.456   1.193  1.00  0.00     0.163 HD
BRANCH   6   8
ATOM      8  C   UNL     1       2.849   0.913  -1.123  1.00  0.00     0.039 A 
ATOM      9  C   UNL     1       3.979   0.549  -1.863  1.00  0.00     0.014 A 
ATOM     10  C   UNL     1       2.283   2.181  -1.282  1.00  0.00     0.014 A 
ATOM     11  C   UNL     1       4.601   1.484  -2.687  1.00  0.00     0.010 A 
ATOM     12  C   UNL     1       2.875   3.098  -2.152  1.00  0.00     0.010 A 
ATOM     13  C   UNL     1       4.049   2.764  -2.846  1.00  0.00    -0.014 A 
BRANCH  13  14
ATOM     14  C   UNL     1       4.662   3.739  -3.781  1.00  0.00     0.031 A 
ATOM     15  C   UNL     1       5.286   5.005  -3.269  1.00  0.00     0.074 A 
ATOM     16  C   UNL     1       4.606   3.500  -5.105  1.00  0.00     0.049 A 
ATOM     17  N   UNL     1       5.784   6.009  -3.944  1.00  0.00    -0.248 NA
ATOM     18  C   UNL     1       5.353   5.168  -1.809  1.00  0.00     0.031 C 
ATOM     19  C   UNL     1       4.021   2.307  -5.721  1.00  0.00     0.029 A 
ATOM     20  N   UNL     1       5.030   4.253  -6.170  1.00  0.00    -0.354 N 
ATOM     21  C   UNL     1       6.197   6.936  -2.996  1.00  0.00     0.074 A 
ATOM     22  C   UNL     1       5.879   6.380  -1.697  1.00  0.00     0.031 C 
ATOM     23  C   UNL     1       4.123   2.409  -7.055  1.00  0.00     0.029 A 
ATOM     24  C   UNL     1       4.729   3.694  -7.388  1.00  0.00     0.049 A 
ATOM     25  H   UNL     1       5.504   5.111  -6.071  1.00  0.00     0.167 HD
ATOM     26  C   UNL     1       6.783   8.143  -3.191  1.00  0.00     0.031 A 
ATOM     27  C   UNL     1       4.888   4.172  -8.637  1.00  0.00     0.031 A 
ATOM     28  C   UNL     1       7.086   8.694  -4.485  1.00  0.00     0.049 A 
ATOM     29  C   UNL     1       5.512   5.521  -8.834  1.00  0.00     0.074 A 
ATOM     30  C   UNL     1       7.711   9.891  -4.787  1.00  0.00     0.029 A 
ATOM     31  N   UNL     1       6.774   8.090  -5.695  1.00  0.00    -0.354 N 
ATOM     32  N   UNL     1       5.935   6.368  -7.925  1.00  0.00    -0.248 NA
ATOM     33  C   UNL     1       5.687   5.980 -10.217  1.00  0.00     0.031 C 
ATOM     34  C   UNL     1       7.735  10.033  -6.179  1.00  0.00     0.029 A 
ATOM     35  C   UNL     1       7.171   8.900  -6.745  1.00  0.00     0.049 A 
ATOM     36  H   UNL     1       6.334   7.215  -5.792  1.00  0.00     0.167 HD
ATOM     37  C   UNL     1       6.446   7.452  -8.627  1.00  0.00     0.074 A 
ATOM     38  C   UNL     1       6.282   7.153 -10.036  1.00  0.00     0.031 C 
ATOM     39  C   UNL     1       7.005   8.588  -8.144  1.00  0.00     0.031 A 
BRANCH  26  40
ATOM     40  C   UNL     1       7.090   8.965  -1.967  1.00  0.00    -0.014 A 
ATOM     41  C   UNL     1       8.125   8.605  -1.084  1.00  0.00     0.010 A 
ATOM     42  C   UNL     1       6.330  10.117  -1.697  1.00  0.00     0.010 A 
ATOM     43  C   UNL     1       8.351   9.347   0.079  1.00  0.00     0.020 A 
ATOM     44  C   UNL     1       6.569  10.876  -0.547  1.00  0.00     0.020 A 
ATOM     45  C   UNL     1       7.561  10.469   0.347  1.00  0.00     0.054 A 
BRANCH  45  46
ATOM     46  S   UNL     1       7.850  11.397   1.879  1.00  0.00     0.124 S 
ATOM     47  O   UNL     1       7.218  10.533   2.874  1.00  0.00    -0.237 OA
ATOM     48  O   UNL     1       9.307  11.468   1.945  1.00  0.00    -0.237 OA
ATOM     49  O   UNL     1       7.177  12.672   1.644  1.00  0.00    -0.744 OA
ENDBRANCH  45  46
ENDBRANCH  26  40
BRANCH  27  50
ATOM     50  C   UNL     1       4.423   3.348  -9.784  1.00  0.00    -0.014 A 
ATOM     51  C   UNL     1       5.345   2.651 -10.581  1.00  0.00     0.010 A 
ATOM     52  C   UNL     1       3.045   3.179 -10.017  1.00  0.00     0.010 A 
ATOM     53  C   UNL     1       4.896   1.784 -11.582  1.00  0.00     0.020 A 
ATOM     54  C   UNL     1       2.593   2.296 -11.001  1.00  0.00     0.020 A 
ATOM     55  C   UNL     1       3.523   1.604 -11.778  1.00  0.00     0.054 A 
BRANCH  55  56
ATOM     56  S   UNL     1       2.966   0.386 -13.002  1.00  0.00     0.124 S 
ATOM     57  O   UNL     1       3.198   1.091 -14.259  1.00  0.00    -0.237 OA
ATOM     58  O   UNL     1       3.846  -0.751 -12.742  1.00  0.00    -0.237 OA
ATOM     59  O   UNL     1       1.564   0.168 -12.654  1.00  0.00    -0.744 OA
ENDBRANCH  55  56
ENDBRANCH  27  50
BRANCH  39  60
ATOM     60  C   UNL     1       7.518   9.591  -9.140  1.00  0.00    -0.014 A 
ATOM     61  C   UNL     1       6.641  10.443  -9.832  1.00  0.00     0.010 A 
ATOM     62  C   UNL     1       8.907   9.745  -9.309  1.00  0.00     0.010 A 
ATOM     63  C   UNL     1       7.146  11.432 -10.681  1.00  0.00     0.020 A 
ATOM     64  C   UNL     1       9.414  10.745 -10.141  1.00  0.00     0.020 A 
ATOM     65  C   UNL     1       8.529  11.581 -10.826  1.00  0.00     0.054 A 
BRANCH  65  66
ATOM     66  S   UNL     1       9.162  12.928 -11.864  1.00  0.00     0.124 S 
ATOM     67  O   UNL     1       8.925  12.412 -13.209  1.00  0.00    -0.237 OA
ATOM     68  O   UNL     1       8.327  14.059 -11.468  1.00  0.00    -0.237 OA
ATOM     69  O   UNL     1      10.567  13.033 -11.476  1.00  0.00    -0.744 OA
ENDBRANCH  65  66
ENDBRANCH  39  60
ENDBRANCH  13  14
ENDBRANCH   6   8
ENDBRANCH   3   4
ENDBRANCH   2   3
ENDBRANCH   1   2
BRANCH   1  70
ATOM     70  C   UNL     1       4.661  -2.924   3.076  1.00  0.00     0.002 C 
BRANCH  70  71
ATOM     71  C   UNL     1       6.182  -3.057   2.954  1.00  0.00     0.021 C 
BRANCH  71  72
ATOM     72  C   UNL     1       6.978  -2.590   4.170  1.00  0.00     0.116 C 
BRANCH  72  73
ATOM     73  N   UNL     1       6.674  -3.371   5.356  1.00  0.00    -0.352 N 
ATOM     74  C   UNL     1       7.521  -3.996   6.229  1.00  0.00     0.251 C 
ATOM     75  H   UNL     1       5.716  -3.464   5.562  1.00  0.00     0.163 HD
ATOM     76  O   UNL     1       7.077  -4.757   7.087  1.00  0.00    -0.269 OA
BRANCH  74  77
ATOM     77  C   UNL     1       8.981  -3.774   6.150  1.00  0.00     0.047 A 
ATOM     78  C   UNL     1       9.828  -4.884   6.264  1.00  0.00     0.023 A 
ATOM     79  C   UNL     1       9.513  -2.486   6.061  1.00  0.00     0.099 A 
ATOM     80  C   UNL     1      11.224  -4.731   6.258  1.00  0.00    -0.011 A 
ATOM     81  C   UNL     1      10.901  -2.330   6.013  1.00  0.00     0.270 A 
ATOM     82  C   UNL     1      11.754  -3.440   6.103  1.00  0.00     0.094 A 
BRANCH  80  83
ATOM     83  C   UNL     1      12.103  -5.885   6.489  1.00  0.00    -0.018 A 
ATOM     84  C   UNL     1      12.078  -7.013   5.655  1.00  0.00     0.009 A 
ATOM     85  C   UNL     1      12.968  -5.896   7.595  1.00  0.00     0.009 A 
ATOM     86  C   UNL     1      12.884  -8.124   5.930  1.00  0.00     0.014 A 
ATOM     87  C   UNL     1      13.770  -7.005   7.874  1.00  0.00     0.014 A 
ATOM     88  C   UNL     1      13.731  -8.134   7.048  1.00  0.00     0.056 A 
BRANCH  88  89
ATOM     89  C   UNL     1      14.569  -9.351   7.356  1.00  0.00     0.416 C 
ATOM     90  F   UNL     1      13.812 -10.465   7.564  1.00  0.00    -0.166 F 
ATOM     91  F   UNL     1      15.428  -9.665   6.348  1.00  0.00    -0.166 F 
ATOM     92  F   UNL     1      15.339  -9.214   8.473  1.00  0.00    -0.166 F 
ENDBRANCH  88  89
ENDBRANCH  80  83
BRANCH  81  93
ATOM     93  N   UNL     1      11.472  -0.984   5.888  1.00  0.00     0.062 N 
ATOM     94  O   UNL     1      12.705  -0.876   5.933  1.00  0.00    -0.258 OA
ATOM     95  O   UNL     1      10.684  -0.039   5.746  1.00  0.00    -0.258 OA
ENDBRANCH  81  93
ENDBRANCH  74  77
ENDBRANCH  72  73
ENDBRANCH  71  72
ENDBRANCH  70  71
ENDBRANCH   1  70
TORSDOF 19
