REMARK SMILES Cc1c(CC(=O)NCCCCCCNC(=O)c2ccc(-c3c4nc(c(-c5ccc(S(=O)(=O)[O-])cc5)c5ccc([nH]5)c(-c5ccc(S(=O)(=O)[O-])cc5)c5nc(c(-c6ccc(S(=O)(=O)[O-])cc6)c6ccc3[nH]6)C=C5)C=C4)cc2)cc(-c2ccc(S(C)(=O)=O)cc2)n1-c1cccc(F)c1
REMARK SMILES IDX 10 1 9 2 8 3 7 4 5 5 6 6 4 8 3 9 1 10 2 11 89 12 77 13 78 14
REMARK SMILES IDX 90 15 91 16 96 17 92 18 94 19 93 20 95 21 79 22 80 23 88 24
REMARK SMILES IDX 81 25 87 26 82 27 83 28 84 29 85 30 86 31 11 32 12 33 13 34
REMARK SMILES IDX 14 35 15 36 16 38 17 39 18 40 76 41 19 42 75 43 20 44 21 45
REMARK SMILES IDX 22 46 69 47 23 48 74 49 68 50 70 51 24 52 73 53 67 54 66 55
REMARK SMILES IDX 25 57 55 58 36 59 54 60 37 61 40 62 53 63 71 64 38 65 39 66
REMARK SMILES IDX 52 68 72 69 41 70 26 71 27 72 35 73 28 74 34 75 29 76 30 77
REMARK SMILES IDX 31 78 32 79 33 80 56 81 57 82 65 83 58 84 64 85 59 86 60 87
REMARK SMILES IDX 61 88 62 89 63 90 42 91 43 92 51 93 44 94 50 95 45 96 46 97
REMARK SMILES IDX 47 98 48 99 49 100
REMARK H PARENT 7 7 14 37 70 56 40 67
REMARK Flexibility Score: inf
ROOT
ATOM      1  C   UNL     1      -3.935  -2.621   0.076  1.00  0.00     0.002 C 
ENDROOT
BRANCH   1   2
ATOM      2  C   UNL     1      -2.657  -2.627   0.925  1.00  0.00     0.021 C 
BRANCH   2   3
ATOM      3  C   UNL     1      -1.713  -3.796   0.644  1.00  0.00     0.116 C 
BRANCH   3   4
ATOM      4  N   UNL     1      -0.976  -3.608  -0.592  1.00  0.00    -0.356 N 
ATOM      5  C   UNL     1       0.311  -3.185  -0.778  1.00  0.00     0.224 C 
ATOM      6  O   UNL     1       0.724  -3.063  -1.934  1.00  0.00    -0.275 OA
ATOM      7  H   UNL     1      -1.474  -3.814  -1.416  1.00  0.00     0.163 HD
BRANCH   5   8
ATOM      8  C   UNL     1       1.228  -2.947   0.408  1.00  0.00     0.137 C 
BRANCH   8   9
ATOM      9  C   UNL     1       0.788  -1.826   1.291  1.00  0.00    -0.017 A 
ATOM     10  C   UNL     1       1.019   0.218  -0.274  1.00  0.00     0.065 C 
ATOM     11  C   UNL     1       0.640  -0.475   0.992  1.00  0.00     0.024 A 
ATOM     12  N   UNL     1       0.165   0.179   2.129  1.00  0.00    -0.313 N 
ATOM     13  C   UNL     1       0.493  -1.978   2.659  1.00  0.00     0.033 A 
ATOM     14  C   UNL     1       0.107  -0.755   3.157  1.00  0.00     0.053 A 
BRANCH  12  15
ATOM     15  C   UNL     1      -0.196   1.554   2.233  1.00  0.00     0.049 A 
ATOM     16  C   UNL     1       0.294   2.342   3.287  1.00  0.00     0.027 A 
ATOM     17  C   UNL     1      -1.111   2.095   1.325  1.00  0.00     0.065 A 
ATOM     18  C   UNL     1      -0.132   3.666   3.431  1.00  0.00     0.005 A 
ATOM     19  C   UNL     1      -1.530   3.412   1.488  1.00  0.00     0.125 A 
ATOM     20  C   UNL     1      -1.051   4.200   2.530  1.00  0.00     0.039 A 
ATOM     21  F   UNL     1      -2.422   3.926   0.631  1.00  0.00    -0.207 F 
ENDBRANCH  12  15
BRANCH  14  22
ATOM     22  C   UNL     1      -0.276  -0.491   4.529  1.00  0.00    -0.001 A 
ATOM     23  C   UNL     1      -1.507   0.088   4.851  1.00  0.00     0.011 A 
ATOM     24  C   UNL     1       0.658  -0.806   5.525  1.00  0.00     0.011 A 
ATOM     25  C   UNL     1      -1.750   0.463   6.163  1.00  0.00     0.021 A 
ATOM     26  C   UNL     1       0.422  -0.440   6.829  1.00  0.00     0.021 A 
ATOM     27  C   UNL     1      -0.751   0.239   7.119  1.00  0.00     0.067 A 
BRANCH  27  28
ATOM     28  S   UNL     1      -0.919   0.891   8.741  1.00  0.00     0.175 S 
ATOM     29  C   UNL     1      -1.393   2.589   8.395  1.00  0.00     0.163 C 
ATOM     30  O   UNL     1      -1.950   0.068   9.320  1.00  0.00    -0.224 OA
ATOM     31  O   UNL     1       0.408   0.939   9.335  1.00  0.00    -0.224 OA
ENDBRANCH  27  28
ENDBRANCH  14  22
ENDBRANCH   8   9
ENDBRANCH   5   8
ENDBRANCH   3   4
ENDBRANCH   2   3
ENDBRANCH   1   2
BRANCH   1  32
ATOM     32  C   UNL     1      -4.915  -3.776   0.317  1.00  0.00     0.002 C 
BRANCH  32  33
ATOM     33  C   UNL     1      -5.214  -4.148   1.779  1.00  0.00     0.021 C 
BRANCH  33  34
ATOM     34  C   UNL     1      -5.481  -2.996   2.762  1.00  0.00     0.116 C 
BRANCH  34  35
ATOM     35  N   UNL     1      -6.878  -2.722   2.990  1.00  0.00    -0.352 N 
ATOM     36  C   UNL     1      -7.429  -1.986   4.022  1.00  0.00     0.251 C 
ATOM     37  H   UNL     1      -7.511  -3.102   2.338  1.00  0.00     0.163 HD
ATOM     38  O   UNL     1      -8.640  -1.791   4.015  1.00  0.00    -0.269 OA
BRANCH  36  39
ATOM     39  C   UNL     1      -6.591  -1.506   5.171  1.00  0.00     0.039 A 
ATOM     40  C   UNL     1      -6.312  -2.396   6.200  1.00  0.00     0.014 A 
ATOM     41  C   UNL     1      -6.262  -0.153   5.369  1.00  0.00     0.014 A 
ATOM     42  C   UNL     1      -5.708  -1.932   7.391  1.00  0.00     0.010 A 
ATOM     43  C   UNL     1      -5.706   0.324   6.608  1.00  0.00     0.010 A 
ATOM     44  C   UNL     1      -5.444  -0.550   7.675  1.00  0.00    -0.014 A 
BRANCH  44  45
ATOM     45  C   UNL     1      -5.418  -0.203   9.193  1.00  0.00     0.031 A 
ATOM     46  C   UNL     1      -6.719  -0.714   9.694  1.00  0.00     0.074 A 
ATOM     47  C   UNL     1      -4.812   0.625  10.113  1.00  0.00     0.049 A 
ATOM     48  N   UNL     1      -7.817  -0.270   9.148  1.00  0.00    -0.248 NA
ATOM     49  C   UNL     1      -6.870  -1.906  10.518  1.00  0.00     0.031 C 
ATOM     50  C   UNL     1      -3.996   1.806   9.860  1.00  0.00     0.029 A 
ATOM     51  N   UNL     1      -4.735   0.570  11.522  1.00  0.00    -0.354 N 
ATOM     52  C   UNL     1      -8.845  -0.929   9.766  1.00  0.00     0.074 A 
ATOM     53  C   UNL     1      -8.196  -2.055  10.435  1.00  0.00     0.031 C 
ATOM     54  C   UNL     1      -3.294   2.173  10.968  1.00  0.00     0.029 A 
ATOM     55  C   UNL     1      -3.676   1.340  12.094  1.00  0.00     0.049 A 
ATOM     56  H   UNL     1      -5.363   0.043  12.068  1.00  0.00     0.167 HD
ATOM     57  C   UNL     1      -9.841  -0.138  10.259  1.00  0.00     0.031 A 
ATOM     58  C   UNL     1      -3.271   1.488  13.404  1.00  0.00     0.031 A 
ATOM     59  C   UNL     1      -9.658   0.129  11.662  1.00  0.00     0.049 A 
ATOM     60  C   UNL     1      -4.558   1.657  14.095  1.00  0.00     0.074 A 
ATOM     61  C   UNL     1      -9.436  -0.682  12.754  1.00  0.00     0.029 A 
ATOM     62  N   UNL     1      -9.251   1.404  12.012  1.00  0.00    -0.354 N 
ATOM     63  N   UNL     1      -5.293   2.720  13.941  1.00  0.00    -0.248 NA
ATOM     64  C   UNL     1      -5.071   0.658  15.019  1.00  0.00     0.031 C 
ATOM     65  C   UNL     1      -8.524   0.027  13.567  1.00  0.00     0.029 A 
ATOM     66  C   UNL     1      -8.423   1.338  13.117  1.00  0.00     0.049 A 
ATOM     67  H   UNL     1      -9.511   2.231  11.546  1.00  0.00     0.167 HD
ATOM     68  C   UNL     1      -6.536   2.268  14.274  1.00  0.00     0.074 A 
ATOM     69  C   UNL     1      -6.299   1.155  15.175  1.00  0.00     0.031 C 
ATOM     70  C   UNL     1      -7.554   2.466  13.394  1.00  0.00     0.031 A 
BRANCH  57  71
ATOM     71  C   UNL     1     -10.423   0.881   9.317  1.00  0.00    -0.014 A 
ATOM     72  C   UNL     1     -11.784   0.788   8.995  1.00  0.00     0.010 A 
ATOM     73  C   UNL     1      -9.664   1.918   8.732  1.00  0.00     0.010 A 
ATOM     74  C   UNL     1     -12.363   1.688   8.092  1.00  0.00     0.020 A 
ATOM     75  C   UNL     1     -10.232   2.813   7.821  1.00  0.00     0.020 A 
ATOM     76  C   UNL     1     -11.583   2.690   7.505  1.00  0.00     0.054 A 
BRANCH  76  77
ATOM     77  S   UNL     1     -12.359   3.795   6.295  1.00  0.00     0.124 S 
ATOM     78  O   UNL     1     -13.021   2.856   5.389  1.00  0.00    -0.237 OA
ATOM     79  O   UNL     1     -13.260   4.582   7.132  1.00  0.00    -0.237 OA
ATOM     80  O   UNL     1     -11.239   4.522   5.706  1.00  0.00    -0.744 OA
ENDBRANCH  76  77
ENDBRANCH  57  71
BRANCH  58  81
ATOM     81  C   UNL     1      -2.103   1.948  14.277  1.00  0.00    -0.014 A 
ATOM     82  C   UNL     1      -2.360   2.698  15.464  1.00  0.00     0.010 A 
ATOM     83  C   UNL     1      -0.844   1.319  14.223  1.00  0.00     0.010 A 
ATOM     84  C   UNL     1      -1.500   2.698  16.580  1.00  0.00     0.020 A 
ATOM     85  C   UNL     1       0.045   1.337  15.337  1.00  0.00     0.020 A 
ATOM     86  C   UNL     1      -0.312   1.982  16.527  1.00  0.00     0.054 A 
BRANCH  86  87
ATOM     87  S   UNL     1       0.660   1.791  18.065  1.00  0.00     0.124 S 
ATOM     88  O   UNL     1       1.089   3.156  18.350  1.00  0.00    -0.237 OA
ATOM     89  O   UNL     1      -0.324   1.237  18.995  1.00  0.00    -0.237 OA
ATOM     90  O   UNL     1       1.729   0.869  17.689  1.00  0.00    -0.744 OA
ENDBRANCH  86  87
ENDBRANCH  58  81
BRANCH  70  91
ATOM     91  C   UNL     1      -7.582   3.784  12.624  1.00  0.00    -0.014 A 
ATOM     92  C   UNL     1      -6.477   4.357  11.955  1.00  0.00     0.010 A 
ATOM     93  C   UNL     1      -8.776   4.527  12.632  1.00  0.00     0.010 A 
ATOM     94  C   UNL     1      -6.530   5.649  11.406  1.00  0.00     0.020 A 
ATOM     95  C   UNL     1      -8.851   5.805  12.055  1.00  0.00     0.020 A 
ATOM     96  C   UNL     1      -7.715   6.376  11.481  1.00  0.00     0.054 A 
BRANCH  96  97
ATOM     97  S   UNL     1      -7.737   8.083  10.861  1.00  0.00     0.124 S 
ATOM     98  O   UNL     1      -6.875   8.772  11.819  1.00  0.00    -0.237 OA
ATOM     99  O   UNL     1      -7.183   7.948   9.516  1.00  0.00    -0.237 OA
ATOM    100  O   UNL     1      -9.147   8.460  10.926  1.00  0.00    -0.744 OA
ENDBRANCH  96  97
ENDBRANCH  70  91
ENDBRANCH  44  45
ENDBRANCH  36  39
ENDBRANCH  34  35
ENDBRANCH  33  34
ENDBRANCH  32  33
ENDBRANCH   1  32
TORSDOF 20
