REMARK SMILES CC1C[NH+]([C@@H](C(=O)NCCCCCCNC(=O)c2ccc(-c3c4nc(c(-c5ccc(S(=O)(=O)[O-])cc5)c5ccc([nH]5)c(-c5ccc(S(=O)(=O)[O-])cc5)c5nc(c(-c6ccc(S(=O)(=O)[O-])cc6)c6ccc3[nH]6)C=C5)C=C4)cc2)C2CCCCC2)C1
REMARK SMILES IDX 12 1 11 2 10 3 9 4 8 5 6 6 7 7 5 9 4 10 1 11 2 12 3 13 84 14
REMARK SMILES IDX 78 16 79 17 83 18 80 19 82 20 81 21 13 22 14 23 15 24 16 25
REMARK SMILES IDX 17 27 18 28 19 29 77 30 20 31 76 32 21 33 22 34 23 35 70 36
REMARK SMILES IDX 24 37 75 38 69 39 71 40 25 41 74 42 68 43 67 44 26 46 56 47
REMARK SMILES IDX 37 48 55 49 38 50 41 51 54 52 72 53 39 54 40 55 53 57 73 58
REMARK SMILES IDX 42 59 27 60 28 61 36 62 29 63 35 64 30 65 31 66 32 67 33 68
REMARK SMILES IDX 34 69 57 70 58 71 66 72 59 73 65 74 60 75 61 76 62 77 63 78
REMARK SMILES IDX 64 79 43 80 44 81 52 82 45 83 51 84 46 85 47 86 48 87 49 88
REMARK SMILES IDX 50 89
REMARK H PARENT 8 8 4 15 15 26 71 45 41 56
REMARK Flexibility Score: inf
ROOT
ATOM      1  C   UNL     1      -4.316   1.418  -0.291  1.00  0.00     0.002 C 
ENDROOT
BRANCH   1   2
ATOM      2  C   UNL     1      -2.863   0.978  -0.467  1.00  0.00     0.002 C 
BRANCH   2   3
ATOM      3  C   UNL     1      -2.435  -0.179   0.443  1.00  0.00     0.021 C 
BRANCH   3   4
ATOM      4  C   UNL     1      -2.821  -1.579  -0.053  1.00  0.00     0.116 C 
BRANCH   4   5
ATOM      5  N   UNL     1      -2.159  -1.924  -1.300  1.00  0.00    -0.351 N 
ATOM      6  C   UNL     1      -1.131  -2.769  -1.611  1.00  0.00     0.278 C 
ATOM      7  O   UNL     1      -0.787  -2.760  -2.798  1.00  0.00    -0.268 OA
ATOM      8  H   UNL     1      -2.527  -1.452  -2.082  1.00  0.00     0.163 HD
BRANCH   6   9
ATOM      9  C   UNL     1      -0.456  -3.695  -0.560  1.00  0.00     0.277 C 
BRANCH   9  10
ATOM     10  N   UNL     1       0.737  -3.157   0.158  1.00  0.00    -0.324 N 
ATOM     11  C   UNL     1       1.774   0.140   0.353  1.00  0.00     0.020 C 
ATOM     12  C   UNL     1       0.938  -1.054  -0.053  1.00  0.00     0.096 C 
ATOM     13  C   UNL     1       1.635  -2.292  -0.641  1.00  0.00     0.271 C 
ATOM     14  C   UNL     1       0.467  -2.027   1.058  1.00  0.00     0.271 C 
ATOM     15  H   UNL     1       1.075  -4.048   0.524  1.00  0.00     0.348 HD
ENDBRANCH   9  10
BRANCH   9  16
ATOM     16  C   UNL     1      -0.077  -5.084  -1.214  1.00  0.00     0.057 C 
ATOM     17  C   UNL     1       1.157  -5.032  -2.147  1.00  0.00     0.010 C 
ATOM     18  C   UNL     1       0.127  -6.165  -0.124  1.00  0.00     0.010 C 
ATOM     19  C   UNL     1       1.554  -6.394  -2.701  1.00  0.00     0.001 C 
ATOM     20  C   UNL     1       0.593  -7.511  -0.684  1.00  0.00     0.001 C 
ATOM     21  C   UNL     1       1.828  -7.366  -1.564  1.00  0.00     0.000 C 
ENDBRANCH   9  16
ENDBRANCH   6   9
ENDBRANCH   4   5
ENDBRANCH   3   4
ENDBRANCH   2   3
ENDBRANCH   1   2
BRANCH   1  22
ATOM     22  C   UNL     1      -4.717   1.780   1.143  1.00  0.00     0.021 C 
BRANCH  22  23
ATOM     23  C   UNL     1      -3.802   2.788   1.836  1.00  0.00     0.116 C 
BRANCH  23  24
ATOM     24  N   UNL     1      -3.881   4.102   1.221  1.00  0.00    -0.352 N 
ATOM     25  C   UNL     1      -4.303   5.286   1.776  1.00  0.00     0.251 C 
ATOM     26  H   UNL     1      -3.594   4.151   0.280  1.00  0.00     0.163 HD
ATOM     27  O   UNL     1      -4.536   6.255   1.063  1.00  0.00    -0.269 OA
BRANCH  25  28
ATOM     28  C   UNL     1      -4.488   5.376   3.241  1.00  0.00     0.039 A 
ATOM     29  C   UNL     1      -5.667   5.928   3.746  1.00  0.00     0.014 A 
ATOM     30  C   UNL     1      -3.495   4.917   4.112  1.00  0.00     0.014 A 
ATOM     31  C   UNL     1      -5.873   5.971   5.127  1.00  0.00     0.010 A 
ATOM     32  C   UNL     1      -3.730   4.901   5.484  1.00  0.00     0.010 A 
ATOM     33  C   UNL     1      -4.919   5.433   6.007  1.00  0.00    -0.014 A 
BRANCH  33  34
ATOM     34  C   UNL     1      -5.146   5.422   7.475  1.00  0.00     0.031 A 
ATOM     35  C   UNL     1      -4.251   6.221   8.385  1.00  0.00     0.074 A 
ATOM     36  C   UNL     1      -6.119   4.648   7.995  1.00  0.00     0.049 A 
ATOM     37  N   UNL     1      -4.260   6.297   9.691  1.00  0.00    -0.248 NA
ATOM     38  C   UNL     1      -3.194   7.021   7.745  1.00  0.00     0.031 C 
ATOM     39  C   UNL     1      -7.029   3.797   7.224  1.00  0.00     0.029 A 
ATOM     40  N   UNL     1      -6.502   4.446   9.298  1.00  0.00    -0.354 N 
ATOM     41  C   UNL     1      -3.205   7.136  10.030  1.00  0.00     0.074 A 
ATOM     42  C   UNL     1      -2.548   7.506   8.795  1.00  0.00     0.031 C 
ATOM     43  C   UNL     1      -7.878   3.186   8.065  1.00  0.00     0.029 A 
ATOM     44  C   UNL     1      -7.551   3.568   9.435  1.00  0.00     0.049 A 
ATOM     45  H   UNL     1      -6.067   4.889  10.062  1.00  0.00     0.167 HD
ATOM     46  C   UNL     1      -2.828   7.576  11.254  1.00  0.00     0.031 A 
ATOM     47  C   UNL     1      -8.177   3.115  10.539  1.00  0.00     0.031 A 
ATOM     48  C   UNL     1      -3.490   7.215  12.480  1.00  0.00     0.049 A 
ATOM     49  C   UNL     1      -7.736   3.611  11.889  1.00  0.00     0.074 A 
ATOM     50  C   UNL     1      -3.218   7.650  13.765  1.00  0.00     0.029 A 
ATOM     51  N   UNL     1      -4.554   6.331  12.575  1.00  0.00    -0.354 N 
ATOM     52  N   UNL     1      -6.776   4.455  12.183  1.00  0.00    -0.248 NA
ATOM     53  C   UNL     1      -8.471   3.102  13.056  1.00  0.00     0.031 C 
ATOM     54  C   UNL     1      -4.085   6.991  14.643  1.00  0.00     0.029 A 
ATOM     55  C   UNL     1      -4.936   6.190  13.898  1.00  0.00     0.049 A 
ATOM     56  H   UNL     1      -4.977   5.872  11.813  1.00  0.00     0.167 HD
ATOM     57  C   UNL     1      -6.809   4.599  13.565  1.00  0.00     0.074 A 
ATOM     58  C   UNL     1      -7.893   3.767  14.047  1.00  0.00     0.031 C 
ATOM     59  C   UNL     1      -6.016   5.356  14.363  1.00  0.00     0.031 A 
BRANCH  46  60
ATOM     60  C   UNL     1      -1.636   8.495  11.328  1.00  0.00    -0.014 A 
ATOM     61  C   UNL     1      -1.703   9.813  10.841  1.00  0.00     0.010 A 
ATOM     62  C   UNL     1      -0.444   8.047  11.926  1.00  0.00     0.010 A 
ATOM     63  C   UNL     1      -0.588  10.651  10.910  1.00  0.00     0.020 A 
ATOM     64  C   UNL     1       0.666   8.893  12.023  1.00  0.00     0.020 A 
ATOM     65  C   UNL     1       0.592  10.184  11.497  1.00  0.00     0.054 A 
BRANCH  65  66
ATOM     66  S   UNL     1       2.018  11.301  11.589  1.00  0.00     0.124 S 
ATOM     67  O   UNL     1       2.465  11.332  10.199  1.00  0.00    -0.237 OA
ATOM     68  O   UNL     1       1.424  12.540  12.085  1.00  0.00    -0.237 OA
ATOM     69  O   UNL     1       2.924  10.631  12.520  1.00  0.00    -0.744 OA
ENDBRANCH  65  66
ENDBRANCH  46  60
BRANCH  47  70
ATOM     70  C   UNL     1      -9.301   2.147  10.411  1.00  0.00    -0.014 A 
ATOM     71  C   UNL     1     -10.622   2.547  10.679  1.00  0.00     0.010 A 
ATOM     72  C   UNL     1      -9.058   0.822  10.005  1.00  0.00     0.010 A 
ATOM     73  C   UNL     1     -11.677   1.637  10.560  1.00  0.00     0.020 A 
ATOM     74  C   UNL     1     -10.112  -0.083   9.858  1.00  0.00     0.020 A 
ATOM     75  C   UNL     1     -11.415   0.327  10.148  1.00  0.00     0.054 A 
BRANCH  75  76
ATOM     76  S   UNL     1     -12.804  -0.822   9.947  1.00  0.00     0.124 S 
ATOM     77  O   UNL     1     -13.151  -1.124  11.332  1.00  0.00    -0.237 OA
ATOM     78  O   UNL     1     -13.776  -0.017   9.211  1.00  0.00    -0.237 OA
ATOM     79  O   UNL     1     -12.224  -1.929   9.190  1.00  0.00    -0.744 OA
ENDBRANCH  75  76
ENDBRANCH  47  70
BRANCH  59  80
ATOM     80  C   UNL     1      -6.307   5.346  15.840  1.00  0.00    -0.014 A 
ATOM     81  C   UNL     1      -6.008   4.227  16.636  1.00  0.00     0.010 A 
ATOM     82  C   UNL     1      -6.838   6.499  16.449  1.00  0.00     0.010 A 
ATOM     83  C   UNL     1      -6.264   4.249  18.010  1.00  0.00     0.020 A 
ATOM     84  C   UNL     1      -7.068   6.535  17.826  1.00  0.00     0.020 A 
ATOM     85  C   UNL     1      -6.793   5.404  18.596  1.00  0.00     0.054 A 
BRANCH  85  86
ATOM     86  S   UNL     1      -7.074   5.424  20.388  1.00  0.00     0.124 S 
ATOM     87  O   UNL     1      -8.259   4.582  20.519  1.00  0.00    -0.237 OA
ATOM     88  O   UNL     1      -5.836   4.853  20.913  1.00  0.00    -0.237 OA
ATOM     89  O   UNL     1      -7.278   6.839  20.691  1.00  0.00    -0.744 OA
ENDBRANCH  85  86
ENDBRANCH  59  80
ENDBRANCH  33  34
ENDBRANCH  25  28
ENDBRANCH  23  24
ENDBRANCH  22  23
ENDBRANCH   1  22
TORSDOF 18
