REMARK SMILES O=C(NCCCCCCNC(=O)[C@@H]1[C@H](C(=O)Nc2ccccc2OC(F)F)[C@@H]2C=C[C@H]1C2)c1ccc(-c2c3nc(c(-c4ccc(S(=O)(=O)[O-])cc4)c4ccc([nH]4)c(-c4ccc(S(=O)(=O)[O-])cc4)c4nc(c(-c5ccc(S(=O)(=O)[O-])cc5)c5ccc2[nH]5)C=C4)C=C3)cc1
REMARK SMILES IDX 7 1 6 2 5 3 4 4 3 5 1 6 2 7 33 9 34 10 92 11 35 12 91 13
REMARK SMILES IDX 36 14 37 15 38 16 85 17 39 18 90 19 84 20 86 21 40 22 89 23
REMARK SMILES IDX 83 24 82 25 41 27 71 28 52 29 70 30 53 31 56 32 69 33 87 34
REMARK SMILES IDX 54 35 55 36 68 38 88 39 57 40 42 41 43 42 51 43 44 44 50 45
REMARK SMILES IDX 45 46 46 47 47 48 48 49 49 50 72 51 73 52 81 53 74 54 80 55
REMARK SMILES IDX 75 56 76 57 77 58 78 59 79 60 58 61 59 62 67 63 60 64 66 65
REMARK SMILES IDX 61 66 62 67 63 68 64 69 65 70 8 71 9 72 10 73 11 74 12 76
REMARK SMILES IDX 13 77 14 78 31 79 28 80 30 81 32 82 29 83 15 84 16 85 17 86
REMARK SMILES IDX 18 88 19 89 23 90 20 91 22 92 21 93 24 94 25 95 26 96 27 97
REMARK H PARENT 3 8 86 26 56 37 10 75 17 87
REMARK Flexibility Score: inf
ROOT
ATOM      1  C   UNL     1       3.585   2.303   3.982  1.00  0.00     0.002 C 
ENDROOT
BRANCH   1   2
ATOM      2  C   UNL     1       3.457   2.880   2.573  1.00  0.00     0.002 C 
BRANCH   2   3
ATOM      3  C   UNL     1       4.340   2.285   1.462  1.00  0.00     0.021 C 
BRANCH   3   4
ATOM      4  C   UNL     1       4.245   0.777   1.207  1.00  0.00     0.116 C 
BRANCH   4   5
ATOM      5  N   UNL     1       2.880   0.322   0.989  1.00  0.00    -0.352 N 
ATOM      6  O   UNL     1       1.035  -0.245  -0.166  1.00  0.00    -0.269 OA
ATOM      7  C   UNL     1       2.254  -0.122  -0.153  1.00  0.00     0.251 C 
ATOM      8  H   UNL     1       2.310   0.333   1.792  1.00  0.00     0.163 HD
BRANCH   7   9
ATOM      9  C   UNL     1       3.039  -0.461  -1.362  1.00  0.00     0.039 A 
ATOM     10  C   UNL     1       4.181  -1.259  -1.270  1.00  0.00     0.014 A 
ATOM     11  C   UNL     1       2.570  -0.056  -2.617  1.00  0.00     0.014 A 
ATOM     12  C   UNL     1       4.906  -1.573  -2.418  1.00  0.00     0.010 A 
ATOM     13  C   UNL     1       3.264  -0.425  -3.775  1.00  0.00     0.010 A 
ATOM     14  C   UNL     1       4.441  -1.183  -3.684  1.00  0.00    -0.014 A 
BRANCH  14  15
ATOM     15  C   UNL     1       5.131  -1.673  -4.905  1.00  0.00     0.031 A 
ATOM     16  C   UNL     1       5.832  -0.728  -5.840  1.00  0.00     0.074 A 
ATOM     17  C   UNL     1       5.104  -2.996  -5.168  1.00  0.00     0.049 A 
ATOM     18  N   UNL     1       6.458  -0.994  -6.958  1.00  0.00    -0.248 NA
ATOM     19  C   UNL     1       5.827   0.699  -5.481  1.00  0.00     0.031 C 
ATOM     20  C   UNL     1       4.442  -4.005  -4.335  1.00  0.00     0.029 A 
ATOM     21  N   UNL     1       5.642  -3.722  -6.200  1.00  0.00    -0.354 N 
ATOM     22  C   UNL     1       6.901   0.229  -7.450  1.00  0.00     0.074 A 
ATOM     23  C   UNL     1       6.460   1.242  -6.513  1.00  0.00     0.031 C 
ATOM     24  C   UNL     1       4.637  -5.218  -4.872  1.00  0.00     0.029 A 
ATOM     25  C   UNL     1       5.375  -5.069  -6.120  1.00  0.00     0.049 A 
ATOM     26  H   UNL     1       6.168  -3.318  -6.927  1.00  0.00     0.167 HD
ATOM     27  C   UNL     1       7.607   0.478  -8.579  1.00  0.00     0.031 A 
ATOM     28  C   UNL     1       5.658  -6.073  -6.971  1.00  0.00     0.031 A 
ATOM     29  C   UNL     1       8.036  -0.542  -9.502  1.00  0.00     0.049 A 
ATOM     30  C   UNL     1       6.405  -5.760  -8.236  1.00  0.00     0.074 A 
ATOM     31  C   UNL     1       8.802  -0.398 -10.647  1.00  0.00     0.029 A 
ATOM     32  N   UNL     1       7.726  -1.890  -9.398  1.00  0.00    -0.354 N 
ATOM     33  N   UNL     1       6.871  -4.606  -8.649  1.00  0.00    -0.248 NA
ATOM     34  C   UNL     1       6.664  -6.880  -9.149  1.00  0.00     0.031 C 
ATOM     35  C   UNL     1       8.896  -1.646 -11.270  1.00  0.00     0.029 A 
ATOM     36  C   UNL     1       8.248  -2.581 -10.480  1.00  0.00     0.049 A 
ATOM     37  H   UNL     1       7.210  -2.296  -8.664  1.00  0.00     0.167 HD
ATOM     38  C   UNL     1       7.490  -4.863  -9.865  1.00  0.00     0.074 A 
ATOM     39  C   UNL     1       7.362  -6.286 -10.108  1.00  0.00     0.031 C 
ATOM     40  C   UNL     1       8.107  -3.998 -10.707  1.00  0.00     0.031 A 
BRANCH  27  41
ATOM     41  C   UNL     1       7.935   1.912  -8.911  1.00  0.00    -0.014 A 
ATOM     42  C   UNL     1       8.891   2.637  -8.177  1.00  0.00     0.010 A 
ATOM     43  C   UNL     1       7.329   2.520 -10.027  1.00  0.00     0.010 A 
ATOM     44  C   UNL     1       9.212   3.951  -8.535  1.00  0.00     0.020 A 
ATOM     45  C   UNL     1       7.666   3.824 -10.404  1.00  0.00     0.020 A 
ATOM     46  C   UNL     1       8.597   4.536  -9.647  1.00  0.00     0.054 A 
BRANCH  46  47
ATOM     47  S   UNL     1       9.060   6.229 -10.109  1.00  0.00     0.124 S 
ATOM     48  O   UNL     1       8.451   7.011  -9.036  1.00  0.00    -0.237 OA
ATOM     49  O   UNL     1      10.521   6.176 -10.094  1.00  0.00    -0.237 OA
ATOM     50  O   UNL     1       8.460   6.407 -11.428  1.00  0.00    -0.744 OA
ENDBRANCH  46  47
ENDBRANCH  27  41
BRANCH  28  51
ATOM     51  C   UNL     1       5.192  -7.455  -6.670  1.00  0.00    -0.014 A 
ATOM     52  C   UNL     1       6.108  -8.477  -6.371  1.00  0.00     0.010 A 
ATOM     53  C   UNL     1       3.814  -7.749  -6.666  1.00  0.00     0.010 A 
ATOM     54  C   UNL     1       5.657  -9.772  -6.094  1.00  0.00     0.020 A 
ATOM     55  C   UNL     1       3.358  -9.032  -6.356  1.00  0.00     0.020 A 
ATOM     56  C   UNL     1       4.285 -10.040  -6.087  1.00  0.00     0.054 A 
BRANCH  56  57
ATOM     57  S   UNL     1       3.721 -11.717  -5.687  1.00  0.00     0.124 S 
ATOM     58  O   UNL     1       4.075 -12.452  -6.898  1.00  0.00    -0.237 OA
ATOM     59  O   UNL     1       4.508 -12.039  -4.498  1.00  0.00    -0.237 OA
ATOM     60  O   UNL     1       2.290 -11.551  -5.451  1.00  0.00    -0.744 OA
ENDBRANCH  56  57
ENDBRANCH  28  51
BRANCH  40  61
ATOM     61  C   UNL     1       8.709  -4.569 -11.962  1.00  0.00    -0.014 A 
ATOM     62  C   UNL     1       7.898  -5.002 -13.026  1.00  0.00     0.010 A 
ATOM     63  C   UNL     1      10.109  -4.612 -12.103  1.00  0.00     0.010 A 
ATOM     64  C   UNL     1       8.477  -5.488 -14.201  1.00  0.00     0.020 A 
ATOM     65  C   UNL     1      10.690  -5.070 -13.287  1.00  0.00     0.020 A 
ATOM     66  C   UNL     1       9.870  -5.514 -14.326  1.00  0.00     0.054 A 
BRANCH  66  67
ATOM     67  S   UNL     1      10.593  -6.089 -15.886  1.00  0.00     0.124 S 
ATOM     68  O   UNL     1      10.342  -7.526 -15.827  1.00  0.00    -0.237 OA
ATOM     69  O   UNL     1       9.820  -5.356 -16.886  1.00  0.00    -0.237 OA
ATOM     70  O   UNL     1      11.997  -5.697 -15.782  1.00  0.00    -0.744 OA
ENDBRANCH  66  67
ENDBRANCH  40  61
ENDBRANCH  14  15
ENDBRANCH   7   9
ENDBRANCH   4   5
ENDBRANCH   3   4
ENDBRANCH   2   3
ENDBRANCH   1   2
BRANCH   1  71
ATOM     71  C   UNL     1       4.923   2.493   4.716  1.00  0.00     0.021 C 
BRANCH  71  72
ATOM     72  C   UNL     1       5.430   3.912   5.186  1.00  0.00     0.116 C 
BRANCH  72  73
ATOM     73  N   UNL     1       6.589   4.165   6.261  1.00  0.00    -0.356 N 
ATOM     74  C   UNL     1       7.856   4.003   6.786  1.00  0.00     0.224 C 
ATOM     75  H   UNL     1       6.162   4.773   6.905  1.00  0.00     0.163 HD
ATOM     76  O   UNL     1       7.928   4.728   7.813  1.00  0.00    -0.275 OA
BRANCH  74  77
ATOM     77  C   UNL     1       9.331   3.205   6.478  1.00  0.00     0.098 C 
ATOM     78  C   UNL     1      10.213   2.171   5.512  1.00  0.00     0.099 C 
ATOM     79  C   UNL     1      10.004   2.805   7.870  1.00  0.00     0.025 C 
ATOM     80  C   UNL     1      11.215   1.501   6.501  1.00  0.00     0.025 C 
ATOM     81  C   UNL     1       9.725   1.356   8.225  1.00  0.00    -0.027 C 
ATOM     82  C   UNL     1      11.485   2.631   7.483  1.00  0.00     0.017 C 
ATOM     83  C   UNL     1      10.461   0.581   7.417  1.00  0.00    -0.027 C 
BRANCH  78  84
ATOM     84  C   UNL     1      10.004   1.078   4.388  1.00  0.00     0.229 C 
ATOM     85  O   UNL     1      10.759   1.095   3.407  1.00  0.00    -0.274 OA
ATOM     86  N   UNL     1       9.104   0.055   4.448  1.00  0.00    -0.323 N 
ATOM     87  H   UNL     1       9.232  -0.703   3.833  1.00  0.00     0.170 HD
BRANCH  86  88
ATOM     88  C   UNL     1       8.027   0.009   5.308  1.00  0.00     0.084 A 
ATOM     89  C   UNL     1       7.658  -1.188   5.938  1.00  0.00     0.030 A 
ATOM     90  C   UNL     1       7.430   1.185   5.654  1.00  0.00     0.149 A 
ATOM     91  C   UNL     1       6.861  -1.164   7.092  1.00  0.00     0.002 A 
ATOM     92  C   UNL     1       6.700   1.197   6.868  1.00  0.00     0.049 A 
ATOM     93  C   UNL     1       6.429   0.046   7.597  1.00  0.00     0.004 A 
BRANCH  90  94
ATOM     94  O   UNL     1       7.536   2.345   4.945  1.00  0.00    -0.433 OA
BRANCH  94  95
ATOM     95  C   UNL     1       8.003   2.788   3.658  1.00  0.00     0.542 C 
ATOM     96  F   UNL     1       7.666   1.920   2.690  1.00  0.00    -0.167 F 
ATOM     97  F   UNL     1       7.377   3.963   3.369  1.00  0.00    -0.167 F 
ENDBRANCH  94  95
ENDBRANCH  90  94
ENDBRANCH  86  88
ENDBRANCH  78  84
ENDBRANCH  74  77
ENDBRANCH  72  73
ENDBRANCH  71  72
ENDBRANCH   1  71
TORSDOF 20
