REMARK SMILES O=C(NCCCCCCNC(=O)c1ccc(-c2c3nc(c(-c4ccc(S(=O)(=O)[O-])cc4)c4ccc([nH]4)c(-c4ccc(S(=O)(=O)[O-])cc4)c4nc(c(-c5ccc(S(=O)(=O)[O-])cc5)c5ccc2[nH]5)C=C4)C=C3)cc1)C1=Cc2c(Cl)cc(Cl)cc2O[C@@H]1C(F)(F)F
REMARK SMILES IDX 7 1 6 2 5 3 4 4 3 5 1 6 2 7 73 9 74 10 84 11 75 12 83 13
REMARK SMILES IDX 76 14 82 15 77 16 78 17 81 18 79 19 80 20 85 21 86 22 87 23
REMARK SMILES IDX 88 24 8 25 9 26 10 27 11 28 12 30 13 31 14 32 72 33 15 34
REMARK SMILES IDX 71 35 16 36 17 37 18 38 65 39 19 40 70 41 64 42 66 43 20 44
REMARK SMILES IDX 69 45 63 46 62 47 21 49 51 50 32 51 50 52 33 53 36 54 49 55
REMARK SMILES IDX 67 56 34 57 35 58 48 60 68 61 37 62 22 63 23 64 31 65 24 66
REMARK SMILES IDX 30 67 25 68 26 69 27 70 28 71 29 72 52 73 53 74 61 75 54 76
REMARK SMILES IDX 60 77 55 78 56 79 57 80 58 81 59 82 38 83 39 84 47 85 40 86
REMARK SMILES IDX 46 87 41 88 42 89 43 90 44 91 45 92
REMARK H PARENT 3 8 10 29 66 48 36 59
REMARK Flexibility Score: inf
ROOT
ATOM      1  C   UNL     1       4.293  -3.915  -2.700  1.00  0.00     0.002 C 
ENDROOT
BRANCH   1   2
ATOM      2  C   UNL     1       3.675  -4.209  -1.326  1.00  0.00     0.002 C 
BRANCH   2   3
ATOM      3  C   UNL     1       4.021  -3.244  -0.189  1.00  0.00     0.021 C 
BRANCH   3   4
ATOM      4  C   UNL     1       3.692  -1.772  -0.435  1.00  0.00     0.116 C 
BRANCH   4   5
ATOM      5  N   UNL     1       2.455  -1.304   0.196  1.00  0.00    -0.352 N 
ATOM      6  O   UNL     1       0.986   0.239   0.990  1.00  0.00    -0.270 OA
ATOM      7  C   UNL     1       2.136  -0.047   0.660  1.00  0.00     0.251 C 
ATOM      8  H   UNL     1       1.752  -1.985   0.303  1.00  0.00     0.163 HD
BRANCH   7   9
ATOM      9  C   UNL     1       3.186   0.992   0.625  1.00  0.00     0.067 C 
ATOM     10  C   UNL     1       4.276   0.880   1.398  1.00  0.00     0.027 C 
ATOM     11  C   UNL     1       3.148   1.956  -0.517  1.00  0.00     0.314 C 
ATOM     12  C   UNL     1       5.530   0.962   0.608  1.00  0.00     0.036 A 
ATOM     13  O   UNL     1       4.314   1.824  -1.359  1.00  0.00    -0.475 OA
ATOM     14  C   UNL     1       6.700   0.309   1.049  1.00  0.00     0.053 A 
ATOM     15  C   UNL     1       5.446   1.323  -0.758  1.00  0.00     0.130 A 
ATOM     16  Cl  UNL     1       6.876  -0.287   2.666  1.00  0.00    -0.083 Cl
ATOM     17  C   UNL     1       7.715  -0.023   0.145  1.00  0.00     0.042 A 
ATOM     18  C   UNL     1       6.474   1.013  -1.650  1.00  0.00     0.067 A 
ATOM     19  C   UNL     1       7.588   0.315  -1.199  1.00  0.00     0.046 A 
ATOM     20  Cl  UNL     1       8.772  -0.215  -2.326  1.00  0.00    -0.084 Cl
BRANCH  11  21
ATOM     21  C   UNL     1       2.987   3.405  -0.020  1.00  0.00     0.429 C 
ATOM     22  F   UNL     1       2.784   4.257  -1.055  1.00  0.00    -0.167 F 
ATOM     23  F   UNL     1       1.925   3.540   0.809  1.00  0.00    -0.167 F 
ATOM     24  F   UNL     1       4.077   3.847   0.652  1.00  0.00    -0.167 F 
ENDBRANCH  11  21
ENDBRANCH   7   9
ENDBRANCH   4   5
ENDBRANCH   3   4
ENDBRANCH   2   3
ENDBRANCH   1   2
BRANCH   1  25
ATOM     25  C   UNL     1       5.802  -3.648  -2.748  1.00  0.00     0.021 C 
BRANCH  25  26
ATOM     26  C   UNL     1       6.708  -4.734  -2.167  1.00  0.00     0.116 C 
BRANCH  26  27
ATOM     27  N   UNL     1       6.539  -6.021  -2.817  1.00  0.00    -0.352 N 
ATOM     28  C   UNL     1       7.473  -6.889  -3.324  1.00  0.00     0.251 C 
ATOM     29  H   UNL     1       5.605  -6.319  -2.908  1.00  0.00     0.163 HD
ATOM     30  O   UNL     1       7.088  -7.876  -3.957  1.00  0.00    -0.269 OA
BRANCH  28  31
ATOM     31  C   UNL     1       8.926  -6.659  -3.146  1.00  0.00     0.039 A 
ATOM     32  C   UNL     1       9.780  -6.927  -4.222  1.00  0.00     0.014 A 
ATOM     33  C   UNL     1       9.465  -6.243  -1.925  1.00  0.00     0.014 A 
ATOM     34  C   UNL     1      11.159  -6.736  -4.090  1.00  0.00     0.010 A 
ATOM     35  C   UNL     1      10.836  -5.998  -1.812  1.00  0.00     0.010 A 
ATOM     36  C   UNL     1      11.699  -6.247  -2.891  1.00  0.00    -0.014 A 
BRANCH  36  37
ATOM     37  C   UNL     1      13.159  -5.996  -2.755  1.00  0.00     0.031 A 
ATOM     38  C   UNL     1      13.993  -6.819  -1.810  1.00  0.00     0.074 A 
ATOM     39  C   UNL     1      13.731  -4.994  -3.453  1.00  0.00     0.049 A 
ATOM     40  N   UNL     1      15.271  -6.726  -1.542  1.00  0.00    -0.248 NA
ATOM     41  C   UNL     1      13.298  -7.872  -1.053  1.00  0.00     0.031 C 
ATOM     42  C   UNL     1      13.034  -4.105  -4.384  1.00  0.00     0.029 A 
ATOM     43  N   UNL     1      15.032  -4.555  -3.486  1.00  0.00    -0.354 N 
ATOM     44  C   UNL     1      15.530  -7.690  -0.574  1.00  0.00     0.074 A 
ATOM     45  C   UNL     1      14.268  -8.332  -0.275  1.00  0.00     0.031 C 
ATOM     46  C   UNL     1      13.918  -3.247  -4.918  1.00  0.00     0.029 A 
ATOM     47  C   UNL     1      15.236  -3.497  -4.342  1.00  0.00     0.049 A 
ATOM     48  H   UNL     1      15.751  -4.959  -2.949  1.00  0.00     0.167 HD
ATOM     49  C   UNL     1      16.710  -8.019   0.006  1.00  0.00     0.031 A 
ATOM     50  C   UNL     1      16.354  -2.803  -4.630  1.00  0.00     0.031 A 
ATOM     51  C   UNL     1      17.968  -7.390  -0.301  1.00  0.00     0.049 A 
ATOM     52  C   UNL     1      17.649  -3.178  -3.963  1.00  0.00     0.074 A 
ATOM     53  C   UNL     1      19.226  -7.702   0.184  1.00  0.00     0.029 A 
ATOM     54  N   UNL     1      18.128  -6.318  -1.166  1.00  0.00    -0.354 N 
ATOM     55  N   UNL     1      17.884  -4.138  -3.100  1.00  0.00    -0.248 NA
ATOM     56  C   UNL     1      18.832  -2.380  -4.315  1.00  0.00     0.031 C 
ATOM     57  C   UNL     1      20.140  -6.784  -0.346  1.00  0.00     0.029 A 
ATOM     58  C   UNL     1      19.459  -5.936  -1.205  1.00  0.00     0.049 A 
ATOM     59  H   UNL     1      17.403  -5.891  -1.677  1.00  0.00     0.167 HD
ATOM     60  C   UNL     1      19.247  -4.077  -2.829  1.00  0.00     0.074 A 
ATOM     61  C   UNL     1      19.785  -2.993  -3.626  1.00  0.00     0.031 C 
ATOM     62  C   UNL     1      19.985  -4.854  -1.998  1.00  0.00     0.031 A 
BRANCH  49  63
ATOM     63  C   UNL     1      16.693  -9.102   1.053  1.00  0.00    -0.014 A 
ATOM     64  C   UNL     1      16.475 -10.449   0.708  1.00  0.00     0.010 A 
ATOM     65  C   UNL     1      16.935  -8.773   2.399  1.00  0.00     0.010 A 
ATOM     66  C   UNL     1      16.451 -11.438   1.695  1.00  0.00     0.020 A 
ATOM     67  C   UNL     1      16.939  -9.763   3.386  1.00  0.00     0.020 A 
ATOM     68  C   UNL     1      16.676 -11.087   3.030  1.00  0.00     0.054 A 
BRANCH  68  69
ATOM     69  S   UNL     1      16.647 -12.390   4.292  1.00  0.00     0.124 S 
ATOM     70  O   UNL     1      15.216 -12.665   4.404  1.00  0.00    -0.237 OA
ATOM     71  O   UNL     1      17.443 -13.450   3.678  1.00  0.00    -0.237 OA
ATOM     72  O   UNL     1      17.252 -11.757   5.459  1.00  0.00    -0.744 OA
ENDBRANCH  68  69
ENDBRANCH  49  63
BRANCH  50  73
ATOM     73  C   UNL     1      16.303  -1.693  -5.619  1.00  0.00    -0.014 A 
ATOM     74  C   UNL     1      16.891  -1.845  -6.887  1.00  0.00     0.010 A 
ATOM     75  C   UNL     1      15.653  -0.485  -5.307  1.00  0.00     0.010 A 
ATOM     76  C   UNL     1      16.840  -0.807  -7.821  1.00  0.00     0.020 A 
ATOM     77  C   UNL     1      15.578   0.546  -6.247  1.00  0.00     0.020 A 
ATOM     78  C   UNL     1      16.181   0.382  -7.496  1.00  0.00     0.054 A 
BRANCH  78  79
ATOM     79  S   UNL     1      16.076   1.694  -8.745  1.00  0.00     0.124 S 
ATOM     80  O   UNL     1      17.433   2.232  -8.735  1.00  0.00    -0.237 OA
ATOM     81  O   UNL     1      15.696   0.956  -9.947  1.00  0.00    -0.237 OA
ATOM     82  O   UNL     1      15.044   2.584  -8.218  1.00  0.00    -0.744 OA
ENDBRANCH  78  79
ENDBRANCH  50  73
BRANCH  62  83
ATOM     83  C   UNL     1      21.464  -4.583  -1.928  1.00  0.00    -0.014 A 
ATOM     84  C   UNL     1      21.968  -3.449  -1.267  1.00  0.00     0.010 A 
ATOM     85  C   UNL     1      22.366  -5.507  -2.488  1.00  0.00     0.010 A 
ATOM     86  C   UNL     1      23.346  -3.228  -1.194  1.00  0.00     0.020 A 
ATOM     87  C   UNL     1      23.745  -5.304  -2.393  1.00  0.00     0.020 A 
ATOM     88  C   UNL     1      24.226  -4.157  -1.758  1.00  0.00     0.054 A 
BRANCH  88  89
ATOM     89  S   UNL     1      26.012  -3.873  -1.611  1.00  0.00     0.124 S 
ATOM     90  O   UNL     1      26.233  -2.813  -2.591  1.00  0.00    -0.237 OA
ATOM     91  O   UNL     1      26.161  -3.477  -0.213  1.00  0.00    -0.237 OA
ATOM     92  O   UNL     1      26.598  -5.168  -1.951  1.00  0.00    -0.744 OA
ENDBRANCH  88  89
ENDBRANCH  62  83
ENDBRANCH  36  37
ENDBRANCH  28  31
ENDBRANCH  26  27
ENDBRANCH  25  26
ENDBRANCH   1  25
TORSDOF 17
