REMARK SMILES CC(C)CCn1nc(C(=O)NCCCCCCNC(=O)c2ccc(-c3c4nc(c(-c5ccc(S(=O)(=O)[O-])cc5)c5ccc([nH]5)c(-c5ccc(S(=O)(=O)[O-])cc5)c5nc(c(-c6ccc(S(=O)(=O)[O-])cc6)c6ccc3[nH]6)C=C5)C=C4)cc2)c2c1CCN(C(=O)[C@@H]1CCc3nn(C)c(=O)n3C1)C2
REMARK SMILES IDX 14 1 13 2 12 3 11 4 9 5 10 6 8 8 6 9 7 10 82 11 81 12 83 13
REMARK SMILES IDX 99 14 84 15 85 16 5 17 4 18 2 19 1 20 3 21 86 22 87 23 88 24
REMARK SMILES IDX 89 25 98 26 90 27 97 28 91 29 95 30 92 31 93 32 96 33 94 34
REMARK SMILES IDX 15 35 16 36 17 37 18 38 19 39 20 41 21 42 22 43 80 44 23 45
REMARK SMILES IDX 79 46 24 47 25 48 26 49 73 50 27 51 78 52 72 53 74 54 28 55
REMARK SMILES IDX 77 56 71 57 70 58 29 60 59 61 40 62 58 63 41 64 44 65 57 66
REMARK SMILES IDX 75 67 42 68 43 69 56 71 76 72 45 73 30 74 31 75 39 76 32 77
REMARK SMILES IDX 38 78 33 79 34 80 35 81 36 82 37 83 60 84 61 85 69 86 62 87
REMARK SMILES IDX 68 88 63 89 64 90 65 91 66 92 67 93 46 94 47 95 55 96 48 97
REMARK SMILES IDX 54 98 49 99 50 100 51 101 52 102 53 103
REMARK H PARENT 11 7 18 40 74 59 44 70
REMARK Flexibility Score: inf
ROOT
ATOM      1  C   UNL     1      -0.141   7.836  -6.953  1.00  0.00     0.002 C 
ENDROOT
BRANCH   1   2
ATOM      2  C   UNL     1      -0.428   6.633  -6.060  1.00  0.00     0.021 C 
BRANCH   2   3
ATOM      3  C   UNL     1       0.225   6.687  -4.668  1.00  0.00     0.116 C 
BRANCH   3   4
ATOM      4  N   UNL     1      -0.763   6.706  -3.605  1.00  0.00    -0.351 N 
ATOM      5  C   UNL     1      -1.228   5.793  -2.685  1.00  0.00     0.272 C 
ATOM      6  O   UNL     1      -1.905   6.293  -1.778  1.00  0.00    -0.267 OA
ATOM      7  H   UNL     1      -1.208   7.581  -3.522  1.00  0.00     0.163 HD
BRANCH   5   8
ATOM      8  C   UNL     1      -0.946   4.335  -2.725  1.00  0.00     0.155 A 
ATOM      9  N   UNL     1      -0.854   2.333  -1.901  1.00  0.00    -0.268 N 
ATOM     10  N   UNL     1      -1.034   3.629  -1.571  1.00  0.00    -0.167 NA
ATOM     11  C   UNL     1      -0.442   2.210  -3.188  1.00  0.00     0.046 A 
ATOM     12  C   UNL     1      -0.647   3.438  -3.790  1.00  0.00     0.026 A 
ATOM     13  C   UNL     1       0.077   1.035  -3.922  1.00  0.00     0.078 C 
ATOM     14  C   UNL     1      -0.509   3.632  -5.260  1.00  0.00     0.159 C 
ATOM     15  C   UNL     1       0.792   1.578  -5.161  1.00  0.00     0.126 C 
ATOM     16  N   UNL     1      -0.090   2.412  -5.963  1.00  0.00    -0.338 N 
BRANCH   9  17
ATOM     17  C   UNL     1      -1.293   1.333  -0.939  1.00  0.00     0.145 C 
BRANCH  17  18
ATOM     18  C   UNL     1      -0.844  -0.123  -1.109  1.00  0.00     0.027 C 
BRANCH  18  19
ATOM     19  C   UNL     1       0.660  -0.368  -0.886  1.00  0.00    -0.016 C 
ATOM     20  C   UNL     1       1.047  -0.307   0.589  1.00  0.00     0.007 C 
ATOM     21  C   UNL     1       1.060  -1.723  -1.482  1.00  0.00     0.007 C 
ENDBRANCH  18  19
ENDBRANCH  17  18
ENDBRANCH   9  17
BRANCH  16  22
ATOM     22  C   UNL     1      -0.279   2.383  -7.332  1.00  0.00     0.227 C 
ATOM     23  O   UNL     1      -0.727   3.394  -7.895  1.00  0.00    -0.274 OA
BRANCH  22  24
ATOM     24  C   UNL     1       0.030   1.168  -8.233  1.00  0.00     0.099 C 
ATOM     25  C   UNL     1      -0.852  -0.070  -8.047  1.00  0.00     0.023 C 
ATOM     26  C   UNL     1       1.501   0.817  -8.415  1.00  0.00     0.142 C 
ATOM     27  C   UNL     1      -0.349  -1.087  -7.033  1.00  0.00     0.078 C 
ATOM     28  N   UNL     1       1.933  -0.273  -7.570  1.00  0.00    -0.278 N 
ATOM     29  C   UNL     1       1.144  -1.129  -6.888  1.00  0.00     0.133 A 
ATOM     30  C   UNL     1       3.187  -0.384  -7.022  1.00  0.00     0.345 A 
ATOM     31  N   UNL     1       1.756  -1.810  -5.960  1.00  0.00    -0.155 NA
ATOM     32  N   UNL     1       3.056  -1.353  -6.022  1.00  0.00    -0.216 N 
ATOM     33  O   UNL     1       4.156   0.325  -7.244  1.00  0.00    -0.246 OA
ATOM     34  C   UNL     1       3.999  -1.569  -4.959  1.00  0.00     0.179 C 
ENDBRANCH  22  24
ENDBRANCH  16  22
ENDBRANCH   5   8
ENDBRANCH   3   4
ENDBRANCH   2   3
ENDBRANCH   1   2
BRANCH   1  35
ATOM     35  C   UNL     1       1.336   8.002  -7.342  1.00  0.00     0.002 C 
BRANCH  35  36
ATOM     36  C   UNL     1       1.969   6.867  -8.167  1.00  0.00     0.021 C 
BRANCH  36  37
ATOM     37  C   UNL     1       1.346   6.681  -9.543  1.00  0.00     0.116 C 
BRANCH  37  38
ATOM     38  N   UNL     1       1.511   7.860 -10.393  1.00  0.00    -0.352 N 
ATOM     39  C   UNL     1       1.204   8.017 -11.732  1.00  0.00     0.251 C 
ATOM     40  H   UNL     1       1.895   8.651  -9.950  1.00  0.00     0.163 HD
ATOM     41  O   UNL     1       1.666   8.947 -12.369  1.00  0.00    -0.269 OA
BRANCH  39  42
ATOM     42  C   UNL     1       0.312   7.032 -12.373  1.00  0.00     0.039 A 
ATOM     43  C   UNL     1       0.543   6.592 -13.680  1.00  0.00     0.014 A 
ATOM     44  C   UNL     1      -0.762   6.539 -11.639  1.00  0.00     0.014 A 
ATOM     45  C   UNL     1      -0.276   5.596 -14.209  1.00  0.00     0.010 A 
ATOM     46  C   UNL     1      -1.464   5.455 -12.097  1.00  0.00     0.010 A 
ATOM     47  C   UNL     1      -1.269   5.020 -13.402  1.00  0.00    -0.014 A 
BRANCH  47  48
ATOM     48  C   UNL     1      -2.056   3.884 -13.869  1.00  0.00     0.031 A 
ATOM     49  C   UNL     1      -1.257   2.711 -14.309  1.00  0.00     0.074 A 
ATOM     50  C   UNL     1      -3.393   3.804 -13.697  1.00  0.00     0.049 A 
ATOM     51  N   UNL     1      -1.128   2.249 -15.508  1.00  0.00    -0.248 NA
ATOM     52  C   UNL     1      -0.386   2.053 -13.320  1.00  0.00     0.031 C 
ATOM     53  C   UNL     1      -4.277   4.753 -13.002  1.00  0.00     0.029 A 
ATOM     54  N   UNL     1      -4.238   2.783 -14.002  1.00  0.00    -0.354 N 
ATOM     55  C   UNL     1      -0.345   1.106 -15.396  1.00  0.00     0.074 A 
ATOM     56  C   UNL     1       0.232   1.142 -14.075  1.00  0.00     0.031 C 
ATOM     57  C   UNL     1      -5.458   4.158 -12.728  1.00  0.00     0.029 A 
ATOM     58  C   UNL     1      -5.485   2.871 -13.394  1.00  0.00     0.049 A 
ATOM     59  H   UNL     1      -3.987   2.044 -14.602  1.00  0.00     0.167 HD
ATOM     60  C   UNL     1      -0.439   0.089 -16.298  1.00  0.00     0.031 A 
ATOM     61  C   UNL     1      -6.480   1.952 -13.431  1.00  0.00     0.031 A 
ATOM     62  C   UNL     1      -1.181   0.486 -17.468  1.00  0.00     0.049 A 
ATOM     63  C   UNL     1      -6.238   1.112 -14.624  1.00  0.00     0.074 A 
ATOM     64  C   UNL     1      -1.009   1.413 -18.474  1.00  0.00     0.029 A 
ATOM     65  N   UNL     1      -2.512   0.140 -17.478  1.00  0.00    -0.354 N 
ATOM     66  N   UNL     1      -6.276   1.578 -15.842  1.00  0.00    -0.248 NA
ATOM     67  C   UNL     1      -5.530  -0.147 -14.465  1.00  0.00     0.031 C 
ATOM     68  C   UNL     1      -2.321   1.896 -18.761  1.00  0.00     0.029 A 
ATOM     69  C   UNL     1      -3.233   1.200 -17.962  1.00  0.00     0.049 A 
ATOM     70  H   UNL     1      -2.884  -0.723 -17.186  1.00  0.00     0.167 HD
ATOM     71  C   UNL     1      -5.248   0.924 -16.505  1.00  0.00     0.074 A 
ATOM     72  C   UNL     1      -4.923  -0.217 -15.653  1.00  0.00     0.031 C 
ATOM     73  C   UNL     1      -4.580   1.528 -17.533  1.00  0.00     0.031 A 
BRANCH  60  74
ATOM     74  C   UNL     1      -0.259  -1.369 -15.942  1.00  0.00    -0.014 A 
ATOM     75  C   UNL     1      -0.327  -2.335 -16.968  1.00  0.00     0.010 A 
ATOM     76  C   UNL     1      -0.318  -1.843 -14.615  1.00  0.00     0.010 A 
ATOM     77  C   UNL     1      -0.518  -3.693 -16.678  1.00  0.00     0.020 A 
ATOM     78  C   UNL     1      -0.465  -3.198 -14.315  1.00  0.00     0.020 A 
ATOM     79  C   UNL     1      -0.601  -4.112 -15.350  1.00  0.00     0.054 A 
BRANCH  79  80
ATOM     80  S   UNL     1      -0.967  -5.846 -14.983  1.00  0.00     0.124 S 
ATOM     81  O   UNL     1      -2.324  -5.982 -15.502  1.00  0.00    -0.237 OA
ATOM     82  O   UNL     1       0.074  -6.546 -15.730  1.00  0.00    -0.237 OA
ATOM     83  O   UNL     1      -0.841  -5.919 -13.529  1.00  0.00    -0.744 OA
ENDBRANCH  79  80
ENDBRANCH  60  74
BRANCH  61  84
ATOM     84  C   UNL     1      -7.438   1.601 -12.357  1.00  0.00    -0.014 A 
ATOM     85  C   UNL     1      -8.631   0.908 -12.629  1.00  0.00     0.010 A 
ATOM     86  C   UNL     1      -7.037   1.714 -11.009  1.00  0.00     0.010 A 
ATOM     87  C   UNL     1      -9.371   0.308 -11.594  1.00  0.00     0.020 A 
ATOM     88  C   UNL     1      -7.768   1.119  -9.973  1.00  0.00     0.020 A 
ATOM     89  C   UNL     1      -8.923   0.402 -10.273  1.00  0.00     0.054 A 
BRANCH  89  90
ATOM     90  S   UNL     1      -9.796  -0.509  -8.962  1.00  0.00     0.124 S 
ATOM     91  O   UNL     1     -11.055   0.223  -8.860  1.00  0.00    -0.237 OA
ATOM     92  O   UNL     1      -9.891  -1.855  -9.520  1.00  0.00    -0.237 OA
ATOM     93  O   UNL     1      -8.909  -0.384  -7.806  1.00  0.00    -0.744 OA
ENDBRANCH  89  90
ENDBRANCH  61  84
BRANCH  73  94
ATOM     94  C   UNL     1      -5.189   2.778 -18.135  1.00  0.00    -0.014 A 
ATOM     95  C   UNL     1      -5.320   3.998 -17.441  1.00  0.00     0.010 A 
ATOM     96  C   UNL     1      -5.502   2.751 -19.504  1.00  0.00     0.010 A 
ATOM     97  C   UNL     1      -5.766   5.155 -18.101  1.00  0.00     0.020 A 
ATOM     98  C   UNL     1      -5.931   3.902 -20.170  1.00  0.00     0.020 A 
ATOM     99  C   UNL     1      -6.066   5.099 -19.465  1.00  0.00     0.054 A 
BRANCH  99 100
ATOM    100  S   UNL     1      -6.580   6.609 -20.333  1.00  0.00     0.124 S 
ATOM    101  O   UNL     1      -7.907   6.860 -19.776  1.00  0.00    -0.237 OA
ATOM    102  O   UNL     1      -5.547   7.571 -19.954  1.00  0.00    -0.237 OA
ATOM    103  O   UNL     1      -6.566   6.223 -21.743  1.00  0.00    -0.744 OA
ENDBRANCH  99 100
ENDBRANCH  73  94
ENDBRANCH  47  48
ENDBRANCH  39  42
ENDBRANCH  37  38
ENDBRANCH  36  37
ENDBRANCH  35  36
ENDBRANCH   1  35
TORSDOF 21
