REMARK SMILES COc1cc(Br)c(N)c(C(=O)NCCCCCCNC(=O)c2ccc(-c3c4nc(c(-c5ccc(S(=O)(=O)[O-])cc5)c5ccc([nH]5)c(-c5ccc(S(=O)(=O)[O-])cc5)c5nc(c(-c6ccc(S(=O)(=O)[O-])cc6)c6ccc3[nH]6)C=C5)C=C4)cc2)c1
REMARK SMILES IDX 16 1 15 2 14 3 13 4 12 5 10 6 11 7 9 9 3 10 4 11 82 12 5 13
REMARK SMILES IDX 6 14 7 15 2 16 1 17 8 18 17 21 18 22 19 23 20 24 21 26 22 27
REMARK SMILES IDX 23 28 81 29 24 30 80 31 25 32 26 33 27 34 74 35 28 36 79 37
REMARK SMILES IDX 73 38 75 39 29 40 78 41 72 42 71 43 30 45 60 46 41 47 59 48
REMARK SMILES IDX 42 49 45 50 58 51 76 52 43 53 44 54 57 56 77 57 46 58 31 59
REMARK SMILES IDX 32 60 40 61 33 62 39 63 34 64 35 65 36 66 37 67 38 68 61 69
REMARK SMILES IDX 62 70 70 71 63 72 69 73 64 74 65 75 66 76 67 77 68 78 47 79
REMARK SMILES IDX 48 80 56 81 49 82 55 83 50 84 51 85 52 86 53 87 54 88
REMARK H PARENT 12 8 8 19 8 20 19 25 75 44 45 55
REMARK Flexibility Score: inf
ROOT
ATOM      1  C   UNL     1       5.758  -8.191   3.292  1.00  0.00     0.002 C 
ENDROOT
BRANCH   1   2
ATOM      2  C   UNL     1       5.536  -7.900   1.805  1.00  0.00     0.002 C 
BRANCH   2   3
ATOM      3  C   UNL     1       4.145  -7.412   1.387  1.00  0.00     0.021 C 
BRANCH   3   4
ATOM      4  C   UNL     1       3.558  -6.252   2.185  1.00  0.00     0.116 C 
BRANCH   4   5
ATOM      5  N   UNL     1       4.334  -5.027   2.141  1.00  0.00    -0.352 N 
ATOM      6  C   UNL     1       3.930  -3.716   2.270  1.00  0.00     0.253 C 
ATOM      7  O   UNL     1       4.797  -2.841   2.225  1.00  0.00    -0.269 OA
ATOM      8  H   UNL     1       5.300  -5.152   1.996  1.00  0.00     0.163 HD
BRANCH   6   9
ATOM      9  C   UNL     1       2.497  -3.302   2.372  1.00  0.00     0.067 A 
ATOM     10  C   UNL     1       0.849  -1.664   1.608  1.00  0.00     0.120 A 
ATOM     11  C   UNL     1      -0.146  -2.378   2.265  1.00  0.00     0.064 A 
ATOM     12  C   UNL     1       2.158  -2.141   1.636  1.00  0.00     0.062 A 
ATOM     13  C   UNL     1       0.181  -3.507   3.014  1.00  0.00     0.045 A 
ATOM     14  Br  UNL     1      -1.246  -4.438   3.864  1.00  0.00    -0.048 Br
ATOM     15  C   UNL     1       1.518  -3.927   3.171  1.00  0.00     0.059 A 
BRANCH  10  16
ATOM     16  O   UNL     1       0.424  -0.503   1.028  1.00  0.00    -0.497 OA
ATOM     17  C   UNL     1       1.165  -0.039  -0.092  1.00  0.00     0.278 C 
ENDBRANCH  10  16
BRANCH  15  18
ATOM     18  N   UNL     1       1.811  -4.946   4.078  1.00  0.00    -0.397 N 
ATOM     19  H   UNL     1       1.091  -5.351   4.614  1.00  0.00     0.156 HD
ATOM     20  H   UNL     1       2.738  -5.261   4.183  1.00  0.00     0.156 HD
ENDBRANCH  15  18
ENDBRANCH   6   9
ENDBRANCH   4   5
ENDBRANCH   3   4
ENDBRANCH   2   3
ENDBRANCH   1   2
BRANCH   1  21
ATOM     21  C   UNL     1       4.766  -9.142   3.966  1.00  0.00     0.021 C 
BRANCH  21  22
ATOM     22  C   UNL     1       4.544 -10.481   3.274  1.00  0.00     0.116 C 
BRANCH  22  23
ATOM     23  N   UNL     1       5.761 -11.263   3.141  1.00  0.00    -0.352 N 
ATOM     24  C   UNL     1       5.989 -12.581   3.451  1.00  0.00     0.251 C 
ATOM     25  H   UNL     1       6.536 -10.777   2.776  1.00  0.00     0.163 HD
ATOM     26  O   UNL     1       7.132 -13.032   3.391  1.00  0.00    -0.269 OA
BRANCH  24  27
ATOM     27  C   UNL     1       4.873 -13.452   3.885  1.00  0.00     0.039 A 
ATOM     28  C   UNL     1       5.072 -14.314   4.967  1.00  0.00     0.014 A 
ATOM     29  C   UNL     1       3.639 -13.432   3.227  1.00  0.00     0.014 A 
ATOM     30  C   UNL     1       4.019 -15.113   5.423  1.00  0.00     0.010 A 
ATOM     31  C   UNL     1       2.570 -14.169   3.732  1.00  0.00     0.010 A 
ATOM     32  C   UNL     1       2.749 -15.025   4.830  1.00  0.00    -0.014 A 
BRANCH  32  33
ATOM     33  C   UNL     1       1.603 -15.828   5.335  1.00  0.00     0.031 A 
ATOM     34  C   UNL     1       0.953 -16.858   4.449  1.00  0.00     0.074 A 
ATOM     35  C   UNL     1       1.114 -15.595   6.570  1.00  0.00     0.049 A 
ATOM     36  N   UNL     1      -0.082 -17.621   4.693  1.00  0.00    -0.248 NA
ATOM     37  C   UNL     1       1.525 -17.039   3.104  1.00  0.00     0.031 C 
ATOM     38  C   UNL     1       1.634 -14.604   7.515  1.00  0.00     0.029 A 
ATOM     39  N   UNL     1       0.067 -16.174   7.243  1.00  0.00    -0.354 N 
ATOM     40  C   UNL     1      -0.296 -18.354   3.530  1.00  0.00     0.074 A 
ATOM     41  C   UNL     1       0.684 -17.909   2.565  1.00  0.00     0.031 C 
ATOM     42  C   UNL     1       0.926 -14.668   8.655  1.00  0.00     0.029 A 
ATOM     43  C   UNL     1      -0.126 -15.668   8.508  1.00  0.00     0.049 A 
ATOM     44  H   UNL     1      -0.494 -16.885   6.856  1.00  0.00     0.167 HD
ATOM     45  C   UNL     1      -1.214 -19.322   3.293  1.00  0.00     0.031 A 
ATOM     46  C   UNL     1      -1.049 -15.970   9.443  1.00  0.00     0.031 A 
ATOM     47  C   UNL     1      -2.179 -19.770   4.262  1.00  0.00     0.049 A 
ATOM     48  C   UNL     1      -2.071 -17.036   9.146  1.00  0.00     0.074 A 
ATOM     49  C   UNL     1      -3.112 -20.786   4.138  1.00  0.00     0.029 A 
ATOM     50  N   UNL     1      -2.341 -19.231   5.529  1.00  0.00    -0.354 N 
ATOM     51  N   UNL     1      -2.213 -17.764   8.065  1.00  0.00    -0.248 NA
ATOM     52  C   UNL     1      -3.049 -17.328  10.203  1.00  0.00     0.031 C 
ATOM     53  C   UNL     1      -3.880 -20.818   5.305  1.00  0.00     0.029 A 
ATOM     54  C   UNL     1      -3.378 -19.873   6.186  1.00  0.00     0.049 A 
ATOM     55  H   UNL     1      -1.800 -18.500   5.906  1.00  0.00     0.167 HD
ATOM     56  C   UNL     1      -3.272 -18.628   8.327  1.00  0.00     0.074 A 
ATOM     57  C   UNL     1      -3.724 -18.338   9.672  1.00  0.00     0.031 C 
ATOM     58  C   UNL     1      -3.816 -19.579   7.528  1.00  0.00     0.031 A 
BRANCH  45  59
ATOM     59  C   UNL     1      -1.228 -19.957   1.926  1.00  0.00    -0.014 A 
ATOM     60  C   UNL     1      -0.178 -20.788   1.495  1.00  0.00     0.010 A 
ATOM     61  C   UNL     1      -2.334 -19.760   1.078  1.00  0.00     0.010 A 
ATOM     62  C   UNL     1      -0.216 -21.379   0.228  1.00  0.00     0.020 A 
ATOM     63  C   UNL     1      -2.391 -20.375  -0.176  1.00  0.00     0.020 A 
ATOM     64  C   UNL     1      -1.323 -21.168  -0.599  1.00  0.00     0.054 A 
BRANCH  64  65
ATOM     65  S   UNL     1      -1.358 -21.972  -2.224  1.00  0.00     0.124 S 
ATOM     66  O   UNL     1      -0.339 -21.221  -2.954  1.00  0.00    -0.237 OA
ATOM     67  O   UNL     1      -1.010 -23.354  -1.904  1.00  0.00    -0.237 OA
ATOM     68  O   UNL     1      -2.729 -21.767  -2.685  1.00  0.00    -0.744 OA
ENDBRANCH  64  65
ENDBRANCH  45  59
BRANCH  46  69
ATOM     69  C   UNL     1      -1.044 -15.267  10.756  1.00  0.00    -0.014 A 
ATOM     70  C   UNL     1      -0.717 -15.959  11.936  1.00  0.00     0.010 A 
ATOM     71  C   UNL     1      -1.372 -13.901  10.837  1.00  0.00     0.010 A 
ATOM     72  C   UNL     1      -0.746 -15.307  13.173  1.00  0.00     0.020 A 
ATOM     73  C   UNL     1      -1.370 -13.238  12.067  1.00  0.00     0.020 A 
ATOM     74  C   UNL     1      -1.072 -13.950  13.230  1.00  0.00     0.054 A 
BRANCH  74  75
ATOM     75  S   UNL     1      -1.069 -13.117  14.842  1.00  0.00     0.124 S 
ATOM     76  O   UNL     1      -2.257 -13.678  15.476  1.00  0.00    -0.237 OA
ATOM     77  O   UNL     1       0.210 -13.536  15.410  1.00  0.00    -0.237 OA
ATOM     78  O   UNL     1      -1.154 -11.700  14.495  1.00  0.00    -0.744 OA
ENDBRANCH  74  75
ENDBRANCH  46  69
BRANCH  58  79
ATOM     79  C   UNL     1      -4.929 -20.417   8.100  1.00  0.00    -0.014 A 
ATOM     80  C   UNL     1      -6.206 -19.880   8.343  1.00  0.00     0.010 A 
ATOM     81  C   UNL     1      -4.704 -21.785   8.347  1.00  0.00     0.010 A 
ATOM     82  C   UNL     1      -7.225 -20.688   8.855  1.00  0.00     0.020 A 
ATOM     83  C   UNL     1      -5.730 -22.602   8.826  1.00  0.00     0.020 A 
ATOM     84  C   UNL     1      -6.981 -22.044   9.092  1.00  0.00     0.054 A 
BRANCH  84  85
ATOM     85  S   UNL     1      -8.333 -23.079   9.717  1.00  0.00     0.124 S 
ATOM     86  O   UNL     1      -8.457 -22.617  11.096  1.00  0.00    -0.237 OA
ATOM     87  O   UNL     1      -9.441 -22.724   8.833  1.00  0.00    -0.237 OA
ATOM     88  O   UNL     1      -7.830 -24.441   9.559  1.00  0.00    -0.744 OA
ENDBRANCH  84  85
ENDBRANCH  58  79
ENDBRANCH  32  33
ENDBRANCH  24  27
ENDBRANCH  22  23
ENDBRANCH  21  22
ENDBRANCH   1  21
TORSDOF 18
