REMARK SMILES [NH3+][C@@]1(C(=O)NCCCCCCNC(=O)c2ccc(-c3c4nc(c(-c5ccc(S(=O)(=O)[O-])cc5)c5ccc([nH]5)c(-c5ccc(S(=O)(=O)[O-])cc5)c5nc(c(-c6ccc(S(=O)(=O)[O-])cc6)c6ccc3[nH]6)C=C5)C=C4)cc2)CCC[C@@H](Oc2ccccc2[N+](=O)[O-])C1
REMARK SMILES IDX 8 1 7 2 6 3 5 4 3 5 4 6 2 8 75 9 89 10 76 11 78 12 77 13
REMARK SMILES IDX 1 14 79 18 80 19 81 20 85 21 82 22 84 23 83 24 86 25 87 26
REMARK SMILES IDX 88 27 9 28 10 29 11 30 12 31 13 32 14 34 15 35 16 36 74 37
REMARK SMILES IDX 17 38 73 39 18 40 19 41 20 42 67 43 21 44 72 45 66 46 68 47
REMARK SMILES IDX 22 48 71 49 65 50 64 51 23 53 53 54 34 55 52 56 35 57 38 58
REMARK SMILES IDX 51 59 69 60 36 61 37 62 50 64 70 65 39 66 24 67 25 68 33 69
REMARK SMILES IDX 26 70 32 71 27 72 28 73 29 74 30 75 31 76 54 77 55 78 63 79
REMARK SMILES IDX 56 80 62 81 57 82 58 83 59 84 60 85 61 86 40 87 41 88 49 89
REMARK SMILES IDX 42 90 48 91 43 92 44 93 45 94 46 95 47 96
REMARK H PARENT 5 7 1 15 1 16 1 17 12 33 68 52 38 63
REMARK Flexibility Score: inf
ROOT
ATOM      1  C   UNL     1      -5.777  -1.474  -2.364  1.00  0.00     0.002 C 
ENDROOT
BRANCH   1   2
ATOM      2  C   UNL     1      -4.263  -1.403  -2.121  1.00  0.00     0.021 C 
BRANCH   2   3
ATOM      3  C   UNL     1      -3.809  -0.109  -1.432  1.00  0.00     0.116 C 
BRANCH   3   4
ATOM      4  N   UNL     1      -3.544  -0.301  -0.017  1.00  0.00    -0.351 N 
ATOM      5  C   UNL     1      -2.404  -0.576   0.681  1.00  0.00     0.281 C 
ATOM      6  O   UNL     1      -2.535  -0.663   1.909  1.00  0.00    -0.268 OA
ATOM      7  H   UNL     1      -4.344  -0.215   0.550  1.00  0.00     0.163 HD
BRANCH   5   8
ATOM      8  C   UNL     1      -0.978  -0.652   0.021  1.00  0.00     0.177 C 
ATOM      9  C   UNL     1      -0.056  -1.495   0.933  1.00  0.00     0.079 C 
ATOM     10  C   UNL     1      -0.420   0.789  -0.045  1.00  0.00     0.124 C 
ATOM     11  C   UNL     1       1.400  -1.513   0.469  1.00  0.00     0.011 C 
ATOM     12  C   UNL     1       1.099   0.956  -0.261  1.00  0.00     0.180 C 
ATOM     13  C   UNL     1       1.998  -0.114   0.378  1.00  0.00     0.046 C 
BRANCH   8  14
ATOM     14  N   UNL     1      -1.057  -1.346  -1.277  1.00  0.00    -0.345 N 
ATOM     15  H   UNL     1      -0.128  -1.390  -1.696  1.00  0.00     0.345 HD
ATOM     16  H   UNL     1      -1.686  -0.836  -1.898  1.00  0.00     0.345 HD
ATOM     17  H   UNL     1      -1.411  -2.292  -1.137  1.00  0.00     0.345 HD
ENDBRANCH   8  14
BRANCH  12  18
ATOM     18  O   UNL     1       1.532   1.370  -1.575  1.00  0.00    -0.483 OA
BRANCH  18  19
ATOM     19  C   UNL     1       1.114   0.636  -2.639  1.00  0.00     0.197 A 
ATOM     20  C   UNL     1       1.814  -0.524  -2.972  1.00  0.00     0.054 A 
ATOM     21  C   UNL     1       0.060   1.047  -3.464  1.00  0.00     0.310 A 
ATOM     22  C   UNL     1       1.375  -1.334  -4.023  1.00  0.00     0.004 A 
ATOM     23  C   UNL     1      -0.403   0.229  -4.505  1.00  0.00     0.090 A 
ATOM     24  C   UNL     1       0.251  -0.974  -4.768  1.00  0.00     0.007 A 
BRANCH  21  25
ATOM     25  N   UNL     1      -0.626   2.308  -3.230  1.00  0.00     0.066 N 
ATOM     26  O   UNL     1      -1.867   2.276  -3.243  1.00  0.00    -0.258 OA
ATOM     27  O   UNL     1       0.057   3.321  -3.035  1.00  0.00    -0.258 OA
ENDBRANCH  21  25
ENDBRANCH  18  19
ENDBRANCH  12  18
ENDBRANCH   5   8
ENDBRANCH   3   4
ENDBRANCH   2   3
ENDBRANCH   1   2
BRANCH   1  28
ATOM     28  C   UNL     1      -6.333  -0.414  -3.324  1.00  0.00     0.002 C 
BRANCH  28  29
ATOM     29  C   UNL     1      -5.794  -0.464  -4.757  1.00  0.00     0.021 C 
BRANCH  29  30
ATOM     30  C   UNL     1      -6.055  -1.765  -5.516  1.00  0.00     0.116 C 
BRANCH  30  31
ATOM     31  N   UNL     1      -7.465  -2.123  -5.531  1.00  0.00    -0.352 N 
ATOM     32  C   UNL     1      -8.312  -2.388  -6.572  1.00  0.00     0.251 C 
ATOM     33  H   UNL     1      -7.880  -2.185  -4.641  1.00  0.00     0.163 HD
ATOM     34  O   UNL     1      -9.523  -2.471  -6.345  1.00  0.00    -0.269 OA
BRANCH  32  35
ATOM     35  C   UNL     1      -7.816  -2.573  -7.953  1.00  0.00     0.039 A 
ATOM     36  C   UNL     1      -8.596  -2.091  -9.009  1.00  0.00     0.014 A 
ATOM     37  C   UNL     1      -6.638  -3.275  -8.228  1.00  0.00     0.014 A 
ATOM     38  C   UNL     1      -8.178  -2.275 -10.328  1.00  0.00     0.010 A 
ATOM     39  C   UNL     1      -6.188  -3.401  -9.544  1.00  0.00     0.010 A 
ATOM     40  C   UNL     1      -6.957  -2.910 -10.608  1.00  0.00    -0.014 A 
BRANCH  40  41
ATOM     41  C   UNL     1      -6.487  -3.042 -12.012  1.00  0.00     0.031 A 
ATOM     42  C   UNL     1      -6.363  -4.393 -12.665  1.00  0.00     0.074 A 
ATOM     43  C   UNL     1      -6.157  -1.930 -12.699  1.00  0.00     0.049 A 
ATOM     44  N   UNL     1      -6.027  -4.683 -13.897  1.00  0.00    -0.248 NA
ATOM     45  C   UNL     1      -6.629  -5.571 -11.824  1.00  0.00     0.031 C 
ATOM     46  C   UNL     1      -6.181  -0.567 -12.161  1.00  0.00     0.029 A 
ATOM     47  N   UNL     1      -5.748  -1.766 -13.998  1.00  0.00    -0.354 N 
ATOM     48  C   UNL     1      -6.037  -6.071 -13.978  1.00  0.00     0.074 A 
ATOM     49  C   UNL     1      -6.361  -6.566 -12.658  1.00  0.00     0.031 C 
ATOM     50  C   UNL     1      -5.848   0.295 -13.134  1.00  0.00     0.029 A 
ATOM     51  C   UNL     1      -5.558  -0.451 -14.353  1.00  0.00     0.049 A 
ATOM     52  H   UNL     1      -5.605  -2.518 -14.617  1.00  0.00     0.167 HD
ATOM     53  C   UNL     1      -5.818  -6.861 -15.058  1.00  0.00     0.031 A 
ATOM     54  C   UNL     1      -5.202   0.096 -15.531  1.00  0.00     0.031 A 
ATOM     55  C   UNL     1      -5.500  -6.365 -16.372  1.00  0.00     0.049 A 
ATOM     56  C   UNL     1      -4.979  -0.800 -16.717  1.00  0.00     0.074 A 
ATOM     57  C   UNL     1      -5.316  -7.081 -17.542  1.00  0.00     0.029 A 
ATOM     58  N   UNL     1      -5.314  -5.028 -16.690  1.00  0.00    -0.354 N 
ATOM     59  N   UNL     1      -5.071  -2.107 -16.791  1.00  0.00    -0.248 NA
ATOM     60  C   UNL     1      -4.622  -0.144 -17.982  1.00  0.00     0.031 C 
ATOM     61  C   UNL     1      -4.969  -6.181 -18.557  1.00  0.00     0.029 A 
ATOM     62  C   UNL     1      -4.992  -4.900 -18.032  1.00  0.00     0.049 A 
ATOM     63  H   UNL     1      -5.398  -4.280 -16.056  1.00  0.00     0.167 HD
ATOM     64  C   UNL     1      -4.798  -2.429 -18.116  1.00  0.00     0.074 A 
ATOM     65  C   UNL     1      -4.566  -1.178 -18.810  1.00  0.00     0.031 C 
ATOM     66  C   UNL     1      -4.741  -3.650 -18.704  1.00  0.00     0.031 A 
BRANCH  53  67
ATOM     67  C   UNL     1      -5.912  -8.353 -14.860  1.00  0.00    -0.014 A 
ATOM     68  C   UNL     1      -7.150  -8.977 -14.618  1.00  0.00     0.010 A 
ATOM     69  C   UNL     1      -4.755  -9.148 -14.956  1.00  0.00     0.010 A 
ATOM     70  C   UNL     1      -7.223 -10.361 -14.434  1.00  0.00     0.020 A 
ATOM     71  C   UNL     1      -4.828 -10.536 -14.800  1.00  0.00     0.020 A 
ATOM     72  C   UNL     1      -6.060 -11.131 -14.522  1.00  0.00     0.054 A 
BRANCH  72  73
ATOM     73  S   UNL     1      -6.186 -12.927 -14.297  1.00  0.00     0.124 S 
ATOM     74  O   UNL     1      -6.402 -13.034 -12.856  1.00  0.00    -0.237 OA
ATOM     75  O   UNL     1      -7.333 -13.275 -15.131  1.00  0.00    -0.237 OA
ATOM     76  O   UNL     1      -4.899 -13.428 -14.772  1.00  0.00    -0.744 OA
ENDBRANCH  72  73
ENDBRANCH  53  67
BRANCH  54  77
ATOM     77  C   UNL     1      -5.066   1.573 -15.650  1.00  0.00    -0.014 A 
ATOM     78  C   UNL     1      -6.009   2.322 -16.376  1.00  0.00     0.010 A 
ATOM     79  C   UNL     1      -4.002   2.241 -15.018  1.00  0.00     0.010 A 
ATOM     80  C   UNL     1      -5.881   3.709 -16.483  1.00  0.00     0.020 A 
ATOM     81  C   UNL     1      -3.885   3.631 -15.100  1.00  0.00     0.020 A 
ATOM     82  C   UNL     1      -4.820   4.356 -15.842  1.00  0.00     0.054 A 
BRANCH  82  83
ATOM     83  S   UNL     1      -4.703   6.163 -15.947  1.00  0.00     0.124 S 
ATOM     84  O   UNL     1      -4.220   6.357 -17.310  1.00  0.00    -0.237 OA
ATOM     85  O   UNL     1      -6.079   6.585 -15.695  1.00  0.00    -0.237 OA
ATOM     86  O   UNL     1      -3.753   6.504 -14.890  1.00  0.00    -0.744 OA
ENDBRANCH  82  83
ENDBRANCH  54  77
BRANCH  66  87
ATOM     87  C   UNL     1      -4.422  -3.683 -20.175  1.00  0.00    -0.014 A 
ATOM     88  C   UNL     1      -3.134  -3.372 -20.646  1.00  0.00     0.010 A 
ATOM     89  C   UNL     1      -5.422  -4.042 -21.098  1.00  0.00     0.010 A 
ATOM     90  C   UNL     1      -2.865  -3.366 -22.017  1.00  0.00     0.020 A 
ATOM     91  C   UNL     1      -5.149  -4.066 -22.468  1.00  0.00     0.020 A 
ATOM     92  C   UNL     1      -3.877  -3.706 -22.920  1.00  0.00     0.054 A 
BRANCH  92  93
ATOM     93  S   UNL     1      -3.504  -3.698 -24.695  1.00  0.00     0.124 S 
ATOM     94  O   UNL     1      -3.493  -2.269 -24.995  1.00  0.00    -0.237 OA
ATOM     95  O   UNL     1      -2.204  -4.362 -24.754  1.00  0.00    -0.237 OA
ATOM     96  O   UNL     1      -4.609  -4.452 -25.284  1.00  0.00    -0.744 OA
ENDBRANCH  92  93
ENDBRANCH  66  87
ENDBRANCH  40  41
ENDBRANCH  32  35
ENDBRANCH  30  31
ENDBRANCH  29  30
ENDBRANCH  28  29
ENDBRANCH   1  28
TORSDOF 20
