REMARK SMILES C[N@@H+]1CCN(C(=O)c2ccc3[nH]c4c(c3c2)CSCC4)C[C@H]1C(=O)NCCCCCCNC(=O)c1ccc(-c2c3nc(c(-c4ccc(S(=O)(=O)[O-])cc4)c4ccc([nH]4)c(-c4ccc(S(=O)(=O)[O-])cc4)c4nc(c(-c5ccc(S(=O)(=O)[O-])cc5)c5ccc2[nH]5)C=C4)C=C3)cc1
REMARK SMILES IDX 29 1 28 2 27 3 26 4 25 5 23 6 24 7 22 9 1 10 2 11 3 12 4 14
REMARK SMILES IDX 21 15 5 16 6 17 7 18 8 19 9 20 16 21 10 22 15 23 11 24 14 25
REMARK SMILES IDX 12 26 13 27 17 28 20 30 18 31 19 32 30 33 31 34 32 35 33 36
REMARK SMILES IDX 34 38 35 39 36 40 94 41 37 42 93 43 38 44 39 45 40 46 87 47
REMARK SMILES IDX 41 48 92 49 86 50 88 51 42 52 91 53 85 54 84 55 43 57 73 58
REMARK SMILES IDX 54 59 72 60 55 61 58 62 71 63 89 64 56 65 57 66 70 68 90 69
REMARK SMILES IDX 59 70 44 71 45 72 53 73 46 74 52 75 47 76 48 77 49 78 50 79
REMARK SMILES IDX 51 80 74 81 75 82 83 83 76 84 82 85 77 86 78 87 79 88 80 89
REMARK SMILES IDX 81 90 60 91 61 92 69 93 62 94 68 95 63 96 64 97 65 98 66 99
REMARK SMILES IDX 67 100
REMARK H PARENT 25 8 2 13 12 29 32 37 88 56 58 67
REMARK Flexibility Score: inf
ROOT
ATOM      1  C   UNL     1       1.349  -3.259  -5.369  1.00  0.00     0.002 C 
ENDROOT
BRANCH   1   2
ATOM      2  C   UNL     1       2.367  -2.566  -4.456  1.00  0.00     0.002 C 
BRANCH   2   3
ATOM      3  C   UNL     1       1.818  -1.391  -3.643  1.00  0.00     0.021 C 
BRANCH   3   4
ATOM      4  C   UNL     1       0.639  -1.750  -2.746  1.00  0.00     0.116 C 
BRANCH   4   5
ATOM      5  N   UNL     1       1.038  -2.644  -1.674  1.00  0.00    -0.351 N 
ATOM      6  C   UNL     1       1.006  -2.445  -0.325  1.00  0.00     0.280 C 
ATOM      7  O   UNL     1       1.481  -3.318   0.407  1.00  0.00    -0.268 OA
ATOM      8  H   UNL     1       1.382  -3.521  -1.962  1.00  0.00     0.163 HD
BRANCH   6   9
ATOM      9  C   UNL     1       0.362  -1.188   0.276  1.00  0.00     0.293 C 
ATOM     10  C   UNL     1       2.425   0.126   0.190  1.00  0.00     0.333 C 
ATOM     11  N   UNL     1       1.014   0.073  -0.198  1.00  0.00    -0.324 N 
ATOM     12  C   UNL     1       0.286   1.235   0.359  1.00  0.00     0.284 C 
ATOM     13  H   UNL     1       0.975   0.095  -1.217  1.00  0.00     0.348 HD
ATOM     14  C   UNL     1      -1.222   1.209   0.046  1.00  0.00     0.181 C 
ATOM     15  C   UNL     1      -1.155  -1.248  -0.004  1.00  0.00     0.195 C 
ATOM     16  N   UNL     1      -1.850  -0.044   0.464  1.00  0.00    -0.326 N 
BRANCH  16  17
ATOM     17  C   UNL     1      -3.153  -0.008   0.959  1.00  0.00     0.254 C 
ATOM     18  O   UNL     1      -3.775   1.028   1.147  1.00  0.00    -0.269 OA
BRANCH  17  19
ATOM     19  C   UNL     1      -3.834  -1.290   1.255  1.00  0.00     0.040 A 
ATOM     20  C   UNL     1      -3.299  -2.184   2.187  1.00  0.00     0.016 A 
ATOM     21  C   UNL     1      -5.033  -1.571   0.586  1.00  0.00     0.024 A 
ATOM     22  C   UNL     1      -3.901  -3.424   2.412  1.00  0.00     0.027 A 
ATOM     23  C   UNL     1      -5.674  -2.803   0.826  1.00  0.00     0.004 A 
ATOM     24  C   UNL     1      -5.083  -3.704   1.715  1.00  0.00     0.046 A 
ATOM     25  C   UNL     1      -6.884  -3.400   0.351  1.00  0.00    -0.009 A 
ATOM     26  N   UNL     1      -5.874  -4.831   1.735  1.00  0.00    -0.358 N 
ATOM     27  C   UNL     1      -6.981  -4.636   0.960  1.00  0.00     0.021 A 
ATOM     28  C   UNL     1      -7.880  -2.798  -0.588  1.00  0.00     0.107 C 
ATOM     29  H   UNL     1      -5.672  -5.655   2.235  1.00  0.00     0.166 HD
ATOM     30  C   UNL     1      -8.085  -5.622   0.816  1.00  0.00     0.065 C 
ATOM     31  S   UNL     1      -9.324  -3.852  -0.969  1.00  0.00    -0.157 SA
ATOM     32  C   UNL     1      -9.401  -4.896   0.528  1.00  0.00     0.076 C 
ENDBRANCH  17  19
ENDBRANCH  16  17
ENDBRANCH   6   9
ENDBRANCH   4   5
ENDBRANCH   3   4
ENDBRANCH   2   3
ENDBRANCH   1   2
BRANCH   1  33
ATOM     33  C   UNL     1       0.613  -2.343  -6.353  1.00  0.00     0.021 C 
BRANCH  33  34
ATOM     34  C   UNL     1       1.521  -1.523  -7.268  1.00  0.00     0.116 C 
BRANCH  34  35
ATOM     35  N   UNL     1       2.433  -2.318  -8.065  1.00  0.00    -0.352 N 
ATOM     36  C   UNL     1       2.357  -2.945  -9.277  1.00  0.00     0.251 C 
ATOM     37  H   UNL     1       3.310  -2.433  -7.633  1.00  0.00     0.163 HD
ATOM     38  O   UNL     1       3.421  -3.388  -9.719  1.00  0.00    -0.269 OA
BRANCH  36  39
ATOM     39  C   UNL     1       1.103  -3.192 -10.044  1.00  0.00     0.039 A 
ATOM     40  C   UNL     1      -0.159  -2.691  -9.730  1.00  0.00     0.014 A 
ATOM     41  C   UNL     1       1.219  -4.067 -11.144  1.00  0.00     0.014 A 
ATOM     42  C   UNL     1      -1.284  -3.142 -10.418  1.00  0.00     0.010 A 
ATOM     43  C   UNL     1       0.101  -4.506 -11.847  1.00  0.00     0.010 A 
ATOM     44  C   UNL     1      -1.159  -4.078 -11.452  1.00  0.00    -0.014 A 
BRANCH  44  45
ATOM     45  C   UNL     1      -2.368  -4.450 -12.185  1.00  0.00     0.031 A 
ATOM     46  C   UNL     1      -3.046  -3.302 -12.845  1.00  0.00     0.074 A 
ATOM     47  C   UNL     1      -2.839  -5.705 -12.340  1.00  0.00     0.049 A 
ATOM     48  N   UNL     1      -4.191  -2.792 -12.537  1.00  0.00    -0.248 NA
ATOM     49  C   UNL     1      -2.305  -2.542 -13.863  1.00  0.00     0.031 C 
ATOM     50  C   UNL     1      -2.192  -6.970 -11.990  1.00  0.00     0.029 A 
ATOM     51  N   UNL     1      -3.994  -6.114 -12.943  1.00  0.00    -0.354 N 
ATOM     52  C   UNL     1      -4.414  -1.761 -13.443  1.00  0.00     0.074 A 
ATOM     53  C   UNL     1      -3.165  -1.558 -14.133  1.00  0.00     0.031 C 
ATOM     54  C   UNL     1      -2.846  -7.990 -12.596  1.00  0.00     0.029 A 
ATOM     55  C   UNL     1      -4.036  -7.471 -13.251  1.00  0.00     0.049 A 
ATOM     56  H   UNL     1      -4.737  -5.499 -13.143  1.00  0.00     0.167 HD
ATOM     57  C   UNL     1      -5.668  -1.284 -13.684  1.00  0.00     0.031 A 
ATOM     58  C   UNL     1      -4.953  -8.105 -14.030  1.00  0.00     0.031 A 
ATOM     59  C   UNL     1      -6.594  -1.692 -12.660  1.00  0.00     0.049 A 
ATOM     60  C   UNL     1      -6.171  -7.259 -14.055  1.00  0.00     0.074 A 
ATOM     61  C   UNL     1      -6.662  -1.506 -11.293  1.00  0.00     0.029 A 
ATOM     62  N   UNL     1      -7.436  -2.740 -12.946  1.00  0.00    -0.354 N 
ATOM     63  N   UNL     1      -6.939  -7.075 -13.019  1.00  0.00    -0.248 NA
ATOM     64  C   UNL     1      -6.291  -6.269 -15.113  1.00  0.00     0.031 C 
ATOM     65  C   UNL     1      -7.135  -2.747 -10.782  1.00  0.00     0.029 A 
ATOM     66  C   UNL     1      -7.418  -3.582 -11.865  1.00  0.00     0.049 A 
ATOM     67  H   UNL     1      -7.956  -2.863 -13.773  1.00  0.00     0.167 HD
ATOM     68  C   UNL     1      -7.287  -5.735 -13.082  1.00  0.00     0.074 A 
ATOM     69  C   UNL     1      -6.932  -5.312 -14.437  1.00  0.00     0.031 C 
ATOM     70  C   UNL     1      -7.566  -5.019 -11.953  1.00  0.00     0.031 A 
BRANCH  57  71
ATOM     71  C   UNL     1      -6.130  -0.745 -15.014  1.00  0.00    -0.014 A 
ATOM     72  C   UNL     1      -5.383  -0.864 -16.202  1.00  0.00     0.010 A 
ATOM     73  C   UNL     1      -7.470  -0.320 -15.146  1.00  0.00     0.010 A 
ATOM     74  C   UNL     1      -5.932  -0.578 -17.454  1.00  0.00     0.020 A 
ATOM     75  C   UNL     1      -8.045  -0.074 -16.400  1.00  0.00     0.020 A 
ATOM     76  C   UNL     1      -7.265  -0.198 -17.546  1.00  0.00     0.054 A 
BRANCH  76  77
ATOM     77  S   UNL     1      -7.963   0.081 -19.191  1.00  0.00     0.124 S 
ATOM     78  O   UNL     1      -7.248   1.281 -19.617  1.00  0.00    -0.237 OA
ATOM     79  O   UNL     1      -7.607  -1.148 -19.893  1.00  0.00    -0.237 OA
ATOM     80  O   UNL     1      -9.389   0.261 -18.933  1.00  0.00    -0.744 OA
ENDBRANCH  76  77
ENDBRANCH  57  71
BRANCH  58  81
ATOM     81  C   UNL     1      -4.708  -9.136 -15.079  1.00  0.00    -0.014 A 
ATOM     82  C   UNL     1      -3.423  -9.290 -15.632  1.00  0.00     0.010 A 
ATOM     83  C   UNL     1      -5.793  -9.715 -15.774  1.00  0.00     0.010 A 
ATOM     84  C   UNL     1      -3.238  -9.884 -16.885  1.00  0.00     0.020 A 
ATOM     85  C   UNL     1      -5.615 -10.309 -17.036  1.00  0.00     0.020 A 
ATOM     86  C   UNL     1      -4.341 -10.342 -17.603  1.00  0.00     0.054 A 
BRANCH  86  87
ATOM     87  S   UNL     1      -4.087 -10.859 -19.326  1.00  0.00     0.124 S 
ATOM     88  O   UNL     1      -3.733  -9.597 -19.970  1.00  0.00    -0.237 OA
ATOM     89  O   UNL     1      -2.999 -11.828 -19.210  1.00  0.00    -0.237 OA
ATOM     90  O   UNL     1      -5.378 -11.420 -19.717  1.00  0.00    -0.744 OA
ENDBRANCH  86  87
ENDBRANCH  58  81
BRANCH  70  91
ATOM     91  C   UNL     1      -7.794  -5.738 -10.640  1.00  0.00    -0.014 A 
ATOM     92  C   UNL     1      -8.901  -5.322  -9.876  1.00  0.00     0.010 A 
ATOM     93  C   UNL     1      -6.875  -6.630 -10.053  1.00  0.00     0.010 A 
ATOM     94  C   UNL     1      -9.066  -5.739  -8.556  1.00  0.00     0.020 A 
ATOM     95  C   UNL     1      -7.054  -7.082  -8.735  1.00  0.00     0.020 A 
ATOM     96  C   UNL     1      -8.136  -6.609  -7.988  1.00  0.00     0.054 A 
BRANCH  96  97
ATOM     97  S   UNL     1      -8.363  -7.078  -6.251  1.00  0.00     0.124 S 
ATOM     98  O   UNL     1      -8.028  -5.838  -5.554  1.00  0.00    -0.237 OA
ATOM     99  O   UNL     1      -9.772  -7.463  -6.204  1.00  0.00    -0.237 OA
ATOM    100  O   UNL     1      -7.418  -8.175  -6.053  1.00  0.00    -0.744 OA
ENDBRANCH  96  97
ENDBRANCH  70  91
ENDBRANCH  44  45
ENDBRANCH  36  39
ENDBRANCH  34  35
ENDBRANCH  33  34
ENDBRANCH   1  33
TORSDOF 18
