REMARK SMILES O=C(Cn1cccc1C(=O)N1CC[N@H+]2CCC[C@@H]2C1)NCCCCCCNC(=O)c1ccc(-c2c3nc(c(-c4ccc(S(=O)(=O)[O-])cc4)c4ccc([nH]4)c(-c4ccc(S(=O)(=O)[O-])cc4)c4nc(c(-c5ccc(S(=O)(=O)[O-])cc5)c5ccc2[nH]5)C=C4)C=C3)cc1
REMARK SMILES IDX 23 1 22 2 21 3 20 4 1 5 2 6 3 8 4 9 5 10 8 11 6 12 7 13 9 14
REMARK SMILES IDX 10 15 11 16 12 17 19 18 13 19 18 20 14 21 17 22 15 23 16 25
REMARK SMILES IDX 24 26 25 27 26 28 27 29 28 30 29 32 30 33 31 34 89 35 32 36
REMARK SMILES IDX 88 37 33 38 34 39 35 40 82 41 36 42 87 43 81 44 83 45 37 46
REMARK SMILES IDX 86 47 80 48 79 49 38 51 68 52 49 53 67 54 50 55 53 56 66 57
REMARK SMILES IDX 84 58 51 59 52 60 65 62 85 63 54 64 39 65 40 66 48 67 41 68
REMARK SMILES IDX 47 69 42 70 43 71 44 72 45 73 46 74 69 75 70 76 78 77 71 78
REMARK SMILES IDX 77 79 72 80 73 81 74 82 75 83 76 84 55 85 56 86 64 87 57 88
REMARK SMILES IDX 63 89 58 90 59 91 60 92 61 93 62 94
REMARK H PARENT 20 7 14 24 27 31 83 50 53 61
REMARK Flexibility Score: inf
ROOT
ATOM      1  C   UNL     1       3.671  -3.279   2.487  1.00  0.00     0.002 C 
ENDROOT
BRANCH   1   2
ATOM      2  C   UNL     1       2.181  -3.065   2.156  1.00  0.00     0.021 C 
BRANCH   2   3
ATOM      3  C   UNL     1       1.645  -1.646   2.429  1.00  0.00     0.116 C 
BRANCH   3   4
ATOM      4  N   UNL     1       2.262  -0.590   1.626  1.00  0.00    -0.355 N 
ATOM      5  O   UNL     1       0.540  -0.390   0.145  1.00  0.00    -0.273 OA
ATOM      6  C   UNL     1       1.662  -0.033   0.513  1.00  0.00     0.239 C 
ATOM      7  H   UNL     1       3.150  -0.260   1.892  1.00  0.00     0.163 HD
BRANCH   6   8
ATOM      8  C   UNL     1       2.420   1.006  -0.316  1.00  0.00     0.222 C 
BRANCH   8   9
ATOM      9  N   UNL     1       3.626   1.586   0.268  1.00  0.00    -0.334 N 
ATOM     10  C   UNL     1       3.670   2.886   0.725  1.00  0.00     0.087 A 
ATOM     11  C   UNL     1       4.857   0.980   0.476  1.00  0.00     0.107 A 
ATOM     12  C   UNL     1       4.842   3.058   1.419  1.00  0.00     0.020 A 
ATOM     13  C   UNL     1       5.567   1.853   1.296  1.00  0.00     0.033 A 
BRANCH  11  14
ATOM     14  C   UNL     1       5.301  -0.350   0.071  1.00  0.00     0.270 C 
ATOM     15  O   UNL     1       6.135  -0.987   0.711  1.00  0.00    -0.267 OA
BRANCH  14  16
ATOM     16  N   UNL     1       4.637  -0.909  -1.002  1.00  0.00    -0.326 N 
ATOM     17  C   UNL     1       5.107  -0.745  -2.383  1.00  0.00     0.181 C 
ATOM     18  C   UNL     1       3.812  -2.078  -0.753  1.00  0.00     0.185 C 
ATOM     19  C   UNL     1       5.407  -2.088  -3.134  1.00  0.00     0.284 C 
ATOM     20  C   UNL     1       4.406  -3.334  -1.343  1.00  0.00     0.204 C 
ATOM     21  N   UNL     1       4.455  -3.147  -2.792  1.00  0.00    -0.330 N 
ATOM     22  C   UNL     1       3.543  -4.572  -1.221  1.00  0.00     0.073 C 
ATOM     23  C   UNL     1       4.664  -4.471  -3.372  1.00  0.00     0.262 C 
ATOM     24  H   UNL     1       3.590  -2.793  -3.203  1.00  0.00     0.348 HD
ATOM     25  C   UNL     1       4.118  -5.451  -2.321  1.00  0.00     0.068 C 
ENDBRANCH  14  16
ENDBRANCH  11  14
ENDBRANCH   8   9
ENDBRANCH   6   8
ENDBRANCH   3   4
ENDBRANCH   2   3
ENDBRANCH   1   2
BRANCH   1  26
ATOM     26  C   UNL     1       3.988  -3.903   3.845  1.00  0.00     0.002 C 
BRANCH  26  27
ATOM     27  C   UNL     1       3.473  -5.332   4.071  1.00  0.00     0.021 C 
BRANCH  27  28
ATOM     28  C   UNL     1       3.964  -6.389   3.074  1.00  0.00     0.116 C 
BRANCH  28  29
ATOM     29  N   UNL     1       5.388  -6.647   3.207  1.00  0.00    -0.352 N 
ATOM     30  C   UNL     1       6.097  -7.767   2.836  1.00  0.00     0.251 C 
ATOM     31  H   UNL     1       5.916  -5.924   3.617  1.00  0.00     0.163 HD
ATOM     32  O   UNL     1       7.211  -7.962   3.299  1.00  0.00    -0.269 OA
BRANCH  30  33
ATOM     33  C   UNL     1       5.523  -8.736   1.876  1.00  0.00     0.039 A 
ATOM     34  C   UNL     1       5.667 -10.105   2.134  1.00  0.00     0.014 A 
ATOM     35  C   UNL     1       4.937  -8.301   0.681  1.00  0.00     0.014 A 
ATOM     36  C   UNL     1       5.172 -11.035   1.222  1.00  0.00     0.010 A 
ATOM     37  C   UNL     1       4.443  -9.229  -0.233  1.00  0.00     0.010 A 
ATOM     38  C   UNL     1       4.544 -10.596   0.047  1.00  0.00    -0.014 A 
BRANCH  38  39
ATOM     39  C   UNL     1       3.829 -11.586  -0.796  1.00  0.00     0.031 A 
ATOM     40  C   UNL     1       2.435 -11.915  -0.207  1.00  0.00     0.074 A 
ATOM     41  C   UNL     1       4.499 -12.079  -1.886  1.00  0.00     0.049 A 
ATOM     42  N   UNL     1       1.734 -13.002  -0.294  1.00  0.00    -0.248 NA
ATOM     43  C   UNL     1       1.754 -10.927   0.681  1.00  0.00     0.031 C 
ATOM     44  C   UNL     1       5.837 -11.619  -2.336  1.00  0.00     0.029 A 
ATOM     45  N   UNL     1       4.226 -13.047  -2.834  1.00  0.00    -0.354 N 
ATOM     46  C   UNL     1       0.502 -12.794   0.377  1.00  0.00     0.074 A 
ATOM     47  C   UNL     1       0.609 -11.524   1.026  1.00  0.00     0.031 C 
ATOM     48  C   UNL     1       6.281 -12.350  -3.384  1.00  0.00     0.029 A 
ATOM     49  C   UNL     1       5.289 -13.348  -3.734  1.00  0.00     0.049 A 
ATOM     50  H   UNL     1       3.353 -13.500  -2.884  1.00  0.00     0.167 HD
ATOM     51  C   UNL     1      -0.564 -13.645   0.264  1.00  0.00     0.031 A 
ATOM     52  C   UNL     1       5.386 -14.361  -4.655  1.00  0.00     0.031 A 
ATOM     53  C   UNL     1      -0.200 -14.755  -0.546  1.00  0.00     0.049 A 
ATOM     54  C   UNL     1       4.078 -15.032  -4.630  1.00  0.00     0.074 A 
ATOM     55  C   UNL     1       0.624 -15.828  -0.328  1.00  0.00     0.029 A 
ATOM     56  N   UNL     1      -0.420 -14.610  -1.894  1.00  0.00    -0.354 N 
ATOM     57  N   UNL     1       2.979 -14.555  -5.126  1.00  0.00    -0.248 NA
ATOM     58  C   UNL     1       3.973 -16.323  -3.936  1.00  0.00     0.031 C 
ATOM     59  C   UNL     1       1.296 -15.954  -1.560  1.00  0.00     0.029 A 
ATOM     60  C   UNL     1       0.675 -15.144  -2.519  1.00  0.00     0.049 A 
ATOM     61  H   UNL     1      -1.207 -14.204  -2.324  1.00  0.00     0.167 HD
ATOM     62  C   UNL     1       2.026 -15.286  -4.465  1.00  0.00     0.074 A 
ATOM     63  C   UNL     1       2.662 -16.515  -4.040  1.00  0.00     0.031 C 
ATOM     64  C   UNL     1       1.018 -14.643  -3.825  1.00  0.00     0.031 A 
BRANCH  51  65
ATOM     65  C   UNL     1      -2.028 -13.525   0.606  1.00  0.00    -0.014 A 
ATOM     66  C   UNL     1      -2.795 -14.723   0.560  1.00  0.00     0.010 A 
ATOM     67  C   UNL     1      -2.731 -12.314   0.614  1.00  0.00     0.010 A 
ATOM     68  C   UNL     1      -4.178 -14.714   0.375  1.00  0.00     0.020 A 
ATOM     69  C   UNL     1      -4.133 -12.298   0.468  1.00  0.00     0.020 A 
ATOM     70  C   UNL     1      -4.837 -13.495   0.295  1.00  0.00     0.054 A 
BRANCH  70  71
ATOM     71  S   UNL     1      -6.607 -13.510  -0.110  1.00  0.00     0.124 S 
ATOM     72  O   UNL     1      -6.603 -13.960  -1.499  1.00  0.00    -0.237 OA
ATOM     73  O   UNL     1      -7.143 -14.469   0.855  1.00  0.00    -0.237 OA
ATOM     74  O   UNL     1      -7.020 -12.126   0.104  1.00  0.00    -0.744 OA
ENDBRANCH  70  71
ENDBRANCH  51  65
BRANCH  52  75
ATOM     75  C   UNL     1       6.431 -15.040  -5.524  1.00  0.00    -0.014 A 
ATOM     76  C   UNL     1       7.767 -14.659  -5.687  1.00  0.00     0.010 A 
ATOM     77  C   UNL     1       6.077 -16.282  -6.136  1.00  0.00     0.010 A 
ATOM     78  C   UNL     1       8.715 -15.545  -6.266  1.00  0.00     0.020 A 
ATOM     79  C   UNL     1       7.005 -17.189  -6.652  1.00  0.00     0.020 A 
ATOM     80  C   UNL     1       8.338 -16.828  -6.684  1.00  0.00     0.054 A 
BRANCH  80  81
ATOM     81  S   UNL     1       9.579 -18.084  -7.118  1.00  0.00     0.124 S 
ATOM     82  O   UNL     1       9.865 -17.777  -8.515  1.00  0.00    -0.237 OA
ATOM     83  O   UNL     1      10.660 -17.807  -6.175  1.00  0.00    -0.237 OA
ATOM     84  O   UNL     1       8.881 -19.349  -6.887  1.00  0.00    -0.744 OA
ENDBRANCH  80  81
ENDBRANCH  52  75
BRANCH  64  85
ATOM     85  C   UNL     1       0.635 -13.283  -4.384  1.00  0.00    -0.014 A 
ATOM     86  C   UNL     1       0.160 -13.207  -5.706  1.00  0.00     0.010 A 
ATOM     87  C   UNL     1       0.775 -12.070  -3.675  1.00  0.00     0.010 A 
ATOM     88  C   UNL     1      -0.180 -11.982  -6.296  1.00  0.00     0.020 A 
ATOM     89  C   UNL     1       0.437 -10.833  -4.260  1.00  0.00     0.020 A 
ATOM     90  C   UNL     1      -0.048 -10.799  -5.569  1.00  0.00     0.054 A 
BRANCH  90  91
ATOM     91  S   UNL     1      -0.534  -9.237  -6.363  1.00  0.00     0.124 S 
ATOM     92  O   UNL     1       0.330  -9.190  -7.540  1.00  0.00    -0.237 OA
ATOM     93  O   UNL     1      -1.952  -9.453  -6.640  1.00  0.00    -0.237 OA
ATOM     94  O   UNL     1      -0.248  -8.223  -5.349  1.00  0.00    -0.744 OA
ENDBRANCH  90  91
ENDBRANCH  64  85
ENDBRANCH  38  39
ENDBRANCH  30  33
ENDBRANCH  28  29
ENDBRANCH  27  28
ENDBRANCH  26  27
ENDBRANCH   1  26
TORSDOF 19
