REMARK SMILES Cc1ccc([C@@H](C)[NH2+][C@@H](C)CCC(=O)NCCCCCCNC(=O)c2ccc(-c3c4nc(c(-c5ccc(S(=O)(=O)[O-])cc5)c5ccc([nH]5)c(-c5ccc(S(=O)(=O)[O-])cc5)c5nc(c(-c6ccc(S(=O)(=O)[O-])cc6)c6ccc3[nH]6)C=C5)C=C4)cc2)cc1F
REMARK SMILES IDX 17 1 16 2 15 3 13 4 14 5 12 7 11 8 9 9 10 10 8 11 6 14 7 15
REMARK SMILES IDX 5 16 1 17 2 18 3 19 86 20 4 21 85 22 87 23 18 24 19 25 20 26
REMARK SMILES IDX 21 27 22 28 23 29 24 31 25 32 26 33 84 34 27 35 83 36 28 37
REMARK SMILES IDX 29 38 30 39 77 40 31 41 82 42 76 43 78 44 32 45 81 46 75 47
REMARK SMILES IDX 74 48 33 50 63 51 44 52 62 53 45 54 48 55 61 56 79 57 46 58
REMARK SMILES IDX 47 59 60 61 80 62 49 63 34 64 35 65 43 66 36 67 42 68 37 69
REMARK SMILES IDX 38 70 39 71 40 72 41 73 64 74 65 75 73 76 66 77 72 78 67 79
REMARK SMILES IDX 68 80 69 81 70 82 71 83 50 84 51 85 59 86 52 87 58 88 53 89
REMARK SMILES IDX 54 90 55 91 56 92 57 93
REMARK H PARENT 15 6 8 12 8 13 22 30 78 49 48 60
REMARK Flexibility Score: inf
ROOT
ATOM      1  C   UNL     1      -6.292  -1.495   0.851  1.00  0.00     0.021 C 
ENDROOT
BRANCH   1   2
ATOM      2  C   UNL     1      -5.527  -1.143   2.133  1.00  0.00     0.116 C 
BRANCH   2   3
ATOM      3  N   UNL     1      -5.977  -1.970   3.236  1.00  0.00    -0.356 N 
ATOM      4  C   UNL     1      -5.330  -2.959   3.910  1.00  0.00     0.220 C 
ATOM      5  O   UNL     1      -5.959  -3.586   4.765  1.00  0.00    -0.275 OA
ATOM      6  H   UNL     1      -6.894  -1.788   3.546  1.00  0.00     0.163 HD
BRANCH   4   7
ATOM      7  C   UNL     1      -3.879  -3.284   3.616  1.00  0.00     0.106 C 
BRANCH   7   8
ATOM      8  C   UNL     1      -3.724  -4.456   2.642  1.00  0.00     0.074 C 
BRANCH   8   9
ATOM      9  C   UNL     1      -3.622  -4.063   1.151  1.00  0.00     0.180 C 
ATOM     10  C   UNL     1      -3.591  -5.343   0.307  1.00  0.00     0.075 C 
BRANCH   9  11
ATOM     11  N   UNL     1      -2.421  -3.242   0.957  1.00  0.00    -0.338 N 
ATOM     12  H   UNL     1      -2.228  -2.761   1.835  1.00  0.00     0.347 HD
ATOM     13  H   UNL     1      -1.693  -3.893   0.662  1.00  0.00     0.347 HD
BRANCH  11  14
ATOM     14  C   UNL     1      -2.486  -2.227  -0.102  1.00  0.00     0.210 C 
ATOM     15  C   UNL     1      -2.471  -2.790  -1.526  1.00  0.00     0.081 C 
BRANCH  14  16
ATOM     16  C   UNL     1      -1.365  -1.205   0.052  1.00  0.00     0.012 A 
ATOM     17  C   UNL     1       1.767   1.786   0.075  1.00  0.00     0.047 C 
ATOM     18  C   UNL     1       0.676   0.759   0.104  1.00  0.00    -0.015 A 
ATOM     19  C   UNL     1      -0.667   1.133   0.192  1.00  0.00     0.007 A 
ATOM     20  C   UNL     1       0.984  -0.600   0.030  1.00  0.00     0.126 A 
ATOM     21  C   UNL     1      -1.673   0.162   0.173  1.00  0.00     0.010 A 
ATOM     22  C   UNL     1      -0.013  -1.574  -0.001  1.00  0.00     0.049 A 
ATOM     23  F   UNL     1       2.265  -0.991  -0.032  1.00  0.00    -0.207 F 
ENDBRANCH  14  16
ENDBRANCH  11  14
ENDBRANCH   9  11
ENDBRANCH   8   9
ENDBRANCH   7   8
ENDBRANCH   4   7
ENDBRANCH   2   3
ENDBRANCH   1   2
BRANCH   1  24
ATOM     24  C   UNL     1      -7.303  -0.436   0.412  1.00  0.00     0.002 C 
BRANCH  24  25
ATOM     25  C   UNL     1      -6.699   0.911  -0.002  1.00  0.00     0.002 C 
BRANCH  25  26
ATOM     26  C   UNL     1      -5.626   0.860  -1.095  1.00  0.00     0.021 C 
BRANCH  26  27
ATOM     27  C   UNL     1      -6.044   0.196  -2.406  1.00  0.00     0.116 C 
BRANCH  27  28
ATOM     28  N   UNL     1      -7.171   0.871  -3.025  1.00  0.00    -0.352 N 
ATOM     29  C   UNL     1      -7.250   1.575  -4.198  1.00  0.00     0.251 C 
ATOM     30  H   UNL     1      -8.014   0.814  -2.520  1.00  0.00     0.163 HD
ATOM     31  O   UNL     1      -8.253   2.258  -4.420  1.00  0.00    -0.269 OA
BRANCH  29  32
ATOM     32  C   UNL     1      -6.157   1.537  -5.195  1.00  0.00     0.039 A 
ATOM     33  C   UNL     1      -5.806   2.721  -5.853  1.00  0.00     0.014 A 
ATOM     34  C   UNL     1      -5.520   0.340  -5.538  1.00  0.00     0.014 A 
ATOM     35  C   UNL     1      -4.791   2.715  -6.814  1.00  0.00     0.010 A 
ATOM     36  C   UNL     1      -4.466   0.346  -6.454  1.00  0.00     0.010 A 
ATOM     37  C   UNL     1      -4.095   1.531  -7.107  1.00  0.00    -0.014 A 
BRANCH  37  38
ATOM     38  C   UNL     1      -2.981   1.518  -8.092  1.00  0.00     0.031 A 
ATOM     39  C   UNL     1      -3.105   0.734  -9.373  1.00  0.00     0.074 A 
ATOM     40  C   UNL     1      -1.829   2.157  -7.805  1.00  0.00     0.049 A 
ATOM     41  N   UNL     1      -2.215   0.548 -10.314  1.00  0.00    -0.248 NA
ATOM     42  C   UNL     1      -4.386   0.052  -9.617  1.00  0.00     0.031 C 
ATOM     43  C   UNL     1      -1.562   2.913  -6.579  1.00  0.00     0.029 A 
ATOM     44  N   UNL     1      -0.660   2.261  -8.518  1.00  0.00    -0.354 N 
ATOM     45  C   UNL     1      -2.815  -0.292 -11.245  1.00  0.00     0.074 A 
ATOM     46  C   UNL     1      -4.136  -0.604 -10.742  1.00  0.00     0.031 C 
ATOM     47  C   UNL     1      -0.313   3.407  -6.629  1.00  0.00     0.029 A 
ATOM     48  C   UNL     1       0.320   2.978  -7.872  1.00  0.00     0.049 A 
ATOM     49  H   UNL     1      -0.535   1.859  -9.408  1.00  0.00     0.167 HD
ATOM     50  C   UNL     1      -2.317  -0.753 -12.417  1.00  0.00     0.031 A 
ATOM     51  C   UNL     1       1.590   3.250  -8.230  1.00  0.00     0.031 A 
ATOM     52  C   UNL     1      -1.017  -0.417 -12.934  1.00  0.00     0.049 A 
ATOM     53  C   UNL     1       2.107   2.750  -9.552  1.00  0.00     0.074 A 
ATOM     54  C   UNL     1      -0.459  -0.771 -14.151  1.00  0.00     0.029 A 
ATOM     55  N   UNL     1      -0.073   0.349 -12.269  1.00  0.00    -0.354 N 
ATOM     56  N   UNL     1       1.493   2.023 -10.453  1.00  0.00    -0.248 NA
ATOM     57  C   UNL     1       3.485   3.120  -9.910  1.00  0.00     0.031 C 
ATOM     58  C   UNL     1       0.840  -0.255 -14.203  1.00  0.00     0.029 A 
ATOM     59  C   UNL     1       1.072   0.461 -13.040  1.00  0.00     0.049 A 
ATOM     60  H   UNL     1      -0.198   0.754 -11.380  1.00  0.00     0.167 HD
ATOM     61  C   UNL     1       2.401   1.868 -11.495  1.00  0.00     0.074 A 
ATOM     62  C   UNL     1       3.599   2.590 -11.120  1.00  0.00     0.031 C 
ATOM     63  C   UNL     1       2.254   1.188 -12.658  1.00  0.00     0.031 A 
BRANCH  50  64
ATOM     64  C   UNL     1      -3.179  -1.680 -13.233  1.00  0.00    -0.014 A 
ATOM     65  C   UNL     1      -4.299  -1.201 -13.936  1.00  0.00     0.010 A 
ATOM     66  C   UNL     1      -2.818  -3.034 -13.360  1.00  0.00     0.010 A 
ATOM     67  C   UNL     1      -5.057  -2.066 -14.730  1.00  0.00     0.020 A 
ATOM     68  C   UNL     1      -3.561  -3.897 -14.171  1.00  0.00     0.020 A 
ATOM     69  C   UNL     1      -4.684  -3.409 -14.842  1.00  0.00     0.054 A 
BRANCH  69  70
ATOM     70  S   UNL     1      -5.659  -4.497 -15.917  1.00  0.00     0.124 S 
ATOM     71  O   UNL     1      -6.865  -4.705 -15.118  1.00  0.00    -0.237 OA
ATOM     72  O   UNL     1      -5.835  -3.688 -17.120  1.00  0.00    -0.237 OA
ATOM     73  O   UNL     1      -4.810  -5.675 -16.080  1.00  0.00    -0.744 OA
ENDBRANCH  69  70
ENDBRANCH  50  64
BRANCH  51  74
ATOM     74  C   UNL     1       2.468   4.035  -7.321  1.00  0.00    -0.014 A 
ATOM     75  C   UNL     1       2.835   5.354  -7.641  1.00  0.00     0.010 A 
ATOM     76  C   UNL     1       2.947   3.461  -6.129  1.00  0.00     0.010 A 
ATOM     77  C   UNL     1       3.687   6.076  -6.799  1.00  0.00     0.020 A 
ATOM     78  C   UNL     1       3.776   4.188  -5.272  1.00  0.00     0.020 A 
ATOM     79  C   UNL     1       4.154   5.487  -5.620  1.00  0.00     0.054 A 
BRANCH  79  80
ATOM     80  S   UNL     1       5.226   6.451  -4.519  1.00  0.00     0.124 S 
ATOM     81  O   UNL     1       6.513   6.367  -5.200  1.00  0.00    -0.237 OA
ATOM     82  O   UNL     1       4.589   7.766  -4.526  1.00  0.00    -0.237 OA
ATOM     83  O   UNL     1       5.138   5.735  -3.248  1.00  0.00    -0.744 OA
ENDBRANCH  79  80
ENDBRANCH  51  74
BRANCH  63  84
ATOM     84  C   UNL     1       3.404   1.217 -13.628  1.00  0.00    -0.014 A 
ATOM     85  C   UNL     1       4.574   0.474 -13.392  1.00  0.00     0.010 A 
ATOM     86  C   UNL     1       3.287   1.954 -14.821  1.00  0.00     0.010 A 
ATOM     87  C   UNL     1       5.620   0.492 -14.319  1.00  0.00     0.020 A 
ATOM     88  C   UNL     1       4.320   1.954 -15.761  1.00  0.00     0.020 A 
ATOM     89  C   UNL     1       5.486   1.234 -15.497  1.00  0.00     0.054 A 
BRANCH  89  90
ATOM     90  S   UNL     1       6.838   1.205 -16.707  1.00  0.00     0.124 S 
ATOM     91  O   UNL     1       7.818   2.093 -16.088  1.00  0.00    -0.237 OA
ATOM     92  O   UNL     1       7.206  -0.208 -16.746  1.00  0.00    -0.237 OA
ATOM     93  O   UNL     1       6.218   1.715 -17.928  1.00  0.00    -0.744 OA
ENDBRANCH  89  90
ENDBRANCH  63  84
ENDBRANCH  37  38
ENDBRANCH  29  32
ENDBRANCH  27  28
ENDBRANCH  26  27
ENDBRANCH  25  26
ENDBRANCH  24  25
ENDBRANCH   1  24
TORSDOF 21
