REMARK SMILES O=C(NCCCCCCNC(=O)c1cc(Cl)c2c(c1)[C@H]1C=CC[C@H]1[C@H](c1ccc(S(=O)(=O)N3CCOCC3)cc1)N2)c1ccc(-c2c3nc(c(-c4ccc(S(=O)(=O)[O-])cc4)c4ccc([nH]4)c(-c4ccc(S(=O)(=O)[O-])cc4)c4nc(c(-c5ccc(S(=O)(=O)[O-])cc5)c5ccc2[nH]5)C=C4)C=C3)cc1
REMARK SMILES IDX 6 1 5 2 4 3 3 4 1 5 2 6 42 8 43 9 101 10 44 11 100 12 45 13
REMARK SMILES IDX 46 14 47 15 94 16 48 17 99 18 93 19 95 20 49 21 98 22 92 23
REMARK SMILES IDX 91 24 50 26 80 27 61 28 79 29 62 30 65 31 78 32 96 33 63 34
REMARK SMILES IDX 64 35 77 37 97 38 66 39 51 40 52 41 60 42 53 43 59 44 54 45
REMARK SMILES IDX 55 46 56 47 57 48 58 49 81 50 82 51 90 52 83 53 89 54 84 55
REMARK SMILES IDX 85 56 86 57 87 58 88 59 67 60 68 61 76 62 69 63 75 64 70 65
REMARK SMILES IDX 71 66 72 67 73 68 74 69 7 70 8 71 9 72 10 73 11 74 12 76
REMARK SMILES IDX 13 77 14 78 19 79 15 80 18 81 16 82 17 83 20 84 41 85 21 86
REMARK SMILES IDX 24 87 25 88 22 90 23 91 26 92 27 93 40 94 28 95 39 96 29 97
REMARK SMILES IDX 30 98 31 99 32 100 33 101 34 102 38 103 35 104 37 105 36 106
REMARK H PARENT 3 7 95 25 65 36 10 75 41 89
REMARK Flexibility Score: inf
ROOT
ATOM      1  C   UNL     1       4.199   3.710  -0.485  1.00  0.00     0.002 C 
ENDROOT
BRANCH   1   2
ATOM      2  C   UNL     1       4.715   2.354  -0.976  1.00  0.00     0.021 C 
BRANCH   2   3
ATOM      3  C   UNL     1       4.443   1.185  -0.034  1.00  0.00     0.116 C 
BRANCH   3   4
ATOM      4  N   UNL     1       3.021   0.985   0.186  1.00  0.00    -0.352 N 
ATOM      5  O   UNL     1       1.044  -0.086   0.023  1.00  0.00    -0.269 OA
ATOM      6  C   UNL     1       2.268  -0.143  -0.019  1.00  0.00     0.251 C 
ATOM      7  H   UNL     1       2.530   1.767   0.528  1.00  0.00     0.163 HD
BRANCH   6   8
ATOM      8  C   UNL     1       2.945  -1.424  -0.303  1.00  0.00     0.039 A 
ATOM      9  C   UNL     1       3.982  -1.876   0.519  1.00  0.00     0.014 A 
ATOM     10  C   UNL     1       2.520  -2.188  -1.394  1.00  0.00     0.014 A 
ATOM     11  C   UNL     1       4.653  -3.052   0.200  1.00  0.00     0.010 A 
ATOM     12  C   UNL     1       3.167  -3.389  -1.688  1.00  0.00     0.010 A 
ATOM     13  C   UNL     1       4.249  -3.819  -0.905  1.00  0.00    -0.014 A 
BRANCH  13  14
ATOM     14  C   UNL     1       4.933  -5.099  -1.198  1.00  0.00     0.031 A 
ATOM     15  C   UNL     1       5.862  -5.226  -2.369  1.00  0.00     0.074 A 
ATOM     16  C   UNL     1       4.730  -6.146  -0.376  1.00  0.00     0.049 A 
ATOM     17  N   UNL     1       6.566  -6.261  -2.747  1.00  0.00    -0.248 NA
ATOM     18  C   UNL     1       6.025  -4.040  -3.223  1.00  0.00     0.031 C 
ATOM     19  C   UNL     1       3.861  -6.132   0.803  1.00  0.00     0.029 A 
ATOM     20  N   UNL     1       5.250  -7.414  -0.396  1.00  0.00    -0.354 N 
ATOM     21  C   UNL     1       7.262  -5.854  -3.877  1.00  0.00     0.074 A 
ATOM     22  C   UNL     1       6.871  -4.485  -4.144  1.00  0.00     0.031 C 
ATOM     23  C   UNL     1       3.937  -7.324   1.414  1.00  0.00     0.029 A 
ATOM     24  C   UNL     1       4.824  -8.196   0.649  1.00  0.00     0.049 A 
ATOM     25  H   UNL     1       5.869  -7.733  -1.093  1.00  0.00     0.167 HD
ATOM     26  C   UNL     1       8.152  -6.555  -4.619  1.00  0.00     0.031 A 
ATOM     27  C   UNL     1       5.110  -9.475   0.960  1.00  0.00     0.031 A 
ATOM     28  C   UNL     1       8.521  -7.922  -4.365  1.00  0.00     0.049 A 
ATOM     29  C   UNL     1       6.048 -10.253   0.087  1.00  0.00     0.074 A 
ATOM     30  C   UNL     1       9.413  -8.716  -5.065  1.00  0.00     0.029 A 
ATOM     31  N   UNL     1       8.016  -8.701  -3.335  1.00  0.00    -0.354 N 
ATOM     32  N   UNL     1       6.694  -9.852  -0.981  1.00  0.00    -0.248 NA
ATOM     33  C   UNL     1       6.294 -11.653   0.456  1.00  0.00     0.031 C 
ATOM     34  C   UNL     1       9.417  -9.987  -4.481  1.00  0.00     0.029 A 
ATOM     35  C   UNL     1       8.563  -9.971  -3.390  1.00  0.00     0.049 A 
ATOM     36  H   UNL     1       7.364  -8.395  -2.663  1.00  0.00     0.167 HD
ATOM     37  C   UNL     1       7.435 -10.946  -1.407  1.00  0.00     0.074 A 
ATOM     38  C   UNL     1       7.161 -12.026  -0.479  1.00  0.00     0.031 C 
ATOM     39  C   UNL     1       8.271 -11.041  -2.469  1.00  0.00     0.031 A 
BRANCH  26  40
ATOM     40  C   UNL     1       8.782  -5.853  -5.790  1.00  0.00    -0.014 A 
ATOM     41  C   UNL     1       9.788  -4.889  -5.594  1.00  0.00     0.010 A 
ATOM     42  C   UNL     1       8.399  -6.189  -7.101  1.00  0.00     0.010 A 
ATOM     43  C   UNL     1      10.377  -4.252  -6.688  1.00  0.00     0.020 A 
ATOM     44  C   UNL     1       9.000  -5.567  -8.199  1.00  0.00     0.020 A 
ATOM     45  C   UNL     1       9.979  -4.594  -7.984  1.00  0.00     0.054 A 
BRANCH  45  46
ATOM     46  S   UNL     1      10.763  -3.744  -9.381  1.00  0.00     0.124 S 
ATOM     47  O   UNL     1      10.361  -2.357  -9.155  1.00  0.00    -0.237 OA
ATOM     48  O   UNL     1      12.179  -4.030  -9.169  1.00  0.00    -0.237 OA
ATOM     49  O   UNL     1      10.167  -4.378 -10.555  1.00  0.00    -0.744 OA
ENDBRANCH  45  46
ENDBRANCH  26  40
BRANCH  27  50
ATOM     50  C   UNL     1       4.501 -10.065   2.178  1.00  0.00    -0.014 A 
ATOM     51  C   UNL     1       5.251 -10.172   3.361  1.00  0.00     0.010 A 
ATOM     52  C   UNL     1       3.137 -10.410   2.192  1.00  0.00     0.010 A 
ATOM     53  C   UNL     1       4.640 -10.589   4.546  1.00  0.00     0.020 A 
ATOM     54  C   UNL     1       2.519 -10.811   3.379  1.00  0.00     0.020 A 
ATOM     55  C   UNL     1       3.274 -10.888   4.551  1.00  0.00     0.054 A 
BRANCH  55  56
ATOM     56  S   UNL     1       2.488 -11.316   6.130  1.00  0.00     0.124 S 
ATOM     57  O   UNL     1       3.198 -12.535   6.507  1.00  0.00    -0.237 OA
ATOM     58  O   UNL     1       2.775 -10.139   6.945  1.00  0.00    -0.237 OA
ATOM     59  O   UNL     1       1.081 -11.496   5.777  1.00  0.00    -0.744 OA
ENDBRANCH  55  56
ENDBRANCH  27  50
BRANCH  39  60
ATOM     60  C   UNL     1       8.966 -12.354  -2.695  1.00  0.00    -0.014 A 
ATOM     61  C   UNL     1       8.291 -13.433  -3.291  1.00  0.00     0.010 A 
ATOM     62  C   UNL     1      10.336 -12.474  -2.401  1.00  0.00     0.010 A 
ATOM     63  C   UNL     1       8.978 -14.613  -3.589  1.00  0.00     0.020 A 
ATOM     64  C   UNL     1      11.029 -13.646  -2.712  1.00  0.00     0.020 A 
ATOM     65  C   UNL     1      10.345 -14.709  -3.306  1.00  0.00     0.054 A 
BRANCH  65  66
ATOM     66  S   UNL     1      11.219 -16.231  -3.762  1.00  0.00     0.124 S 
ATOM     67  O   UNL     1      10.547 -17.231  -2.938  1.00  0.00    -0.237 OA
ATOM     68  O   UNL     1      10.962 -16.322  -5.197  1.00  0.00    -0.237 OA
ATOM     69  O   UNL     1      12.608 -15.958  -3.397  1.00  0.00    -0.744 OA
ENDBRANCH  65  66
ENDBRANCH  39  60
ENDBRANCH  13  14
ENDBRANCH   6   8
ENDBRANCH   3   4
ENDBRANCH   2   3
ENDBRANCH   1   2
BRANCH   1  70
ATOM     70  C   UNL     1       4.697   4.136   0.899  1.00  0.00     0.002 C 
BRANCH  70  71
ATOM     71  C   UNL     1       6.218   4.168   1.063  1.00  0.00     0.021 C 
BRANCH  71  72
ATOM     72  C   UNL     1       6.957   5.008   0.026  1.00  0.00     0.116 C 
BRANCH  72  73
ATOM     73  N   UNL     1       6.556   6.406   0.066  1.00  0.00    -0.352 N 
ATOM     74  C   UNL     1       7.355   7.518   0.123  1.00  0.00     0.251 C 
ATOM     75  H   UNL     1       5.586   6.575   0.048  1.00  0.00     0.163 HD
ATOM     76  O   UNL     1       6.885   8.636   0.298  1.00  0.00    -0.269 OA
BRANCH  74  77
ATOM     77  C   UNL     1       8.811   7.340   0.010  1.00  0.00     0.041 A 
ATOM     78  C   UNL     1       9.364   6.728  -1.113  1.00  0.00     0.036 A 
ATOM     79  C   UNL     1       9.618   7.771   1.059  1.00  0.00     0.020 A 
ATOM     80  C   UNL     1      10.729   6.465  -1.132  1.00  0.00     0.065 A 
ATOM     81  C   UNL     1      10.998   7.527   1.027  1.00  0.00    -0.015 A 
ATOM     82  Cl  UNL     1      11.382   5.648  -2.511  1.00  0.00    -0.082 Cl
ATOM     83  C   UNL     1      11.559   6.821  -0.049  1.00  0.00     0.057 A 
ATOM     84  C   UNL     1      11.858   8.063   2.134  1.00  0.00     0.049 C 
ATOM     85  N   UNL     1      12.921   6.553  -0.080  1.00  0.00    -0.376 N 
ATOM     86  C   UNL     1      11.720   7.353   3.456  1.00  0.00    -0.023 C 
ATOM     87  C   UNL     1      13.379   7.977   1.882  1.00  0.00     0.031 C 
ATOM     88  C   UNL     1      13.723   6.666   1.127  1.00  0.00     0.114 C 
ATOM     89  H   UNL     1      13.346   6.285  -0.927  1.00  0.00     0.161 HD
ATOM     90  C   UNL     1      12.882   7.360   4.120  1.00  0.00    -0.030 C 
ATOM     91  C   UNL     1      13.938   8.055   3.319  1.00  0.00     0.034 C 
BRANCH  88  92
ATOM     92  C   UNL     1      15.198   6.575   0.755  1.00  0.00    -0.025 A 
ATOM     93  C   UNL     1      15.713   6.950  -0.502  1.00  0.00     0.007 A 
ATOM     94  C   UNL     1      16.093   6.107   1.719  1.00  0.00     0.007 A 
ATOM     95  C   UNL     1      17.088   6.883  -0.769  1.00  0.00     0.022 A 
ATOM     96  C   UNL     1      17.458   6.089   1.471  1.00  0.00     0.022 A 
ATOM     97  C   UNL     1      17.963   6.469   0.235  1.00  0.00     0.082 A 
BRANCH  97  98
ATOM     98  S   UNL     1      19.715   6.459  -0.077  1.00  0.00     0.243 S 
ATOM     99  O   UNL     1      19.991   5.262  -0.838  1.00  0.00    -0.207 OA
ATOM    100  O   UNL     1      20.047   7.778  -0.577  1.00  0.00    -0.207 OA
BRANCH  98 101
ATOM    101  N   UNL     1      20.430   6.296   1.433  1.00  0.00    -0.193 NA
ATOM    102  C   UNL     1      20.705   4.976   2.040  1.00  0.00     0.131 C 
ATOM    103  C   UNL     1      20.764   7.462   2.268  1.00  0.00     0.131 C 
ATOM    104  C   UNL     1      20.263   4.916   3.513  1.00  0.00     0.177 C 
ATOM    105  C   UNL     1      20.204   7.282   3.679  1.00  0.00     0.177 C 
ATOM    106  O   UNL     1      20.673   6.062   4.270  1.00  0.00    -0.379 OA
ENDBRANCH  98 101
ENDBRANCH  97  98
ENDBRANCH  88  92
ENDBRANCH  74  77
ENDBRANCH  72  73
ENDBRANCH  71  72
ENDBRANCH  70  71
ENDBRANCH   1  70
TORSDOF 19
