REMARK SMILES O=C(CNC(=O)[C@@H](CC1=c2ccccc2=NC1)N1C(=O)N=C2C=CC=C[C@H]2C1=O)NCCCCCCNC(=O)c1ccc(-c2c3nc(c(-c4ccc(S(=O)(=O)[O-])cc4)c4ccc([nH]4)c(-c4ccc(S(=O)(=O)[O-])cc4)c4nc(c(-c5ccc(S(=O)(=O)[O-])cc5)c5ccc2[nH]5)C=C4)C=C3)cc1
REMARK SMILES IDX 33 1 32 2 31 3 30 4 1 5 2 6 3 8 4 9 5 10 6 12 7 13 8 14 9 15
REMARK SMILES IDX 10 16 17 17 11 18 15 19 16 20 12 21 14 22 13 23 18 24 19 25
REMARK SMILES IDX 28 26 21 27 20 28 27 29 29 30 22 31 26 32 23 33 25 34 24 35
REMARK SMILES IDX 34 36 35 37 36 38 37 39 38 40 39 42 40 43 41 44 99 45 42 46
REMARK SMILES IDX 98 47 43 48 44 49 45 50 92 51 46 52 97 53 91 54 93 55 47 56
REMARK SMILES IDX 96 57 90 58 89 59 48 61 78 62 59 63 77 64 60 65 63 66 76 67
REMARK SMILES IDX 94 68 61 69 62 70 75 72 95 73 64 74 49 75 50 76 58 77 51 78
REMARK SMILES IDX 57 79 52 80 53 81 54 82 55 83 56 84 79 85 80 86 88 87 81 88
REMARK SMILES IDX 87 89 82 90 83 91 84 92 85 93 86 94 65 95 66 96 74 97 67 98
REMARK SMILES IDX 73 99 68 100 69 101 70 102 71 103 72 104
REMARK H PARENT 30 7 4 11 37 41 93 60 63 71
REMARK Flexibility Score: inf
ROOT
ATOM      1  C   UNL     1       4.139   3.488   0.873  1.00  0.00     0.002 C 
ENDROOT
BRANCH   1   2
ATOM      2  C   UNL     1       2.645   3.206   0.678  1.00  0.00     0.021 C 
BRANCH   2   3
ATOM      3  C   UNL     1       2.294   2.442  -0.600  1.00  0.00     0.116 C 
BRANCH   3   4
ATOM      4  N   UNL     1       2.955   1.145  -0.722  1.00  0.00    -0.355 N 
ATOM      5  O   UNL     1       1.027  -0.003  -1.171  1.00  0.00    -0.273 OA
ATOM      6  C   UNL     1       2.250   0.005  -1.031  1.00  0.00     0.239 C 
ATOM      7  H   UNL     1       3.927   1.086  -0.579  1.00  0.00     0.163 HD
BRANCH   6   8
ATOM      8  C   UNL     1       3.041  -1.311  -1.158  1.00  0.00     0.216 C 
BRANCH   8   9
ATOM      9  N   UNL     1       4.505  -1.344  -1.125  1.00  0.00    -0.345 N 
ATOM     10  C   UNL     1       5.160  -2.337  -0.395  1.00  0.00     0.244 C 
ATOM     11  H   UNL     1       5.026  -0.668  -1.617  1.00  0.00     0.164 HD
ATOM     12  O   UNL     1       5.504  -3.366  -0.975  1.00  0.00    -0.273 OA
BRANCH  10  13
ATOM     13  C   UNL     1       5.740  -1.912   0.977  1.00  0.00     0.188 C 
BRANCH  13  14
ATOM     14  C   UNL     1       5.022  -0.763   1.710  1.00  0.00     0.069 C 
BRANCH  14  15
ATOM     15  C   UNL     1       3.659  -0.841   2.334  1.00  0.00    -0.037 C 
ATOM     16  C   UNL     1       2.635  -1.695   2.318  1.00  0.00     0.001 A 
ATOM     17  C   UNL     1       3.285   0.378   3.141  1.00  0.00     0.174 C 
ATOM     18  C   UNL     1       2.347  -2.982   1.773  1.00  0.00     0.010 A 
ATOM     19  C   UNL     1       1.553  -0.907   2.951  1.00  0.00     0.065 A 
ATOM     20  N   UNL     1       1.853   0.254   3.442  1.00  0.00    -0.280 NA
ATOM     21  C   UNL     1       1.100  -3.474   1.826  1.00  0.00     0.001 A 
ATOM     22  C   UNL     1       0.193  -1.488   2.926  1.00  0.00     0.028 A 
ATOM     23  C   UNL     1       0.011  -2.704   2.388  1.00  0.00     0.002 A 
ENDBRANCH  14  15
ENDBRANCH  13  14
BRANCH  13  24
ATOM     24  N   UNL     1       6.305  -2.856   1.962  1.00  0.00    -0.249 N 
ATOM     25  C   UNL     1       7.536  -2.518   2.501  1.00  0.00     0.351 C 
ATOM     26  C   UNL     1       5.656  -3.972   2.428  1.00  0.00     0.244 C 
ATOM     27  N   UNL     1       7.623  -2.537   3.865  1.00  0.00    -0.197 NA
ATOM     28  O   UNL     1       8.458  -2.100   1.809  1.00  0.00    -0.246 OA
ATOM     29  C   UNL     1       6.080  -4.449   3.813  1.00  0.00     0.151 C 
ATOM     30  O   UNL     1       4.870  -4.633   1.752  1.00  0.00    -0.273 OA
ATOM     31  C   UNL     1       6.872  -3.363   4.517  1.00  0.00     0.062 C 
ATOM     32  C   UNL     1       4.892  -4.883   4.640  1.00  0.00    -0.007 C 
ATOM     33  C   UNL     1       6.778  -3.215   5.989  1.00  0.00     0.025 C 
ATOM     34  C   UNL     1       4.742  -4.550   5.930  1.00  0.00    -0.003 C 
ATOM     35  C   UNL     1       5.737  -3.768   6.620  1.00  0.00     0.002 C 
ENDBRANCH  13  24
ENDBRANCH  10  13
ENDBRANCH   8   9
ENDBRANCH   6   8
ENDBRANCH   3   4
ENDBRANCH   2   3
ENDBRANCH   1   2
BRANCH   1  36
ATOM     36  C   UNL     1       4.763   4.410  -0.179  1.00  0.00     0.002 C 
BRANCH  36  37
ATOM     37  C   UNL     1       4.139   5.801  -0.271  1.00  0.00     0.021 C 
BRANCH  37  38
ATOM     38  C   UNL     1       4.183   6.607   1.022  1.00  0.00     0.116 C 
BRANCH  38  39
ATOM     39  N   UNL     1       5.537   7.002   1.392  1.00  0.00    -0.352 N 
ATOM     40  C   UNL     1       6.032   8.266   1.625  1.00  0.00     0.251 C 
ATOM     41  H   UNL     1       6.184   6.266   1.489  1.00  0.00     0.163 HD
ATOM     42  O   UNL     1       7.235   8.449   1.772  1.00  0.00    -0.269 OA
BRANCH  40  43
ATOM     43  C   UNL     1       5.090   9.405   1.656  1.00  0.00     0.039 A 
ATOM     44  C   UNL     1       3.919   9.319   2.411  1.00  0.00     0.014 A 
ATOM     45  C   UNL     1       5.340  10.527   0.864  1.00  0.00     0.014 A 
ATOM     46  C   UNL     1       2.915  10.261   2.223  1.00  0.00     0.010 A 
ATOM     47  C   UNL     1       4.365  11.523   0.752  1.00  0.00     0.010 A 
ATOM     48  C   UNL     1       3.121  11.370   1.385  1.00  0.00    -0.014 A 
BRANCH  48  49
ATOM     49  C   UNL     1       2.018  12.348   1.183  1.00  0.00     0.031 A 
ATOM     50  C   UNL     1       1.398  12.545  -0.177  1.00  0.00     0.074 A 
ATOM     51  C   UNL     1       1.530  13.014   2.248  1.00  0.00     0.049 A 
ATOM     52  N   UNL     1       0.417  13.340  -0.522  1.00  0.00    -0.248 NA
ATOM     53  C   UNL     1       1.943  11.753  -1.293  1.00  0.00     0.031 C 
ATOM     54  C   UNL     1       2.029  12.882   3.619  1.00  0.00     0.029 A 
ATOM     55  N   UNL     1       0.491  13.904   2.358  1.00  0.00    -0.354 N 
ATOM     56  C   UNL     1       0.235  13.155  -1.889  1.00  0.00     0.074 A 
ATOM     57  C   UNL     1       1.230  12.198  -2.320  1.00  0.00     0.031 C 
ATOM     58  C   UNL     1       1.257  13.609   4.439  1.00  0.00     0.029 A 
ATOM     59  C   UNL     1       0.261  14.324   3.647  1.00  0.00     0.049 A 
ATOM     60  H   UNL     1      -0.039  14.213   1.588  1.00  0.00     0.167 HD
ATOM     61  C   UNL     1      -0.687  13.719  -2.703  1.00  0.00     0.031 A 
ATOM     62  C   UNL     1      -0.638  15.196   4.146  1.00  0.00     0.031 A 
ATOM     63  C   UNL     1      -1.685  14.660  -2.260  1.00  0.00     0.049 A 
ATOM     64  C   UNL     1      -1.612  15.854   3.213  1.00  0.00     0.074 A 
ATOM     65  C   UNL     1      -2.670  15.277  -3.013  1.00  0.00     0.029 A 
ATOM     66  N   UNL     1      -1.836  15.112  -0.958  1.00  0.00    -0.354 N 
ATOM     67  N   UNL     1      -1.764  15.667   1.923  1.00  0.00    -0.248 NA
ATOM     68  C   UNL     1      -2.535  16.838   3.793  1.00  0.00     0.031 C 
ATOM     69  C   UNL     1      -3.370  16.153  -2.182  1.00  0.00     0.029 A 
ATOM     70  C   UNL     1      -2.877  16.023  -0.893  1.00  0.00     0.049 A 
ATOM     71  H   UNL     1      -1.285  14.828  -0.194  1.00  0.00     0.167 HD
ATOM     72  C   UNL     1      -2.805  16.503   1.539  1.00  0.00     0.074 A 
ATOM     73  C   UNL     1      -3.262  17.179   2.736  1.00  0.00     0.031 C 
ATOM     74  C   UNL     1      -3.326  16.695   0.303  1.00  0.00     0.031 A 
BRANCH  61  75
ATOM     75  C   UNL     1      -0.685  13.347  -4.165  1.00  0.00    -0.014 A 
ATOM     76  C   UNL     1      -0.376  14.320  -5.135  1.00  0.00     0.010 A 
ATOM     77  C   UNL     1      -1.120  12.078  -4.589  1.00  0.00     0.010 A 
ATOM     78  C   UNL     1      -0.539  14.048  -6.496  1.00  0.00     0.020 A 
ATOM     79  C   UNL     1      -1.256  11.791  -5.952  1.00  0.00     0.020 A 
ATOM     80  C   UNL     1      -0.989  12.787  -6.895  1.00  0.00     0.054 A 
BRANCH  80  81
ATOM     81  S   UNL     1      -1.231  12.463  -8.664  1.00  0.00     0.124 S 
ATOM     82  O   UNL     1      -2.454  13.206  -8.950  1.00  0.00    -0.237 OA
ATOM     83  O   UNL     1      -0.009  13.003  -9.257  1.00  0.00    -0.237 OA
ATOM     84  O   UNL     1      -1.352  11.008  -8.731  1.00  0.00    -0.744 OA
ENDBRANCH  80  81
ENDBRANCH  61  75
BRANCH  62  85
ATOM     85  C   UNL     1      -0.642  15.468   5.611  1.00  0.00    -0.014 A 
ATOM     86  C   UNL     1       0.462  16.096   6.219  1.00  0.00     0.010 A 
ATOM     87  C   UNL     1      -1.696  15.008   6.420  1.00  0.00     0.010 A 
ATOM     88  C   UNL     1       0.549  16.191   7.610  1.00  0.00     0.020 A 
ATOM     89  C   UNL     1      -1.629  15.135   7.811  1.00  0.00     0.020 A 
ATOM     90  C   UNL     1      -0.491  15.694   8.398  1.00  0.00     0.054 A 
BRANCH  90  91
ATOM     91  S   UNL     1      -0.324  15.765  10.202  1.00  0.00     0.124 S 
ATOM     92  O   UNL     1       0.626  14.685  10.457  1.00  0.00    -0.237 OA
ATOM     93  O   UNL     1       0.185  17.116  10.423  1.00  0.00    -0.237 OA
ATOM     94  O   UNL     1      -1.683  15.528  10.681  1.00  0.00    -0.744 OA
ENDBRANCH  90  91
ENDBRANCH  62  85
BRANCH  74  95
ATOM     95  C   UNL     1      -4.455  17.681   0.150  1.00  0.00    -0.014 A 
ATOM     96  C   UNL     1      -5.733  17.225  -0.224  1.00  0.00     0.010 A 
ATOM     97  C   UNL     1      -4.218  19.064   0.234  1.00  0.00     0.010 A 
ATOM     98  C   UNL     1      -6.741  18.133  -0.558  1.00  0.00     0.020 A 
ATOM     99  C   UNL     1      -5.233  19.976  -0.069  1.00  0.00     0.020 A 
ATOM    100  C   UNL     1      -6.479  19.504  -0.490  1.00  0.00     0.054 A 
BRANCH 100 101
ATOM    101  S   UNL     1      -7.783  20.667  -0.977  1.00  0.00     0.124 S 
ATOM    102  O   UNL     1      -7.771  20.551  -2.432  1.00  0.00    -0.237 OA
ATOM    103  O   UNL     1      -8.964  20.122  -0.311  1.00  0.00    -0.237 OA
ATOM    104  O   UNL     1      -7.316  21.947  -0.450  1.00  0.00    -0.744 OA
ENDBRANCH 100 101
ENDBRANCH  74  95
ENDBRANCH  48  49
ENDBRANCH  40  43
ENDBRANCH  38  39
ENDBRANCH  37  38
ENDBRANCH  36  37
ENDBRANCH   1  36
TORSDOF 21
