REMARK SMILES COc1ccc(F)cc1[C@H](C)NC(=O)[C@H]1CC=CC[C@@H]1C(=O)NCCCCCCNC(=O)c1ccc(-c2c3nc(c(-c4ccc(S(=O)(=O)[O-])cc4)c4ccc([nH]4)c(-c4ccc(S(=O)(=O)[O-])cc4)c4nc(c(-c5ccc(S(=O)(=O)[O-])cc5)c5ccc2[nH]5)C=C4)C=C3)cc1
REMARK SMILES IDX 26 1 25 2 24 3 23 4 21 5 22 6 20 8 15 9 16 10 17 11 19 12
REMARK SMILES IDX 18 13 13 14 12 15 14 17 10 18 11 19 9 20 3 21 4 22 5 23 8 24
REMARK SMILES IDX 6 25 7 26 2 27 1 28 27 29 28 30 29 31 30 32 31 33 32 35
REMARK SMILES IDX 33 36 34 37 92 38 35 39 91 40 36 41 37 42 38 43 85 44 39 45
REMARK SMILES IDX 90 46 84 47 86 48 40 49 89 50 83 51 82 52 41 54 71 55 52 56
REMARK SMILES IDX 70 57 53 58 56 59 69 60 87 61 54 62 55 63 68 65 88 66 57 67
REMARK SMILES IDX 42 68 43 69 51 70 44 71 50 72 45 73 46 74 47 75 48 76 49 77
REMARK SMILES IDX 72 78 73 79 81 80 74 81 80 82 75 83 76 84 77 85 78 86 79 87
REMARK SMILES IDX 58 88 59 89 67 90 60 91 66 92 61 93 62 94 63 95 64 96 65 97
REMARK H PARENT 23 7 12 16 30 34 86 53 56 64
REMARK Flexibility Score: inf
ROOT
ATOM      1  C   UNL     1      -6.505  -2.221   1.099  1.00  0.00     0.002 C 
ENDROOT
BRANCH   1   2
ATOM      2  C   UNL     1      -6.322  -1.058   0.119  1.00  0.00     0.021 C 
BRANCH   2   3
ATOM      3  C   UNL     1      -4.863  -0.687  -0.123  1.00  0.00     0.116 C 
BRANCH   3   4
ATOM      4  N   UNL     1      -4.189  -1.755  -0.841  1.00  0.00    -0.356 N 
ATOM      5  C   UNL     1      -3.240  -1.684  -1.815  1.00  0.00     0.224 C 
ATOM      6  O   UNL     1      -2.898  -2.723  -2.377  1.00  0.00    -0.275 OA
ATOM      7  H   UNL     1      -4.458  -2.667  -0.584  1.00  0.00     0.163 HD
BRANCH   5   8
ATOM      8  C   UNL     1      -2.561  -0.347  -2.067  1.00  0.00     0.095 C 
ATOM      9  C   UNL     1      -2.107  -0.245  -3.537  1.00  0.00     0.095 C 
ATOM     10  C   UNL     1      -0.697  -0.762  -3.820  1.00  0.00     0.041 C 
ATOM     11  C   UNL     1       0.285  -0.572  -2.709  1.00  0.00    -0.030 C 
ATOM     12  C   UNL     1      -1.480  -0.230  -0.969  1.00  0.00     0.041 C 
ATOM     13  C   UNL     1      -0.063  -0.329  -1.441  1.00  0.00    -0.030 C 
BRANCH   9  14
ATOM     14  C   UNL     1      -2.407   1.071  -4.279  1.00  0.00     0.224 C 
ATOM     15  N   UNL     1      -2.090   2.311  -3.831  1.00  0.00    -0.349 N 
ATOM     16  H   UNL     1      -2.410   3.042  -4.407  1.00  0.00     0.164 HD
ATOM     17  O   UNL     1      -2.950   1.024  -5.391  1.00  0.00    -0.275 OA
BRANCH  15  18
ATOM     18  C   UNL     1      -1.363   2.756  -2.654  1.00  0.00     0.113 C 
ATOM     19  C   UNL     1       0.060   3.143  -3.050  1.00  0.00     0.036 C 
BRANCH  18  20
ATOM     20  C   UNL     1      -2.201   3.689  -1.782  1.00  0.00     0.019 A 
ATOM     21  C   UNL     1      -1.705   4.813  -1.098  1.00  0.00     0.124 A 
ATOM     22  C   UNL     1      -2.504   5.511  -0.174  1.00  0.00     0.050 A 
ATOM     23  C   UNL     1      -3.794   5.075   0.121  1.00  0.00     0.043 A 
ATOM     24  C   UNL     1      -3.533   3.309  -1.501  1.00  0.00     0.049 A 
ATOM     25  C   UNL     1      -4.300   3.979  -0.553  1.00  0.00     0.123 A 
ATOM     26  F   UNL     1      -5.533   3.536  -0.275  1.00  0.00    -0.207 F 
BRANCH  21  27
ATOM     27  O   UNL     1      -0.451   5.278  -1.389  1.00  0.00    -0.496 OA
ATOM     28  C   UNL     1       0.388   5.370  -0.238  1.00  0.00     0.278 C 
ENDBRANCH  21  27
ENDBRANCH  18  20
ENDBRANCH  15  18
ENDBRANCH   9  14
ENDBRANCH   5   8
ENDBRANCH   3   4
ENDBRANCH   2   3
ENDBRANCH   1   2
BRANCH   1  29
ATOM     29  C   UNL     1      -6.000  -1.940   2.516  1.00  0.00     0.002 C 
BRANCH  29  30
ATOM     30  C   UNL     1      -6.641  -0.725   3.189  1.00  0.00     0.021 C 
BRANCH  30  31
ATOM     31  C   UNL     1      -8.165  -0.754   3.217  1.00  0.00     0.116 C 
BRANCH  31  32
ATOM     32  N   UNL     1      -8.675  -1.918   3.927  1.00  0.00    -0.352 N 
ATOM     33  C   UNL     1      -9.628  -1.972   4.911  1.00  0.00     0.251 C 
ATOM     34  H   UNL     1      -8.283  -2.782   3.665  1.00  0.00     0.163 HD
ATOM     35  O   UNL     1      -9.805  -3.009   5.546  1.00  0.00    -0.269 OA
BRANCH  33  36
ATOM     36  C   UNL     1     -10.421  -0.765   5.213  1.00  0.00     0.039 A 
ATOM     37  C   UNL     1     -10.580  -0.372   6.543  1.00  0.00     0.014 A 
ATOM     38  C   UNL     1     -10.987  -0.013   4.179  1.00  0.00     0.014 A 
ATOM     39  C   UNL     1     -11.261   0.810   6.833  1.00  0.00     0.010 A 
ATOM     40  C   UNL     1     -11.600   1.202   4.465  1.00  0.00     0.010 A 
ATOM     41  C   UNL     1     -11.748   1.623   5.795  1.00  0.00    -0.014 A 
BRANCH  41  42
ATOM     42  C   UNL     1     -12.417   2.917   6.081  1.00  0.00     0.031 A 
ATOM     43  C   UNL     1     -13.861   3.118   5.706  1.00  0.00     0.074 A 
ATOM     44  C   UNL     1     -11.708   3.930   6.621  1.00  0.00     0.049 A 
ATOM     45  N   UNL     1     -14.598   4.192   5.817  1.00  0.00    -0.248 NA
ATOM     46  C   UNL     1     -14.561   1.969   5.107  1.00  0.00     0.031 C 
ATOM     47  C   UNL     1     -10.291   3.871   6.991  1.00  0.00     0.029 A 
ATOM     48  N   UNL     1     -12.081   5.210   6.946  1.00  0.00    -0.354 N 
ATOM     49  C   UNL     1     -15.839   3.856   5.288  1.00  0.00     0.074 A 
ATOM     50  C   UNL     1     -15.742   2.494   4.812  1.00  0.00     0.031 C 
ATOM     51  C   UNL     1      -9.923   5.052   7.513  1.00  0.00     0.029 A 
ATOM     52  C   UNL     1     -11.060   5.966   7.474  1.00  0.00     0.049 A 
ATOM     53  H   UNL     1     -12.993   5.555   6.812  1.00  0.00     0.167 HD
ATOM     54  C   UNL     1     -16.963   4.607   5.221  1.00  0.00     0.031 A 
ATOM     55  C   UNL     1     -11.038   7.253   7.872  1.00  0.00     0.031 A 
ATOM     56  C   UNL     1     -17.059   5.957   5.711  1.00  0.00     0.049 A 
ATOM     57  C   UNL     1     -12.299   8.070   7.775  1.00  0.00     0.074 A 
ATOM     58  C   UNL     1     -18.170   6.781   5.743  1.00  0.00     0.029 A 
ATOM     59  N   UNL     1     -16.007   6.681   6.250  1.00  0.00    -0.354 N 
ATOM     60  N   UNL     1     -13.482   7.710   7.336  1.00  0.00    -0.248 NA
ATOM     61  C   UNL     1     -12.226   9.463   8.238  1.00  0.00     0.031 C 
ATOM     62  C   UNL     1     -17.777   8.023   6.249  1.00  0.00     0.029 A 
ATOM     63  C   UNL     1     -16.437   7.951   6.594  1.00  0.00     0.049 A 
ATOM     64  H   UNL     1     -15.091   6.342   6.372  1.00  0.00     0.167 HD
ATOM     65  C   UNL     1     -14.300   8.822   7.501  1.00  0.00     0.074 A 
ATOM     66  C   UNL     1     -13.482   9.860   8.093  1.00  0.00     0.031 C 
ATOM     67  C   UNL     1     -15.612   8.971   7.190  1.00  0.00     0.031 A 
BRANCH  54  68
ATOM     68  C   UNL     1     -18.186   3.990   4.595  1.00  0.00    -0.014 A 
ATOM     69  C   UNL     1     -18.890   2.957   5.239  1.00  0.00     0.010 A 
ATOM     70  C   UNL     1     -18.676   4.495   3.377  1.00  0.00     0.010 A 
ATOM     71  C   UNL     1     -20.046   2.422   4.664  1.00  0.00     0.020 A 
ATOM     72  C   UNL     1     -19.848   3.983   2.812  1.00  0.00     0.020 A 
ATOM     73  C   UNL     1     -20.519   2.941   3.454  1.00  0.00     0.054 A 
BRANCH  73  74
ATOM     74  S   UNL     1     -22.048   2.259   2.757  1.00  0.00     0.124 S 
ATOM     75  O   UNL     1     -21.612   0.937   2.312  1.00  0.00    -0.237 OA
ATOM     76  O   UNL     1     -22.953   2.269   3.903  1.00  0.00    -0.237 OA
ATOM     77  O   UNL     1     -22.389   3.193   1.688  1.00  0.00    -0.744 OA
ENDBRANCH  73  74
ENDBRANCH  54  68
BRANCH  55  78
ATOM     78  C   UNL     1      -9.780   7.854   8.397  1.00  0.00    -0.014 A 
ATOM     79  C   UNL     1      -9.670   8.223   9.749  1.00  0.00     0.010 A 
ATOM     80  C   UNL     1      -8.686   8.072   7.540  1.00  0.00     0.010 A 
ATOM     81  C   UNL     1      -8.503   8.827  10.227  1.00  0.00     0.020 A 
ATOM     82  C   UNL     1      -7.506   8.646   8.020  1.00  0.00     0.020 A 
ATOM     83  C   UNL     1      -7.428   9.036   9.358  1.00  0.00     0.054 A 
BRANCH  83  84
ATOM     84  S   UNL     1      -5.913   9.796  10.004  1.00  0.00     0.124 S 
ATOM     85  O   UNL     1      -6.321  11.187  10.175  1.00  0.00    -0.237 OA
ATOM     86  O   UNL     1      -5.684   9.046  11.236  1.00  0.00    -0.237 OA
ATOM     87  O   UNL     1      -4.934   9.556   8.946  1.00  0.00    -0.744 OA
ENDBRANCH  83  84
ENDBRANCH  55  78
BRANCH  67  88
ATOM     88  C   UNL     1     -16.261  10.288   7.524  1.00  0.00    -0.014 A 
ATOM     89  C   UNL     1     -15.965  11.456   6.800  1.00  0.00     0.010 A 
ATOM     90  C   UNL     1     -17.231  10.340   8.543  1.00  0.00     0.010 A 
ATOM     91  C   UNL     1     -16.604  12.659   7.109  1.00  0.00     0.020 A 
ATOM     92  C   UNL     1     -17.895  11.534   8.834  1.00  0.00     0.020 A 
ATOM     93  C   UNL     1     -17.567  12.690   8.123  1.00  0.00     0.054 A 
BRANCH  93  94
ATOM     94  S   UNL     1     -18.417  14.253   8.472  1.00  0.00     0.124 S 
ATOM     95  O   UNL     1     -17.371  15.027   9.135  1.00  0.00    -0.237 OA
ATOM     96  O   UNL     1     -18.793  14.717   7.139  1.00  0.00    -0.237 OA
ATOM     97  O   UNL     1     -19.535  13.858   9.326  1.00  0.00    -0.744 OA
ENDBRANCH  93  94
ENDBRANCH  67  88
ENDBRANCH  41  42
ENDBRANCH  33  36
ENDBRANCH  31  32
ENDBRANCH  30  31
ENDBRANCH  29  30
ENDBRANCH   1  29
TORSDOF 20
