REMARK SMILES O=C(NCCCCCCNC(=O)c1ccc(Br)c(NC(=S)NC(=O)c2cccs2)c1)c1ccc(-c2c3nc(c(-c4ccc(S(=O)(=O)[O-])cc4)c4ccc([nH]4)c(-c4ccc(S(=O)(=O)[O-])cc4)c4nc(c(-c5ccc(S(=O)(=O)[O-])cc5)c5ccc2[nH]5)C=C4)C=C3)cc1
REMARK SMILES IDX 7 1 6 2 5 3 4 4 3 5 1 6 2 7 31 9 32 10 90 11 33 12 89 13
REMARK SMILES IDX 34 14 35 15 36 16 83 17 37 18 88 19 82 20 84 21 38 22 87 23
REMARK SMILES IDX 81 24 80 25 39 27 69 28 50 29 68 30 51 31 54 32 67 33 85 34
REMARK SMILES IDX 52 35 53 36 66 38 86 39 55 40 40 41 41 42 49 43 42 44 48 45
REMARK SMILES IDX 43 46 44 47 45 48 46 49 47 50 70 51 71 52 79 53 72 54 78 55
REMARK SMILES IDX 73 56 74 57 75 58 76 59 77 60 56 61 57 62 65 63 58 64 64 65
REMARK SMILES IDX 59 66 60 67 61 68 62 69 63 70 8 71 9 72 10 73 11 74 12 76
REMARK SMILES IDX 13 77 14 78 30 79 15 80 18 81 16 82 17 83 19 84 20 86 21 87
REMARK SMILES IDX 22 88 23 89 24 91 25 92 26 93 29 94 27 95 28 96
REMARK H PARENT 3 8 84 26 54 37 10 75 19 85 22 90
REMARK Flexibility Score: inf
ROOT
ATOM      1  C   UNL     1       4.896   1.946  -3.764  1.00  0.00     0.002 C 
ENDROOT
BRANCH   1   2
ATOM      2  C   UNL     1       4.319   0.526  -3.717  1.00  0.00     0.002 C 
BRANCH   2   3
ATOM      3  C   UNL     1       4.763  -0.289  -2.510  1.00  0.00     0.021 C 
BRANCH   3   4
ATOM      4  C   UNL     1       4.486   0.400  -1.191  1.00  0.00     0.116 C 
BRANCH   4   5
ATOM      5  N   UNL     1       3.061   0.543  -0.935  1.00  0.00    -0.352 N 
ATOM      6  O   UNL     1       1.108   0.071   0.105  1.00  0.00    -0.269 OA
ATOM      7  C   UNL     1       2.333   0.041   0.117  1.00  0.00     0.251 C 
ATOM      8  H   UNL     1       2.555   1.065  -1.599  1.00  0.00     0.163 HD
BRANCH   7   9
ATOM      9  C   UNL     1       3.069  -0.565   1.244  1.00  0.00     0.039 A 
ATOM     10  C   UNL     1       4.215   0.066   1.726  1.00  0.00     0.014 A 
ATOM     11  C   UNL     1       2.673  -1.803   1.751  1.00  0.00     0.014 A 
ATOM     12  C   UNL     1       5.078  -0.633   2.549  1.00  0.00     0.010 A 
ATOM     13  C   UNL     1       3.466  -2.431   2.716  1.00  0.00     0.010 A 
ATOM     14  C   UNL     1       4.691  -1.865   3.102  1.00  0.00    -0.014 A 
BRANCH  14  15
ATOM     15  C   UNL     1       5.551  -2.455   4.157  1.00  0.00     0.031 A 
ATOM     16  C   UNL     1       6.167  -3.817   4.015  1.00  0.00     0.074 A 
ATOM     17  C   UNL     1       5.812  -1.699   5.244  1.00  0.00     0.049 A 
ATOM     18  N   UNL     1       6.979  -4.432   4.839  1.00  0.00    -0.248 NA
ATOM     19  C   UNL     1       5.833  -4.595   2.812  1.00  0.00     0.031 C 
ATOM     20  C   UNL     1       5.253  -0.364   5.495  1.00  0.00     0.029 A 
ATOM     21  N   UNL     1       6.630  -1.917   6.321  1.00  0.00    -0.354 N 
ATOM     22  C   UNL     1       7.250  -5.665   4.260  1.00  0.00     0.074 A 
ATOM     23  C   UNL     1       6.479  -5.732   3.037  1.00  0.00     0.031 C 
ATOM     24  C   UNL     1       5.799   0.143   6.607  1.00  0.00     0.029 A 
ATOM     25  C   UNL     1       6.659  -0.865   7.207  1.00  0.00     0.049 A 
ATOM     26  H   UNL     1       7.147  -2.745   6.448  1.00  0.00     0.167 HD
ATOM     27  C   UNL     1       8.078  -6.643   4.704  1.00  0.00     0.031 A 
ATOM     28  C   UNL     1       7.275  -0.732   8.395  1.00  0.00     0.031 A 
ATOM     29  C   UNL     1       8.822  -6.573   5.937  1.00  0.00     0.049 A 
ATOM     30  C   UNL     1       8.122  -1.864   8.892  1.00  0.00     0.074 A 
ATOM     31  C   UNL     1       9.693  -7.509   6.469  1.00  0.00     0.029 A 
ATOM     32  N   UNL     1       8.781  -5.516   6.836  1.00  0.00    -0.354 N 
ATOM     33  N   UNL     1       8.397  -3.006   8.307  1.00  0.00    -0.248 NA
ATOM     34  C   UNL     1       8.749  -1.688  10.206  1.00  0.00     0.031 C 
ATOM     35  C   UNL     1      10.118  -7.053   7.720  1.00  0.00     0.029 A 
ATOM     36  C   UNL     1       9.588  -5.791   7.930  1.00  0.00     0.049 A 
ATOM     37  H   UNL     1       8.256  -4.692   6.715  1.00  0.00     0.167 HD
ATOM     38  C   UNL     1       9.255  -3.672   9.173  1.00  0.00     0.074 A 
ATOM     39  C   UNL     1       9.479  -2.788  10.299  1.00  0.00     0.031 C 
ATOM     40  C   UNL     1       9.803  -4.906   9.049  1.00  0.00     0.031 A 
BRANCH  27  41
ATOM     41  C   UNL     1       8.223  -7.882   3.855  1.00  0.00    -0.014 A 
ATOM     42  C   UNL     1       8.855  -7.830   2.599  1.00  0.00     0.010 A 
ATOM     43  C   UNL     1       7.792  -9.128   4.349  1.00  0.00     0.010 A 
ATOM     44  C   UNL     1       9.027  -8.992   1.843  1.00  0.00     0.020 A 
ATOM     45  C   UNL     1       7.995 -10.299   3.611  1.00  0.00     0.020 A 
ATOM     46  C   UNL     1       8.602 -10.221   2.357  1.00  0.00     0.054 A 
BRANCH  46  47
ATOM     47  S   UNL     1       8.890 -11.714   1.370  1.00  0.00     0.124 S 
ATOM     48  O   UNL     1       8.012 -11.493   0.224  1.00  0.00    -0.237 OA
ATOM     49  O   UNL     1      10.321 -11.635   1.088  1.00  0.00    -0.237 OA
ATOM     50  O   UNL     1       8.490 -12.803   2.258  1.00  0.00    -0.744 OA
ENDBRANCH  46  47
ENDBRANCH  27  41
BRANCH  28  51
ATOM     51  C   UNL     1       7.059   0.493   9.214  1.00  0.00    -0.014 A 
ATOM     52  C   UNL     1       8.125   1.346   9.546  1.00  0.00     0.010 A 
ATOM     53  C   UNL     1       5.769   0.797   9.690  1.00  0.00     0.010 A 
ATOM     54  C   UNL     1       7.912   2.452  10.374  1.00  0.00     0.020 A 
ATOM     55  C   UNL     1       5.543   1.928  10.474  1.00  0.00     0.020 A 
ATOM     56  C   UNL     1       6.621   2.736  10.830  1.00  0.00     0.054 A 
BRANCH  56  57
ATOM     57  S   UNL     1       6.367   4.186  11.886  1.00  0.00     0.124 S 
ATOM     58  O   UNL     1       7.058   3.794  13.111  1.00  0.00    -0.237 OA
ATOM     59  O   UNL     1       7.002   5.250  11.112  1.00  0.00    -0.237 OA
ATOM     60  O   UNL     1       4.913   4.283  11.992  1.00  0.00    -0.744 OA
ENDBRANCH  56  57
ENDBRANCH  28  51
BRANCH  40  61
ATOM     61  C   UNL     1      10.744  -5.350  10.141  1.00  0.00    -0.014 A 
ATOM     62  C   UNL     1      10.297  -5.576  11.456  1.00  0.00     0.010 A 
ATOM     63  C   UNL     1      12.103  -5.555   9.838  1.00  0.00     0.010 A 
ATOM     64  C   UNL     1      11.200  -5.941  12.457  1.00  0.00     0.020 A 
ATOM     65  C   UNL     1      13.000  -5.966  10.825  1.00  0.00     0.020 A 
ATOM     66  C   UNL     1      12.546  -6.137  12.134  1.00  0.00     0.054 A 
BRANCH  66  67
ATOM     67  S   UNL     1      13.691  -6.637  13.447  1.00  0.00     0.124 S 
ATOM     68  O   UNL     1      13.738  -5.441  14.283  1.00  0.00    -0.237 OA
ATOM     69  O   UNL     1      13.013  -7.790  14.034  1.00  0.00    -0.237 OA
ATOM     70  O   UNL     1      14.927  -6.945  12.731  1.00  0.00    -0.744 OA
ENDBRANCH  66  67
ENDBRANCH  40  61
ENDBRANCH  14  15
ENDBRANCH   7   9
ENDBRANCH   4   5
ENDBRANCH   3   4
ENDBRANCH   2   3
ENDBRANCH   1   2
BRANCH   1  71
ATOM     71  C   UNL     1       6.423   2.034  -3.626  1.00  0.00     0.021 C 
BRANCH  71  72
ATOM     72  C   UNL     1       7.200   1.085  -4.534  1.00  0.00     0.116 C 
BRANCH  72  73
ATOM     73  N   UNL     1       6.776   1.226  -5.908  1.00  0.00    -0.352 N 
ATOM     74  C   UNL     1       7.433   1.650  -7.028  1.00  0.00     0.251 C 
ATOM     75  H   UNL     1       5.839   0.969  -6.067  1.00  0.00     0.163 HD
ATOM     76  O   UNL     1       6.706   1.937  -7.975  1.00  0.00    -0.269 OA
BRANCH  74  77
ATOM     77  C   UNL     1       9.009   1.712  -7.008  1.00  0.00     0.041 A 
ATOM     78  C   UNL     1       9.664   0.202  -6.231  1.00  0.00     0.015 A 
ATOM     79  C   UNL     1      10.469   3.039  -7.586  1.00  0.00     0.041 A 
ATOM     80  C   UNL     1      11.434   0.095  -6.043  1.00  0.00     0.018 A 
ATOM     81  C   UNL     1      12.075   2.889  -7.266  1.00  0.00     0.055 A 
ATOM     82  C   UNL     1      12.563   1.398  -6.535  1.00  0.00     0.041 A 
ATOM     83  Br  UNL     1      14.389   1.183  -6.074  1.00  0.00    -0.049 Br
BRANCH  81  84
ATOM     84  N   UNL     1      12.657   4.169  -7.400  1.00  0.00    -0.331 N 
ATOM     85  H   UNL     1      13.635   4.197  -7.288  1.00  0.00     0.169 HD
BRANCH  84  86
ATOM     86  C   UNL     1      12.054   5.403  -7.669  1.00  0.00     0.177 C 
ATOM     87  S   UNL     1      13.086   6.728  -7.776  1.00  0.00    -0.040 S 
BRANCH  86  88
ATOM     88  N   UNL     1      10.646   5.700  -7.901  1.00  0.00    -0.298 N 
ATOM     89  C   UNL     1       9.162   5.325  -8.042  1.00  0.00     0.267 C 
ATOM     90  H   UNL     1      10.645   6.673  -8.045  1.00  0.00     0.172 HD
ATOM     91  O   UNL     1       8.405   6.177  -8.507  1.00  0.00    -0.268 OA
BRANCH  89  92
ATOM     92  C   UNL     1       8.691   3.947  -7.574  1.00  0.00     0.092 A 
ATOM     93  C   UNL     1       9.256   3.564  -6.010  1.00  0.00     0.025 A 
ATOM     94  S   UNL     1       9.139   2.352  -9.192  1.00  0.00    -0.139 S 
ATOM     95  C   UNL     1      10.506   2.120  -5.989  1.00  0.00     0.012 A 
ATOM     96  C   UNL     1      10.633   1.255  -7.770  1.00  0.00     0.065 A 
ENDBRANCH  89  92
ENDBRANCH  86  88
ENDBRANCH  84  86
ENDBRANCH  81  84
ENDBRANCH  74  77
ENDBRANCH  72  73
ENDBRANCH  71  72
ENDBRANCH   1  71
TORSDOF 20
