REMARK SMILES C[C@@H]1CC[C@@]1(SC1CCCCC1)C(=O)NCCCCCCNC(=O)c1ccc(-c2c3nc(c(-c4ccc(S(=O)(=O)[O-])cc4)c4ccc([nH]4)c(-c4ccc(S(=O)(=O)[O-])cc4)c4nc(c(-c5ccc(S(=O)(=O)[O-])cc5)c5ccc2[nH]5)C=C4)C=C3)cc1
REMARK SMILES IDX 19 1 18 2 17 3 16 4 15 5 13 6 14 7 5 9 1 10 2 11 3 12 4 13
REMARK SMILES IDX 6 14 7 15 8 16 12 17 9 18 11 19 10 20 20 21 21 22 22 23
REMARK SMILES IDX 23 24 24 26 25 27 26 28 84 29 27 30 83 31 28 32 29 33 30 34
REMARK SMILES IDX 77 35 31 36 82 37 76 38 78 39 32 40 81 41 75 42 74 43 33 45
REMARK SMILES IDX 63 46 44 47 62 48 45 49 48 50 61 51 79 52 46 53 47 54 60 56
REMARK SMILES IDX 80 57 49 58 34 59 35 60 43 61 36 62 42 63 37 64 38 65 39 66
REMARK SMILES IDX 40 67 41 68 64 69 65 70 73 71 66 72 72 73 67 74 68 75 69 76
REMARK SMILES IDX 70 77 71 78 50 79 51 80 59 81 52 82 58 83 53 84 54 85 55 86
REMARK SMILES IDX 56 87 57 88
REMARK H PARENT 15 8 22 25 78 44 48 55
REMARK Flexibility Score: inf
ROOT
ATOM      1  C   UNL     1       1.819   3.546  -5.185  1.00  0.00     0.002 C 
ENDROOT
BRANCH   1   2
ATOM      2  C   UNL     1       0.675   2.580  -4.853  1.00  0.00     0.002 C 
BRANCH   2   3
ATOM      3  C   UNL     1       1.060   1.438  -3.903  1.00  0.00     0.021 C 
BRANCH   3   4
ATOM      4  C   UNL     1       1.581   1.937  -2.562  1.00  0.00     0.116 C 
BRANCH   4   5
ATOM      5  N   UNL     1       0.504   2.518  -1.790  1.00  0.00    -0.355 N 
ATOM      6  C   UNL     1       0.021   2.218  -0.540  1.00  0.00     0.236 C 
ATOM      7  O   UNL     1      -0.873   2.979  -0.135  1.00  0.00    -0.273 OA
ATOM      8  H   UNL     1       0.036   3.258  -2.239  1.00  0.00     0.163 HD
BRANCH   6   9
ATOM      9  C   UNL     1       0.552   0.991   0.292  1.00  0.00     0.097 C 
ATOM     10  C   UNL     1      -1.410   0.134   2.042  1.00  0.00     0.009 C 
ATOM     11  C   UNL     1      -0.677   0.044   0.715  1.00  0.00     0.012 C 
ATOM     12  C   UNL     1       0.251  -1.171   0.555  1.00  0.00     0.007 C 
ATOM     13  C   UNL     1       1.142  -0.308  -0.343  1.00  0.00     0.028 C 
BRANCH   9  14
ATOM     14  S   UNL     1       1.484   1.538   1.828  1.00  0.00    -0.141 SA
BRANCH  14  15
ATOM     15  C   UNL     1       2.979   2.431   1.258  1.00  0.00     0.047 C 
ATOM     16  C   UNL     1       4.014   1.503   0.618  1.00  0.00     0.014 C 
ATOM     17  C   UNL     1       2.748   3.714   0.453  1.00  0.00     0.014 C 
ATOM     18  C   UNL     1       5.310   2.248   0.298  1.00  0.00     0.001 C 
ATOM     19  C   UNL     1       4.053   4.410   0.053  1.00  0.00     0.001 C 
ATOM     20  C   UNL     1       5.039   3.447  -0.602  1.00  0.00     0.000 C 
ENDBRANCH  14  15
ENDBRANCH   9  14
ENDBRANCH   6   9
ENDBRANCH   4   5
ENDBRANCH   3   4
ENDBRANCH   2   3
ENDBRANCH   1   2
BRANCH   1  21
ATOM     21  C   UNL     1       3.074   2.875  -5.750  1.00  0.00     0.021 C 
BRANCH  21  22
ATOM     22  C   UNL     1       2.825   2.069  -7.020  1.00  0.00     0.116 C 
BRANCH  22  23
ATOM     23  N   UNL     1       2.338   2.909  -8.103  1.00  0.00    -0.352 N 
ATOM     24  C   UNL     1       2.831   3.045  -9.374  1.00  0.00     0.251 C 
ATOM     25  H   UNL     1       1.546   3.454  -7.894  1.00  0.00     0.163 HD
ATOM     26  O   UNL     1       2.442   3.964 -10.092  1.00  0.00    -0.269 OA
BRANCH  24  27
ATOM     27  C   UNL     1       3.844   2.090  -9.866  1.00  0.00     0.039 A 
ATOM     28  C   UNL     1       4.962   2.575 -10.546  1.00  0.00     0.014 A 
ATOM     29  C   UNL     1       3.689   0.718  -9.645  1.00  0.00     0.014 A 
ATOM     30  C   UNL     1       5.955   1.686 -10.958  1.00  0.00     0.010 A 
ATOM     31  C   UNL     1       4.716  -0.155  -9.985  1.00  0.00     0.010 A 
ATOM     32  C   UNL     1       5.855   0.318 -10.653  1.00  0.00    -0.014 A 
BRANCH  32  33
ATOM     33  C   UNL     1       6.935  -0.631 -11.020  1.00  0.00     0.031 A 
ATOM     34  C   UNL     1       6.663  -1.756 -11.980  1.00  0.00     0.074 A 
ATOM     35  C   UNL     1       8.143  -0.521 -10.434  1.00  0.00     0.049 A 
ATOM     36  N   UNL     1       7.467  -2.706 -12.386  1.00  0.00    -0.248 NA
ATOM     37  C   UNL     1       5.302  -1.844 -12.534  1.00  0.00     0.031 C 
ATOM     38  C   UNL     1       8.514   0.496  -9.446  1.00  0.00     0.029 A 
ATOM     39  N   UNL     1       9.279  -1.277 -10.574  1.00  0.00    -0.354 N 
ATOM     40  C   UNL     1       6.705  -3.514 -13.223  1.00  0.00     0.074 A 
ATOM     41  C   UNL     1       5.364  -2.973 -13.223  1.00  0.00     0.031 C 
ATOM     42  C   UNL     1       9.794   0.314  -9.088  1.00  0.00     0.029 A 
ATOM     43  C   UNL     1      10.322  -0.856  -9.784  1.00  0.00     0.049 A 
ATOM     44  H   UNL     1       9.341  -2.049 -11.182  1.00  0.00     0.167 HD
ATOM     45  C   UNL     1       7.091  -4.598 -13.937  1.00  0.00     0.031 A 
ATOM     46  C   UNL     1      11.562  -1.359  -9.624  1.00  0.00     0.031 A 
ATOM     47  C   UNL     1       8.428  -5.131 -13.928  1.00  0.00     0.049 A 
ATOM     48  C   UNL     1      11.973  -2.562 -10.425  1.00  0.00     0.074 A 
ATOM     49  C   UNL     1       8.940  -6.181 -14.669  1.00  0.00     0.029 A 
ATOM     50  N   UNL     1       9.462  -4.666 -13.127  1.00  0.00    -0.354 N 
ATOM     51  N   UNL     1      11.264  -3.261 -11.280  1.00  0.00    -0.248 NA
ATOM     52  C   UNL     1      13.351  -3.037 -10.250  1.00  0.00     0.031 C 
ATOM     53  C   UNL     1      10.262  -6.395 -14.265  1.00  0.00     0.029 A 
ATOM     54  C   UNL     1      10.598  -5.432 -13.327  1.00  0.00     0.049 A 
ATOM     55  H   UNL     1       9.396  -3.903 -12.507  1.00  0.00     0.167 HD
ATOM     56  C   UNL     1      12.118  -4.247 -11.763  1.00  0.00     0.074 A 
ATOM     57  C   UNL     1      13.399  -4.042 -11.115  1.00  0.00     0.031 C 
ATOM     58  C   UNL     1      11.864  -5.229 -12.664  1.00  0.00     0.031 A 
BRANCH  45  59
ATOM     59  C   UNL     1       6.038  -5.297 -14.761  1.00  0.00    -0.014 A 
ATOM     60  C   UNL     1       5.442  -4.675 -15.874  1.00  0.00     0.010 A 
ATOM     61  C   UNL     1       5.642  -6.603 -14.419  1.00  0.00     0.010 A 
ATOM     62  C   UNL     1       4.426  -5.317 -16.586  1.00  0.00     0.020 A 
ATOM     63  C   UNL     1       4.651  -7.264 -15.150  1.00  0.00     0.020 A 
ATOM     64  C   UNL     1       4.031  -6.606 -16.214  1.00  0.00     0.054 A 
BRANCH  64  65
ATOM     65  S   UNL     1       2.700  -7.411 -17.146  1.00  0.00     0.124 S 
ATOM     66  O   UNL     1       1.528  -6.658 -16.706  1.00  0.00    -0.237 OA
ATOM     67  O   UNL     1       3.102  -7.192 -18.533  1.00  0.00    -0.237 OA
ATOM     68  O   UNL     1       2.751  -8.800 -16.696  1.00  0.00    -0.744 OA
ENDBRANCH  64  65
ENDBRANCH  45  59
BRANCH  46  69
ATOM     69  C   UNL     1      12.496  -0.703  -8.669  1.00  0.00    -0.014 A 
ATOM     70  C   UNL     1      13.588   0.050  -9.133  1.00  0.00     0.010 A 
ATOM     71  C   UNL     1      12.254  -0.776  -7.284  1.00  0.00     0.010 A 
ATOM     72  C   UNL     1      14.417   0.723  -8.230  1.00  0.00     0.020 A 
ATOM     73  C   UNL     1      13.063  -0.082  -6.381  1.00  0.00     0.020 A 
ATOM     74  C   UNL     1      14.142   0.662  -6.860  1.00  0.00     0.054 A 
BRANCH  74  75
ATOM     75  S   UNL     1      15.172   1.624  -5.718  1.00  0.00     0.124 S 
ATOM     76  O   UNL     1      16.429   0.883  -5.742  1.00  0.00    -0.237 OA
ATOM     77  O   UNL     1      15.199   2.940  -6.352  1.00  0.00    -0.237 OA
ATOM     78  O   UNL     1      14.433   1.564  -4.458  1.00  0.00    -0.744 OA
ENDBRANCH  74  75
ENDBRANCH  46  69
BRANCH  58  79
ATOM     79  C   UNL     1      12.999  -6.152 -13.024  1.00  0.00    -0.014 A 
ATOM     80  C   UNL     1      13.487  -7.104 -12.112  1.00  0.00     0.010 A 
ATOM     81  C   UNL     1      13.544  -6.104 -14.321  1.00  0.00     0.010 A 
ATOM     82  C   UNL     1      14.520  -7.971 -12.480  1.00  0.00     0.020 A 
ATOM     83  C   UNL     1      14.554  -6.990 -14.703  1.00  0.00     0.020 A 
ATOM     84  C   UNL     1      15.046  -7.909 -13.775  1.00  0.00     0.054 A 
BRANCH  84  85
ATOM     85  S   UNL     1      16.353  -9.077 -14.242  1.00  0.00     0.124 S 
ATOM     86  O   UNL     1      17.497  -8.567 -13.492  1.00  0.00    -0.237 OA
ATOM     87  O   UNL     1      15.818 -10.356 -13.782  1.00  0.00    -0.237 OA
ATOM     88  O   UNL     1      16.445  -8.932 -15.693  1.00  0.00    -0.744 OA
ENDBRANCH  84  85
ENDBRANCH  58  79
ENDBRANCH  32  33
ENDBRANCH  24  27
ENDBRANCH  22  23
ENDBRANCH  21  22
ENDBRANCH   1  21
TORSDOF 18
