REMARK SMILES C[C@@H]1CCC[C@H](C)[N@H+]1Cc1cc2c(cc1Cl)C=C(C(=O)NCCCCCCNC(=O)c1ccc(-c3c4nc(c(-c5ccc(S(=O)(=O)[O-])cc5)c5ccc([nH]5)c(-c5ccc(S(=O)(=O)[O-])cc5)c5nc(c(-c6ccc(S(=O)(=O)[O-])cc6)c6ccc3[nH]6)C=C5)C=C4)cc1)[C@@H](C(F)(F)F)O2
REMARK SMILES IDX 25 1 24 2 23 3 22 4 21 5 19 6 20 7 18 9 10 10 11 11 15 12
REMARK SMILES IDX 12 13 14 14 16 15 13 16 96 17 17 18 91 19 9 20 8 21 7 22
REMARK SMILES IDX 6 23 5 24 4 25 2 26 3 28 1 29 92 30 93 31 94 32 95 33 26 34
REMARK SMILES IDX 27 35 28 36 29 37 30 39 31 40 32 41 90 42 33 43 89 44 34 45
REMARK SMILES IDX 35 46 36 47 83 48 37 49 88 50 82 51 84 52 38 53 87 54 81 55
REMARK SMILES IDX 80 56 39 58 69 59 50 60 68 61 51 62 54 63 67 64 85 65 52 66
REMARK SMILES IDX 53 67 66 69 86 70 55 71 40 72 41 73 49 74 42 75 48 76 43 77
REMARK SMILES IDX 44 78 45 79 46 80 47 81 70 82 71 83 79 84 72 85 78 86 73 87
REMARK SMILES IDX 74 88 75 89 76 90 77 91 56 92 57 93 65 94 58 95 64 96 59 97
REMARK SMILES IDX 60 98 61 99 62 100 63 101
REMARK H PARENT 21 8 8 27 28 38 84 57 54 68
REMARK Flexibility Score: inf
ROOT
ATOM      1  C   UNL     1      -2.106 -11.775  -7.122  1.00  0.00     0.002 C 
ENDROOT
BRANCH   1   2
ATOM      2  C   UNL     1      -0.799 -11.008  -6.879  1.00  0.00     0.002 C 
BRANCH   2   3
ATOM      3  C   UNL     1      -0.958  -9.613  -6.268  1.00  0.00     0.021 C 
BRANCH   3   4
ATOM      4  C   UNL     1      -1.692  -9.597  -4.930  1.00  0.00     0.116 C 
BRANCH   4   5
ATOM      5  N   UNL     1      -0.797  -9.924  -3.834  1.00  0.00    -0.352 N 
ATOM      6  C   UNL     1      -0.476  -9.396  -2.632  1.00  0.00     0.251 C 
ATOM      7  O   UNL     1       0.327 -10.059  -1.967  1.00  0.00    -0.270 OA
ATOM      8  H   UNL     1      -0.291 -10.749  -4.014  1.00  0.00     0.163 HD
BRANCH   6   9
ATOM      9  C   UNL     1      -0.993  -8.109  -2.088  1.00  0.00     0.067 C 
ATOM     10  C   UNL     1      -1.435  -3.929   0.708  1.00  0.00     0.029 A 
ATOM     11  C   UNL     1      -1.640  -4.235  -0.648  1.00  0.00     0.058 A 
ATOM     12  C   UNL     1      -1.199  -4.996   1.594  1.00  0.00     0.050 A 
ATOM     13  C   UNL     1      -1.453  -5.531  -1.117  1.00  0.00     0.128 A 
ATOM     14  C   UNL     1      -0.969  -6.290   1.110  1.00  0.00     0.033 A 
ATOM     15  Cl  UNL     1      -1.154  -4.794   3.310  1.00  0.00    -0.084 Cl
ATOM     16  C   UNL     1      -1.048  -6.548  -0.255  1.00  0.00     0.019 A 
ATOM     17  O   UNL     1      -1.610  -5.735  -2.459  1.00  0.00    -0.475 OA
ATOM     18  C   UNL     1      -0.643  -7.830  -0.819  1.00  0.00     0.025 C 
ATOM     19  C   UNL     1      -1.839  -7.121  -2.844  1.00  0.00     0.314 C 
BRANCH  10  20
ATOM     20  C   UNL     1      -1.394  -2.471   1.120  1.00  0.00     0.301 C 
BRANCH  20  21
ATOM     21  N   UNL     1      -0.093  -1.778   0.964  1.00  0.00    -0.327 N 
ATOM     22  C   UNL     1       0.862  -0.024  -0.494  1.00  0.00     0.075 C 
ATOM     23  C   UNL     1       0.287  -1.448  -0.419  1.00  0.00     0.181 C 
ATOM     24  C   UNL     1       1.255  -2.446  -1.081  1.00  0.00     0.065 C 
ATOM     25  C   UNL     1       2.414  -2.855  -0.181  1.00  0.00     0.012 C 
ATOM     26  C   UNL     1       0.978  -2.269   1.843  1.00  0.00     0.181 C 
ATOM     27  H   UNL     1      -0.270  -0.848   1.345  1.00  0.00     0.348 HD
ATOM     28  C   UNL     1       1.908  -3.300   1.184  1.00  0.00     0.065 C 
ATOM     29  C   UNL     1       1.782  -1.109   2.444  1.00  0.00     0.075 C 
ENDBRANCH  20  21
ENDBRANCH  10  20
BRANCH  19  30
ATOM     30  C   UNL     1      -3.340  -7.464  -2.746  1.00  0.00     0.429 C 
ATOM     31  F   UNL     1      -4.051  -6.776  -3.670  1.00  0.00    -0.167 F 
ATOM     32  F   UNL     1      -3.576  -8.779  -2.976  1.00  0.00    -0.167 F 
ATOM     33  F   UNL     1      -3.864  -7.182  -1.532  1.00  0.00    -0.167 F 
ENDBRANCH  19  30
ENDBRANCH   6   9
ENDBRANCH   4   5
ENDBRANCH   3   4
ENDBRANCH   2   3
ENDBRANCH   1   2
BRANCH   1  34
ATOM     34  C   UNL     1      -3.209 -10.990  -7.835  1.00  0.00     0.021 C 
BRANCH  34  35
ATOM     35  C   UNL     1      -2.811 -10.409  -9.186  1.00  0.00     0.116 C 
BRANCH  35  36
ATOM     36  N   UNL     1      -2.497 -11.438 -10.164  1.00  0.00    -0.352 N 
ATOM     37  C   UNL     1      -3.026 -11.625 -11.419  1.00  0.00     0.251 C 
ATOM     38  H   UNL     1      -1.811 -12.089  -9.891  1.00  0.00     0.163 HD
ATOM     39  O   UNL     1      -2.763 -12.638 -12.059  1.00  0.00    -0.269 OA
BRANCH  37  40
ATOM     40  C   UNL     1      -3.945 -10.608 -11.972  1.00  0.00     0.039 A 
ATOM     41  C   UNL     1      -3.610  -9.252 -11.920  1.00  0.00     0.014 A 
ATOM     42  C   UNL     1      -5.173 -11.013 -12.500  1.00  0.00     0.014 A 
ATOM     43  C   UNL     1      -4.566  -8.297 -12.243  1.00  0.00     0.010 A 
ATOM     44  C   UNL     1      -6.102 -10.050 -12.901  1.00  0.00     0.010 A 
ATOM     45  C   UNL     1      -5.826  -8.684 -12.730  1.00  0.00    -0.014 A 
BRANCH  45  46
ATOM     46  C   UNL     1      -6.836  -7.645 -13.055  1.00  0.00     0.031 A 
ATOM     47  C   UNL     1      -8.116  -7.541 -12.269  1.00  0.00     0.074 A 
ATOM     48  C   UNL     1      -6.571  -6.757 -14.032  1.00  0.00     0.049 A 
ATOM     49  N   UNL     1      -9.090  -6.677 -12.401  1.00  0.00    -0.248 NA
ATOM     50  C   UNL     1      -8.334  -8.528 -11.199  1.00  0.00     0.031 C 
ATOM     51  C   UNL     1      -5.353  -6.745 -14.846  1.00  0.00     0.029 A 
ATOM     52  N   UNL     1      -7.286  -5.678 -14.488  1.00  0.00    -0.354 N 
ATOM     53  C   UNL     1     -10.040  -7.024 -11.448  1.00  0.00     0.074 A 
ATOM     54  C   UNL     1      -9.541  -8.195 -10.761  1.00  0.00     0.031 C 
ATOM     55  C   UNL     1      -5.378  -5.679 -15.657  1.00  0.00     0.029 A 
ATOM     56  C   UNL     1      -6.641  -4.970 -15.474  1.00  0.00     0.049 A 
ATOM     57  H   UNL     1      -8.175  -5.436 -14.143  1.00  0.00     0.167 HD
ATOM     58  C   UNL     1     -11.216  -6.414 -11.166  1.00  0.00     0.031 A 
ATOM     59  C   UNL     1      -7.019  -3.877 -16.167  1.00  0.00     0.031 A 
ATOM     60  C   UNL     1     -11.698  -5.240 -11.846  1.00  0.00     0.049 A 
ATOM     61  C   UNL     1      -8.347  -3.246 -15.870  1.00  0.00     0.074 A 
ATOM     62  C   UNL     1     -12.866  -4.535 -11.610  1.00  0.00     0.029 A 
ATOM     63  N   UNL     1     -11.048  -4.598 -12.889  1.00  0.00    -0.354 N 
ATOM     64  N   UNL     1      -9.228  -3.585 -14.960  1.00  0.00    -0.248 NA
ATOM     65  C   UNL     1      -8.739  -2.093 -16.691  1.00  0.00     0.031 C 
ATOM     66  C   UNL     1     -12.952  -3.506 -12.550  1.00  0.00     0.029 A 
ATOM     67  C   UNL     1     -11.805  -3.525 -13.329  1.00  0.00     0.049 A 
ATOM     68  H   UNL     1     -10.176  -4.865 -13.261  1.00  0.00     0.167 HD
ATOM     69  C   UNL     1     -10.280  -2.688 -15.097  1.00  0.00     0.074 A 
ATOM     70  C   UNL     1      -9.915  -1.775 -16.162  1.00  0.00     0.031 C 
ATOM     71  C   UNL     1     -11.442  -2.632 -14.402  1.00  0.00     0.031 A 
BRANCH  58  72
ATOM     72  C   UNL     1     -12.083  -6.999 -10.081  1.00  0.00    -0.014 A 
ATOM     73  C   UNL     1     -13.318  -7.585 -10.416  1.00  0.00     0.010 A 
ATOM     74  C   UNL     1     -11.731  -6.877  -8.725  1.00  0.00     0.010 A 
ATOM     75  C   UNL     1     -14.195  -8.017  -9.418  1.00  0.00     0.020 A 
ATOM     76  C   UNL     1     -12.595  -7.332  -7.723  1.00  0.00     0.020 A 
ATOM     77  C   UNL     1     -13.831  -7.880  -8.076  1.00  0.00     0.054 A 
BRANCH  77  78
ATOM     78  S   UNL     1     -14.983  -8.441  -6.791  1.00  0.00     0.124 S 
ATOM     79  O   UNL     1     -15.960  -7.358  -6.759  1.00  0.00    -0.237 OA
ATOM     80  O   UNL     1     -15.465  -9.713  -7.325  1.00  0.00    -0.237 OA
ATOM     81  O   UNL     1     -14.137  -8.558  -5.605  1.00  0.00    -0.744 OA
ENDBRANCH  77  78
ENDBRANCH  58  72
BRANCH  59  82
ATOM     82  C   UNL     1      -6.091  -3.325 -17.191  1.00  0.00    -0.014 A 
ATOM     83  C   UNL     1      -5.811  -4.057 -18.361  1.00  0.00     0.010 A 
ATOM     84  C   UNL     1      -5.383  -2.138 -16.939  1.00  0.00     0.010 A 
ATOM     85  C   UNL     1      -4.785  -3.656 -19.219  1.00  0.00     0.020 A 
ATOM     86  C   UNL     1      -4.375  -1.717 -17.813  1.00  0.00     0.020 A 
ATOM     87  C   UNL     1      -4.058  -2.500 -18.926  1.00  0.00     0.054 A 
BRANCH  87  88
ATOM     88  S   UNL     1      -2.667  -2.050 -20.000  1.00  0.00     0.124 S 
ATOM     89  O   UNL     1      -1.639  -2.991 -19.563  1.00  0.00    -0.237 OA
ATOM     90  O   UNL     1      -3.205  -2.282 -21.337  1.00  0.00    -0.237 OA
ATOM     91  O   UNL     1      -2.416  -0.651 -19.665  1.00  0.00    -0.744 OA
ENDBRANCH  87  88
ENDBRANCH  59  82
BRANCH  71  92
ATOM     92  C   UNL     1     -12.436  -1.563 -14.768  1.00  0.00    -0.014 A 
ATOM     93  C   UNL     1     -12.702  -0.516 -13.866  1.00  0.00     0.010 A 
ATOM     94  C   UNL     1     -13.207  -1.672 -15.939  1.00  0.00     0.010 A 
ATOM     95  C   UNL     1     -13.748   0.378 -14.106  1.00  0.00     0.020 A 
ATOM     96  C   UNL     1     -14.236  -0.763 -16.196  1.00  0.00     0.020 A 
ATOM     97  C   UNL     1     -14.518   0.239 -15.264  1.00  0.00     0.054 A 
BRANCH  97  98
ATOM     98  S   UNL     1     -15.900   1.382 -15.539  1.00  0.00     0.124 S 
ATOM     99  O   UNL     1     -16.917   0.856 -14.634  1.00  0.00    -0.237 OA
ATOM    100  O   UNL     1     -15.329   2.673 -15.162  1.00  0.00    -0.237 OA
ATOM    101  O   UNL     1     -16.191   1.231 -16.963  1.00  0.00    -0.744 OA
ENDBRANCH  97  98
ENDBRANCH  71  92
ENDBRANCH  45  46
ENDBRANCH  37  40
ENDBRANCH  35  36
ENDBRANCH  34  35
ENDBRANCH   1  34
TORSDOF 19
