REMARK SMILES O=C(Cc1ccccc1C(=O)NCCCCCCNC(=O)c1ccc(-c2c3nc(c(-c4ccc(S(=O)(=O)[O-])cc4)c4ccc([nH]4)c(-c4ccc(S(=O)(=O)[O-])cc4)c4nc(c(-c5ccc(S(=O)(=O)[O-])cc5)c5ccc2[nH]5)C=C4)C=C3)cc1)Nc1cccc(OC[C@@H]2CCCO2)c1
REMARK SMILES IDX 14 1 13 2 12 3 10 4 11 5 9 7 4 8 5 9 6 10 8 11 7 12 3 13
REMARK SMILES IDX 2 14 1 15 82 16 83 18 84 19 95 20 85 21 87 22 86 23 88 24
REMARK SMILES IDX 89 25 90 26 91 27 94 28 92 29 93 30 15 31 16 32 17 33 18 34
REMARK SMILES IDX 19 35 20 36 21 38 22 39 23 40 81 41 24 42 80 43 25 44 26 45
REMARK SMILES IDX 27 46 74 47 28 48 79 49 73 50 75 51 29 52 78 53 72 54 71 55
REMARK SMILES IDX 30 57 60 58 41 59 59 60 42 61 45 62 58 63 76 64 43 65 44 66
REMARK SMILES IDX 57 68 77 69 46 70 31 71 32 72 40 73 33 74 39 75 34 76 35 77
REMARK SMILES IDX 36 78 37 79 38 80 61 81 62 82 70 83 63 84 69 85 64 86 65 87
REMARK SMILES IDX 66 88 67 89 68 90 47 91 48 92 56 93 49 94 55 95 50 96 51 97
REMARK SMILES IDX 52 98 53 99 54 100
REMARK H PARENT 12 6 82 17 19 37 75 56 45 67
REMARK Flexibility Score: inf
ROOT
ATOM      1  C   UNL     1       1.834  -2.224  -0.066  1.00  0.00     0.021 C 
ENDROOT
BRANCH   1   2
ATOM      2  C   UNL     1       1.520  -1.493  -1.375  1.00  0.00     0.116 C 
BRANCH   2   3
ATOM      3  N   UNL     1       1.428  -0.045  -1.237  1.00  0.00    -0.352 N 
ATOM      4  C   UNL     1       2.282   0.961  -1.599  1.00  0.00     0.251 C 
ATOM      5  O   UNL     1       1.937   2.137  -1.538  1.00  0.00    -0.269 OA
ATOM      6  H   UNL     1       0.601   0.266  -0.803  1.00  0.00     0.163 HD
BRANCH   4   7
ATOM      7  C   UNL     1       3.606   0.641  -2.150  1.00  0.00     0.043 A 
ATOM      8  C   UNL     1       4.695   0.193  -1.389  1.00  0.00    -0.026 A 
ATOM      9  C   UNL     1       5.844  -0.222  -2.101  1.00  0.00     0.005 A 
ATOM     10  C   UNL     1       5.953  -0.062  -3.485  1.00  0.00     0.000 A 
ATOM     11  C   UNL     1       3.741   0.865  -3.533  1.00  0.00     0.014 A 
ATOM     12  C   UNL     1       4.918   0.529  -4.196  1.00  0.00     0.001 A 
BRANCH   8  13
ATOM     13  C   UNL     1       4.803   0.117   0.121  1.00  0.00     0.136 C 
BRANCH  13  14
ATOM     14  C   UNL     1       3.776   0.790   1.016  1.00  0.00     0.228 C 
ATOM     15  O   UNL     1       3.057   0.106   1.739  1.00  0.00    -0.274 OA
ATOM     16  N   UNL     1       3.840   2.170   1.054  1.00  0.00    -0.326 N 
ATOM     17  H   UNL     1       4.544   2.597   0.515  1.00  0.00     0.169 HD
BRANCH  16  18
ATOM     18  C   UNL     1       2.989   3.030   1.796  1.00  0.00     0.044 A 
ATOM     19  C   UNL     1       3.396   4.360   1.940  1.00  0.00     0.026 A 
ATOM     20  C   UNL     1       1.772   2.627   2.371  1.00  0.00     0.072 A 
ATOM     21  C   UNL     1       2.618   5.264   2.665  1.00  0.00     0.006 A 
ATOM     22  C   UNL     1       0.983   3.528   3.099  1.00  0.00     0.121 A 
ATOM     23  C   UNL     1       1.420   4.846   3.241  1.00  0.00     0.046 A 
BRANCH  22  24
ATOM     24  O   UNL     1      -0.212   3.277   3.724  1.00  0.00    -0.491 OA
BRANCH  24  25
ATOM     25  C   UNL     1      -0.823   2.001   3.549  1.00  0.00     0.261 C 
BRANCH  25  26
ATOM     26  C   UNL     1      -1.893   1.997   2.439  1.00  0.00     0.156 C 
ATOM     27  C   UNL     1      -2.055   0.612   1.833  1.00  0.00     0.038 C 
ATOM     28  O   UNL     1      -1.583   2.887   1.351  1.00  0.00    -0.375 OA
ATOM     29  C   UNL     1      -2.303   0.877   0.371  1.00  0.00     0.031 C 
ATOM     30  C   UNL     1      -1.494   2.132   0.143  1.00  0.00     0.161 C 
ENDBRANCH  25  26
ENDBRANCH  24  25
ENDBRANCH  22  24
ENDBRANCH  16  18
ENDBRANCH  13  14
ENDBRANCH   8  13
ENDBRANCH   4   7
ENDBRANCH   2   3
ENDBRANCH   1   2
BRANCH   1  31
ATOM     31  C   UNL     1       0.974  -1.800   1.131  1.00  0.00     0.002 C 
BRANCH  31  32
ATOM     32  C   UNL     1      -0.340  -2.563   1.288  1.00  0.00     0.002 C 
BRANCH  32  33
ATOM     33  C   UNL     1      -0.206  -3.880   2.042  1.00  0.00     0.021 C 
BRANCH  33  34
ATOM     34  C   UNL     1       0.292  -3.735   3.480  1.00  0.00     0.116 C 
BRANCH  34  35
ATOM     35  N   UNL     1      -0.628  -3.019   4.357  1.00  0.00    -0.352 N 
ATOM     36  C   UNL     1      -1.316  -3.490   5.468  1.00  0.00     0.251 C 
ATOM     37  H   UNL     1      -0.781  -2.073   4.132  1.00  0.00     0.163 HD
ATOM     38  O   UNL     1      -2.123  -2.806   6.059  1.00  0.00    -0.269 OA
BRANCH  36  39
ATOM     39  C   UNL     1      -1.048  -4.885   5.873  1.00  0.00     0.039 A 
ATOM     40  C   UNL     1      -2.079  -5.822   5.807  1.00  0.00     0.014 A 
ATOM     41  C   UNL     1       0.270  -5.274   6.101  1.00  0.00     0.014 A 
ATOM     42  C   UNL     1      -1.760  -7.181   5.846  1.00  0.00     0.010 A 
ATOM     43  C   UNL     1       0.592  -6.620   6.010  1.00  0.00     0.010 A 
ATOM     44  C   UNL     1      -0.416  -7.590   5.874  1.00  0.00    -0.014 A 
BRANCH  44  45
ATOM     45  C   UNL     1      -0.025  -9.020   5.763  1.00  0.00     0.031 A 
ATOM     46  C   UNL     1       0.823  -9.636   6.845  1.00  0.00     0.074 A 
ATOM     47  C   UNL     1      -0.334  -9.729   4.657  1.00  0.00     0.049 A 
ATOM     48  N   UNL     1       1.390 -10.813   6.881  1.00  0.00    -0.248 NA
ATOM     49  C   UNL     1       1.120  -8.793   8.015  1.00  0.00     0.031 C 
ATOM     50  C   UNL     1      -1.081  -9.229   3.498  1.00  0.00     0.029 A 
ATOM     51  N   UNL     1      -0.048 -11.030   4.321  1.00  0.00    -0.354 N 
ATOM     52  C   UNL     1       2.149 -10.826   8.046  1.00  0.00     0.074 A 
ATOM     53  C   UNL     1       2.025  -9.520   8.649  1.00  0.00     0.031 C 
ATOM     54  C   UNL     1      -1.234 -10.222   2.606  1.00  0.00     0.029 A 
ATOM     55  C   UNL     1      -0.564 -11.417   3.105  1.00  0.00     0.049 A 
ATOM     56  H   UNL     1       0.477 -11.631   4.897  1.00  0.00     0.167 HD
ATOM     57  C   UNL     1       2.856 -11.844   8.588  1.00  0.00     0.031 A 
ATOM     58  C   UNL     1      -0.508 -12.604   2.468  1.00  0.00     0.031 A 
ATOM     59  C   UNL     1       2.917 -13.162   8.021  1.00  0.00     0.049 A 
ATOM     60  C   UNL     1       0.216 -13.748   3.127  1.00  0.00     0.074 A 
ATOM     61  C   UNL     1       3.530 -14.292   8.530  1.00  0.00     0.029 A 
ATOM     62  N   UNL     1       2.320 -13.529   6.824  1.00  0.00    -0.354 N 
ATOM     63  N   UNL     1       0.875 -13.759   4.261  1.00  0.00    -0.248 NA
ATOM     64  C   UNL     1       0.192 -15.041   2.429  1.00  0.00     0.031 C 
ATOM     65  C   UNL     1       3.324 -15.340   7.626  1.00  0.00     0.029 A 
ATOM     66  C   UNL     1       2.549 -14.870   6.577  1.00  0.00     0.049 A 
ATOM     67  H   UNL     1       1.809 -12.925   6.238  1.00  0.00     0.167 HD
ATOM     68  C   UNL     1       1.319 -15.066   4.428  1.00  0.00     0.074 A 
ATOM     69  C   UNL     1       0.845 -15.818   3.283  1.00  0.00     0.031 C 
ATOM     70  C   UNL     1       2.053 -15.597   5.436  1.00  0.00     0.031 A 
BRANCH  57  71
ATOM     71  C   UNL     1       3.596 -11.564   9.869  1.00  0.00    -0.014 A 
ATOM     72  C   UNL     1       2.901 -11.315  11.068  1.00  0.00     0.010 A 
ATOM     73  C   UNL     1       5.001 -11.541   9.877  1.00  0.00     0.010 A 
ATOM     74  C   UNL     1       3.594 -10.985  12.234  1.00  0.00     0.020 A 
ATOM     75  C   UNL     1       5.701 -11.244  11.051  1.00  0.00     0.020 A 
ATOM     76  C   UNL     1       4.991 -10.944  12.216  1.00  0.00     0.054 A 
BRANCH  76  77
ATOM     77  S   UNL     1       5.868 -10.515  13.744  1.00  0.00     0.124 S 
ATOM     78  O   UNL     1       5.670  -9.069  13.807  1.00  0.00    -0.237 OA
ATOM     79  O   UNL     1       5.152 -11.290  14.754  1.00  0.00    -0.237 OA
ATOM     80  O   UNL     1       7.239 -10.947  13.488  1.00  0.00    -0.744 OA
ENDBRANCH  76  77
ENDBRANCH  57  71
BRANCH  58  81
ATOM     81  C   UNL     1      -1.198 -12.787   1.161  1.00  0.00    -0.014 A 
ATOM     82  C   UNL     1      -2.381 -13.545   1.084  1.00  0.00     0.010 A 
ATOM     83  C   UNL     1      -0.691 -12.197  -0.011  1.00  0.00     0.010 A 
ATOM     84  C   UNL     1      -3.034 -13.724  -0.139  1.00  0.00     0.020 A 
ATOM     85  C   UNL     1      -1.354 -12.353  -1.233  1.00  0.00     0.020 A 
ATOM     86  C   UNL     1      -2.516 -13.126  -1.291  1.00  0.00     0.054 A 
BRANCH  86  87
ATOM     87  S   UNL     1      -3.410 -13.324  -2.859  1.00  0.00     0.124 S 
ATOM     88  O   UNL     1      -3.081 -14.698  -3.225  1.00  0.00    -0.237 OA
ATOM     89  O   UNL     1      -4.797 -13.088  -2.465  1.00  0.00    -0.237 OA
ATOM     90  O   UNL     1      -2.830 -12.290  -3.714  1.00  0.00    -0.744 OA
ENDBRANCH  86  87
ENDBRANCH  58  81
BRANCH  70  91
ATOM     91  C   UNL     1       2.355 -17.068   5.374  1.00  0.00    -0.014 A 
ATOM     92  C   UNL     1       3.325 -17.572   4.491  1.00  0.00     0.010 A 
ATOM     93  C   UNL     1       1.715 -17.943   6.270  1.00  0.00     0.010 A 
ATOM     94  C   UNL     1       3.635 -18.934   4.492  1.00  0.00     0.020 A 
ATOM     95  C   UNL     1       2.040 -19.300   6.290  1.00  0.00     0.020 A 
ATOM     96  C   UNL     1       2.991 -19.789   5.392  1.00  0.00     0.054 A 
BRANCH  96  97
ATOM     97  S   UNL     1       3.456 -21.542   5.417  1.00  0.00     0.124 S 
ATOM     98  O   UNL     1       2.789 -22.049   4.221  1.00  0.00    -0.237 OA
ATOM     99  O   UNL     1       4.914 -21.489   5.350  1.00  0.00    -0.237 OA
ATOM    100  O   UNL     1       2.914 -22.025   6.685  1.00  0.00    -0.744 OA
ENDBRANCH  96  97
ENDBRANCH  70  91
ENDBRANCH  44  45
ENDBRANCH  36  39
ENDBRANCH  34  35
ENDBRANCH  33  34
ENDBRANCH  32  33
ENDBRANCH  31  32
ENDBRANCH   1  31
TORSDOF 22
