REMARK SMILES O=C(NCCCCCCNC(=O)[C@@H]1Cc2ccccc2CN1C(=O)COc1ccccc1)c1ccc(-c2c3nc(c(-c4ccc(S(=O)(=O)[O-])cc4)c4ccc([nH]4)c(-c4ccc(S(=O)(=O)[O-])cc4)c4nc(c(-c5ccc(S(=O)(=O)[O-])cc5)c5ccc2[nH]5)C=C4)C=C3)cc1
REMARK SMILES IDX 7 1 6 2 5 3 4 4 3 5 1 6 2 7 33 9 34 10 92 11 35 12 91 13
REMARK SMILES IDX 36 14 37 15 38 16 85 17 39 18 90 19 84 20 86 21 40 22 89 23
REMARK SMILES IDX 83 24 82 25 41 27 71 28 52 29 70 30 53 31 56 32 69 33 87 34
REMARK SMILES IDX 54 35 55 36 68 38 88 39 57 40 42 41 43 42 51 43 44 44 50 45
REMARK SMILES IDX 45 46 46 47 47 48 48 49 49 50 72 51 73 52 81 53 74 54 80 55
REMARK SMILES IDX 75 56 76 57 77 58 78 59 79 60 58 61 59 62 67 63 60 64 66 65
REMARK SMILES IDX 61 66 62 67 63 68 64 69 65 70 8 71 9 72 10 73 11 74 12 76
REMARK SMILES IDX 13 77 14 78 22 79 15 80 21 81 16 82 20 83 17 84 19 85 18 86
REMARK SMILES IDX 23 87 24 88 25 89 26 90 27 91 28 92 32 93 29 94 31 95 30 96
REMARK H PARENT 3 8 86 26 56 37 10 75
REMARK Flexibility Score: inf
ROOT
ATOM      1  C   UNL     1      13.045   6.087   6.696  1.00  0.00     0.002 C 
ENDROOT
BRANCH   1   2
ATOM      2  C   UNL     1      14.314   5.324   6.312  1.00  0.00     0.002 C 
BRANCH   2   3
ATOM      3  C   UNL     1      15.422   6.200   5.727  1.00  0.00     0.021 C 
BRANCH   3   4
ATOM      4  C   UNL     1      15.843   7.345   6.636  1.00  0.00     0.116 C 
BRANCH   4   5
ATOM      5  N   UNL     1      16.468   6.852   7.852  1.00  0.00    -0.352 N 
ATOM      6  O   UNL     1      18.218   6.434   9.216  1.00  0.00    -0.269 OA
ATOM      7  C   UNL     1      17.733   7.111   8.315  1.00  0.00     0.251 C 
ATOM      8  H   UNL     1      15.916   6.260   8.412  1.00  0.00     0.163 HD
BRANCH   7   9
ATOM      9  C   UNL     1      18.499   8.217   7.706  1.00  0.00     0.039 A 
ATOM     10  C   UNL     1      17.884   9.455   7.496  1.00  0.00     0.014 A 
ATOM     11  C   UNL     1      19.835   8.018   7.353  1.00  0.00     0.014 A 
ATOM     12  C   UNL     1      18.576  10.467   6.847  1.00  0.00     0.010 A 
ATOM     13  C   UNL     1      20.556   9.066   6.778  1.00  0.00     0.010 A 
ATOM     14  C   UNL     1      19.931  10.298   6.522  1.00  0.00    -0.014 A 
BRANCH  14  15
ATOM     15  C   UNL     1      20.711  11.473   6.066  1.00  0.00     0.031 A 
ATOM     16  C   UNL     1      21.309  11.537   4.692  1.00  0.00     0.074 A 
ATOM     17  C   UNL     1      20.873  12.489   6.938  1.00  0.00     0.049 A 
ATOM     18  N   UNL     1      22.026  12.493   4.160  1.00  0.00    -0.248 NA
ATOM     19  C   UNL     1      21.085  10.388   3.800  1.00  0.00     0.031 C 
ATOM     20  C   UNL     1      20.346  12.517   8.308  1.00  0.00     0.029 A 
ATOM     21  N   UNL     1      21.516  13.692   6.810  1.00  0.00    -0.354 N 
ATOM     22  C   UNL     1      22.360  12.057   2.884  1.00  0.00     0.074 A 
ATOM     23  C   UNL     1      21.773  10.744   2.721  1.00  0.00     0.031 C 
ATOM     24  C   UNL     1      20.657  13.688   8.878  1.00  0.00     0.029 A 
ATOM     25  C   UNL     1      21.467  14.462   7.949  1.00  0.00     0.049 A 
ATOM     26  H   UNL     1      21.969  13.977   5.984  1.00  0.00     0.167 HD
ATOM     27  C   UNL     1      23.092  12.699   1.943  1.00  0.00     0.031 A 
ATOM     28  C   UNL     1      22.042  15.645   8.232  1.00  0.00     0.031 A 
ATOM     29  C   UNL     1      23.664  14.010   2.122  1.00  0.00     0.049 A 
ATOM     30  C   UNL     1      22.878  16.308   7.178  1.00  0.00     0.074 A 
ATOM     31  C   UNL     1      24.368  14.771   1.204  1.00  0.00     0.029 A 
ATOM     32  N   UNL     1      23.616  14.747   3.296  1.00  0.00    -0.354 N 
ATOM     33  N   UNL     1      23.117  15.913   5.950  1.00  0.00    -0.248 NA
ATOM     34  C   UNL     1      23.527  17.573   7.546  1.00  0.00     0.031 C 
ATOM     35  C   UNL     1      24.804  15.935   1.842  1.00  0.00     0.029 A 
ATOM     36  C   UNL     1      24.318  15.931   3.140  1.00  0.00     0.049 A 
ATOM     37  H   UNL     1      23.152  14.470   4.119  1.00  0.00     0.167 HD
ATOM     38  C   UNL     1      23.939  16.886   5.397  1.00  0.00     0.074 A 
ATOM     39  C   UNL     1      24.126  17.904   6.411  1.00  0.00     0.031 C 
ATOM     40  C   UNL     1      24.498  16.928   4.163  1.00  0.00     0.031 A 
BRANCH  27  41
ATOM     41  C   UNL     1      23.352  12.001   0.634  1.00  0.00    -0.014 A 
ATOM     42  C   UNL     1      22.347  11.876  -0.340  1.00  0.00     0.010 A 
ATOM     43  C   UNL     1      24.659  11.575   0.328  1.00  0.00     0.010 A 
ATOM     44  C   UNL     1      22.642  11.332  -1.594  1.00  0.00     0.020 A 
ATOM     45  C   UNL     1      24.963  11.051  -0.932  1.00  0.00     0.020 A 
ATOM     46  C   UNL     1      23.951  10.930  -1.885  1.00  0.00     0.054 A 
BRANCH  46  47
ATOM     47  S   UNL     1      24.319  10.302  -3.547  1.00  0.00     0.124 S 
ATOM     48  O   UNL     1      23.645   9.006  -3.536  1.00  0.00    -0.237 OA
ATOM     49  O   UNL     1      23.717  11.315  -4.411  1.00  0.00    -0.237 OA
ATOM     50  O   UNL     1      25.778  10.244  -3.583  1.00  0.00    -0.744 OA
ENDBRANCH  46  47
ENDBRANCH  27  41
BRANCH  28  51
ATOM     51  C   UNL     1      21.899  16.238   9.589  1.00  0.00    -0.014 A 
ATOM     52  C   UNL     1      21.204  17.444   9.781  1.00  0.00     0.010 A 
ATOM     53  C   UNL     1      22.476  15.597  10.702  1.00  0.00     0.010 A 
ATOM     54  C   UNL     1      21.122  18.017  11.053  1.00  0.00     0.020 A 
ATOM     55  C   UNL     1      22.365  16.146  11.980  1.00  0.00     0.020 A 
ATOM     56  C   UNL     1      21.708  17.366  12.144  1.00  0.00     0.054 A 
BRANCH  56  57
ATOM     57  S   UNL     1      21.586  18.123  13.787  1.00  0.00     0.124 S 
ATOM     58  O   UNL     1      22.545  19.218  13.686  1.00  0.00    -0.237 OA
ATOM     59  O   UNL     1      20.180  18.516  13.851  1.00  0.00    -0.237 OA
ATOM     60  O   UNL     1      21.964  17.039  14.691  1.00  0.00    -0.744 OA
ENDBRANCH  56  57
ENDBRANCH  28  51
BRANCH  40  61
ATOM     61  C   UNL     1      25.357  18.121   3.843  1.00  0.00    -0.014 A 
ATOM     62  C   UNL     1      26.626  18.275   4.429  1.00  0.00     0.010 A 
ATOM     63  C   UNL     1      24.908  19.075   2.913  1.00  0.00     0.010 A 
ATOM     64  C   UNL     1      27.419  19.381   4.114  1.00  0.00     0.020 A 
ATOM     65  C   UNL     1      25.711  20.165   2.571  1.00  0.00     0.020 A 
ATOM     66  C   UNL     1      26.956  20.318   3.184  1.00  0.00     0.054 A 
BRANCH  66  67
ATOM     67  S   UNL     1      28.026  21.718   2.756  1.00  0.00     0.124 S 
ATOM     68  O   UNL     1      27.945  22.542   3.959  1.00  0.00    -0.237 OA
ATOM     69  O   UNL     1      29.316  21.075   2.520  1.00  0.00    -0.237 OA
ATOM     70  O   UNL     1      27.393  22.287   1.568  1.00  0.00    -0.744 OA
ENDBRANCH  66  67
ENDBRANCH  40  61
ENDBRANCH  14  15
ENDBRANCH   7   9
ENDBRANCH   4   5
ENDBRANCH   3   4
ENDBRANCH   2   3
ENDBRANCH   1   2
BRANCH   1  71
ATOM     71  C   UNL     1      12.475   6.969   5.580  1.00  0.00     0.021 C 
BRANCH  71  72
ATOM     72  C   UNL     1      12.092   6.192   4.322  1.00  0.00     0.116 C 
BRANCH  72  73
ATOM     73  N   UNL     1      10.980   5.300   4.580  1.00  0.00    -0.354 N 
ATOM     74  C   UNL     1       9.668   5.369   4.228  1.00  0.00     0.243 C 
ATOM     75  H   UNL     1      11.216   4.501   5.105  1.00  0.00     0.163 HD
ATOM     76  O   UNL     1       8.956   4.421   4.580  1.00  0.00    -0.273 OA
BRANCH  74  77
ATOM     77  C   UNL     1       9.116   6.436   3.258  1.00  0.00     0.179 C 
ATOM     78  C   UNL     1       9.310   5.809   1.859  1.00  0.00     0.071 C 
ATOM     79  N   UNL     1       9.668   7.810   3.373  1.00  0.00    -0.323 N 
ATOM     80  C   UNL     1       8.914   6.769   0.777  1.00  0.00    -0.040 A 
ATOM     81  C   UNL     1      10.084   8.508   2.150  1.00  0.00     0.156 C 
ATOM     82  C   UNL     1       8.253   6.349  -0.381  1.00  0.00     0.004 A 
ATOM     83  C   UNL     1       9.279   8.112   0.938  1.00  0.00    -0.025 A 
ATOM     84  C   UNL     1       7.933   7.276  -1.370  1.00  0.00     0.000 A 
ATOM     85  C   UNL     1       8.957   9.035  -0.064  1.00  0.00     0.006 A 
ATOM     86  C   UNL     1       8.279   8.617  -1.210  1.00  0.00     0.000 A 
BRANCH  79  87
ATOM     87  C   UNL     1       9.647   8.565   4.539  1.00  0.00     0.261 C 
ATOM     88  O   UNL     1      10.280   9.623   4.624  1.00  0.00    -0.271 OA
BRANCH  87  89
ATOM     89  C   UNL     1       8.840   8.072   5.748  1.00  0.00     0.329 C 
BRANCH  89  90
ATOM     90  O   UNL     1       7.495   7.692   5.509  1.00  0.00    -0.484 OA
BRANCH  90  91
ATOM     91  C   UNL     1       6.621   8.738   5.397  1.00  0.00     0.120 A 
ATOM     92  C   UNL     1       5.441   8.631   6.131  1.00  0.00     0.046 A 
ATOM     93  C   UNL     1       6.807   9.823   4.540  1.00  0.00     0.046 A 
ATOM     94  C   UNL     1       4.466   9.625   6.036  1.00  0.00     0.004 A 
ATOM     95  C   UNL     1       5.834  10.817   4.446  1.00  0.00     0.004 A 
ATOM     96  C   UNL     1       4.664  10.719   5.194  1.00  0.00     0.000 A 
ENDBRANCH  90  91
ENDBRANCH  89  90
ENDBRANCH  87  89
ENDBRANCH  79  87
ENDBRANCH  74  77
ENDBRANCH  72  73
ENDBRANCH  71  72
ENDBRANCH   1  71
TORSDOF 20
