REMARK SMILES Cc1cc(OC(F)(F)F)cc2c1O[C@@H](C(F)(F)F)C(C(=O)NCCCCCCNC(=O)c1ccc(-c3c4nc(c(-c5ccc(S(=O)(=O)[O-])cc5)c5ccc([nH]5)c(-c5ccc(S(=O)(=O)[O-])cc5)c5nc(c(-c6ccc(S(=O)(=O)[O-])cc6)c6ccc3[nH]6)C=C5)C=C4)cc1)=C2
REMARK SMILES IDX 26 1 25 2 24 3 23 4 22 5 20 6 21 7 19 9 1 10 2 11 3 12 12 13
REMARK SMILES IDX 4 14 11 15 13 16 10 17 92 18 14 19 5 20 6 21 7 22 8 23 9 24
REMARK SMILES IDX 15 25 16 26 17 27 18 28 27 29 28 30 29 31 30 32 31 34 32 35
REMARK SMILES IDX 33 36 91 37 34 38 90 39 35 40 36 41 37 42 84 43 38 44 89 45
REMARK SMILES IDX 83 46 85 47 39 48 88 49 82 50 81 51 40 53 70 54 51 55 69 56
REMARK SMILES IDX 52 57 55 58 68 59 86 60 53 61 54 62 67 64 87 65 56 66 41 67
REMARK SMILES IDX 42 68 50 69 43 70 49 71 44 72 45 73 46 74 47 75 48 76 71 77
REMARK SMILES IDX 72 78 80 79 73 80 79 81 74 82 75 83 76 84 77 85 78 86 57 87
REMARK SMILES IDX 58 88 66 89 59 90 65 91 60 92 61 93 62 94 63 95 64 96
REMARK H PARENT 22 8 29 33 85 52 55 63
REMARK Flexibility Score: inf
ROOT
ATOM      1  C   UNL     1       5.050  -7.228   5.027  1.00  0.00     0.002 C 
ENDROOT
BRANCH   1   2
ATOM      2  C   UNL     1       3.559  -7.406   4.715  1.00  0.00     0.002 C 
BRANCH   2   3
ATOM      3  C   UNL     1       2.859  -6.182   4.121  1.00  0.00     0.021 C 
BRANCH   3   4
ATOM      4  C   UNL     1       3.455  -5.689   2.804  1.00  0.00     0.116 C 
BRANCH   4   5
ATOM      5  N   UNL     1       2.879  -6.378   1.661  1.00  0.00    -0.352 N 
ATOM      6  C   UNL     1       2.153  -6.058   0.564  1.00  0.00     0.251 C 
ATOM      7  O   UNL     1       1.887  -7.009  -0.180  1.00  0.00    -0.270 OA
ATOM      8  H   UNL     1       3.070  -7.343   1.693  1.00  0.00     0.163 HD
BRANCH   6   9
ATOM      9  C   UNL     1       1.672  -4.689   0.202  1.00  0.00     0.067 C 
ATOM     10  C   UNL     1       0.788   0.341  -0.247  1.00  0.00     0.048 C 
ATOM     11  C   UNL     1       0.436  -0.873  -1.062  1.00  0.00    -0.005 A 
ATOM     12  C   UNL     1      -0.349  -0.753  -2.217  1.00  0.00     0.054 A 
ATOM     13  C   UNL     1       0.883  -2.141  -0.673  1.00  0.00     0.131 A 
ATOM     14  C   UNL     1      -0.671  -1.880  -2.978  1.00  0.00     0.130 A 
ATOM     15  C   UNL     1       0.575  -3.275  -1.424  1.00  0.00     0.021 A 
ATOM     16  O   UNL     1       1.666  -2.205   0.442  1.00  0.00    -0.475 OA
ATOM     17  C   UNL     1      -0.203  -3.138  -2.576  1.00  0.00     0.058 A 
ATOM     18  C   UNL     1       1.101  -4.572  -1.012  1.00  0.00     0.025 C 
ATOM     19  C   UNL     1       1.747  -3.491   1.107  1.00  0.00     0.314 C 
BRANCH  14  20
ATOM     20  O   UNL     1      -1.421  -1.895  -4.120  1.00  0.00    -0.406 OA
BRANCH  20  21
ATOM     21  C   UNL     1      -1.893  -0.653  -4.614  1.00  0.00     0.573 C 
ATOM     22  F   UNL     1      -2.724  -0.060  -3.730  1.00  0.00    -0.132 F 
ATOM     23  F   UNL     1      -0.871   0.179  -4.905  1.00  0.00    -0.132 F 
ATOM     24  F   UNL     1      -2.587  -0.877  -5.753  1.00  0.00    -0.132 F 
ENDBRANCH  20  21
ENDBRANCH  14  20
BRANCH  19  25
ATOM     25  C   UNL     1       0.717  -3.543   2.247  1.00  0.00     0.429 C 
ATOM     26  F   UNL     1       0.579  -4.785   2.764  1.00  0.00    -0.167 F 
ATOM     27  F   UNL     1       1.095  -2.740   3.271  1.00  0.00    -0.167 F 
ATOM     28  F   UNL     1      -0.515  -3.147   1.853  1.00  0.00    -0.167 F 
ENDBRANCH  19  25
ENDBRANCH   6   9
ENDBRANCH   4   5
ENDBRANCH   3   4
ENDBRANCH   2   3
ENDBRANCH   1   2
BRANCH   1  29
ATOM     29  C   UNL     1       5.417  -5.960   5.802  1.00  0.00     0.021 C 
BRANCH  29  30
ATOM     30  C   UNL     1       4.678  -5.786   7.125  1.00  0.00     0.116 C 
BRANCH  30  31
ATOM     31  N   UNL     1       5.016  -6.833   8.073  1.00  0.00    -0.352 N 
ATOM     32  C   UNL     1       5.642  -6.714   9.290  1.00  0.00     0.251 C 
ATOM     33  H   UNL     1       4.763  -7.747   7.809  1.00  0.00     0.163 HD
ATOM     34  O   UNL     1       6.042  -7.704   9.886  1.00  0.00    -0.269 OA
BRANCH  32  35
ATOM     35  C   UNL     1       5.836  -5.366   9.859  1.00  0.00     0.039 A 
ATOM     36  C   UNL     1       7.121  -4.963  10.227  1.00  0.00     0.014 A 
ATOM     37  C   UNL     1       4.745  -4.503  10.007  1.00  0.00     0.014 A 
ATOM     38  C   UNL     1       7.319  -3.669  10.711  1.00  0.00     0.010 A 
ATOM     39  C   UNL     1       4.953  -3.199  10.443  1.00  0.00     0.010 A 
ATOM     40  C   UNL     1       6.240  -2.775  10.808  1.00  0.00    -0.014 A 
BRANCH  40  41
ATOM     41  C   UNL     1       6.435  -1.409  11.346  1.00  0.00     0.031 A 
ATOM     42  C   UNL     1       5.891  -1.065  12.704  1.00  0.00     0.074 A 
ATOM     43  C   UNL     1       7.082  -0.481  10.613  1.00  0.00     0.049 A 
ATOM     44  N   UNL     1       5.952   0.071  13.347  1.00  0.00    -0.248 NA
ATOM     45  C   UNL     1       5.175  -2.130  13.428  1.00  0.00     0.031 C 
ATOM     46  C   UNL     1       7.636  -0.694   9.275  1.00  0.00     0.029 A 
ATOM     47  N   UNL     1       7.386   0.827  10.896  1.00  0.00    -0.354 N 
ATOM     48  C   UNL     1       5.285  -0.142  14.547  1.00  0.00     0.074 A 
ATOM     49  C   UNL     1       4.787  -1.498  14.526  1.00  0.00     0.031 C 
ATOM     50  C   UNL     1       8.240   0.435   8.866  1.00  0.00     0.029 A 
ATOM     51  C   UNL     1       8.095   1.457   9.899  1.00  0.00     0.049 A 
ATOM     52  H   UNL     1       7.123   1.272  11.733  1.00  0.00     0.167 HD
ATOM     53  C   UNL     1       5.127   0.709  15.586  1.00  0.00     0.031 A 
ATOM     54  C   UNL     1       8.579   2.712   9.831  1.00  0.00     0.031 A 
ATOM     55  C   UNL     1       5.644   2.047  15.617  1.00  0.00     0.049 A 
ATOM     56  C   UNL     1       8.373   3.647  10.991  1.00  0.00     0.074 A 
ATOM     57  C   UNL     1       5.569   2.971  16.644  1.00  0.00     0.029 A 
ATOM     58  N   UNL     1       6.340   2.649  14.581  1.00  0.00    -0.354 N 
ATOM     59  N   UNL     1       7.769   3.414  12.132  1.00  0.00    -0.248 NA
ATOM     60  C   UNL     1       8.915   5.007  10.862  1.00  0.00     0.031 C 
ATOM     61  C   UNL     1       6.193   4.145  16.217  1.00  0.00     0.029 A 
ATOM     62  C   UNL     1       6.690   3.937  14.940  1.00  0.00     0.049 A 
ATOM     63  H   UNL     1       6.553   2.223  13.720  1.00  0.00     0.167 HD
ATOM     64  C   UNL     1       7.881   4.590  12.865  1.00  0.00     0.074 A 
ATOM     65  C   UNL     1       8.607   5.533  12.042  1.00  0.00     0.031 C 
ATOM     66  C   UNL     1       7.425   4.857  14.111  1.00  0.00     0.031 A 
BRANCH  53  67
ATOM     67  C   UNL     1       4.384   0.212  16.793  1.00  0.00    -0.014 A 
ATOM     68  C   UNL     1       5.006  -0.662  17.702  1.00  0.00     0.010 A 
ATOM     69  C   UNL     1       3.090   0.688  17.066  1.00  0.00     0.010 A 
ATOM     70  C   UNL     1       4.340  -1.060  18.862  1.00  0.00     0.020 A 
ATOM     71  C   UNL     1       2.428   0.305  18.236  1.00  0.00     0.020 A 
ATOM     72  C   UNL     1       3.058  -0.567  19.126  1.00  0.00     0.054 A 
BRANCH  72  73
ATOM     73  S   UNL     1       2.243  -1.069  20.666  1.00  0.00     0.124 S 
ATOM     74  O   UNL     1       2.138  -2.517  20.498  1.00  0.00    -0.237 OA
ATOM     75  O   UNL     1       3.191  -0.622  21.683  1.00  0.00    -0.237 OA
ATOM     76  O   UNL     1       0.972  -0.350  20.639  1.00  0.00    -0.744 OA
ENDBRANCH  72  73
ENDBRANCH  53  67
BRANCH  54  77
ATOM     77  C   UNL     1       9.340   3.144   8.629  1.00  0.00    -0.014 A 
ATOM     78  C   UNL     1      10.740   3.259   8.682  1.00  0.00     0.010 A 
ATOM     79  C   UNL     1       8.674   3.410   7.420  1.00  0.00     0.010 A 
ATOM     80  C   UNL     1      11.462   3.634   7.545  1.00  0.00     0.020 A 
ATOM     81  C   UNL     1       9.394   3.769   6.276  1.00  0.00     0.020 A 
ATOM     82  C   UNL     1      10.784   3.879   6.347  1.00  0.00     0.054 A 
BRANCH  82  83
ATOM     83  S   UNL     1      11.754   4.315   4.876  1.00  0.00     0.124 S 
ATOM     84  O   UNL     1      12.381   5.569   5.281  1.00  0.00    -0.237 OA
ATOM     85  O   UNL     1      12.651   3.169   4.748  1.00  0.00    -0.237 OA
ATOM     86  O   UNL     1      10.747   4.432   3.823  1.00  0.00    -0.744 OA
ENDBRANCH  82  83
ENDBRANCH  54  77
BRANCH  66  87
ATOM     87  C   UNL     1       7.705   6.211  14.697  1.00  0.00    -0.014 A 
ATOM     88  C   UNL     1       6.898   7.312  14.368  1.00  0.00     0.010 A 
ATOM     89  C   UNL     1       8.676   6.340  15.707  1.00  0.00     0.010 A 
ATOM     90  C   UNL     1       7.045   8.519  15.056  1.00  0.00     0.020 A 
ATOM     91  C   UNL     1       8.814   7.540  16.407  1.00  0.00     0.020 A 
ATOM     92  C   UNL     1       7.990   8.619  16.083  1.00  0.00     0.054 A 
BRANCH  92  93
ATOM     93  S   UNL     1       8.080  10.165  17.027  1.00  0.00     0.124 S 
ATOM     94  O   UNL     1       8.468  11.131  16.002  1.00  0.00    -0.237 OA
ATOM     95  O   UNL     1       6.718  10.302  17.535  1.00  0.00    -0.237 OA
ATOM     96  O   UNL     1       9.097   9.897  18.042  1.00  0.00    -0.744 OA
ENDBRANCH  92  93
ENDBRANCH  66  87
ENDBRANCH  40  41
ENDBRANCH  32  35
ENDBRANCH  30  31
ENDBRANCH  29  30
ENDBRANCH   1  29
TORSDOF 19
