REMARK SMILES O=C(CCN1C(=O)/C(=C/C=C/c2ccco2)SC1=S)Nc1ccc(C(=O)NCCCCCCNC(=O)c2ccc(-c3c4nc(c(-c5ccc(S(=O)(=O)[O-])cc5)c5ccc([nH]5)c(-c5ccc(S(=O)(=O)[O-])cc5)c5nc(c(-c6ccc(S(=O)(=O)[O-])cc6)c6ccc3[nH]6)C=C5)C=C4)cc2)c(O)c1
REMARK SMILES IDX 29 1 28 2 27 3 25 4 26 5 24 7 21 8 22 9 99 10 23 11 97 12
REMARK SMILES IDX 20 13 1 14 2 15 3 17 4 18 5 19 6 20 18 21 7 22 8 23 17 24
REMARK SMILES IDX 19 25 9 26 10 27 11 28 12 29 13 30 16 31 14 32 15 33 98 34
REMARK SMILES IDX 30 36 31 37 32 38 33 39 34 40 35 41 36 43 37 44 38 45 96 46
REMARK SMILES IDX 39 47 95 48 40 49 41 50 42 51 89 52 43 53 94 54 88 55 90 56
REMARK SMILES IDX 44 57 93 58 87 59 86 60 45 62 75 63 56 64 74 65 57 66 60 67
REMARK SMILES IDX 73 68 91 69 58 70 59 71 72 73 92 74 61 75 46 76 47 77 55 78
REMARK SMILES IDX 48 79 54 80 49 81 50 82 51 83 52 84 53 85 76 86 77 87 85 88
REMARK SMILES IDX 78 89 84 90 79 91 80 92 81 93 82 94 83 95 62 96 63 97 71 98
REMARK SMILES IDX 64 99 70 100 65 101 66 102 67 103 68 104 69 105
REMARK H PARENT 27 6 20 16 98 35 34 42 90 61 60 72
REMARK Flexibility Score: inf
ROOT
ATOM      1  C   UNL     1       0.092   7.960   0.669  1.00  0.00     0.021 C 
ENDROOT
BRANCH   1   2
ATOM      2  C   UNL     1       0.870   6.912   1.462  1.00  0.00     0.116 C 
BRANCH   2   3
ATOM      3  N   UNL     1       0.170   6.419   2.638  1.00  0.00    -0.352 N 
ATOM      4  C   UNL     1       0.144   5.168   3.204  1.00  0.00     0.255 C 
ATOM      5  O   UNL     1      -0.560   4.978   4.194  1.00  0.00    -0.269 OA
ATOM      6  H   UNL     1      -0.375   7.093   3.104  1.00  0.00     0.163 HD
BRANCH   4   7
ATOM      7  C   UNL     1       0.904   4.029   2.634  1.00  0.00     0.081 A 
ATOM      8  C   UNL     1       2.116   1.783   1.438  1.00  0.00     0.044 A 
ATOM      9  C   UNL     1       0.824   1.690   1.946  1.00  0.00     0.027 A 
ATOM     10  C   UNL     1       2.829   2.974   1.611  1.00  0.00     0.073 A 
ATOM     11  C   UNL     1       0.225   2.803   2.548  1.00  0.00     0.020 A 
ATOM     12  C   UNL     1       2.235   4.082   2.217  1.00  0.00     0.130 A 
BRANCH   8  13
ATOM     13  N   UNL     1       2.765   0.736   0.759  1.00  0.00    -0.326 N 
ATOM     14  O   UNL     1       0.970  -0.581   0.083  1.00  0.00    -0.275 OA
ATOM     15  C   UNL     1       2.171  -0.334   0.119  1.00  0.00     0.226 C 
ATOM     16  H   UNL     1       3.749   0.770   0.737  1.00  0.00     0.169 HD
BRANCH  15  17
ATOM     17  C   UNL     1       3.169  -1.256  -0.559  1.00  0.00     0.122 C 
BRANCH  17  18
ATOM     18  C   UNL     1       3.945  -0.615  -1.717  1.00  0.00     0.137 C 
BRANCH  18  19
ATOM     19  N   UNL     1       5.004   0.317  -1.296  1.00  0.00    -0.292 N 
ATOM     20  C   UNL     1       4.820   1.681  -1.498  1.00  0.00     0.266 C 
ATOM     21  C   UNL     1       6.220  -0.064  -0.761  1.00  0.00     0.148 C 
ATOM     22  O   UNL     1       3.849   2.202  -2.019  1.00  0.00    -0.268 OA
ATOM     23  C   UNL     1       5.949   2.444  -0.902  1.00  0.00     0.080 C 
ATOM     24  S   UNL     1       7.161   1.361  -0.347  1.00  0.00    -0.054 SA
ATOM     25  S   UNL     1       6.783  -1.607  -0.474  1.00  0.00    -0.052 S 
ATOM     26  C   UNL     1       5.906   3.776  -0.759  1.00  0.00     0.021 C 
BRANCH  26  27
ATOM     27  C   UNL     1       6.922   4.596  -0.128  1.00  0.00     0.005 C 
ATOM     28  C   UNL     1       6.762   5.902   0.137  1.00  0.00     0.047 C 
BRANCH  28  29
ATOM     29  C   UNL     1       7.801   6.666   0.739  1.00  0.00     0.126 A 
ATOM     30  C   UNL     1       9.184   6.517   0.680  1.00  0.00     0.050 A 
ATOM     31  O   UNL     1       7.543   7.776   1.516  1.00  0.00    -0.465 OA
ATOM     32  C   UNL     1       9.771   7.551   1.444  1.00  0.00     0.042 A 
ATOM     33  C   UNL     1       8.726   8.287   1.938  1.00  0.00     0.195 A 
ENDBRANCH  28  29
ENDBRANCH  26  27
ENDBRANCH  18  19
ENDBRANCH  17  18
ENDBRANCH  15  17
ENDBRANCH   8  13
BRANCH  12  34
ATOM     34  O   UNL     1       3.053   5.164   2.383  1.00  0.00    -0.507 OA
ATOM     35  H   UNL     1       2.723   5.944   2.783  1.00  0.00     0.293 HD
ENDBRANCH  12  34
ENDBRANCH   4   7
ENDBRANCH   2   3
ENDBRANCH   1   2
BRANCH   1  36
ATOM     36  C   UNL     1      -0.324   9.225   1.429  1.00  0.00     0.002 C 
BRANCH  36  37
ATOM     37  C   UNL     1       0.773   9.955   2.208  1.00  0.00     0.002 C 
BRANCH  37  38
ATOM     38  C   UNL     1       2.029  10.336   1.423  1.00  0.00     0.021 C 
BRANCH  38  39
ATOM     39  C   UNL     1       1.798  11.112   0.132  1.00  0.00     0.116 C 
BRANCH  39  40
ATOM     40  N   UNL     1       1.105  12.372   0.342  1.00  0.00    -0.352 N 
ATOM     41  C   UNL     1       1.436  13.634  -0.090  1.00  0.00     0.251 C 
ATOM     42  H   UNL     1       0.277  12.312   0.870  1.00  0.00     0.163 HD
ATOM     43  O   UNL     1       0.794  14.602   0.309  1.00  0.00    -0.269 OA
BRANCH  41  44
ATOM     44  C   UNL     1       2.581  13.831  -1.008  1.00  0.00     0.039 A 
ATOM     45  C   UNL     1       3.478  14.871  -0.750  1.00  0.00     0.014 A 
ATOM     46  C   UNL     1       2.771  13.003  -2.118  1.00  0.00     0.014 A 
ATOM     47  C   UNL     1       4.600  15.037  -1.567  1.00  0.00     0.010 A 
ATOM     48  C   UNL     1       3.929  13.122  -2.883  1.00  0.00     0.010 A 
ATOM     49  C   UNL     1       4.856  14.142  -2.618  1.00  0.00    -0.014 A 
BRANCH  49  50
ATOM     50  C   UNL     1       6.090  14.253  -3.441  1.00  0.00     0.031 A 
ATOM     51  C   UNL     1       5.996  14.538  -4.917  1.00  0.00     0.074 A 
ATOM     52  C   UNL     1       7.293  14.044  -2.870  1.00  0.00     0.049 A 
ATOM     53  N   UNL     1       6.956  14.621  -5.802  1.00  0.00    -0.248 NA
ATOM     54  C   UNL     1       4.648  14.735  -5.475  1.00  0.00     0.031 C 
ATOM     55  C   UNL     1       7.518  13.724  -1.458  1.00  0.00     0.029 A 
ATOM     56  N   UNL     1       8.557  14.064  -3.408  1.00  0.00    -0.354 N 
ATOM     57  C   UNL     1       6.330  14.867  -7.019  1.00  0.00     0.074 A 
ATOM     58  C   UNL     1       4.905  14.866  -6.768  1.00  0.00     0.031 C 
ATOM     59  C   UNL     1       8.837  13.608  -1.236  1.00  0.00     0.029 A 
ATOM     60  C   UNL     1       9.551  13.795  -2.495  1.00  0.00     0.049 A 
ATOM     61  H   UNL     1       8.735  14.253  -4.357  1.00  0.00     0.167 HD
ATOM     62  C   UNL     1       6.889  15.092  -8.232  1.00  0.00     0.031 A 
ATOM     63  C   UNL     1      10.886  13.698  -2.653  1.00  0.00     0.031 A 
ATOM     64  C   UNL     1       8.308  15.095  -8.478  1.00  0.00     0.049 A 
ATOM     65  C   UNL     1      11.481  13.924  -4.017  1.00  0.00     0.074 A 
ATOM     66  C   UNL     1       8.974  15.360  -9.662  1.00  0.00     0.029 A 
ATOM     67  N   UNL     1       9.279  14.818  -7.527  1.00  0.00    -0.354 N 
ATOM     68  N   UNL     1      10.874  14.218  -5.142  1.00  0.00    -0.248 NA
ATOM     69  C   UNL     1      12.942  13.815  -4.130  1.00  0.00     0.031 C 
ATOM     70  C   UNL     1      10.343  15.181  -9.443  1.00  0.00     0.029 A 
ATOM     71  C   UNL     1      10.536  14.877  -8.105  1.00  0.00     0.049 A 
ATOM     72  H   UNL     1       9.101  14.609  -6.582  1.00  0.00     0.167 HD
ATOM     73  C   UNL     1      11.883  14.361  -6.089  1.00  0.00     0.074 A 
ATOM     74  C   UNL     1      13.138  14.138  -5.401  1.00  0.00     0.031 C 
ATOM     75  C   UNL     1      11.779  14.654  -7.409  1.00  0.00     0.031 A 
BRANCH  62  76
ATOM     76  C   UNL     1       5.964  15.349  -9.394  1.00  0.00    -0.014 A 
ATOM     77  C   UNL     1       5.209  16.533  -9.476  1.00  0.00     0.010 A 
ATOM     78  C   UNL     1       5.890  14.419 -10.448  1.00  0.00     0.010 A 
ATOM     79  C   UNL     1       4.370  16.766 -10.569  1.00  0.00     0.020 A 
ATOM     80  C   UNL     1       5.077  14.663 -11.559  1.00  0.00     0.020 A 
ATOM     81  C   UNL     1       4.310  15.829 -11.605  1.00  0.00     0.054 A 
BRANCH  81  82
ATOM     82  S   UNL     1       3.239  16.175 -13.027  1.00  0.00     0.124 S 
ATOM     83  O   UNL     1       1.908  16.020 -12.446  1.00  0.00    -0.237 OA
ATOM     84  O   UNL     1       3.614  17.542 -13.382  1.00  0.00    -0.237 OA
ATOM     85  O   UNL     1       3.615  15.155 -14.002  1.00  0.00    -0.744 OA
ENDBRANCH  81  82
ENDBRANCH  62  76
BRANCH  63  86
ATOM     86  C   UNL     1      11.753  13.371  -1.486  1.00  0.00    -0.014 A 
ATOM     87  C   UNL     1      12.647  14.324  -0.966  1.00  0.00     0.010 A 
ATOM     88  C   UNL     1      11.691  12.098  -0.890  1.00  0.00     0.010 A 
ATOM     89  C   UNL     1      13.479  14.003   0.111  1.00  0.00     0.020 A 
ATOM     90  C   UNL     1      12.496  11.784   0.208  1.00  0.00     0.020 A 
ATOM     91  C   UNL     1      13.396  12.734   0.692  1.00  0.00     0.054 A 
BRANCH  91  92
ATOM     92  S   UNL     1      14.456  12.350   2.114  1.00  0.00     0.124 S 
ATOM     93  O   UNL     1      15.772  12.244   1.492  1.00  0.00    -0.237 OA
ATOM     94  O   UNL     1      14.254  13.508   2.979  1.00  0.00    -0.237 OA
ATOM     95  O   UNL     1      13.901  11.096   2.622  1.00  0.00    -0.744 OA
ENDBRANCH  91  92
ENDBRANCH  63  86
BRANCH  75  96
ATOM     96  C   UNL     1      13.057  14.791  -8.195  1.00  0.00    -0.014 A 
ATOM     97  C   UNL     1      13.858  13.675  -8.496  1.00  0.00     0.010 A 
ATOM     98  C   UNL     1      13.432  16.055  -8.688  1.00  0.00     0.010 A 
ATOM     99  C   UNL     1      15.026  13.827  -9.248  1.00  0.00     0.020 A 
ATOM    100  C   UNL     1      14.582  16.205  -9.467  1.00  0.00     0.020 A 
ATOM    101  C   UNL     1      15.380  15.091  -9.730  1.00  0.00     0.054 A 
BRANCH 101 102
ATOM    102  S   UNL     1      16.877  15.251 -10.742  1.00  0.00     0.124 S 
ATOM    103  O   UNL     1      17.934  15.064  -9.752  1.00  0.00    -0.237 OA
ATOM    104  O   UNL     1      16.724  14.168 -11.711  1.00  0.00    -0.237 OA
ATOM    105  O   UNL     1      16.777  16.598 -11.300  1.00  0.00    -0.744 OA
ENDBRANCH 101 102
ENDBRANCH  75  96
ENDBRANCH  49  50
ENDBRANCH  41  44
ENDBRANCH  39  40
ENDBRANCH  38  39
ENDBRANCH  37  38
ENDBRANCH  36  37
ENDBRANCH   1  36
TORSDOF 23
