REMARK SMILES CN1C(=O)[C@H](CC(=O)NCCCCCCNC(=O)c2ccc(-c3c4nc(c(-c5ccc(S(=O)(=O)[O-])cc5)c5ccc([nH]5)c(-c5ccc(S(=O)(=O)[O-])cc5)c5nc(c(-c6ccc(S(=O)(=O)[O-])cc6)c6ccc3[nH]6)C=C5)C=C4)cc2)S/C1=[NH+]\N=C\c1ccc(O)cc1O
REMARK SMILES IDX 12 1 11 2 10 3 9 4 7 5 8 6 6 8 5 9 1 10 2 11 3 12 80 13 4 14
REMARK SMILES IDX 79 15 81 16 82 18 83 19 84 20 85 21 90 22 86 23 89 24 87 25
REMARK SMILES IDX 91 26 88 28 13 30 14 31 15 32 16 33 17 34 18 36 19 37 20 38
REMARK SMILES IDX 78 39 21 40 77 41 22 42 23 43 24 44 71 45 25 46 76 47 70 48
REMARK SMILES IDX 72 49 26 50 75 51 69 52 68 53 27 55 57 56 38 57 56 58 39 59
REMARK SMILES IDX 42 60 55 61 73 62 40 63 41 64 54 66 74 67 43 68 28 69 29 70
REMARK SMILES IDX 37 71 30 72 36 73 31 74 32 75 33 76 34 77 35 78 58 79 59 80
REMARK SMILES IDX 67 81 60 82 66 83 61 84 62 85 63 86 64 87 65 88 44 89 45 90
REMARK SMILES IDX 53 91 46 92 52 93 47 94 48 95 49 96 50 97 51 98
REMARK H PARENT 9 7 81 17 91 27 88 29 16 35 72 54 42 65
REMARK Flexibility Score: inf
ROOT
ATOM      1  C   UNL     1       0.144  -3.002  -8.110  1.00  0.00     0.002 C 
ENDROOT
BRANCH   1   2
ATOM      2  C   UNL     1      -0.039  -2.887  -6.591  1.00  0.00     0.021 C 
BRANCH   2   3
ATOM      3  C   UNL     1       1.247  -3.119  -5.797  1.00  0.00     0.116 C 
BRANCH   3   4
ATOM      4  N   UNL     1       2.190  -2.046  -6.046  1.00  0.00    -0.356 N 
ATOM      5  C   UNL     1       2.588  -1.030  -5.237  1.00  0.00     0.221 C 
ATOM      6  O   UNL     1       3.333  -0.163  -5.695  1.00  0.00    -0.275 OA
ATOM      7  H   UNL     1       2.605  -2.054  -6.939  1.00  0.00     0.163 HD
BRANCH   5   8
ATOM      8  C   UNL     1       2.194  -1.027  -3.784  1.00  0.00     0.127 C 
BRANCH   8   9
ATOM      9  C   UNL     1       0.728  -0.744  -3.484  1.00  0.00     0.183 C 
ATOM     10  C   UNL     1       0.458   0.568   0.024  1.00  0.00     0.301 C 
ATOM     11  N   UNL     1       0.410   0.424  -1.415  1.00  0.00    -0.191 N 
ATOM     12  C   UNL     1       0.577  -0.818  -1.983  1.00  0.00     0.324 C 
ATOM     13  C   UNL     1       0.163   1.465  -2.264  1.00  0.00     0.339 C 
ATOM     14  O   UNL     1       0.668  -1.871  -1.359  1.00  0.00    -0.245 OA
ATOM     15  S   UNL     1       0.196   0.927  -3.930  1.00  0.00    -0.020 SA
ATOM     16  N   UNL     1      -0.065   2.675  -1.857  1.00  0.00    -0.142 N 
ATOM     17  H   UNL     1       0.001   2.946  -0.913  1.00  0.00     0.343 HD
BRANCH  16  18
ATOM     18  N   UNL     1      -0.410   3.551  -2.876  1.00  0.00    -0.093 NA
ATOM     19  C   UNL     1      -0.090   4.778  -2.617  1.00  0.00     0.170 C 
BRANCH  19  20
ATOM     20  C   UNL     1      -0.382   5.840  -3.599  1.00  0.00     0.039 A 
ATOM     21  C   UNL     1       0.176   7.105  -3.392  1.00  0.00     0.017 A 
ATOM     22  C   UNL     1      -1.181   5.607  -4.729  1.00  0.00     0.128 A 
ATOM     23  C   UNL     1      -0.054   8.123  -4.321  1.00  0.00     0.047 A 
ATOM     24  C   UNL     1      -1.419   6.625  -5.649  1.00  0.00     0.093 A 
ATOM     25  C   UNL     1      -0.845   7.874  -5.440  1.00  0.00     0.119 A 
BRANCH  22  26
ATOM     26  O   UNL     1      -1.768   4.400  -5.001  1.00  0.00    -0.507 OA
ATOM     27  H   UNL     1      -1.644   3.677  -4.419  1.00  0.00     0.293 HD
ENDBRANCH  22  26
BRANCH  25  28
ATOM     28  O   UNL     1      -1.033   8.894  -6.326  1.00  0.00    -0.508 OA
ATOM     29  H   UNL     1      -0.638   9.729  -6.169  1.00  0.00     0.293 HD
ENDBRANCH  25  28
ENDBRANCH  19  20
ENDBRANCH  16  18
ENDBRANCH   8   9
ENDBRANCH   5   8
ENDBRANCH   3   4
ENDBRANCH   2   3
ENDBRANCH   1   2
BRANCH   1  30
ATOM     30  C   UNL     1       0.684  -4.352  -8.594  1.00  0.00     0.002 C 
BRANCH  30  31
ATOM     31  C   UNL     1      -0.138  -5.569  -8.163  1.00  0.00     0.021 C 
BRANCH  31  32
ATOM     32  C   UNL     1      -1.595  -5.551  -8.618  1.00  0.00     0.116 C 
BRANCH  32  33
ATOM     33  N   UNL     1      -1.713  -5.528 -10.067  1.00  0.00    -0.352 N 
ATOM     34  C   UNL     1      -2.457  -6.324 -10.896  1.00  0.00     0.251 C 
ATOM     35  H   UNL     1      -1.177  -4.838 -10.519  1.00  0.00     0.163 HD
ATOM     36  O   UNL     1      -2.267  -6.272 -12.114  1.00  0.00    -0.269 OA
BRANCH  34  37
ATOM     37  C   UNL     1      -3.471  -7.250 -10.347  1.00  0.00     0.039 A 
ATOM     38  C   UNL     1      -3.579  -8.527 -10.905  1.00  0.00     0.014 A 
ATOM     39  C   UNL     1      -4.336  -6.862  -9.319  1.00  0.00     0.014 A 
ATOM     40  C   UNL     1      -4.522  -9.425 -10.403  1.00  0.00     0.010 A 
ATOM     41  C   UNL     1      -5.232  -7.783  -8.775  1.00  0.00     0.010 A 
ATOM     42  C   UNL     1      -5.340  -9.071  -9.317  1.00  0.00    -0.014 A 
BRANCH  42  43
ATOM     43  C   UNL     1      -6.293 -10.056  -8.744  1.00  0.00     0.031 A 
ATOM     44  C   UNL     1      -7.779  -9.838  -8.837  1.00  0.00     0.074 A 
ATOM     45  C   UNL     1      -5.811 -11.147  -8.117  1.00  0.00     0.049 A 
ATOM     46  N   UNL     1      -8.751 -10.625  -8.447  1.00  0.00    -0.248 NA
ATOM     47  C   UNL     1      -8.235  -8.567  -9.421  1.00  0.00     0.031 C 
ATOM     48  C   UNL     1      -4.391 -11.442  -7.904  1.00  0.00     0.029 A 
ATOM     49  N   UNL     1      -6.459 -12.216  -7.553  1.00  0.00    -0.354 N 
ATOM     50  C   UNL     1      -9.929  -9.944  -8.732  1.00  0.00     0.074 A 
ATOM     51  C   UNL     1      -9.550  -8.659  -9.280  1.00  0.00     0.031 C 
ATOM     52  C   UNL     1      -4.276 -12.632  -7.294  1.00  0.00     0.029 A 
ATOM     53  C   UNL     1      -5.609 -13.173  -7.050  1.00  0.00     0.049 A 
ATOM     54  H   UNL     1      -7.440 -12.291  -7.511  1.00  0.00     0.167 HD
ATOM     55  C   UNL     1     -11.210 -10.357  -8.573  1.00  0.00     0.031 A 
ATOM     56  C   UNL     1      -5.871 -14.359  -6.469  1.00  0.00     0.031 A 
ATOM     57  C   UNL     1     -11.585 -11.638  -8.033  1.00  0.00     0.049 A 
ATOM     58  C   UNL     1      -7.298 -14.809  -6.329  1.00  0.00     0.074 A 
ATOM     59  C   UNL     1     -12.854 -12.175  -7.889  1.00  0.00     0.029 A 
ATOM     60  N   UNL     1     -10.696 -12.583  -7.543  1.00  0.00    -0.354 N 
ATOM     61  N   UNL     1      -8.396 -14.185  -6.683  1.00  0.00    -0.248 NA
ATOM     62  C   UNL     1      -7.517 -16.132  -5.731  1.00  0.00     0.031 C 
ATOM     63  C   UNL     1     -12.733 -13.425  -7.269  1.00  0.00     0.029 A 
ATOM     64  C   UNL     1     -11.387 -13.689  -7.075  1.00  0.00     0.049 A 
ATOM     65  H   UNL     1      -9.717 -12.482  -7.529  1.00  0.00     0.167 HD
ATOM     66  C   UNL     1      -9.439 -15.047  -6.363  1.00  0.00     0.074 A 
ATOM     67  C   UNL     1      -8.836 -16.246  -5.814  1.00  0.00     0.031 C 
ATOM     68  C   UNL     1     -10.775 -14.864  -6.509  1.00  0.00     0.031 A 
BRANCH  55  69
ATOM     69  C   UNL     1     -12.303  -9.406  -8.987  1.00  0.00    -0.014 A 
ATOM     70  C   UNL     1     -12.536  -9.115 -10.344  1.00  0.00     0.010 A 
ATOM     71  C   UNL     1     -13.129  -8.819  -8.012  1.00  0.00     0.010 A 
ATOM     72  C   UNL     1     -13.545  -8.222 -10.715  1.00  0.00     0.020 A 
ATOM     73  C   UNL     1     -14.157  -7.946  -8.380  1.00  0.00     0.020 A 
ATOM     74  C   UNL     1     -14.346  -7.638  -9.729  1.00  0.00     0.054 A 
BRANCH  74  75
ATOM     75  S   UNL     1     -15.659  -6.494 -10.239  1.00  0.00     0.124 S 
ATOM     76  O   UNL     1     -14.895  -5.301 -10.597  1.00  0.00    -0.237 OA
ATOM     77  O   UNL     1     -16.284  -7.198 -11.356  1.00  0.00    -0.237 OA
ATOM     78  O   UNL     1     -16.490  -6.366  -9.044  1.00  0.00    -0.744 OA
ENDBRANCH  74  75
ENDBRANCH  55  69
BRANCH  56  79
ATOM     79  C   UNL     1      -4.747 -15.220  -6.010  1.00  0.00    -0.014 A 
ATOM     80  C   UNL     1      -4.416 -16.394  -6.708  1.00  0.00     0.010 A 
ATOM     81  C   UNL     1      -3.987 -14.854  -4.885  1.00  0.00     0.010 A 
ATOM     82  C   UNL     1      -3.353 -17.195  -6.281  1.00  0.00     0.020 A 
ATOM     83  C   UNL     1      -2.907 -15.639  -4.470  1.00  0.00     0.020 A 
ATOM     84  C   UNL     1      -2.604 -16.811  -5.166  1.00  0.00     0.054 A 
BRANCH  84  85
ATOM     85  S   UNL     1      -1.188 -17.830  -4.666  1.00  0.00     0.124 S 
ATOM     86  O   UNL     1      -1.843 -18.965  -4.025  1.00  0.00    -0.237 OA
ATOM     87  O   UNL     1      -0.535 -18.113  -5.942  1.00  0.00    -0.237 OA
ATOM     88  O   UNL     1      -0.436 -16.952  -3.772  1.00  0.00    -0.744 OA
ENDBRANCH  84  85
ENDBRANCH  56  79
BRANCH  68  89
ATOM     89  C   UNL     1     -11.668 -15.995  -6.074  1.00  0.00    -0.014 A 
ATOM     90  C   UNL     1     -11.838 -16.303  -4.712  1.00  0.00     0.010 A 
ATOM     91  C   UNL     1     -12.349 -16.757  -7.040  1.00  0.00     0.010 A 
ATOM     92  C   UNL     1     -12.629 -17.389  -4.327  1.00  0.00     0.020 A 
ATOM     93  C   UNL     1     -13.164 -17.826  -6.657  1.00  0.00     0.020 A 
ATOM     94  C   UNL     1     -13.279 -18.150  -5.303  1.00  0.00     0.054 A 
BRANCH  94  95
ATOM     95  S   UNL     1     -14.298 -19.557  -4.782  1.00  0.00     0.124 S 
ATOM     96  O   UNL     1     -13.287 -20.564  -4.473  1.00  0.00    -0.237 OA
ATOM     97  O   UNL     1     -15.025 -19.022  -3.633  1.00  0.00    -0.237 OA
ATOM     98  O   UNL     1     -15.122 -19.839  -5.955  1.00  0.00    -0.744 OA
ENDBRANCH  94  95
ENDBRANCH  68  89
ENDBRANCH  42  43
ENDBRANCH  34  37
ENDBRANCH  32  33
ENDBRANCH  31  32
ENDBRANCH  30  31
ENDBRANCH   1  30
TORSDOF 21
