REMARK SMILES CCC[NH2+][C@]1(C(=O)NCCCCCCNC(=O)c2ccc(-c3c4nc(c(-c5ccc(S(=O)(=O)[O-])cc5)c5ccc([nH]5)c(-c5ccc(S(=O)(=O)[O-])cc5)c5nc(c(-c6ccc(S(=O)(=O)[O-])cc6)c6ccc3[nH]6)C=C5)C=C4)cc2)CCC[C@@H]([N@@H+](C)[C@@H](C)C2CC2)C1
REMARK SMILES IDX 11 1 10 2 9 3 8 4 6 5 7 6 5 8 78 9 89 10 79 11 81 12 80 13
REMARK SMILES IDX 4 14 3 17 2 18 1 19 82 20 83 21 84 23 85 24 86 25 87 26
REMARK SMILES IDX 88 27 12 28 13 29 14 30 15 31 16 32 17 34 18 35 19 36 77 37
REMARK SMILES IDX 20 38 76 39 21 40 22 41 23 42 70 43 24 44 75 45 69 46 71 47
REMARK SMILES IDX 25 48 74 49 68 50 67 51 26 53 56 54 37 55 55 56 38 57 41 58
REMARK SMILES IDX 54 59 72 60 39 61 40 62 53 64 73 65 42 66 27 67 28 68 36 69
REMARK SMILES IDX 29 70 35 71 30 72 31 73 32 74 33 75 34 76 57 77 58 78 66 79
REMARK SMILES IDX 59 80 65 81 60 82 61 83 62 84 63 85 64 86 43 87 44 88 52 89
REMARK SMILES IDX 45 90 51 91 46 92 47 93 48 94 49 95 50 96
REMARK H PARENT 8 7 4 15 4 16 82 22 15 33 71 52 41 63
REMARK Flexibility Score: inf
ROOT
ATOM      1  C   UNL     1      -2.526  -2.867  -0.269  1.00  0.00     0.002 C 
ENDROOT
BRANCH   1   2
ATOM      2  C   UNL     1      -1.770  -3.192  -1.561  1.00  0.00     0.021 C 
BRANCH   2   3
ATOM      3  C   UNL     1      -1.726  -2.037  -2.561  1.00  0.00     0.116 C 
BRANCH   3   4
ATOM      4  N   UNL     1      -0.665  -1.115  -2.210  1.00  0.00    -0.351 N 
ATOM      5  C   UNL     1       0.509  -0.787  -2.819  1.00  0.00     0.281 C 
ATOM      6  O   UNL     1       1.249  -0.038  -2.169  1.00  0.00    -0.268 OA
ATOM      7  H   UNL     1      -0.824  -0.630  -1.368  1.00  0.00     0.163 HD
BRANCH   5   8
ATOM      8  C   UNL     1       0.884  -1.251  -4.280  1.00  0.00     0.181 C 
ATOM      9  C   UNL     1       2.323  -0.752  -4.563  1.00  0.00     0.079 C 
ATOM     10  C   UNL     1       0.838  -2.800  -4.381  1.00  0.00     0.144 C 
ATOM     11  C   UNL     1       2.909  -1.326  -5.843  1.00  0.00     0.013 C 
ATOM     12  C   UNL     1       1.815  -3.544  -5.317  1.00  0.00     0.190 C 
ATOM     13  C   UNL     1       3.122  -2.819  -5.645  1.00  0.00     0.065 C 
BRANCH   8  14
ATOM     14  N   UNL     1      -0.074  -0.675  -5.271  1.00  0.00    -0.333 N 
ATOM     15  H   UNL     1       0.296  -0.846  -6.206  1.00  0.00     0.347 HD
ATOM     16  H   UNL     1      -0.970  -1.133  -5.103  1.00  0.00     0.347 HD
BRANCH  14  17
ATOM     17  C   UNL     1      -0.312   0.766  -5.129  1.00  0.00     0.261 C 
BRANCH  17  18
ATOM     18  C   UNL     1      -1.349   1.263  -6.141  1.00  0.00     0.058 C 
ATOM     19  C   UNL     1      -2.721   0.622  -5.975  1.00  0.00     0.010 C 
ENDBRANCH  17  18
ENDBRANCH  14  17
ENDBRANCH   8  14
BRANCH  12  20
ATOM     20  N   UNL     1       1.887  -4.999  -4.985  1.00  0.00    -0.332 N 
ATOM     21  C   UNL     1       1.934  -5.781  -6.237  1.00  0.00     0.333 C 
ATOM     22  H   UNL     1       1.037  -5.077  -4.428  1.00  0.00     0.348 HD
BRANCH  20  23
ATOM     23  C   UNL     1       2.855  -5.575  -4.009  1.00  0.00     0.184 C 
ATOM     24  C   UNL     1       4.352  -5.314  -4.227  1.00  0.00     0.075 C 
BRANCH  23  25
ATOM     25  C   UNL     1       2.570  -5.543  -2.519  1.00  0.00     0.047 C 
ATOM     26  C   UNL     1       2.378  -4.294  -1.702  1.00  0.00     0.010 C 
ATOM     27  C   UNL     1       1.221  -5.247  -1.930  1.00  0.00     0.010 C 
ENDBRANCH  23  25
ENDBRANCH  20  23
ENDBRANCH  12  20
ENDBRANCH   5   8
ENDBRANCH   3   4
ENDBRANCH   2   3
ENDBRANCH   1   2
BRANCH   1  28
ATOM     28  C   UNL     1      -4.019  -2.574  -0.453  1.00  0.00     0.002 C 
BRANCH  28  29
ATOM     29  C   UNL     1      -4.808  -3.659  -1.190  1.00  0.00     0.021 C 
BRANCH  29  30
ATOM     30  C   UNL     1      -4.734  -5.043  -0.552  1.00  0.00     0.116 C 
BRANCH  30  31
ATOM     31  N   UNL     1      -5.285  -5.048   0.794  1.00  0.00    -0.352 N 
ATOM     32  C   UNL     1      -6.362  -5.737   1.290  1.00  0.00     0.251 C 
ATOM     33  H   UNL     1      -4.817  -4.475   1.443  1.00  0.00     0.163 HD
ATOM     34  O   UNL     1      -6.828  -5.438   2.390  1.00  0.00    -0.269 OA
BRANCH  32  35
ATOM     35  C   UNL     1      -6.970  -6.826   0.499  1.00  0.00     0.039 A 
ATOM     36  C   UNL     1      -8.361  -6.901   0.398  1.00  0.00     0.014 A 
ATOM     37  C   UNL     1      -6.167  -7.781  -0.132  1.00  0.00     0.014 A 
ATOM     38  C   UNL     1      -8.944  -7.899  -0.386  1.00  0.00     0.010 A 
ATOM     39  C   UNL     1      -6.746  -8.728  -0.972  1.00  0.00     0.010 A 
ATOM     40  C   UNL     1      -8.140  -8.801  -1.103  1.00  0.00    -0.014 A 
BRANCH  40  41
ATOM     41  C   UNL     1      -8.740  -9.825  -1.997  1.00  0.00     0.031 A 
ATOM     42  C   UNL     1      -8.556 -11.290  -1.703  1.00  0.00     0.074 A 
ATOM     43  C   UNL     1      -9.399  -9.436  -3.108  1.00  0.00     0.049 A 
ATOM     44  N   UNL     1      -8.959 -12.326  -2.393  1.00  0.00    -0.248 NA
ATOM     45  C   UNL     1      -7.802 -11.636  -0.487  1.00  0.00     0.031 C 
ATOM     46  C   UNL     1      -9.611  -8.047  -3.525  1.00  0.00     0.029 A 
ATOM     47  N   UNL     1     -10.006 -10.173  -4.093  1.00  0.00    -0.354 N 
ATOM     48  C   UNL     1      -8.494 -13.442  -1.707  1.00  0.00     0.074 A 
ATOM     49  C   UNL     1      -7.737 -12.956  -0.574  1.00  0.00     0.031 C 
ATOM     50  C   UNL     1     -10.322  -8.034  -4.663  1.00  0.00     0.029 A 
ATOM     51  C   UNL     1     -10.579  -9.408  -5.082  1.00  0.00     0.049 A 
ATOM     52  H   UNL     1     -10.029 -11.157  -4.093  1.00  0.00     0.167 HD
ATOM     53  C   UNL     1      -8.696 -14.753  -1.983  1.00  0.00     0.031 A 
ATOM     54  C   UNL     1     -11.231  -9.769  -6.205  1.00  0.00     0.031 A 
ATOM     55  C   UNL     1      -9.456 -15.231  -3.108  1.00  0.00     0.049 A 
ATOM     56  C   UNL     1     -11.428 -11.232  -6.498  1.00  0.00     0.074 A 
ATOM     57  C   UNL     1      -9.763 -16.538  -3.444  1.00  0.00     0.029 A 
ATOM     58  N   UNL     1     -10.024 -14.424  -4.082  1.00  0.00    -0.354 N 
ATOM     59  N   UNL     1     -11.039 -12.272  -5.800  1.00  0.00    -0.248 NA
ATOM     60  C   UNL     1     -12.164 -11.569  -7.725  1.00  0.00     0.031 C 
ATOM     61  C   UNL     1     -10.467 -16.524  -4.652  1.00  0.00     0.029 A 
ATOM     62  C   UNL     1     -10.657 -15.205  -5.034  1.00  0.00     0.049 A 
ATOM     63  H   UNL     1      -9.983 -13.440  -4.094  1.00  0.00     0.167 HD
ATOM     64  C   UNL     1     -11.508 -13.386  -6.488  1.00  0.00     0.074 A 
ATOM     65  C   UNL     1     -12.222 -12.891  -7.647  1.00  0.00     0.031 C 
ATOM     66  C   UNL     1     -11.363 -14.700  -6.184  1.00  0.00     0.031 A 
BRANCH  53  67
ATOM     67  C   UNL     1      -8.075 -15.766  -1.055  1.00  0.00    -0.014 A 
ATOM     68  C   UNL     1      -8.540 -15.927   0.263  1.00  0.00     0.010 A 
ATOM     69  C   UNL     1      -7.040 -16.598  -1.520  1.00  0.00     0.010 A 
ATOM     70  C   UNL     1      -7.954 -16.870   1.111  1.00  0.00     0.020 A 
ATOM     71  C   UNL     1      -6.472 -17.565  -0.684  1.00  0.00     0.020 A 
ATOM     72  C   UNL     1      -6.922 -17.683   0.632  1.00  0.00     0.054 A 
BRANCH  72  73
ATOM     73  S   UNL     1      -6.196 -18.914   1.749  1.00  0.00     0.124 S 
ATOM     74  O   UNL     1      -5.438 -18.073   2.672  1.00  0.00    -0.237 OA
ATOM     75  O   UNL     1      -7.374 -19.565   2.316  1.00  0.00    -0.237 OA
ATOM     76  O   UNL     1      -5.388 -19.751   0.865  1.00  0.00    -0.744 OA
ENDBRANCH  72  73
ENDBRANCH  53  67
BRANCH  54  77
ATOM     77  C   UNL     1     -11.756  -8.725  -7.128  1.00  0.00    -0.014 A 
ATOM     78  C   UNL     1     -13.140  -8.515  -7.258  1.00  0.00     0.010 A 
ATOM     79  C   UNL     1     -10.872  -7.926  -7.875  1.00  0.00     0.010 A 
ATOM     80  C   UNL     1     -13.631  -7.540  -8.131  1.00  0.00     0.020 A 
ATOM     81  C   UNL     1     -11.357  -6.929  -8.726  1.00  0.00     0.020 A 
ATOM     82  C   UNL     1     -12.735  -6.750  -8.857  1.00  0.00     0.054 A 
BRANCH  82  83
ATOM     83  S   UNL     1     -13.393  -5.457  -9.946  1.00  0.00     0.124 S 
ATOM     84  O   UNL     1     -13.946  -6.239 -11.047  1.00  0.00    -0.237 OA
ATOM     85  O   UNL     1     -14.370  -4.791  -9.088  1.00  0.00    -0.237 OA
ATOM     86  O   UNL     1     -12.216  -4.655 -10.275  1.00  0.00    -0.744 OA
ENDBRANCH  82  83
ENDBRANCH  54  77
BRANCH  66  87
ATOM     87  C   UNL     1     -12.020 -15.700  -7.098  1.00  0.00    -0.014 A 
ATOM     88  C   UNL     1     -11.525 -15.947  -8.391  1.00  0.00     0.010 A 
ATOM     89  C   UNL     1     -13.118 -16.447  -6.631  1.00  0.00     0.010 A 
ATOM     90  C   UNL     1     -12.136 -16.900  -9.211  1.00  0.00     0.020 A 
ATOM     91  C   UNL     1     -13.712 -17.421  -7.437  1.00  0.00     0.020 A 
ATOM     92  C   UNL     1     -13.225 -17.631  -8.728  1.00  0.00     0.054 A 
BRANCH  92  93
ATOM     93  S   UNL     1     -13.971 -18.893  -9.796  1.00  0.00     0.124 S 
ATOM     94  O   UNL     1     -14.672 -18.079 -10.785  1.00  0.00    -0.237 OA
ATOM     95  O   UNL     1     -12.806 -19.622 -10.293  1.00  0.00    -0.237 OA
ATOM     96  O   UNL     1     -14.832 -19.651  -8.890  1.00  0.00    -0.744 OA
ENDBRANCH  92  93
ENDBRANCH  66  87
ENDBRANCH  40  41
ENDBRANCH  32  35
ENDBRANCH  30  31
ENDBRANCH  29  30
ENDBRANCH  28  29
ENDBRANCH   1  28
TORSDOF 22
