REMARK SMILES O=C(NCCCCCCNC(=O)[C@H]1C[C@](O)(c2ccc(F)cc2)[C@@H](c2ccc(F)cc2)O1)c1ccc(-c2c3nc(c(-c4ccc(S(=O)(=O)[O-])cc4)c4ccc([nH]4)c(-c4ccc(S(=O)(=O)[O-])cc4)c4nc(c(-c5ccc(S(=O)(=O)[O-])cc5)c5ccc2[nH]5)C=C4)C=C3)cc1
REMARK SMILES IDX 5 1 4 2 3 3 1 4 2 5 33 7 34 8 92 9 35 10 91 11 36 12 37 13
REMARK SMILES IDX 38 14 85 15 39 16 90 17 84 18 86 19 40 20 89 21 83 22 82 23
REMARK SMILES IDX 41 25 71 26 52 27 70 28 53 29 56 30 69 31 87 32 54 33 55 34
REMARK SMILES IDX 68 36 88 37 57 38 42 39 43 40 51 41 44 42 50 43 45 44 46 45
REMARK SMILES IDX 47 46 48 47 49 48 72 49 73 50 81 51 74 52 80 53 75 54 76 55
REMARK SMILES IDX 77 56 78 57 79 58 58 59 59 60 67 61 60 62 66 63 61 64 62 65
REMARK SMILES IDX 63 66 64 67 65 68 6 69 7 70 8 71 9 72 10 73 11 74 12 76
REMARK SMILES IDX 13 77 14 78 32 79 15 80 24 81 17 82 18 83 23 84 19 85 22 86
REMARK SMILES IDX 20 87 21 88 16 89 25 91 26 92 31 93 27 94 30 95 28 96 29 97
REMARK H PARENT 3 6 86 24 56 35 10 75 16 90
REMARK Flexibility Score: inf
ROOT
ATOM      1  C   UNL     1       8.117  12.742  -2.934  1.00  0.00     0.021 C 
ENDROOT
BRANCH   1   2
ATOM      2  C   UNL     1       9.033  13.933  -2.688  1.00  0.00     0.116 C 
BRANCH   2   3
ATOM      3  N   UNL     1       9.489  14.546  -3.924  1.00  0.00    -0.352 N 
ATOM      4  O   UNL     1       9.630  16.142  -5.511  1.00  0.00    -0.269 OA
ATOM      5  C   UNL     1       9.338  15.843  -4.355  1.00  0.00     0.251 C 
ATOM      6  H   UNL     1       9.973  13.949  -4.539  1.00  0.00     0.163 HD
BRANCH   5   7
ATOM      7  C   UNL     1       8.806  16.873  -3.434  1.00  0.00     0.039 A 
ATOM      8  C   UNL     1       9.259  16.953  -2.115  1.00  0.00     0.014 A 
ATOM      9  C   UNL     1       7.857  17.787  -3.902  1.00  0.00     0.014 A 
ATOM     10  C   UNL     1       8.672  17.856  -1.233  1.00  0.00     0.010 A 
ATOM     11  C   UNL     1       7.328  18.749  -3.035  1.00  0.00     0.010 A 
ATOM     12  C   UNL     1       7.716  18.778  -1.687  1.00  0.00    -0.014 A 
BRANCH  12  13
ATOM     13  C   UNL     1       7.208  19.817  -0.754  1.00  0.00     0.031 A 
ATOM     14  C   UNL     1       5.764  19.860  -0.335  1.00  0.00     0.074 A 
ATOM     15  C   UNL     1       8.082  20.721  -0.267  1.00  0.00     0.049 A 
ATOM     16  N   UNL     1       5.175  20.690   0.488  1.00  0.00    -0.248 NA
ATOM     17  C   UNL     1       4.863  18.850  -0.913  1.00  0.00     0.031 C 
ATOM     18  C   UNL     1       9.506  20.788  -0.612  1.00  0.00     0.029 A 
ATOM     19  N   UNL     1       7.913  21.744   0.631  1.00  0.00    -0.354 N 
ATOM     20  C   UNL     1       3.836  20.319   0.515  1.00  0.00     0.074 A 
ATOM     21  C   UNL     1       3.693  19.197  -0.389  1.00  0.00     0.031 C 
ATOM     22  C   UNL     1      10.087  21.767   0.098  1.00  0.00     0.029 A 
ATOM     23  C   UNL     1       9.070  22.438   0.897  1.00  0.00     0.049 A 
ATOM     24  H   UNL     1       7.046  21.961   1.044  1.00  0.00     0.167 HD
ATOM     25  C   UNL     1       2.821  20.863   1.230  1.00  0.00     0.031 A 
ATOM     26  C   UNL     1       9.291  23.509   1.682  1.00  0.00     0.031 A 
ATOM     27  C   UNL     1       2.971  21.977   2.132  1.00  0.00     0.049 A 
ATOM     28  C   UNL     1       8.141  24.104   2.442  1.00  0.00     0.074 A 
ATOM     29  C   UNL     1       2.007  22.571   2.929  1.00  0.00     0.029 A 
ATOM     30  N   UNL     1       4.152  22.668   2.353  1.00  0.00    -0.354 N 
ATOM     31  N   UNL     1       6.892  23.707   2.486  1.00  0.00    -0.248 NA
ATOM     32  C   UNL     1       8.431  25.289   3.260  1.00  0.00     0.031 C 
ATOM     33  C   UNL     1       2.594  23.654   3.593  1.00  0.00     0.029 A 
ATOM     34  C   UNL     1       3.936  23.699   3.253  1.00  0.00     0.049 A 
ATOM     35  H   UNL     1       5.017  22.457   1.932  1.00  0.00     0.167 HD
ATOM     36  C   UNL     1       6.249  24.587   3.348  1.00  0.00     0.074 A 
ATOM     37  C   UNL     1       7.252  25.519   3.821  1.00  0.00     0.031 C 
ATOM     38  C   UNL     1       4.944  24.621   3.711  1.00  0.00     0.031 A 
BRANCH  25  39
ATOM     39  C   UNL     1       1.442  20.280   1.060  1.00  0.00    -0.014 A 
ATOM     40  C   UNL     1       1.101  19.039   1.625  1.00  0.00     0.010 A 
ATOM     41  C   UNL     1       0.447  21.028   0.402  1.00  0.00     0.010 A 
ATOM     42  C   UNL     1      -0.204  18.547   1.519  1.00  0.00     0.020 A 
ATOM     43  C   UNL     1      -0.864  20.550   0.313  1.00  0.00     0.020 A 
ATOM     44  C   UNL     1      -1.179  19.306   0.864  1.00  0.00     0.054 A 
BRANCH  44  45
ATOM     45  S   UNL     1      -2.874  18.665   0.785  1.00  0.00     0.124 S 
ATOM     46  O   UNL     1      -2.742  17.586  -0.191  1.00  0.00    -0.237 OA
ATOM     47  O   UNL     1      -3.121  18.240   2.160  1.00  0.00    -0.237 OA
ATOM     48  O   UNL     1      -3.660  19.813   0.340  1.00  0.00    -0.744 OA
ENDBRANCH  44  45
ENDBRANCH  25  39
BRANCH  26  49
ATOM     49  C   UNL     1      10.653  24.102   1.761  1.00  0.00    -0.014 A 
ATOM     50  C   UNL     1      11.406  24.019   2.944  1.00  0.00     0.010 A 
ATOM     51  C   UNL     1      11.205  24.751   0.641  1.00  0.00     0.010 A 
ATOM     52  C   UNL     1      12.678  24.595   3.013  1.00  0.00     0.020 A 
ATOM     53  C   UNL     1      12.488  25.301   0.696  1.00  0.00     0.020 A 
ATOM     54  C   UNL     1      13.209  25.234   1.889  1.00  0.00     0.054 A 
BRANCH  54  55
ATOM     55  S   UNL     1      14.875  25.945   1.987  1.00  0.00     0.124 S 
ATOM     56  O   UNL     1      14.636  27.169   2.745  1.00  0.00    -0.237 OA
ATOM     57  O   UNL     1      15.625  24.904   2.684  1.00  0.00    -0.237 OA
ATOM     58  O   UNL     1      15.246  26.137   0.587  1.00  0.00    -0.744 OA
ENDBRANCH  54  55
ENDBRANCH  26  49
BRANCH  38  59
ATOM     59  C   UNL     1       4.533  25.687   4.689  1.00  0.00    -0.014 A 
ATOM     60  C   UNL     1       4.441  27.035   4.300  1.00  0.00     0.010 A 
ATOM     61  C   UNL     1       4.200  25.328   6.008  1.00  0.00     0.010 A 
ATOM     62  C   UNL     1       4.057  28.011   5.222  1.00  0.00     0.020 A 
ATOM     63  C   UNL     1       3.790  26.298   6.926  1.00  0.00     0.020 A 
ATOM     64  C   UNL     1       3.736  27.636   6.531  1.00  0.00     0.054 A 
BRANCH  64  65
ATOM     65  S   UNL     1       3.206  28.916   7.702  1.00  0.00     0.124 S 
ATOM     66  O   UNL     1       4.469  29.576   8.021  1.00  0.00    -0.237 OA
ATOM     67  O   UNL     1       2.266  29.706   6.911  1.00  0.00    -0.237 OA
ATOM     68  O   UNL     1       2.605  28.156   8.796  1.00  0.00    -0.744 OA
ENDBRANCH  64  65
ENDBRANCH  38  59
ENDBRANCH  12  13
ENDBRANCH   5   7
ENDBRANCH   2   3
ENDBRANCH   1   2
BRANCH   1  69
ATOM     69  C   UNL     1       8.804  11.509  -3.522  1.00  0.00     0.002 C 
BRANCH  69  70
ATOM     70  C   UNL     1       9.950  10.924  -2.690  1.00  0.00     0.002 C 
BRANCH  70  71
ATOM     71  C   UNL     1       9.645  10.646  -1.211  1.00  0.00     0.021 C 
BRANCH  71  72
ATOM     72  C   UNL     1       8.388   9.818  -0.940  1.00  0.00     0.116 C 
BRANCH  72  73
ATOM     73  N   UNL     1       8.428   8.518  -1.575  1.00  0.00    -0.354 N 
ATOM     74  C   UNL     1       8.667   7.300  -1.014  1.00  0.00     0.249 C 
ATOM     75  H   UNL     1       8.259   8.513  -2.545  1.00  0.00     0.163 HD
ATOM     76  O   UNL     1       8.615   6.312  -1.751  1.00  0.00    -0.272 OA
BRANCH  74  77
ATOM     77  C   UNL     1       8.964   7.191   0.502  1.00  0.00     0.211 C 
ATOM     78  C   UNL     1       9.396   5.776   0.891  1.00  0.00     0.085 C 
ATOM     79  O   UNL     1       9.983   8.100   0.926  1.00  0.00    -0.357 OA
ATOM     80  C   UNL     1      10.689   5.936   1.689  1.00  0.00     0.123 C 
ATOM     81  C   UNL     1      11.159   7.367   1.306  1.00  0.00     0.186 C 
BRANCH  80  82
ATOM     82  C   UNL     1      10.415   5.662   3.179  1.00  0.00    -0.013 A 
ATOM     83  C   UNL     1      10.106   4.337   3.571  1.00  0.00     0.010 A 
ATOM     84  C   UNL     1      10.475   6.635   4.191  1.00  0.00     0.010 A 
ATOM     85  C   UNL     1       9.893   3.997   4.908  1.00  0.00     0.039 A 
ATOM     86  C   UNL     1      10.277   6.291   5.535  1.00  0.00     0.039 A 
ATOM     87  C   UNL     1       9.992   4.978   5.881  1.00  0.00     0.123 A 
ATOM     88  F   UNL     1       9.812   4.655   7.168  1.00  0.00    -0.207 F 
ENDBRANCH  80  82
BRANCH  80  89
ATOM     89  O   UNL     1      11.641   4.931   1.313  1.00  0.00    -0.382 OA
ATOM     90  H   UNL     1      11.870   5.035   0.376  1.00  0.00     0.212 HD
ENDBRANCH  80  89
BRANCH  81  91
ATOM     91  C   UNL     1      12.201   7.559   0.208  1.00  0.00    -0.016 A 
ATOM     92  C   UNL     1      12.040   7.085  -1.105  1.00  0.00     0.009 A 
ATOM     93  C   UNL     1      13.360   8.307   0.503  1.00  0.00     0.009 A 
ATOM     94  C   UNL     1      12.995   7.357  -2.088  1.00  0.00     0.039 A 
ATOM     95  C   UNL     1      14.316   8.573  -0.478  1.00  0.00     0.039 A 
ATOM     96  C   UNL     1      14.122   8.099  -1.766  1.00  0.00     0.123 A 
ATOM     97  F   UNL     1      15.033   8.362  -2.713  1.00  0.00    -0.207 F 
ENDBRANCH  81  91
ENDBRANCH  74  77
ENDBRANCH  72  73
ENDBRANCH  71  72
ENDBRANCH  70  71
ENDBRANCH  69  70
ENDBRANCH   1  69
TORSDOF 19
