REMARK SMILES O=C(NCCCCCCNC(=O)c1ccc(S(=O)(=O)[O-])cc1N1C(=O)/C(=C\C=C\c2ccccc2)[NH+]=C1c1ccccc1)c1ccc(-c2c3nc(c(-c4ccc(S(=O)(=O)[O-])cc4)c4ccc([nH]4)c(-c4ccc(S(=O)(=O)[O-])cc4)c4nc(c(-c5ccc(S(=O)(=O)[O-])cc5)c5ccc2[nH]5)C=C4)C=C3)cc1
REMARK SMILES IDX 6 1 5 2 4 3 3 4 1 5 2 6 44 8 45 9 103 10 46 11 102 12 47 13
REMARK SMILES IDX 48 14 49 15 96 16 50 17 101 18 95 19 97 20 51 21 100 22
REMARK SMILES IDX 94 23 93 24 52 26 82 27 63 28 81 29 64 30 67 31 80 32 98 33
REMARK SMILES IDX 65 34 66 35 79 37 99 38 68 39 53 40 54 41 62 42 55 43 61 44
REMARK SMILES IDX 56 45 57 46 58 47 59 48 60 49 83 50 84 51 92 52 85 53 91 54
REMARK SMILES IDX 86 55 87 56 88 57 89 58 90 59 69 60 70 61 78 62 71 63 77 64
REMARK SMILES IDX 72 65 73 66 74 67 75 68 76 69 7 70 8 71 9 72 10 73 11 74
REMARK SMILES IDX 12 76 13 77 14 78 22 79 15 80 21 81 16 82 23 83 24 84 37 85
REMARK SMILES IDX 25 86 26 87 36 88 27 89 38 91 39 92 43 93 40 94 42 95 41 96
REMARK SMILES IDX 28 97 29 98 30 99 31 100 35 101 32 102 34 103 33 104 17 105
REMARK SMILES IDX 18 106 19 107 20 108
REMARK H PARENT 3 7 97 25 67 36 10 75 36 90
REMARK Flexibility Score: inf
ROOT
ATOM      1  C   UNL     1       3.969  -3.843  -0.879  1.00  0.00     0.002 C 
ENDROOT
BRANCH   1   2
ATOM      2  C   UNL     1       4.611  -2.724  -0.056  1.00  0.00     0.021 C 
BRANCH   2   3
ATOM      3  C   UNL     1       4.390  -1.313  -0.589  1.00  0.00     0.116 C 
BRANCH   3   4
ATOM      4  N   UNL     1       2.980  -0.973  -0.719  1.00  0.00    -0.352 N 
ATOM      5  O   UNL     1       1.047   0.096  -0.273  1.00  0.00    -0.269 OA
ATOM      6  C   UNL     1       2.270   0.069  -0.173  1.00  0.00     0.251 C 
ATOM      7  H   UNL     1       2.455  -1.584  -1.284  1.00  0.00     0.163 HD
BRANCH   6   8
ATOM      8  C   UNL     1       2.980   1.142   0.556  1.00  0.00     0.039 A 
ATOM      9  C   UNL     1       4.160   1.686   0.049  1.00  0.00     0.014 A 
ATOM     10  C   UNL     1       2.460   1.605   1.769  1.00  0.00     0.014 A 
ATOM     11  C   UNL     1       4.909   2.558   0.830  1.00  0.00     0.010 A 
ATOM     12  C   UNL     1       3.166   2.559   2.507  1.00  0.00     0.010 A 
ATOM     13  C   UNL     1       4.420   3.010   2.067  1.00  0.00    -0.014 A 
BRANCH  13  14
ATOM     14  C   UNL     1       5.230   3.970   2.863  1.00  0.00     0.031 A 
ATOM     15  C   UNL     1       5.761   3.599   4.224  1.00  0.00     0.074 A 
ATOM     16  C   UNL     1       5.521   5.173   2.331  1.00  0.00     0.049 A 
ATOM     17  N   UNL     1       6.526   4.296   5.026  1.00  0.00    -0.248 NA
ATOM     18  C   UNL     1       5.380   2.282   4.759  1.00  0.00     0.031 C 
ATOM     19  C   UNL     1       5.067   5.648   1.021  1.00  0.00     0.029 A 
ATOM     20  N   UNL     1       6.287   6.206   2.808  1.00  0.00    -0.354 N 
ATOM     21  C   UNL     1       6.694   3.520   6.168  1.00  0.00     0.074 A 
ATOM     22  C   UNL     1       5.930   2.308   5.965  1.00  0.00     0.031 C 
ATOM     23  C   UNL     1       5.611   6.848   0.774  1.00  0.00     0.029 A 
ATOM     24  C   UNL     1       6.394   7.261   1.933  1.00  0.00     0.049 A 
ATOM     25  H   UNL     1       6.720   6.193   3.692  1.00  0.00     0.167 HD
ATOM     26  C   UNL     1       7.420   3.791   7.280  1.00  0.00     0.031 A 
ATOM     27  C   UNL     1       7.039   8.437   2.049  1.00  0.00     0.031 A 
ATOM     28  C   UNL     1       8.178   5.001   7.474  1.00  0.00     0.049 A 
ATOM     29  C   UNL     1       7.809   8.724   3.305  1.00  0.00     0.074 A 
ATOM     30  C   UNL     1       8.978   5.351   8.548  1.00  0.00     0.029 A 
ATOM     31  N   UNL     1       8.222   6.063   6.583  1.00  0.00    -0.354 N 
ATOM     32  N   UNL     1       7.990   7.958   4.355  1.00  0.00    -0.248 NA
ATOM     33  C   UNL     1       8.472  10.031   3.388  1.00  0.00     0.031 C 
ATOM     34  C   UNL     1       9.452   6.650   8.337  1.00  0.00     0.029 A 
ATOM     35  C   UNL     1       9.012   7.080   7.095  1.00  0.00     0.049 A 
ATOM     36  H   UNL     1       7.760   6.090   5.714  1.00  0.00     0.167 HD
ATOM     37  C   UNL     1       8.817   8.678   5.208  1.00  0.00     0.074 A 
ATOM     38  C   UNL     1       9.110   9.932   4.545  1.00  0.00     0.031 C 
ATOM     39  C   UNL     1       9.297   8.326   6.427  1.00  0.00     0.031 A 
BRANCH  26  40
ATOM     40  C   UNL     1       7.397   2.776   8.398  1.00  0.00    -0.014 A 
ATOM     41  C   UNL     1       8.011   1.517   8.266  1.00  0.00     0.010 A 
ATOM     42  C   UNL     1       6.783   3.108   9.621  1.00  0.00     0.010 A 
ATOM     43  C   UNL     1       7.968   0.594   9.315  1.00  0.00     0.020 A 
ATOM     44  C   UNL     1       6.766   2.200  10.684  1.00  0.00     0.020 A 
ATOM     45  C   UNL     1       7.342   0.941  10.517  1.00  0.00     0.054 A 
BRANCH  45  46
ATOM     46  S   UNL     1       7.312  -0.274  11.864  1.00  0.00     0.124 S 
ATOM     47  O   UNL     1       6.363  -1.262  11.356  1.00  0.00    -0.237 OA
ATOM     48  O   UNL     1       8.703  -0.715  11.928  1.00  0.00    -0.237 OA
ATOM     49  O   UNL     1       6.851   0.496  13.017  1.00  0.00    -0.744 OA
ENDBRANCH  45  46
ENDBRANCH  26  40
BRANCH  27  50
ATOM     50  C   UNL     1       6.986   9.423   0.935  1.00  0.00    -0.014 A 
ATOM     51  C   UNL     1       8.139   9.719   0.187  1.00  0.00     0.010 A 
ATOM     52  C   UNL     1       5.774  10.058   0.604  1.00  0.00     0.010 A 
ATOM     53  C   UNL     1       8.085  10.644  -0.859  1.00  0.00     0.020 A 
ATOM     54  C   UNL     1       5.710  10.957  -0.463  1.00  0.00     0.020 A 
ATOM     55  C   UNL     1       6.869  11.254  -1.180  1.00  0.00     0.054 A 
BRANCH  55  56
ATOM     56  S   UNL     1       6.816  12.413  -2.574  1.00  0.00     0.124 S 
ATOM     57  O   UNL     1       7.537  13.564  -2.039  1.00  0.00    -0.237 OA
ATOM     58  O   UNL     1       7.501  11.668  -3.627  1.00  0.00    -0.237 OA
ATOM     59  O   UNL     1       5.386  12.617  -2.794  1.00  0.00    -0.744 OA
ENDBRANCH  55  56
ENDBRANCH  27  50
BRANCH  39  60
ATOM     60  C   UNL     1      10.242   9.288   7.100  1.00  0.00    -0.014 A 
ATOM     61  C   UNL     1       9.806  10.529   7.599  1.00  0.00     0.010 A 
ATOM     62  C   UNL     1      11.592   8.924   7.259  1.00  0.00     0.010 A 
ATOM     63  C   UNL     1      10.714  11.406   8.200  1.00  0.00     0.020 A 
ATOM     64  C   UNL     1      12.494   9.782   7.890  1.00  0.00     0.020 A 
ATOM     65  C   UNL     1      12.053  11.028   8.339  1.00  0.00     0.054 A 
BRANCH  65  66
ATOM     66  S   UNL     1      13.207  12.173   9.142  1.00  0.00     0.124 S 
ATOM     67  O   UNL     1      13.370  13.205   8.121  1.00  0.00    -0.237 OA
ATOM     68  O   UNL     1      12.473  12.582  10.337  1.00  0.00    -0.237 OA
ATOM     69  O   UNL     1      14.390  11.354   9.394  1.00  0.00    -0.744 OA
ENDBRANCH  65  66
ENDBRANCH  39  60
ENDBRANCH  13  14
ENDBRANCH   6   8
ENDBRANCH   3   4
ENDBRANCH   2   3
ENDBRANCH   1   2
BRANCH   1  70
ATOM     70  C   UNL     1       4.342  -3.892  -2.366  1.00  0.00     0.002 C 
BRANCH  70  71
ATOM     71  C   UNL     1       5.836  -3.905  -2.682  1.00  0.00     0.021 C 
BRANCH  71  72
ATOM     72  C   UNL     1       6.630  -4.993  -1.981  1.00  0.00     0.116 C 
BRANCH  72  73
ATOM     73  N   UNL     1       6.552  -6.310  -2.556  1.00  0.00    -0.352 N 
ATOM     74  C   UNL     1       7.559  -7.216  -2.815  1.00  0.00     0.255 C 
ATOM     75  H   UNL     1       5.646  -6.609  -2.801  1.00  0.00     0.163 HD
ATOM     76  O   UNL     1       7.261  -8.265  -3.388  1.00  0.00    -0.269 OA
BRANCH  74  77
ATOM     77  C   UNL     1       9.008  -6.943  -2.539  1.00  0.00     0.087 A 
ATOM     78  C   UNL     1       9.870  -7.255  -3.610  1.00  0.00     0.019 A 
ATOM     79  C   UNL     1       9.570  -6.416  -1.351  1.00  0.00     0.150 A 
ATOM     80  C   UNL     1      11.250  -7.054  -3.518  1.00  0.00     0.020 A 
ATOM     81  C   UNL     1      10.961  -6.227  -1.262  1.00  0.00     0.072 A 
ATOM     82  C   UNL     1      11.787  -6.546  -2.338  1.00  0.00     0.059 A 
BRANCH  79  83
ATOM     83  N   UNL     1       8.805  -6.096  -0.215  1.00  0.00    -0.153 N 
ATOM     84  C   UNL     1       7.955  -6.999   0.373  1.00  0.00     0.385 C 
ATOM     85  C   UNL     1       8.807  -4.947   0.542  1.00  0.00     0.295 C 
ATOM     86  O   UNL     1       7.773  -8.171   0.096  1.00  0.00    -0.236 OA
ATOM     87  C   UNL     1       7.370  -6.210   1.500  1.00  0.00     0.215 C 
ATOM     88  N   UNL     1       7.989  -4.973   1.559  1.00  0.00    -0.233 N 
ATOM     89  C   UNL     1       6.363  -6.595   2.300  1.00  0.00     0.060 C 
ATOM     90  H   UNL     1       7.843  -4.264   2.226  1.00  0.00     0.312 HD
BRANCH  85  91
ATOM     91  C   UNL     1       9.593  -3.722   0.203  1.00  0.00     0.065 A 
ATOM     92  C   UNL     1      10.165  -2.989   1.246  1.00  0.00     0.017 A 
ATOM     93  C   UNL     1       9.711  -3.225  -1.106  1.00  0.00     0.017 A 
ATOM     94  C   UNL     1      10.838  -1.789   0.982  1.00  0.00     0.001 A 
ATOM     95  C   UNL     1      10.354  -2.014  -1.365  1.00  0.00     0.001 A 
ATOM     96  C   UNL     1      10.920  -1.296  -0.320  1.00  0.00     0.000 A 
ENDBRANCH  85  91
BRANCH  89  97
ATOM     97  C   UNL     1       5.683  -7.875   2.257  1.00  0.00     0.005 C 
ATOM     98  C   UNL     1       4.720  -8.259   3.110  1.00  0.00     0.008 C 
BRANCH  98  99
ATOM     99  C   UNL     1       4.148  -9.619   3.106  1.00  0.00    -0.026 A 
ATOM    100  C   UNL     1       2.808  -9.816   3.461  1.00  0.00     0.008 A 
ATOM    101  C   UNL     1       4.941 -10.747   2.840  1.00  0.00     0.008 A 
ATOM    102  C   UNL     1       2.271 -11.107   3.531  1.00  0.00     0.001 A 
ATOM    103  C   UNL     1       4.406 -12.036   2.908  1.00  0.00     0.001 A 
ATOM    104  C   UNL     1       3.070 -12.215   3.256  1.00  0.00     0.000 A 
ENDBRANCH  98  99
ENDBRANCH  89  97
ENDBRANCH  79  83
BRANCH  82 105
ATOM    105  S   UNL     1      13.540  -6.343  -2.207  1.00  0.00     0.124 S 
ATOM    106  O   UNL     1      14.145  -7.650  -2.327  1.00  0.00    -0.237 OA
ATOM    107  O   UNL     1      13.917  -5.246  -3.069  1.00  0.00    -0.237 OA
ATOM    108  O   UNL     1      13.810  -5.842  -0.696  1.00  0.00    -0.744 OA
ENDBRANCH  82 105
ENDBRANCH  74  77
ENDBRANCH  72  73
ENDBRANCH  71  72
ENDBRANCH  70  71
ENDBRANCH   1  70
TORSDOF 21
