REMARK SMILES O=C(NCCCCCCNC(=O)[C@@]1(C(F)(F)F)CCN(C(=O)Cc2ccn[nH]2)C1)c1ccc(-c2c3nc(c(-c4ccc(S(=O)(=O)[O-])cc4)c4ccc([nH]4)c(-c4ccc(S(=O)(=O)[O-])cc4)c4nc(c(-c5ccc(S(=O)(=O)[O-])cc5)c5ccc2[nH]5)C=C4)C=C3)cc1
REMARK SMILES IDX 6 1 5 2 4 3 3 4 1 5 2 6 30 8 31 9 89 10 32 11 88 12 33 13
REMARK SMILES IDX 34 14 35 15 82 16 36 17 87 18 81 19 83 20 37 21 86 22 80 23
REMARK SMILES IDX 79 24 38 26 68 27 49 28 67 29 50 30 53 31 66 32 84 33 51 34
REMARK SMILES IDX 52 35 65 37 85 38 54 39 39 40 40 41 48 42 41 43 47 44 42 45
REMARK SMILES IDX 43 46 44 47 45 48 46 49 69 50 70 51 78 52 71 53 77 54 72 55
REMARK SMILES IDX 73 56 74 57 75 58 76 59 55 60 56 61 64 62 57 63 63 64 58 65
REMARK SMILES IDX 59 66 60 67 61 68 62 69 7 70 8 71 9 72 10 73 11 74 12 76
REMARK SMILES IDX 13 77 18 78 29 79 19 80 20 81 14 82 15 83 16 84 17 85 21 86
REMARK SMILES IDX 22 87 23 88 24 89 25 90 28 91 26 92 27 93
REMARK H PARENT 3 7 83 25 53 36 10 75 28 94
REMARK Flexibility Score: inf
ROOT
ATOM      1  C   UNL     1      14.566   4.275   8.386  1.00  0.00     0.002 C 
ENDROOT
BRANCH   1   2
ATOM      2  C   UNL     1      15.500   4.461   7.190  1.00  0.00     0.021 C 
BRANCH   2   3
ATOM      3  C   UNL     1      16.054   5.873   7.049  1.00  0.00     0.116 C 
BRANCH   3   4
ATOM      4  N   UNL     1      16.939   6.214   8.151  1.00  0.00    -0.352 N 
ATOM      5  O   UNL     1      18.933   6.612   9.127  1.00  0.00    -0.269 OA
ATOM      6  C   UNL     1      18.259   6.585   8.101  1.00  0.00     0.251 C 
ATOM      7  H   UNL     1      16.539   6.174   9.049  1.00  0.00     0.163 HD
BRANCH   6   8
ATOM      8  C   UNL     1      18.860   6.941   6.800  1.00  0.00     0.039 A 
ATOM      9  C   UNL     1      18.179   7.788   5.921  1.00  0.00     0.014 A 
ATOM     10  C   UNL     1      20.117   6.435   6.462  1.00  0.00     0.014 A 
ATOM     11  C   UNL     1      18.705   8.044   4.661  1.00  0.00     0.010 A 
ATOM     12  C   UNL     1      20.683   6.761   5.227  1.00  0.00     0.010 A 
ATOM     13  C   UNL     1      19.976   7.560   4.314  1.00  0.00    -0.014 A 
BRANCH  13  14
ATOM     14  C   UNL     1      20.597   7.997   3.040  1.00  0.00     0.031 A 
ATOM     15  C   UNL     1      20.911   7.018   1.946  1.00  0.00     0.074 A 
ATOM     16  C   UNL     1      20.888   9.306   2.892  1.00  0.00     0.049 A 
ATOM     17  N   UNL     1      21.475   7.241   0.786  1.00  0.00    -0.248 NA
ATOM     18  C   UNL     1      20.554   5.610   2.179  1.00  0.00     0.031 C 
ATOM     19  C   UNL     1      20.636  10.344   3.898  1.00  0.00     0.029 A 
ATOM     20  N   UNL     1      21.453   9.990   1.848  1.00  0.00    -0.354 N 
ATOM     21  C   UNL     1      21.566   6.004   0.161  1.00  0.00     0.074 A 
ATOM     22  C   UNL     1      21.009   5.029   1.075  1.00  0.00     0.031 C 
ATOM     23  C   UNL     1      21.016  11.532   3.410  1.00  0.00     0.029 A 
ATOM     24  C   UNL     1      21.605  11.335   2.092  1.00  0.00     0.049 A 
ATOM     25  H   UNL     1      21.724   9.560   1.004  1.00  0.00     0.167 HD
ATOM     26  C   UNL     1      22.072   5.713  -1.062  1.00  0.00     0.031 A 
ATOM     27  C   UNL     1      22.185  12.300   1.357  1.00  0.00     0.031 A 
ATOM     28  C   UNL     1      22.626   6.695  -1.959  1.00  0.00     0.049 A 
ATOM     29  C   UNL     1      22.775  11.939   0.025  1.00  0.00     0.074 A 
ATOM     30  C   UNL     1      23.112   6.508  -3.242  1.00  0.00     0.029 A 
ATOM     31  N   UNL     1      22.785   8.041  -1.665  1.00  0.00    -0.354 N 
ATOM     32  N   UNL     1      22.790  10.774  -0.577  1.00  0.00    -0.248 NA
ATOM     33  C   UNL     1      23.429  13.018  -0.725  1.00  0.00     0.031 C 
ATOM     34  C   UNL     1      23.625   7.726  -3.697  1.00  0.00     0.029 A 
ATOM     35  C   UNL     1      23.399   8.688  -2.725  1.00  0.00     0.049 A 
ATOM     36  H   UNL     1      22.503   8.474  -0.827  1.00  0.00     0.167 HD
ATOM     37  C   UNL     1      23.443  10.983  -1.784  1.00  0.00     0.074 A 
ATOM     38  C   UNL     1      23.785  12.390  -1.838  1.00  0.00     0.031 C 
ATOM     39  C   UNL     1      23.737  10.089  -2.760  1.00  0.00     0.031 A 
BRANCH  26  40
ATOM     40  C   UNL     1      22.088   4.271  -1.498  1.00  0.00    -0.014 A 
ATOM     41  C   UNL     1      20.906   3.600  -1.858  1.00  0.00     0.010 A 
ATOM     42  C   UNL     1      23.320   3.600  -1.625  1.00  0.00     0.010 A 
ATOM     43  C   UNL     1      20.953   2.278  -2.310  1.00  0.00     0.020 A 
ATOM     44  C   UNL     1      23.373   2.287  -2.100  1.00  0.00     0.020 A 
ATOM     45  C   UNL     1      22.186   1.629  -2.427  1.00  0.00     0.054 A 
BRANCH  45  46
ATOM     46  S   UNL     1      22.218  -0.075  -3.050  1.00  0.00     0.124 S 
ATOM     47  O   UNL     1      21.651  -0.816  -1.926  1.00  0.00    -0.237 OA
ATOM     48  O   UNL     1      21.372   0.004  -4.239  1.00  0.00    -0.237 OA
ATOM     49  O   UNL     1      23.633  -0.325  -3.310  1.00  0.00    -0.744 OA
ENDBRANCH  45  46
ENDBRANCH  26  40
BRANCH  27  50
ATOM     50  C   UNL     1      22.272  13.686   1.892  1.00  0.00    -0.014 A 
ATOM     51  C   UNL     1      21.542  14.732   1.304  1.00  0.00     0.010 A 
ATOM     52  C   UNL     1      23.078  13.959   3.014  1.00  0.00     0.010 A 
ATOM     53  C   UNL     1      21.632  16.030   1.814  1.00  0.00     0.020 A 
ATOM     54  C   UNL     1      23.145  15.248   3.547  1.00  0.00     0.020 A 
ATOM     55  C   UNL     1      22.433  16.279   2.933  1.00  0.00     0.054 A 
BRANCH  55  56
ATOM     56  S   UNL     1      22.504  17.963   3.602  1.00  0.00     0.124 S 
ATOM     57  O   UNL     1      23.328  18.647   2.610  1.00  0.00    -0.237 OA
ATOM     58  O   UNL     1      21.096  18.351   3.631  1.00  0.00    -0.237 OA
ATOM     59  O   UNL     1      23.121  17.784   4.914  1.00  0.00    -0.744 OA
ENDBRANCH  55  56
ENDBRANCH  27  50
BRANCH  39  60
ATOM     60  C   UNL     1      24.447  10.608  -3.980  1.00  0.00    -0.014 A 
ATOM     61  C   UNL     1      25.804  10.971  -3.930  1.00  0.00     0.010 A 
ATOM     62  C   UNL     1      23.762  10.675  -5.207  1.00  0.00     0.010 A 
ATOM     63  C   UNL     1      26.459  11.411  -5.083  1.00  0.00     0.020 A 
ATOM     64  C   UNL     1      24.421  11.086  -6.367  1.00  0.00     0.020 A 
ATOM     65  C   UNL     1      25.764  11.461  -6.295  1.00  0.00     0.054 A 
BRANCH  65  66
ATOM     66  S   UNL     1      26.654  11.974  -7.789  1.00  0.00     0.124 S 
ATOM     67  O   UNL     1      26.817  13.408  -7.569  1.00  0.00    -0.237 OA
ATOM     68  O   UNL     1      27.881  11.184  -7.718  1.00  0.00    -0.237 OA
ATOM     69  O   UNL     1      25.748  11.610  -8.876  1.00  0.00    -0.744 OA
ENDBRANCH  65  66
ENDBRANCH  39  60
ENDBRANCH  13  14
ENDBRANCH   6   8
ENDBRANCH   3   4
ENDBRANCH   2   3
ENDBRANCH   1   2
BRANCH   1  70
ATOM     70  C   UNL     1      13.347   5.202   8.397  1.00  0.00     0.002 C 
BRANCH  70  71
ATOM     71  C   UNL     1      12.511   5.182   7.111  1.00  0.00     0.021 C 
BRANCH  71  72
ATOM     72  C   UNL     1      11.941   3.804   6.769  1.00  0.00     0.116 C 
BRANCH  72  73
ATOM     73  N   UNL     1      10.910   3.437   7.724  1.00  0.00    -0.355 N 
ATOM     74  C   UNL     1       9.554   3.358   7.629  1.00  0.00     0.237 C 
ATOM     75  H   UNL     1      11.259   3.198   8.614  1.00  0.00     0.163 HD
ATOM     76  O   UNL     1       8.960   3.156   8.691  1.00  0.00    -0.274 OA
BRANCH  74  77
ATOM     77  C   UNL     1       8.823   3.460   6.301  1.00  0.00     0.163 C 
ATOM     78  C   UNL     1       9.076   4.772   5.533  1.00  0.00     0.050 C 
ATOM     79  C   UNL     1       9.271   2.333   5.370  1.00  0.00     0.146 C 
ATOM     80  C   UNL     1       9.244   4.355   4.079  1.00  0.00     0.121 C 
ATOM     81  N   UNL     1       9.666   2.970   4.125  1.00  0.00    -0.341 N 
BRANCH  77  82
ATOM     82  C   UNL     1       7.336   3.312   6.571  1.00  0.00     0.404 C 
ATOM     83  F   UNL     1       7.015   2.132   7.139  1.00  0.00    -0.170 F 
ATOM     84  F   UNL     1       6.858   4.308   7.350  1.00  0.00    -0.170 F 
ATOM     85  F   UNL     1       6.639   3.380   5.406  1.00  0.00    -0.170 F 
ENDBRANCH  77  82
BRANCH  81  86
ATOM     86  C   UNL     1      10.197   2.221   3.093  1.00  0.00     0.228 C 
ATOM     87  O   UNL     1      10.348   1.002   3.200  1.00  0.00    -0.274 OA
BRANCH  86  88
ATOM     88  C   UNL     1      10.610   2.938   1.813  1.00  0.00     0.155 C 
BRANCH  88  89
ATOM     89  C   UNL     1       9.419   3.412   1.057  1.00  0.00     0.044 A 
ATOM     90  C   UNL     1       9.056   4.664   0.611  1.00  0.00     0.045 A 
ATOM     91  N   UNL     1       8.411   2.570   0.666  1.00  0.00    -0.282 N 
ATOM     92  C   UNL     1       7.793   4.481   0.023  1.00  0.00     0.135 A 
ATOM     93  N   UNL     1       7.391   3.209   0.068  1.00  0.00    -0.184 NA
ATOM     94  H   UNL     1       8.432   1.596   0.810  1.00  0.00     0.190 HD
ENDBRANCH  88  89
ENDBRANCH  86  88
ENDBRANCH  81  86
ENDBRANCH  74  77
ENDBRANCH  72  73
ENDBRANCH  71  72
ENDBRANCH  70  71
ENDBRANCH   1  70
TORSDOF 20
