REMARK SMILES CCCCCCNC(=O)Oc1cccc(-c2ccc([C@@H](C)C(=O)NCCCCCCNC(=O)c3ccc(-c4c5nc(c(-c6ccc(S(=O)(=O)[O-])cc6)c6ccc([nH]6)c(-c6ccc(S(=O)(=O)[O-])cc6)c6nc(c(-c7ccc(S(=O)(=O)[O-])cc7)c7ccc4[nH]7)C=C6)C=C5)cc3)cc2N)c1
REMARK SMILES IDX 22 1 23 2 24 3 20 5 21 6 19 7 16 8 17 9 95 10 18 11 94 12
REMARK SMILES IDX 15 13 11 14 12 15 97 16 13 17 14 18 10 19 8 20 7 21 9 23
REMARK SMILES IDX 6 24 5 25 4 26 3 27 2 28 1 29 96 30 25 33 26 34 27 35 28 36
REMARK SMILES IDX 29 37 30 38 31 39 32 40 33 42 34 43 35 44 93 45 36 46 92 47
REMARK SMILES IDX 37 48 38 49 39 50 86 51 40 52 91 53 85 54 87 55 41 56 90 57
REMARK SMILES IDX 84 58 83 59 42 61 72 62 53 63 71 64 54 65 57 66 70 67 88 68
REMARK SMILES IDX 55 69 56 70 69 72 89 73 58 74 43 75 44 76 52 77 45 78 51 79
REMARK SMILES IDX 46 80 47 81 48 82 49 83 50 84 73 85 74 86 82 87 75 88 81 89
REMARK SMILES IDX 76 90 77 91 78 92 79 93 80 94 59 95 60 96 68 97 61 98 67 99
REMARK SMILES IDX 62 100 63 101 64 102 65 103 66 104
REMARK H PARENT 24 4 7 22 96 31 96 32 31 41 87 60 57 71
REMARK Flexibility Score: inf
ROOT
ATOM      1  C   UNL     1      -3.113 -11.992  -7.409  1.00  0.00     0.227 C 
ATOM      2  O   UNL     1      -2.211 -12.390  -6.659  1.00  0.00    -0.274 OA
ATOM      3  N   UNL     1      -2.803 -11.906  -8.730  1.00  0.00    -0.356 N 
ATOM      4  H   UNL     1      -1.907 -12.244  -8.958  1.00  0.00     0.163 HD
ENDROOT
BRANCH   1   5
ATOM      5  C   UNL     1      -4.497 -11.661  -6.830  1.00  0.00     0.105 C 
ATOM      6  C   UNL     1      -5.632 -12.516  -7.393  1.00  0.00     0.023 C 
BRANCH   5   7
ATOM      7  C   UNL     1      -4.789 -10.172  -6.721  1.00  0.00    -0.034 A 
ATOM      8  C   UNL     1      -5.134  -7.349  -6.473  1.00  0.00     0.005 A 
ATOM      9  C   UNL     1      -5.443  -8.034  -7.661  1.00  0.00     0.011 A 
ATOM     10  C   UNL     1      -4.751  -8.124  -5.354  1.00  0.00     0.040 A 
ATOM     11  C   UNL     1      -5.324  -9.421  -7.765  1.00  0.00     0.005 A 
ATOM     12  C   UNL     1      -4.507  -9.500  -5.519  1.00  0.00     0.030 A 
BRANCH   8  13
ATOM     13  C   UNL     1      -5.226  -5.869  -6.456  1.00  0.00    -0.013 A 
ATOM     14  C   UNL     1      -4.304  -3.689  -5.895  1.00  0.00     0.133 A 
ATOM     15  C   UNL     1      -5.408  -3.044  -6.442  1.00  0.00     0.047 A 
ATOM     16  C   UNL     1      -4.201  -5.081  -5.907  1.00  0.00     0.056 A 
ATOM     17  C   UNL     1      -6.419  -3.804  -7.021  1.00  0.00     0.004 A 
ATOM     18  C   UNL     1      -6.333  -5.200  -7.016  1.00  0.00     0.009 A 
BRANCH  14  19
ATOM     19  O   UNL     1      -3.381  -2.896  -5.195  1.00  0.00    -0.410 OA
BRANCH  19  20
ATOM     20  C   UNL     1      -2.032  -3.048  -5.470  1.00  0.00     0.412 C 
ATOM     21  N   UNL     1      -1.233  -2.360  -4.597  1.00  0.00    -0.321 N 
ATOM     22  H   UNL     1      -0.263  -2.400  -4.762  1.00  0.00     0.167 HD
ATOM     23  O   UNL     1      -1.546  -3.708  -6.379  1.00  0.00    -0.224 OA
BRANCH  21  24
ATOM     24  C   UNL     1      -1.665  -1.577  -3.457  1.00  0.00     0.119 C 
BRANCH  24  25
ATOM     25  C   UNL     1      -1.067  -2.097  -2.149  1.00  0.00     0.021 C 
BRANCH  25  26
ATOM     26  C   UNL     1       0.463  -2.022  -2.066  1.00  0.00     0.002 C 
BRANCH  26  27
ATOM     27  C   UNL     1       1.066  -0.626  -2.254  1.00  0.00    -0.000 C 
BRANCH  27  28
ATOM     28  C   UNL     1       0.585   0.435  -1.261  1.00  0.00    -0.003 C 
ATOM     29  C   UNL     1       0.956   0.122   0.180  1.00  0.00     0.004 C 
ENDBRANCH  27  28
ENDBRANCH  26  27
ENDBRANCH  25  26
ENDBRANCH  24  25
ENDBRANCH  21  24
ENDBRANCH  19  20
ENDBRANCH  14  19
ENDBRANCH   8  13
BRANCH  10  30
ATOM     30  N   UNL     1      -4.489  -7.559  -4.103  1.00  0.00    -0.398 N 
ATOM     31  H   UNL     1      -4.648  -6.599  -3.953  1.00  0.00     0.156 HD
ATOM     32  H   UNL     1      -4.144  -8.120  -3.371  1.00  0.00     0.156 HD
ENDBRANCH  10  30
ENDBRANCH   5   7
ENDBRANCH   1   5
BRANCH   3  33
ATOM     33  C   UNL     1      -3.554 -11.408  -9.863  1.00  0.00     0.116 C 
BRANCH  33  34
ATOM     34  C   UNL     1      -3.098 -10.003 -10.266  1.00  0.00     0.021 C 
BRANCH  34  35
ATOM     35  C   UNL     1      -1.957  -9.995 -11.287  1.00  0.00     0.002 C 
BRANCH  35  36
ATOM     36  C   UNL     1      -2.300 -10.620 -12.646  1.00  0.00     0.002 C 
BRANCH  36  37
ATOM     37  C   UNL     1      -3.528 -10.030 -13.349  1.00  0.00     0.021 C 
BRANCH  37  38
ATOM     38  C   UNL     1      -3.425  -8.540 -13.663  1.00  0.00     0.116 C 
BRANCH  38  39
ATOM     39  N   UNL     1      -2.324  -8.258 -14.572  1.00  0.00    -0.352 N 
ATOM     40  C   UNL     1      -2.347  -7.722 -15.835  1.00  0.00     0.251 C 
ATOM     41  H   UNL     1      -1.429  -8.486 -14.230  1.00  0.00     0.163 HD
ATOM     42  O   UNL     1      -1.351  -7.794 -16.549  1.00  0.00    -0.269 OA
BRANCH  40  43
ATOM     43  C   UNL     1      -3.573  -7.065 -16.337  1.00  0.00     0.039 A 
ATOM     44  C   UNL     1      -3.993  -7.319 -17.645  1.00  0.00     0.014 A 
ATOM     45  C   UNL     1      -4.291  -6.179 -15.528  1.00  0.00     0.014 A 
ATOM     46  C   UNL     1      -5.165  -6.729 -18.122  1.00  0.00     0.010 A 
ATOM     47  C   UNL     1      -5.495  -5.647 -15.981  1.00  0.00     0.010 A 
ATOM     48  C   UNL     1      -5.944  -5.913 -17.283  1.00  0.00    -0.014 A 
BRANCH  48  49
ATOM     49  C   UNL     1      -7.232  -5.340 -17.747  1.00  0.00     0.031 A 
ATOM     50  C   UNL     1      -7.400  -3.849 -17.870  1.00  0.00     0.074 A 
ATOM     51  C   UNL     1      -8.272  -6.160 -17.998  1.00  0.00     0.049 A 
ATOM     52  N   UNL     1      -8.464  -3.164 -18.203  1.00  0.00    -0.248 NA
ATOM     53  C   UNL     1      -6.226  -3.018 -17.556  1.00  0.00     0.031 C 
ATOM     54  C   UNL     1      -8.246  -7.620 -17.879  1.00  0.00     0.029 A 
ATOM     55  N   UNL     1      -9.555  -5.883 -18.398  1.00  0.00    -0.354 N 
ATOM     56  C   UNL     1      -8.094  -1.827 -18.126  1.00  0.00     0.074 A 
ATOM     57  C   UNL     1      -6.722  -1.794 -17.667  1.00  0.00     0.031 C 
ATOM     58  C   UNL     1      -9.447  -8.111 -18.225  1.00  0.00     0.029 A 
ATOM     59  C   UNL     1     -10.340  -7.003 -18.547  1.00  0.00     0.049 A 
ATOM     60  H   UNL     1      -9.883  -4.970 -18.562  1.00  0.00     0.167 HD
ATOM     61  C   UNL     1      -8.823  -0.725 -18.427  1.00  0.00     0.031 A 
ATOM     62  C   UNL     1     -11.636  -7.125 -18.897  1.00  0.00     0.031 A 
ATOM     63  C   UNL     1     -10.186  -0.763 -18.888  1.00  0.00     0.049 A 
ATOM     64  C   UNL     1     -12.430  -5.886 -19.208  1.00  0.00     0.074 A 
ATOM     65  C   UNL     1     -10.995   0.294 -19.268  1.00  0.00     0.029 A 
ATOM     66  N   UNL     1     -10.944  -1.916 -19.028  1.00  0.00    -0.354 N 
ATOM     67  N   UNL     1     -12.043  -4.633 -19.189  1.00  0.00    -0.248 NA
ATOM     68  C   UNL     1     -13.834  -6.080 -19.597  1.00  0.00     0.031 C 
ATOM     69  C   UNL     1     -12.258  -0.214 -19.587  1.00  0.00     0.029 A 
ATOM     70  C   UNL     1     -12.219  -1.594 -19.464  1.00  0.00     0.049 A 
ATOM     71  H   UNL     1     -10.623  -2.828 -18.845  1.00  0.00     0.167 HD
ATOM     72  C   UNL     1     -13.148  -3.890 -19.589  1.00  0.00     0.074 A 
ATOM     73  C   UNL     1     -14.213  -4.836 -19.858  1.00  0.00     0.031 C 
ATOM     74  C   UNL     1     -13.269  -2.546 -19.723  1.00  0.00     0.031 A 
BRANCH  61  75
ATOM     75  C   UNL     1      -8.160   0.618 -18.259  1.00  0.00    -0.014 A 
ATOM     76  C   UNL     1      -7.123   1.028 -19.117  1.00  0.00     0.010 A 
ATOM     77  C   UNL     1      -8.607   1.499 -17.258  1.00  0.00     0.010 A 
ATOM     78  C   UNL     1      -6.518   2.276 -18.950  1.00  0.00     0.020 A 
ATOM     79  C   UNL     1      -8.023   2.761 -17.106  1.00  0.00     0.020 A 
ATOM     80  C   UNL     1      -6.970   3.134 -17.943  1.00  0.00     0.054 A 
BRANCH  80  81
ATOM     81  S   UNL     1      -6.180   4.757 -17.764  1.00  0.00     0.124 S 
ATOM     82  O   UNL     1      -4.882   4.399 -17.196  1.00  0.00    -0.237 OA
ATOM     83  O   UNL     1      -6.149   5.252 -19.138  1.00  0.00    -0.237 OA
ATOM     84  O   UNL     1      -7.074   5.482 -16.865  1.00  0.00    -0.744 OA
ENDBRANCH  80  81
ENDBRANCH  61  75
BRANCH  62  85
ATOM     85  C   UNL     1     -12.258  -8.475 -18.982  1.00  0.00    -0.014 A 
ATOM     86  C   UNL     1     -12.606  -9.023 -20.229  1.00  0.00     0.010 A 
ATOM     87  C   UNL     1     -12.491  -9.226 -17.815  1.00  0.00     0.010 A 
ATOM     88  C   UNL     1     -13.193 -10.289 -20.307  1.00  0.00     0.020 A 
ATOM     89  C   UNL     1     -13.050 -10.505 -17.892  1.00  0.00     0.020 A 
ATOM     90  C   UNL     1     -13.409 -11.024 -19.137  1.00  0.00     0.054 A 
BRANCH  90  91
ATOM     91  S   UNL     1     -14.124 -12.686 -19.267  1.00  0.00     0.124 S 
ATOM     92  O   UNL     1     -15.518 -12.393 -19.584  1.00  0.00    -0.237 OA
ATOM     93  O   UNL     1     -13.340 -13.283 -20.346  1.00  0.00    -0.237 OA
ATOM     94  O   UNL     1     -13.888 -13.263 -17.945  1.00  0.00    -0.744 OA
ENDBRANCH  90  91
ENDBRANCH  62  85
BRANCH  74  95
ATOM     95  C   UNL     1     -14.592  -2.016 -20.209  1.00  0.00    -0.014 A 
ATOM     96  C   UNL     1     -15.729  -2.024 -19.382  1.00  0.00     0.010 A 
ATOM     97  C   UNL     1     -14.683  -1.450 -21.494  1.00  0.00     0.010 A 
ATOM     98  C   UNL     1     -16.941  -1.504 -19.843  1.00  0.00     0.020 A 
ATOM     99  C   UNL     1     -15.885  -0.902 -21.948  1.00  0.00     0.020 A 
ATOM    100  C   UNL     1     -17.011  -0.945 -21.124  1.00  0.00     0.054 A 
BRANCH 100 101
ATOM    101  S   UNL     1     -18.584  -0.235 -21.681  1.00  0.00     0.124 S 
ATOM    102  O   UNL     1     -19.384  -1.429 -21.934  1.00  0.00    -0.237 OA
ATOM    103  O   UNL     1     -18.998   0.568 -20.533  1.00  0.00    -0.237 OA
ATOM    104  O   UNL     1     -18.216   0.532 -22.869  1.00  0.00    -0.744 OA
ENDBRANCH 100 101
ENDBRANCH  74  95
ENDBRANCH  48  49
ENDBRANCH  40  43
ENDBRANCH  38  39
ENDBRANCH  37  38
ENDBRANCH  36  37
ENDBRANCH  35  36
ENDBRANCH  34  35
ENDBRANCH  33  34
ENDBRANCH   3  33
TORSDOF 26
