REMARK SMILES CCN(CC)c1ccc(NC(=O)c2ccc(OC)cc2)cc1C(=O)NCCCCCCNC(=O)c1ccc(-c2c3nc(c(-c4ccc(S(=O)(=O)[O-])cc4)c4ccc([nH]4)c(-c4ccc(S(=O)(=O)[O-])cc4)c4nc(c(-c5ccc(S(=O)(=O)[O-])cc5)c5ccc2[nH]5)C=C4)C=C3)cc1
REMARK SMILES IDX 28 1 27 2 26 3 25 4 23 5 24 6 22 8 6 9 7 10 8 11 21 12 9 13
REMARK SMILES IDX 3 14 2 15 1 16 4 17 5 18 10 19 11 20 12 22 13 23 14 24 20 25
REMARK SMILES IDX 15 26 19 27 16 28 17 29 18 30 29 31 30 32 31 33 32 34 33 35
REMARK SMILES IDX 34 37 35 38 36 39 94 40 37 41 93 42 38 43 39 44 40 45 87 46
REMARK SMILES IDX 41 47 92 48 86 49 88 50 42 51 91 52 85 53 84 54 43 56 73 57
REMARK SMILES IDX 54 58 72 59 55 60 58 61 71 62 89 63 56 64 57 65 70 67 90 68
REMARK SMILES IDX 59 69 44 70 45 71 53 72 46 73 52 74 47 75 48 76 49 77 50 78
REMARK SMILES IDX 51 79 74 80 75 81 83 82 76 83 82 84 77 85 78 86 79 87 80 88
REMARK SMILES IDX 81 89 60 90 61 91 69 92 62 93 68 94 63 95 64 96 65 97 66 98
REMARK SMILES IDX 67 99
REMARK H PARENT 25 7 10 21 32 36 88 55 58 66
REMARK Flexibility Score: inf
ROOT
ATOM      1  C   UNL     1      -1.794   1.651  -0.608  1.00  0.00     0.002 C 
ENDROOT
BRANCH   1   2
ATOM      2  C   UNL     1      -1.085   2.212   0.632  1.00  0.00     0.021 C 
BRANCH   2   3
ATOM      3  C   UNL     1       0.203   1.518   1.053  1.00  0.00     0.116 C 
BRANCH   3   4
ATOM      4  N   UNL     1       1.348   1.576   0.181  1.00  0.00    -0.352 N 
ATOM      5  C   UNL     1       2.613   1.051   0.409  1.00  0.00     0.253 C 
ATOM      6  O   UNL     1       3.426   1.121  -0.518  1.00  0.00    -0.269 OA
ATOM      7  H   UNL     1       1.219   2.043  -0.676  1.00  0.00     0.163 HD
BRANCH   5   8
ATOM      8  C   UNL     1       3.082   0.503   1.740  1.00  0.00     0.065 A 
ATOM      9  C   UNL     1       2.310  -0.185   2.705  1.00  0.00     0.050 A 
ATOM     10  C   UNL     1       2.856  -0.240   3.991  1.00  0.00     0.029 A 
ATOM     11  C   UNL     1       4.123   0.218   4.298  1.00  0.00     0.028 A 
ATOM     12  C   UNL     1       4.461   0.757   2.025  1.00  0.00     0.042 A 
ATOM     13  C   UNL     1       5.007   0.513   3.290  1.00  0.00     0.042 A 
BRANCH   9  14
ATOM     14  N   UNL     1       1.087  -0.819   2.513  1.00  0.00    -0.371 N 
BRANCH  14  15
ATOM     15  C   UNL     1       0.984  -2.037   1.681  1.00  0.00     0.113 C 
ATOM     16  C   UNL     1       1.436  -1.894   0.232  1.00  0.00     0.027 C 
ENDBRANCH  14  15
BRANCH  14  17
ATOM     17  C   UNL     1      -0.020  -0.529   3.457  1.00  0.00     0.113 C 
ATOM     18  C   UNL     1      -0.088  -1.380   4.713  1.00  0.00     0.027 C 
ENDBRANCH  14  17
ENDBRANCH   9  14
BRANCH  13  19
ATOM     19  N   UNL     1       6.402   0.547   3.504  1.00  0.00    -0.322 N 
ATOM     20  C   UNL     1       7.173   0.071   4.563  1.00  0.00     0.255 C 
ATOM     21  H   UNL     1       6.917   0.979   2.785  1.00  0.00     0.170 HD
ATOM     22  O   UNL     1       8.383   0.296   4.594  1.00  0.00    -0.269 OA
BRANCH  20  23
ATOM     23  C   UNL     1       6.584  -0.714   5.681  1.00  0.00     0.040 A 
ATOM     24  C   UNL     1       6.635  -0.174   6.971  1.00  0.00     0.017 A 
ATOM     25  C   UNL     1       5.874  -1.903   5.455  1.00  0.00     0.017 A 
ATOM     26  C   UNL     1       5.875  -0.750   7.994  1.00  0.00     0.047 A 
ATOM     27  C   UNL     1       5.092  -2.459   6.481  1.00  0.00     0.047 A 
ATOM     28  C   UNL     1       5.061  -1.859   7.742  1.00  0.00     0.118 A 
BRANCH  28  29
ATOM     29  O   UNL     1       4.291  -2.263   8.798  1.00  0.00    -0.497 OA
ATOM     30  C   UNL     1       3.121  -3.014   8.483  1.00  0.00     0.278 C 
ENDBRANCH  28  29
ENDBRANCH  20  23
ENDBRANCH  13  19
ENDBRANCH   5   8
ENDBRANCH   3   4
ENDBRANCH   2   3
ENDBRANCH   1   2
BRANCH   1  31
ATOM     31  C   UNL     1      -2.038   0.139  -0.711  1.00  0.00     0.002 C 
BRANCH  31  32
ATOM     32  C   UNL     1      -2.811  -0.566   0.405  1.00  0.00     0.021 C 
BRANCH  32  33
ATOM     33  C   UNL     1      -4.130   0.054   0.846  1.00  0.00     0.116 C 
BRANCH  33  34
ATOM     34  N   UNL     1      -5.077   0.215  -0.239  1.00  0.00    -0.352 N 
ATOM     35  C   UNL     1      -6.430  -0.023  -0.281  1.00  0.00     0.251 C 
ATOM     36  H   UNL     1      -4.689   0.549  -1.080  1.00  0.00     0.163 HD
ATOM     37  O   UNL     1      -7.021   0.092  -1.349  1.00  0.00    -0.269 OA
BRANCH  35  38
ATOM     38  C   UNL     1      -7.177  -0.443   0.933  1.00  0.00     0.039 A 
ATOM     39  C   UNL     1      -8.203  -1.383   0.786  1.00  0.00     0.014 A 
ATOM     40  C   UNL     1      -6.916   0.097   2.194  1.00  0.00     0.014 A 
ATOM     41  C   UNL     1      -8.930  -1.810   1.902  1.00  0.00     0.010 A 
ATOM     42  C   UNL     1      -7.586  -0.388   3.318  1.00  0.00     0.010 A 
ATOM     43  C   UNL     1      -8.611  -1.336   3.185  1.00  0.00    -0.014 A 
BRANCH  43  44
ATOM     44  C   UNL     1      -9.355  -1.806   4.385  1.00  0.00     0.031 A 
ATOM     45  C   UNL     1     -10.165  -0.837   5.207  1.00  0.00     0.074 A 
ATOM     46  C   UNL     1      -9.275  -3.100   4.759  1.00  0.00     0.049 A 
ATOM     47  N   UNL     1     -10.861  -1.056   6.295  1.00  0.00    -0.248 NA
ATOM     48  C   UNL     1     -10.177   0.567   4.764  1.00  0.00     0.031 C 
ATOM     49  C   UNL     1      -8.498  -4.134   4.071  1.00  0.00     0.029 A 
ATOM     50  N   UNL     1      -9.855  -3.767   5.809  1.00  0.00    -0.354 N 
ATOM     51  C   UNL     1     -11.379   0.179   6.670  1.00  0.00     0.074 A 
ATOM     52  C   UNL     1     -10.869   1.152   5.730  1.00  0.00     0.031 C 
ATOM     53  C   UNL     1      -8.680  -5.309   4.694  1.00  0.00     0.029 A 
ATOM     54  C   UNL     1      -9.549  -5.108   5.850  1.00  0.00     0.049 A 
ATOM     55  H   UNL     1     -10.436  -3.328   6.471  1.00  0.00     0.167 HD
ATOM     56  C   UNL     1     -12.221   0.475   7.690  1.00  0.00     0.031 A 
ATOM     57  C   UNL     1      -9.922  -6.069   6.718  1.00  0.00     0.031 A 
ATOM     58  C   UNL     1     -12.733  -0.497   8.621  1.00  0.00     0.049 A 
ATOM     59  C   UNL     1     -10.844  -5.713   7.853  1.00  0.00     0.074 A 
ATOM     60  C   UNL     1     -13.627  -0.306   9.659  1.00  0.00     0.029 A 
ATOM     61  N   UNL     1     -12.395  -1.842   8.628  1.00  0.00    -0.354 N 
ATOM     62  N   UNL     1     -11.369  -4.549   8.155  1.00  0.00    -0.248 NA
ATOM     63  C   UNL     1     -11.235  -6.804   8.755  1.00  0.00     0.031 C 
ATOM     64  C   UNL     1     -13.784  -1.523  10.331  1.00  0.00     0.029 A 
ATOM     65  C   UNL     1     -13.044  -2.488   9.667  1.00  0.00     0.049 A 
ATOM     66  H   UNL     1     -11.784  -2.274   7.988  1.00  0.00     0.167 HD
ATOM     67  C   UNL     1     -12.181  -4.777   9.261  1.00  0.00     0.074 A 
ATOM     68  C   UNL     1     -12.088  -6.190   9.564  1.00  0.00     0.031 C 
ATOM     69  C   UNL     1     -12.940  -3.896   9.960  1.00  0.00     0.031 A 
BRANCH  56  70
ATOM     70  C   UNL     1     -12.635   1.916   7.857  1.00  0.00    -0.014 A 
ATOM     71  C   UNL     1     -13.462   2.552   6.911  1.00  0.00     0.010 A 
ATOM     72  C   UNL     1     -12.224   2.636   8.994  1.00  0.00     0.010 A 
ATOM     73  C   UNL     1     -13.827   3.891   7.074  1.00  0.00     0.020 A 
ATOM     74  C   UNL     1     -12.614   3.966   9.177  1.00  0.00     0.020 A 
ATOM     75  C   UNL     1     -13.398   4.590   8.205  1.00  0.00     0.054 A 
BRANCH  75  76
ATOM     76  S   UNL     1     -13.901   6.322   8.397  1.00  0.00     0.124 S 
ATOM     77  O   UNL     1     -13.101   6.983   7.369  1.00  0.00    -0.237 OA
ATOM     78  O   UNL     1     -15.337   6.269   8.137  1.00  0.00    -0.237 OA
ATOM     79  O   UNL     1     -13.531   6.642   9.774  1.00  0.00    -0.744 OA
ENDBRANCH  75  76
ENDBRANCH  56  70
BRANCH  57  80
ATOM     80  C   UNL     1      -9.440  -7.467   6.535  1.00  0.00    -0.014 A 
ATOM     81  C   UNL     1     -10.332  -8.489   6.161  1.00  0.00     0.010 A 
ATOM     82  C   UNL     1      -8.083  -7.784   6.729  1.00  0.00     0.010 A 
ATOM     83  C   UNL     1      -9.880  -9.803   6.005  1.00  0.00     0.020 A 
ATOM     84  C   UNL     1      -7.622  -9.090   6.543  1.00  0.00     0.020 A 
ATOM     85  C   UNL     1      -8.526 -10.094   6.195  1.00  0.00     0.054 A 
BRANCH  85  86
ATOM     86  S   UNL     1      -7.954 -11.797   5.941  1.00  0.00     0.124 S 
ATOM     87  O   UNL     1      -8.509 -12.481   7.104  1.00  0.00    -0.237 OA
ATOM     88  O   UNL     1      -8.554 -12.142   4.655  1.00  0.00    -0.237 OA
ATOM     89  O   UNL     1      -6.498 -11.669   5.925  1.00  0.00    -0.744 OA
ENDBRANCH  85  86
ENDBRANCH  57  80
BRANCH  69  90
ATOM     90  C   UNL     1     -13.767  -4.441  11.096  1.00  0.00    -0.014 A 
ATOM     91  C   UNL     1     -13.173  -4.904  12.283  1.00  0.00     0.010 A 
ATOM     92  C   UNL     1     -15.170  -4.452  10.984  1.00  0.00     0.010 A 
ATOM     93  C   UNL     1     -13.964  -5.408  13.319  1.00  0.00     0.020 A 
ATOM     94  C   UNL     1     -15.966  -4.923  12.031  1.00  0.00     0.020 A 
ATOM     95  C   UNL     1     -15.356  -5.416  13.185  1.00  0.00     0.054 A 
BRANCH  95  96
ATOM     96  S   UNL     1     -16.361  -6.049  14.555  1.00  0.00     0.124 S 
ATOM     97  O   UNL     1     -16.116  -7.486  14.473  1.00  0.00    -0.237 OA
ATOM     98  O   UNL     1     -15.780  -5.378  15.715  1.00  0.00    -0.237 OA
ATOM     99  O   UNL     1     -17.718  -5.628  14.214  1.00  0.00    -0.744 OA
ENDBRANCH  95  96
ENDBRANCH  69  90
ENDBRANCH  43  44
ENDBRANCH  35  38
ENDBRANCH  33  34
ENDBRANCH  32  33
ENDBRANCH  31  32
ENDBRANCH   1  31
TORSDOF 22
