REMARK SMILES Cc1c(C(=O)Nc2ccc(C(=O)Nc3ccccc3C(=O)NCCCCCCNC(=O)c3ccc(-c4c5nc(c(-c6ccc(S(=O)(=O)[O-])cc6)c6ccc([nH]6)c(-c6ccc(S(=O)(=O)[O-])cc6)c6nc(c(-c7ccc(S(=O)(=O)[O-])cc7)c7ccc4[nH]7)C=C6)C=C5)cc3)cc2)cccc1[N+](=O)[O-]
REMARK SMILES IDX 24 1 23 2 22 3 20 4 21 5 19 7 14 8 15 9 16 10 18 11 17 12
REMARK SMILES IDX 13 13 11 14 12 15 10 17 7 18 8 19 93 20 9 21 92 22 6 23 4 24
REMARK SMILES IDX 5 25 3 27 1 28 2 29 97 30 94 31 96 32 95 33 98 34 99 35
REMARK SMILES IDX 100 36 25 37 26 38 27 39 28 40 29 41 30 42 31 44 32 45 33 46
REMARK SMILES IDX 91 47 34 48 90 49 35 50 36 51 37 52 84 53 38 54 89 55 83 56
REMARK SMILES IDX 85 57 39 58 88 59 82 60 81 61 40 63 70 64 51 65 69 66 52 67
REMARK SMILES IDX 55 68 68 69 86 70 53 71 54 72 67 74 87 75 56 76 41 77 42 78
REMARK SMILES IDX 50 79 43 80 49 81 44 82 45 83 46 84 47 85 48 86 71 87 72 88
REMARK SMILES IDX 80 89 73 90 79 91 74 92 75 93 76 94 77 95 78 96 57 97 58 98
REMARK SMILES IDX 66 99 59 100 65 101 60 102 61 103 62 104 63 105 64 106
REMARK H PARENT 22 6 13 16 6 26 29 43 85 62 55 73
REMARK Flexibility Score: inf
ROOT
ATOM      1  C   UNL     1       3.168  -1.785   3.905  1.00  0.00     0.021 C 
ENDROOT
BRANCH   1   2
ATOM      2  C   UNL     1       3.463  -0.324   4.253  1.00  0.00     0.116 C 
BRANCH   2   3
ATOM      3  N   UNL     1       4.747   0.192   3.816  1.00  0.00    -0.352 N 
ATOM      4  C   UNL     1       5.137   1.466   3.454  1.00  0.00     0.253 C 
ATOM      5  O   UNL     1       6.331   1.686   3.261  1.00  0.00    -0.269 OA
ATOM      6  H   UNL     1       5.464  -0.482   3.769  1.00  0.00     0.163 HD
BRANCH   4   7
ATOM      7  C   UNL     1       4.154   2.572   3.259  1.00  0.00     0.063 A 
ATOM      8  C   UNL     1       4.244   3.459   2.158  1.00  0.00     0.054 A 
ATOM      9  C   UNL     1       3.327   4.521   2.051  1.00  0.00     0.027 A 
ATOM     10  C   UNL     1       2.283   4.659   2.964  1.00  0.00     0.002 A 
ATOM     11  C   UNL     1       3.153   2.789   4.220  1.00  0.00     0.016 A 
ATOM     12  C   UNL     1       2.198   3.795   4.050  1.00  0.00     0.001 A 
BRANCH   8  13
ATOM     13  N   UNL     1       5.124   3.345   1.062  1.00  0.00    -0.321 N 
ATOM     14  C   UNL     1       5.530   2.252   0.322  1.00  0.00     0.255 C 
ATOM     15  O   UNL     1       6.452   2.397  -0.484  1.00  0.00    -0.269 OA
ATOM     16  H   UNL     1       5.521   4.198   0.773  1.00  0.00     0.170 HD
BRANCH  14  17
ATOM     17  C   UNL     1       4.766   0.968   0.312  1.00  0.00     0.040 A 
ATOM     18  C   UNL     1       3.229  -1.357  -0.078  1.00  0.00     0.041 A 
ATOM     19  C   UNL     1       2.730  -0.298   0.661  1.00  0.00     0.027 A 
ATOM     20  C   UNL     1       4.569  -1.328  -0.476  1.00  0.00     0.027 A 
ATOM     21  C   UNL     1       3.447   0.884   0.752  1.00  0.00     0.016 A 
ATOM     22  C   UNL     1       5.336  -0.168  -0.279  1.00  0.00     0.016 A 
BRANCH  18  23
ATOM     23  N   UNL     1       2.401  -2.391  -0.542  1.00  0.00    -0.322 N 
ATOM     24  C   UNL     1       1.033  -2.429  -0.765  1.00  0.00     0.256 C 
ATOM     25  O   UNL     1       0.509  -3.489  -1.102  1.00  0.00    -0.269 OA
ATOM     26  H   UNL     1       2.871  -3.232  -0.744  1.00  0.00     0.170 HD
BRANCH  24  27
ATOM     27  C   UNL     1       0.149  -1.230  -0.624  1.00  0.00     0.049 A 
ATOM     28  C   UNL     1       1.417   0.199  -2.307  1.00  0.00     0.053 C 
ATOM     29  C   UNL     1       0.409   0.038  -1.198  1.00  0.00     0.039 A 
ATOM     30  C   UNL     1      -0.334   1.135  -0.699  1.00  0.00     0.273 A 
ATOM     31  C   UNL     1      -0.996  -1.416   0.173  1.00  0.00     0.014 A 
ATOM     32  C   UNL     1      -1.460   0.944   0.119  1.00  0.00     0.086 A 
ATOM     33  C   UNL     1      -1.821  -0.343   0.505  1.00  0.00     0.008 A 
BRANCH  30  34
ATOM     34  N   UNL     1       0.107   2.523  -0.908  1.00  0.00     0.063 N 
ATOM     35  O   UNL     1      -0.760   3.409  -0.914  1.00  0.00    -0.258 OA
ATOM     36  O   UNL     1       1.325   2.739  -0.988  1.00  0.00    -0.258 OA
ENDBRANCH  30  34
ENDBRANCH  24  27
ENDBRANCH  18  23
ENDBRANCH  14  17
ENDBRANCH   8  13
ENDBRANCH   4   7
ENDBRANCH   2   3
ENDBRANCH   1   2
BRANCH   1  37
ATOM     37  C   UNL     1       4.251  -2.839   4.147  1.00  0.00     0.002 C 
BRANCH  37  38
ATOM     38  C   UNL     1       4.879  -2.938   5.543  1.00  0.00     0.002 C 
BRANCH  38  39
ATOM     39  C   UNL     1       3.944  -2.861   6.750  1.00  0.00     0.021 C 
BRANCH  39  40
ATOM     40  C   UNL     1       2.835  -3.892   6.778  1.00  0.00     0.116 C 
BRANCH  40  41
ATOM     41  N   UNL     1       3.128  -5.128   7.480  1.00  0.00    -0.352 N 
ATOM     42  C   UNL     1       2.072  -5.750   8.154  1.00  0.00     0.251 C 
ATOM     43  H   UNL     1       4.035  -5.513   7.481  1.00  0.00     0.163 HD
ATOM     44  O   UNL     1       1.748  -5.541   9.298  1.00  0.00    -0.269 OA
BRANCH  42  45
ATOM     45  C   UNL     1       1.156  -6.452   7.225  1.00  0.00     0.039 A 
ATOM     46  C   UNL     1       1.218  -7.828   7.013  1.00  0.00     0.014 A 
ATOM     47  C   UNL     1       0.375  -5.625   6.415  1.00  0.00     0.014 A 
ATOM     48  C   UNL     1       0.591  -8.359   5.884  1.00  0.00     0.010 A 
ATOM     49  C   UNL     1      -0.145  -6.127   5.251  1.00  0.00     0.010 A 
ATOM     50  C   UNL     1      -0.012  -7.488   4.973  1.00  0.00    -0.014 A 
BRANCH  50  51
ATOM     51  C   UNL     1      -0.566  -7.867   3.687  1.00  0.00     0.031 A 
ATOM     52  C   UNL     1      -2.033  -8.055   3.581  1.00  0.00     0.074 A 
ATOM     53  C   UNL     1       0.229  -7.838   2.594  1.00  0.00     0.049 A 
ATOM     54  N   UNL     1      -2.618  -8.682   2.621  1.00  0.00    -0.248 NA
ATOM     55  C   UNL     1      -2.973  -7.559   4.589  1.00  0.00     0.031 C 
ATOM     56  C   UNL     1      -0.199  -7.866   1.197  1.00  0.00     0.029 A 
ATOM     57  N   UNL     1       1.620  -7.923   2.491  1.00  0.00    -0.354 N 
ATOM     58  C   UNL     1      -3.967  -8.412   2.707  1.00  0.00     0.074 A 
ATOM     59  C   UNL     1      -4.149  -7.795   3.998  1.00  0.00     0.031 C 
ATOM     60  C   UNL     1       0.828  -8.297   0.445  1.00  0.00     0.029 A 
ATOM     61  C   UNL     1       1.867  -8.724   1.367  1.00  0.00     0.049 A 
ATOM     62  H   UNL     1       2.287  -7.507   3.084  1.00  0.00     0.167 HD
ATOM     63  C   UNL     1      -4.752  -8.608   1.610  1.00  0.00     0.031 A 
ATOM     64  C   UNL     1       2.360 -10.001   1.430  1.00  0.00     0.031 A 
ATOM     65  C   UNL     1      -3.978  -9.190   0.515  1.00  0.00     0.049 A 
ATOM     66  C   UNL     1       1.419 -11.030   0.814  1.00  0.00     0.074 A 
ATOM     67  C   UNL     1      -3.389  -8.645  -0.615  1.00  0.00     0.029 A 
ATOM     68  N   UNL     1      -3.430 -10.456   0.674  1.00  0.00    -0.354 N 
ATOM     69  N   UNL     1       0.142 -10.830   0.622  1.00  0.00    -0.248 NA
ATOM     70  C   UNL     1       1.835 -12.358   0.370  1.00  0.00     0.031 C 
ATOM     71  C   UNL     1      -2.421  -9.570  -1.091  1.00  0.00     0.029 A 
ATOM     72  C   UNL     1      -2.450 -10.686  -0.273  1.00  0.00     0.049 A 
ATOM     73  H   UNL     1      -3.702 -11.101   1.366  1.00  0.00     0.167 HD
ATOM     74  C   UNL     1      -0.425 -11.928   0.024  1.00  0.00     0.074 A 
ATOM     75  C   UNL     1       0.682 -12.858  -0.113  1.00  0.00     0.031 C 
ATOM     76  C   UNL     1      -1.753 -11.968  -0.307  1.00  0.00     0.031 A 
BRANCH  63  77
ATOM     77  C   UNL     1      -6.136  -8.024   1.428  1.00  0.00    -0.014 A 
ATOM     78  C   UNL     1      -6.629  -7.815   0.122  1.00  0.00     0.010 A 
ATOM     79  C   UNL     1      -6.982  -7.618   2.478  1.00  0.00     0.010 A 
ATOM     80  C   UNL     1      -7.848  -7.164  -0.124  1.00  0.00     0.020 A 
ATOM     81  C   UNL     1      -8.191  -6.940   2.249  1.00  0.00     0.020 A 
ATOM     82  C   UNL     1      -8.612  -6.707   0.945  1.00  0.00     0.054 A 
BRANCH  82  83
ATOM     83  S   UNL     1     -10.153  -5.816   0.610  1.00  0.00     0.124 S 
ATOM     84  O   UNL     1      -9.692  -4.676  -0.178  1.00  0.00    -0.237 OA
ATOM     85  O   UNL     1     -10.940  -6.809  -0.116  1.00  0.00    -0.237 OA
ATOM     86  O   UNL     1     -10.656  -5.479   1.941  1.00  0.00    -0.744 OA
ENDBRANCH  82  83
ENDBRANCH  63  77
BRANCH  64  87
ATOM     87  C   UNL     1       3.271 -10.250   2.586  1.00  0.00    -0.014 A 
ATOM     88  C   UNL     1       4.515  -9.581   2.581  1.00  0.00     0.010 A 
ATOM     89  C   UNL     1       2.758 -10.713   3.809  1.00  0.00     0.010 A 
ATOM     90  C   UNL     1       5.112  -9.184   3.781  1.00  0.00     0.020 A 
ATOM     91  C   UNL     1       3.368 -10.332   5.015  1.00  0.00     0.020 A 
ATOM     92  C   UNL     1       4.486  -9.493   4.988  1.00  0.00     0.054 A 
BRANCH  92  93
ATOM     93  S   UNL     1       5.025  -8.610   6.485  1.00  0.00     0.124 S 
ATOM     94  O   UNL     1       6.457  -8.884   6.516  1.00  0.00    -0.237 OA
ATOM     95  O   UNL     1       4.648  -7.227   6.177  1.00  0.00    -0.237 OA
ATOM     96  O   UNL     1       4.242  -9.231   7.548  1.00  0.00    -0.744 OA
ENDBRANCH  92  93
ENDBRANCH  64  87
BRANCH  76  97
ATOM     97  C   UNL     1      -2.554 -13.177  -0.759  1.00  0.00    -0.014 A 
ATOM     98  C   UNL     1      -2.116 -14.506  -0.684  1.00  0.00     0.010 A 
ATOM     99  C   UNL     1      -3.895 -12.982  -1.188  1.00  0.00     0.010 A 
ATOM    100  C   UNL     1      -2.949 -15.574  -1.057  1.00  0.00     0.020 A 
ATOM    101  C   UNL     1      -4.750 -14.039  -1.511  1.00  0.00     0.020 A 
ATOM    102  C   UNL     1      -4.261 -15.334  -1.465  1.00  0.00     0.054 A 
BRANCH 102 103
ATOM    103  S   UNL     1      -5.338 -16.730  -1.870  1.00  0.00     0.124 S 
ATOM    104  O   UNL     1      -4.931 -17.035  -3.239  1.00  0.00    -0.237 OA
ATOM    105  O   UNL     1      -4.965 -17.727  -0.869  1.00  0.00    -0.237 OA
ATOM    106  O   UNL     1      -6.684 -16.183  -1.723  1.00  0.00    -0.744 OA
ENDBRANCH 102 103
ENDBRANCH  76  97
ENDBRANCH  50  51
ENDBRANCH  42  45
ENDBRANCH  40  41
ENDBRANCH  39  40
ENDBRANCH  38  39
ENDBRANCH  37  38
ENDBRANCH   1  37
TORSDOF 21
