REMARK SMILES CC(C)[C@H](C(=O)NCCCCCCNC(=O)c1ccc(-c2c3nc(c(-c4ccc(S(=O)(=O)[O-])cc4)c4ccc([nH]4)c(-c4ccc(S(=O)(=O)[O-])cc4)c4nc(c(-c5ccc(S(=O)(=O)[O-])cc5)c5ccc2[nH]5)C=C4)C=C3)cc1)c1ccc(Cl)cc1F
REMARK SMILES IDX 11 1 10 2 9 3 8 4 7 5 5 6 6 7 4 9 2 10 1 11 3 12 77 13 78 14
REMARK SMILES IDX 83 15 79 16 82 17 84 18 80 19 81 20 12 21 13 22 14 23 15 24
REMARK SMILES IDX 16 26 17 27 18 28 76 29 19 30 75 31 20 32 21 33 22 34 69 35
REMARK SMILES IDX 23 36 74 37 68 38 70 39 24 40 73 41 67 42 66 43 25 45 55 46
REMARK SMILES IDX 36 47 54 48 37 49 40 50 53 51 71 52 38 53 39 54 52 56 72 57
REMARK SMILES IDX 41 58 26 59 27 60 35 61 28 62 34 63 29 64 30 65 31 66 32 67
REMARK SMILES IDX 33 68 56 69 57 70 65 71 58 72 64 73 59 74 60 75 61 76 62 77
REMARK SMILES IDX 63 78 42 79 43 80 51 81 44 82 50 83 45 84 46 85 47 86 48 87
REMARK SMILES IDX 49 88
REMARK H PARENT 7 8 14 25 70 44 40 55
REMARK Flexibility Score: inf
ROOT
ATOM      1  C   UNL     1       2.945   0.239   2.811  1.00  0.00     0.002 C 
ENDROOT
BRANCH   1   2
ATOM      2  C   UNL     1       2.696  -1.108   2.127  1.00  0.00     0.002 C 
BRANCH   2   3
ATOM      3  C   UNL     1       1.233  -1.455   1.823  1.00  0.00     0.021 C 
BRANCH   3   4
ATOM      4  C   UNL     1       0.464  -0.423   1.000  1.00  0.00     0.116 C 
BRANCH   4   5
ATOM      5  N   UNL     1       1.076  -0.149  -0.285  1.00  0.00    -0.356 N 
ATOM      6  C   UNL     1       0.553   0.480  -1.378  1.00  0.00     0.227 C 
ATOM      7  O   UNL     1       1.327   0.713  -2.310  1.00  0.00    -0.274 OA
ATOM      8  H   UNL     1       2.004  -0.462  -0.384  1.00  0.00     0.163 HD
BRANCH   6   9
ATOM      9  C   UNL     1      -0.944   0.851  -1.425  1.00  0.00     0.114 C 
BRANCH   9  10
ATOM     10  C   UNL     1      -1.382   1.903  -0.353  1.00  0.00    -0.000 C 
ATOM     11  C   UNL     1      -0.352   2.996  -0.049  1.00  0.00     0.008 C 
ATOM     12  C   UNL     1      -2.750   2.542  -0.634  1.00  0.00     0.008 C 
ENDBRANCH   9  10
BRANCH   9  13
ATOM     13  C   UNL     1      -1.389   1.161  -2.856  1.00  0.00     0.001 A 
ATOM     14  C   UNL     1      -1.081   2.373  -3.494  1.00  0.00     0.009 A 
ATOM     15  C   UNL     1      -2.126   0.211  -3.579  1.00  0.00     0.128 A 
ATOM     16  C   UNL     1      -1.558   2.645  -4.779  1.00  0.00     0.021 A 
ATOM     17  C   UNL     1      -2.595   0.467  -4.864  1.00  0.00     0.060 A 
ATOM     18  F   UNL     1      -2.411  -0.977  -3.027  1.00  0.00    -0.207 F 
ATOM     19  C   UNL     1      -2.321   1.695  -5.454  1.00  0.00     0.043 A 
ATOM     20  Cl  UNL     1      -2.926   2.044  -7.027  1.00  0.00    -0.084 Cl
ENDBRANCH   9  13
ENDBRANCH   6   9
ENDBRANCH   4   5
ENDBRANCH   3   4
ENDBRANCH   2   3
ENDBRANCH   1   2
BRANCH   1  21
ATOM     21  C   UNL     1       2.220   0.460   4.139  1.00  0.00     0.021 C 
BRANCH  21  22
ATOM     22  C   UNL     1       2.401  -0.636   5.184  1.00  0.00     0.116 C 
BRANCH  22  23
ATOM     23  N   UNL     1       3.788  -0.849   5.561  1.00  0.00    -0.352 N 
ATOM     24  C   UNL     1       4.328  -1.052   6.811  1.00  0.00     0.251 C 
ATOM     25  H   UNL     1       4.433  -0.847   4.817  1.00  0.00     0.163 HD
ATOM     26  O   UNL     1       5.541  -1.108   6.951  1.00  0.00    -0.269 OA
BRANCH  24  27
ATOM     27  C   UNL     1       3.435  -1.165   7.989  1.00  0.00     0.039 A 
ATOM     28  C   UNL     1       3.752  -0.442   9.142  1.00  0.00     0.014 A 
ATOM     29  C   UNL     1       2.292  -1.968   7.958  1.00  0.00     0.014 A 
ATOM     30  C   UNL     1       2.885  -0.470  10.238  1.00  0.00     0.010 A 
ATOM     31  C   UNL     1       1.395  -1.940   9.023  1.00  0.00     0.010 A 
ATOM     32  C   UNL     1       1.681  -1.190  10.175  1.00  0.00    -0.014 A 
BRANCH  32  33
ATOM     33  C   UNL     1       0.706  -1.161  11.296  1.00  0.00     0.031 A 
ATOM     34  C   UNL     1       0.379  -2.422  12.050  1.00  0.00     0.074 A 
ATOM     35  C   UNL     1       0.068  -0.012  11.597  1.00  0.00     0.049 A 
ATOM     36  N   UNL     1      -0.484  -2.604  13.018  1.00  0.00    -0.248 NA
ATOM     37  C   UNL     1       1.097  -3.643  11.650  1.00  0.00     0.031 C 
ATOM     38  C   UNL     1       0.265   1.270  10.916  1.00  0.00     0.029 A 
ATOM     39  N   UNL     1      -0.883   0.263  12.549  1.00  0.00    -0.354 N 
ATOM     40  C   UNL     1      -0.424  -3.957  13.330  1.00  0.00     0.074 A 
ATOM     41  C   UNL     1       0.522  -4.559  12.416  1.00  0.00     0.031 C 
ATOM     42  C   UNL     1      -0.519   2.198  11.489  1.00  0.00     0.029 A 
ATOM     43  C   UNL     1      -1.305   1.572  12.547  1.00  0.00     0.049 A 
ATOM     44  H   UNL     1      -1.230  -0.414  13.174  1.00  0.00     0.167 HD
ATOM     45  C   UNL     1      -1.083  -4.635  14.300  1.00  0.00     0.031 A 
ATOM     46  C   UNL     1      -2.225   2.199  13.306  1.00  0.00     0.031 A 
ATOM     47  C   UNL     1      -2.017  -4.032  15.214  1.00  0.00     0.049 A 
ATOM     48  C   UNL     1      -2.951   1.423  14.371  1.00  0.00     0.074 A 
ATOM     49  C   UNL     1      -2.694  -4.624  16.266  1.00  0.00     0.029 A 
ATOM     50  N   UNL     1      -2.409  -2.702  15.185  1.00  0.00    -0.354 N 
ATOM     51  N   UNL     1      -2.833   0.157  14.692  1.00  0.00    -0.248 NA
ATOM     52  C   UNL     1      -3.926   2.164  15.184  1.00  0.00     0.031 C 
ATOM     53  C   UNL     1      -3.535  -3.665  16.840  1.00  0.00     0.029 A 
ATOM     54  C   UNL     1      -3.335  -2.460  16.185  1.00  0.00     0.049 A 
ATOM     55  H   UNL     1      -2.076  -2.030  14.548  1.00  0.00     0.167 HD
ATOM     56  C   UNL     1      -3.697  -0.044  15.762  1.00  0.00     0.074 A 
ATOM     57  C   UNL     1      -4.321   1.233  16.042  1.00  0.00     0.031 C 
ATOM     58  C   UNL     1      -3.949  -1.183  16.453  1.00  0.00     0.031 A 
BRANCH  45  59
ATOM     59  C   UNL     1      -0.820  -6.114  14.418  1.00  0.00    -0.014 A 
ATOM     60  C   UNL     1       0.420  -6.598  14.873  1.00  0.00     0.010 A 
ATOM     61  C   UNL     1      -1.839  -7.033  14.108  1.00  0.00     0.010 A 
ATOM     62  C   UNL     1       0.651  -7.973  14.973  1.00  0.00     0.020 A 
ATOM     63  C   UNL     1      -1.622  -8.409  14.235  1.00  0.00     0.020 A 
ATOM     64  C   UNL     1      -0.371  -8.870  14.650  1.00  0.00     0.054 A 
BRANCH  64  65
ATOM     65  S   UNL     1      -0.049 -10.648  14.807  1.00  0.00     0.124 S 
ATOM     66  O   UNL     1       0.835 -10.894  13.670  1.00  0.00    -0.237 OA
ATOM     67  O   UNL     1       0.578 -10.745  16.122  1.00  0.00    -0.237 OA
ATOM     68  O   UNL     1      -1.376 -11.251  14.706  1.00  0.00    -0.744 OA
ENDBRANCH  64  65
ENDBRANCH  45  59
BRANCH  46  69
ATOM     69  C   UNL     1      -2.501   3.647  13.095  1.00  0.00    -0.014 A 
ATOM     70  C   UNL     1      -2.099   4.598  14.049  1.00  0.00     0.010 A 
ATOM     71  C   UNL     1      -3.156   4.084  11.929  1.00  0.00     0.010 A 
ATOM     72  C   UNL     1      -2.363   5.957  13.851  1.00  0.00     0.020 A 
ATOM     73  C   UNL     1      -3.396   5.444  11.714  1.00  0.00     0.020 A 
ATOM     74  C   UNL     1      -3.008   6.372  12.683  1.00  0.00     0.054 A 
BRANCH  74  75
ATOM     75  S   UNL     1      -3.293   8.145  12.422  1.00  0.00     0.124 S 
ATOM     76  O   UNL     1      -4.378   8.418  13.358  1.00  0.00    -0.237 OA
ATOM     77  O   UNL     1      -1.997   8.726  12.765  1.00  0.00    -0.237 OA
ATOM     78  O   UNL     1      -3.649   8.228  11.007  1.00  0.00    -0.744 OA
ENDBRANCH  74  75
ENDBRANCH  46  69
BRANCH  58  79
ATOM     79  C   UNL     1      -4.914  -1.099  17.605  1.00  0.00    -0.014 A 
ATOM     80  C   UNL     1      -6.295  -0.942  17.393  1.00  0.00     0.010 A 
ATOM     81  C   UNL     1      -4.435  -1.236  18.921  1.00  0.00     0.010 A 
ATOM     82  C   UNL     1      -7.176  -0.894  18.477  1.00  0.00     0.020 A 
ATOM     83  C   UNL     1      -5.314  -1.217  20.006  1.00  0.00     0.020 A 
ATOM     84  C   UNL     1      -6.679  -1.032  19.777  1.00  0.00     0.054 A 
BRANCH  84  85
ATOM     85  S   UNL     1      -7.848  -1.014  21.165  1.00  0.00     0.124 S 
ATOM     86  O   UNL     1      -8.211   0.399  21.236  1.00  0.00    -0.237 OA
ATOM     87  O   UNL     1      -8.904  -1.912  20.706  1.00  0.00    -0.237 OA
ATOM     88  O   UNL     1      -7.059  -1.512  22.289  1.00  0.00    -0.744 OA
ENDBRANCH  84  85
ENDBRANCH  58  79
ENDBRANCH  32  33
ENDBRANCH  24  27
ENDBRANCH  22  23
ENDBRANCH  21  22
ENDBRANCH   1  21
TORSDOF 18
