REMARK SMILES Cc1cc(N2CCC[C@H]2C2CCCC2)cc(C(=O)NCCCCCCNC(=O)c2ccc(-c3c4nc(c(-c5ccc(S(=O)(=O)[O-])cc5)c5ccc([nH]5)c(-c5ccc(S(=O)(=O)[O-])cc5)c5nc(c(-c6ccc(S(=O)(=O)[O-])cc6)c6ccc3[nH]6)C=C5)C=C4)cc2)c1N
REMARK SMILES IDX 23 1 22 2 21 3 20 4 19 5 17 6 18 7 16 9 1 10 2 11 3 12 89 13
REMARK SMILES IDX 4 14 15 15 90 16 5 19 6 20 9 21 7 22 8 23 10 24 11 25 14 26
REMARK SMILES IDX 12 27 13 28 24 29 25 30 26 31 27 32 28 34 29 35 30 36 88 37
REMARK SMILES IDX 31 38 87 39 32 40 33 41 34 42 81 43 35 44 86 45 80 46 82 47
REMARK SMILES IDX 36 48 85 49 79 50 78 51 37 53 67 54 48 55 66 56 49 57 52 58
REMARK SMILES IDX 65 59 83 60 50 61 51 62 64 64 84 65 53 66 38 67 39 68 47 69
REMARK SMILES IDX 40 70 46 71 41 72 42 73 43 74 44 75 45 76 68 77 69 78 77 79
REMARK SMILES IDX 70 80 76 81 71 82 72 83 73 84 74 85 75 86 54 87 55 88 63 89
REMARK SMILES IDX 56 90 62 91 57 92 58 93 59 94 60 95 61 96
REMARK H PARENT 19 8 90 17 90 18 26 33 82 52 52 63
REMARK Flexibility Score: inf
ROOT
ATOM      1  C   UNL     1      -4.790  -6.029   0.069  1.00  0.00     0.002 C 
ENDROOT
BRANCH   1   2
ATOM      2  C   UNL     1      -3.852  -5.679  -1.098  1.00  0.00     0.002 C 
BRANCH   2   3
ATOM      3  C   UNL     1      -3.369  -4.223  -1.226  1.00  0.00     0.021 C 
BRANCH   3   4
ATOM      4  C   UNL     1      -2.451  -3.725  -0.096  1.00  0.00     0.116 C 
BRANCH   4   5
ATOM      5  N   UNL     1      -1.064  -3.650  -0.531  1.00  0.00    -0.352 N 
ATOM      6  C   UNL     1      -0.117  -2.655  -0.630  1.00  0.00     0.253 C 
ATOM      7  O   UNL     1       1.013  -3.049  -0.949  1.00  0.00    -0.269 OA
ATOM      8  H   UNL     1      -0.718  -4.523  -0.827  1.00  0.00     0.163 HD
BRANCH   6   9
ATOM      9  C   UNL     1      -0.327  -1.184  -0.364  1.00  0.00     0.065 A 
ATOM     10  C   UNL     1       1.794   1.917   0.433  1.00  0.00     0.046 C 
ATOM     11  C   UNL     1       0.617   1.008   0.191  1.00  0.00    -0.025 A 
ATOM     12  C   UNL     1      -0.674   1.567   0.130  1.00  0.00     0.031 A 
ATOM     13  C   UNL     1       0.796  -0.378  -0.028  1.00  0.00     0.047 A 
ATOM     14  C   UNL     1      -1.788   0.807  -0.243  1.00  0.00     0.038 A 
ATOM     15  C   UNL     1      -1.564  -0.549  -0.566  1.00  0.00     0.042 A 
BRANCH  13  16
ATOM     16  N   UNL     1       2.055  -0.946   0.221  1.00  0.00    -0.398 N 
ATOM     17  H   UNL     1       2.819  -0.368   0.452  1.00  0.00     0.156 HD
ATOM     18  H   UNL     1       2.175  -1.921   0.165  1.00  0.00     0.156 HD
ENDBRANCH  13  16
BRANCH  14  19
ATOM     19  N   UNL     1      -3.074   1.363  -0.342  1.00  0.00    -0.368 N 
ATOM     20  C   UNL     1      -3.215   2.523  -1.235  1.00  0.00     0.117 C 
ATOM     21  C   UNL     1      -3.852   1.607   0.916  1.00  0.00     0.085 C 
ATOM     22  C   UNL     1      -3.642   3.674  -0.332  1.00  0.00     0.024 C 
ATOM     23  C   UNL     1      -4.483   3.003   0.733  1.00  0.00     0.027 C 
BRANCH  21  24
ATOM     24  C   UNL     1      -4.953   0.560   1.206  1.00  0.00     0.011 C 
ATOM     25  C   UNL     1      -6.127   0.505   0.218  1.00  0.00     0.006 C 
ATOM     26  C   UNL     1      -4.447  -0.866   1.194  1.00  0.00     0.006 C 
ATOM     27  C   UNL     1      -6.761  -0.861   0.433  1.00  0.00     0.000 C 
ATOM     28  C   UNL     1      -5.641  -1.754   0.924  1.00  0.00     0.000 C 
ENDBRANCH  21  24
ENDBRANCH  14  19
ENDBRANCH   6   9
ENDBRANCH   4   5
ENDBRANCH   3   4
ENDBRANCH   2   3
ENDBRANCH   1   2
BRANCH   1  29
ATOM     29  C   UNL     1      -6.128  -5.293   0.169  1.00  0.00     0.021 C 
BRANCH  29  30
ATOM     30  C   UNL     1      -7.006  -5.247  -1.079  1.00  0.00     0.116 C 
BRANCH  30  31
ATOM     31  N   UNL     1      -7.620  -6.535  -1.348  1.00  0.00    -0.352 N 
ATOM     32  C   UNL     1      -8.940  -6.915  -1.308  1.00  0.00     0.251 C 
ATOM     33  H   UNL     1      -6.991  -7.249  -1.600  1.00  0.00     0.163 HD
ATOM     34  O   UNL     1      -9.210  -8.116  -1.319  1.00  0.00    -0.269 OA
BRANCH  32  35
ATOM     35  C   UNL     1     -10.043  -5.922  -1.247  1.00  0.00     0.039 A 
ATOM     36  C   UNL     1     -11.168  -6.219  -0.467  1.00  0.00     0.014 A 
ATOM     37  C   UNL     1     -10.032  -4.751  -2.010  1.00  0.00     0.014 A 
ATOM     38  C   UNL     1     -12.253  -5.334  -0.424  1.00  0.00     0.010 A 
ATOM     39  C   UNL     1     -11.091  -3.840  -1.921  1.00  0.00     0.010 A 
ATOM     40  C   UNL     1     -12.219  -4.125  -1.135  1.00  0.00    -0.014 A 
BRANCH  40  41
ATOM     41  C   UNL     1     -13.355  -3.162  -1.073  1.00  0.00     0.031 A 
ATOM     42  C   UNL     1     -14.171  -2.858  -2.305  1.00  0.00     0.074 A 
ATOM     43  C   UNL     1     -13.634  -2.524   0.082  1.00  0.00     0.049 A 
ATOM     44  N   UNL     1     -15.162  -2.013  -2.451  1.00  0.00    -0.248 NA
ATOM     45  C   UNL     1     -13.818  -3.584  -3.535  1.00  0.00     0.031 C 
ATOM     46  C   UNL     1     -12.911  -2.703   1.344  1.00  0.00     0.029 A 
ATOM     47  N   UNL     1     -14.597  -1.591   0.384  1.00  0.00    -0.354 N 
ATOM     48  C   UNL     1     -15.537  -2.092  -3.789  1.00  0.00     0.074 A 
ATOM     49  C   UNL     1     -14.643  -3.039  -4.420  1.00  0.00     0.031 C 
ATOM     50  C   UNL     1     -13.466  -1.922   2.284  1.00  0.00     0.029 A 
ATOM     51  C   UNL     1     -14.558  -1.157   1.689  1.00  0.00     0.049 A 
ATOM     52  H   UNL     1     -15.253  -1.264  -0.273  1.00  0.00     0.167 HD
ATOM     53  C   UNL     1     -16.542  -1.448  -4.431  1.00  0.00     0.031 A 
ATOM     54  C   UNL     1     -15.307  -0.241   2.335  1.00  0.00     0.031 A 
ATOM     55  C   UNL     1     -17.445  -0.519  -3.803  1.00  0.00     0.049 A 
ATOM     56  C   UNL     1     -16.410   0.469   1.596  1.00  0.00     0.074 A 
ATOM     57  C   UNL     1     -18.527   0.140  -4.363  1.00  0.00     0.029 A 
ATOM     58  N   UNL     1     -17.375  -0.115  -2.479  1.00  0.00    -0.354 N 
ATOM     59  N   UNL     1     -16.782   0.335   0.345  1.00  0.00    -0.248 NA
ATOM     60  C   UNL     1     -17.201   1.445   2.359  1.00  0.00     0.031 C 
ATOM     61  C   UNL     1     -19.080   0.980  -3.391  1.00  0.00     0.029 A 
ATOM     62  C   UNL     1     -18.379   0.800  -2.210  1.00  0.00     0.049 A 
ATOM     63  H   UNL     1     -16.709  -0.432  -1.826  1.00  0.00     0.167 HD
ATOM     64  C   UNL     1     -17.869   1.188   0.182  1.00  0.00     0.074 A 
ATOM     65  C   UNL     1     -18.102   1.821   1.462  1.00  0.00     0.031 C 
ATOM     66  C   UNL     1     -18.607   1.423  -0.931  1.00  0.00     0.031 A 
BRANCH  53  67
ATOM     67  C   UNL     1     -16.724  -1.722  -5.903  1.00  0.00    -0.014 A 
ATOM     68  C   UNL     1     -17.226  -2.955  -6.356  1.00  0.00     0.010 A 
ATOM     69  C   UNL     1     -16.452  -0.709  -6.841  1.00  0.00     0.010 A 
ATOM     70  C   UNL     1     -17.419  -3.182  -7.721  1.00  0.00     0.020 A 
ATOM     71  C   UNL     1     -16.669  -0.922  -8.205  1.00  0.00     0.020 A 
ATOM     72  C   UNL     1     -17.139  -2.165  -8.638  1.00  0.00     0.054 A 
BRANCH  72  73
ATOM     73  S   UNL     1     -17.431  -2.472 -10.402  1.00  0.00     0.124 S 
ATOM     74  O   UNL     1     -16.333  -3.380 -10.734  1.00  0.00    -0.237 OA
ATOM     75  O   UNL     1     -18.764  -3.078 -10.403  1.00  0.00    -0.237 OA
ATOM     76  O   UNL     1     -17.351  -1.150 -11.006  1.00  0.00    -0.744 OA
ENDBRANCH  72  73
ENDBRANCH  53  67
BRANCH  54  77
ATOM     77  C   UNL     1     -15.042   0.061   3.769  1.00  0.00    -0.014 A 
ATOM     78  C   UNL     1     -15.957  -0.326   4.764  1.00  0.00     0.010 A 
ATOM     79  C   UNL     1     -13.872   0.746   4.146  1.00  0.00     0.010 A 
ATOM     80  C   UNL     1     -15.720  -0.013   6.106  1.00  0.00     0.020 A 
ATOM     81  C   UNL     1     -13.618   1.036   5.490  1.00  0.00     0.020 A 
ATOM     82  C   UNL     1     -14.551   0.667   6.460  1.00  0.00     0.054 A 
BRANCH  82  83
ATOM     83  S   UNL     1     -14.244   1.030   8.211  1.00  0.00     0.124 S 
ATOM     84  O   UNL     1     -15.168   2.132   8.459  1.00  0.00    -0.237 OA
ATOM     85  O   UNL     1     -14.577  -0.235   8.860  1.00  0.00    -0.237 OA
ATOM     86  O   UNL     1     -12.826   1.383   8.241  1.00  0.00    -0.744 OA
ENDBRANCH  82  83
ENDBRANCH  54  77
BRANCH  66  87
ATOM     87  C   UNL     1     -19.765   2.377  -0.810  1.00  0.00    -0.014 A 
ATOM     88  C   UNL     1     -19.561   3.762  -0.682  1.00  0.00     0.010 A 
ATOM     89  C   UNL     1     -21.081   1.882  -0.880  1.00  0.00     0.010 A 
ATOM     90  C   UNL     1     -20.652   4.632  -0.597  1.00  0.00     0.020 A 
ATOM     91  C   UNL     1     -22.174   2.751  -0.822  1.00  0.00     0.020 A 
ATOM     92  C   UNL     1     -21.952   4.120  -0.667  1.00  0.00     0.054 A 
BRANCH  92  93
ATOM     93  S   UNL     1     -23.350   5.274  -0.599  1.00  0.00     0.124 S 
ATOM     94  O   UNL     1     -23.372   5.643   0.814  1.00  0.00    -0.237 OA
ATOM     95  O   UNL     1     -22.939   6.332  -1.518  1.00  0.00    -0.237 OA
ATOM     96  O   UNL     1     -24.485   4.471  -1.050  1.00  0.00    -0.744 OA
ENDBRANCH  92  93
ENDBRANCH  66  87
ENDBRANCH  40  41
ENDBRANCH  32  35
ENDBRANCH  30  31
ENDBRANCH  29  30
ENDBRANCH   1  29
TORSDOF 19
