REMARK SMILES Cc1ccc(Nc2nc3c(c(OCC(=O)NCCCCCCNC(=O)c4ccc(-c5c6nc(c(-c7ccc(S(=O)(=O)[O-])cc7)c7ccc([nH]7)c(-c7ccc(S(=O)(=O)[O-])cc7)c7nc(c(-c8ccc(S(=O)(=O)[O-])cc8)c8ccc5[nH]8)C=C7)C=C6)cc4)n2)C[N@H+](Cc2ccccc2)CC3)cc1F
REMARK SMILES IDX 19 1 18 2 17 3 16 4 14 5 15 6 13 8 12 9 11 10 7 11 8 12
REMARK SMILES IDX 86 13 9 14 10 15 97 16 87 17 96 18 88 19 6 21 5 23 1 24 2 25
REMARK SMILES IDX 3 26 99 27 4 28 98 29 100 30 89 31 90 32 91 33 95 34 92 35
REMARK SMILES IDX 94 36 93 37 20 38 21 39 22 40 23 41 24 42 25 44 26 45 27 46
REMARK SMILES IDX 85 47 28 48 84 49 29 50 30 51 31 52 78 53 32 54 83 55 77 56
REMARK SMILES IDX 79 57 33 58 82 59 76 60 75 61 34 63 64 64 45 65 63 66 46 67
REMARK SMILES IDX 49 68 62 69 80 70 47 71 48 72 61 74 81 75 50 76 35 77 36 78
REMARK SMILES IDX 44 79 37 80 43 81 38 82 39 83 40 84 41 85 42 86 65 87 66 88
REMARK SMILES IDX 74 89 67 90 73 91 68 92 69 93 70 94 71 95 72 96 51 97 52 98
REMARK SMILES IDX 60 99 53 100 59 101 54 102 55 103 56 104 57 105 58 106
REMARK H PARENT 16 7 88 20 6 22 23 43 79 62 49 73
REMARK Flexibility Score: inf
ROOT
ATOM      1  C   UNL     1      -7.642  -6.725   0.664  1.00  0.00     0.002 C 
ENDROOT
BRANCH   1   2
ATOM      2  C   UNL     1      -6.346  -7.166  -0.029  1.00  0.00     0.021 C 
BRANCH   2   3
ATOM      3  C   UNL     1      -6.366  -7.025  -1.552  1.00  0.00     0.116 C 
BRANCH   3   4
ATOM      4  N   UNL     1      -6.512  -5.640  -1.958  1.00  0.00    -0.353 N 
ATOM      5  C   UNL     1      -5.589  -4.803  -2.520  1.00  0.00     0.258 C 
ATOM      6  O   UNL     1      -5.929  -3.650  -2.794  1.00  0.00    -0.271 OA
ATOM      7  H   UNL     1      -7.402  -5.246  -1.806  1.00  0.00     0.163 HD
BRANCH   5   8
ATOM      8  C   UNL     1      -4.206  -5.348  -2.889  1.00  0.00     0.331 C 
BRANCH   8   9
ATOM      9  O   UNL     1      -3.517  -6.067  -1.879  1.00  0.00    -0.467 OA
BRANCH   9  10
ATOM     10  C   UNL     1      -2.988  -5.285  -0.873  1.00  0.00     0.228 A 
ATOM     11  C   UNL     1      -2.605  -3.249   0.063  1.00  0.00     0.230 A 
ATOM     12  N   UNL     1      -1.897  -3.788   1.069  1.00  0.00    -0.217 NA
ATOM     13  N   UNL     1      -3.203  -3.964  -0.895  1.00  0.00    -0.177 NA
ATOM     14  C   UNL     1      -1.763  -5.129   1.096  1.00  0.00     0.064 A 
ATOM     15  C   UNL     1      -2.264  -5.937   0.101  1.00  0.00     0.090 A 
ATOM     16  C   UNL     1      -0.988  -5.729   2.237  1.00  0.00     0.118 C 
ATOM     17  C   UNL     1      -2.135  -7.426   0.141  1.00  0.00     0.307 C 
ATOM     18  C   UNL     1      -1.277  -7.227   2.401  1.00  0.00     0.269 C 
ATOM     19  N   UNL     1      -1.146  -7.915   1.111  1.00  0.00    -0.327 N 
ATOM     20  H   UNL     1      -0.221  -7.677   0.755  1.00  0.00     0.348 HD
BRANCH  11  21
ATOM     21  N   UNL     1      -2.693  -1.866  -0.069  1.00  0.00    -0.324 N 
ATOM     22  H   UNL     1      -3.594  -1.501  -0.224  1.00  0.00     0.170 HD
BRANCH  21  23
ATOM     23  C   UNL     1      -1.649  -0.931  -0.005  1.00  0.00     0.044 A 
ATOM     24  C   UNL     1       1.533   1.994   0.040  1.00  0.00     0.047 C 
ATOM     25  C   UNL     1       0.413   1.002   0.052  1.00  0.00    -0.015 A 
ATOM     26  C   UNL     1      -0.927   1.398   0.014  1.00  0.00     0.008 A 
ATOM     27  C   UNL     1       0.703  -0.361   0.093  1.00  0.00     0.128 A 
ATOM     28  C   UNL     1      -1.946   0.438  -0.011  1.00  0.00     0.026 A 
ATOM     29  C   UNL     1      -0.306  -1.315   0.080  1.00  0.00     0.065 A 
ATOM     30  F   UNL     1       1.980  -0.770   0.125  1.00  0.00    -0.207 F 
ENDBRANCH  21  23
ENDBRANCH  11  21
BRANCH  19  31
ATOM     31  C   UNL     1      -1.147  -9.386   1.221  1.00  0.00     0.299 C 
BRANCH  31  32
ATOM     32  C   UNL     1      -2.362 -10.015   1.875  1.00  0.00     0.006 A 
ATOM     33  C   UNL     1      -2.330 -10.369   3.231  1.00  0.00     0.009 A 
ATOM     34  C   UNL     1      -3.541 -10.247   1.149  1.00  0.00     0.009 A 
ATOM     35  C   UNL     1      -3.458 -10.909   3.852  1.00  0.00     0.001 A 
ATOM     36  C   UNL     1      -4.675 -10.766   1.775  1.00  0.00     0.001 A 
ATOM     37  C   UNL     1      -4.633 -11.094   3.127  1.00  0.00     0.000 A 
ENDBRANCH  31  32
ENDBRANCH  19  31
ENDBRANCH   9  10
ENDBRANCH   8   9
ENDBRANCH   5   8
ENDBRANCH   3   4
ENDBRANCH   2   3
ENDBRANCH   1   2
BRANCH   1  38
ATOM     38  C   UNL     1      -8.915  -7.439   0.196  1.00  0.00     0.002 C 
BRANCH  38  39
ATOM     39  C   UNL     1      -8.885  -8.965   0.307  1.00  0.00     0.021 C 
BRANCH  39  40
ATOM     40  C   UNL     1      -8.656  -9.500   1.718  1.00  0.00     0.116 C 
BRANCH  40  41
ATOM     41  N   UNL     1      -9.741  -9.155   2.623  1.00  0.00    -0.352 N 
ATOM     42  C   UNL     1     -10.525  -9.976   3.395  1.00  0.00     0.251 C 
ATOM     43  H   UNL     1      -9.941  -8.194   2.692  1.00  0.00     0.163 HD
ATOM     44  O   UNL     1     -11.513  -9.521   3.966  1.00  0.00    -0.269 OA
BRANCH  42  45
ATOM     45  C   UNL     1     -10.193 -11.412   3.520  1.00  0.00     0.039 A 
ATOM     46  C   UNL     1     -11.213 -12.356   3.384  1.00  0.00     0.014 A 
ATOM     47  C   UNL     1      -8.883 -11.825   3.777  1.00  0.00     0.014 A 
ATOM     48  C   UNL     1     -10.908 -13.718   3.442  1.00  0.00     0.010 A 
ATOM     49  C   UNL     1      -8.569 -13.182   3.770  1.00  0.00     0.010 A 
ATOM     50  C   UNL     1      -9.578 -14.143   3.604  1.00  0.00    -0.014 A 
BRANCH  50  51
ATOM     51  C   UNL     1      -9.231 -15.586   3.611  1.00  0.00     0.031 A 
ATOM     52  C   UNL     1      -8.694 -16.228   4.861  1.00  0.00     0.074 A 
ATOM     53  C   UNL     1      -9.364 -16.312   2.483  1.00  0.00     0.049 A 
ATOM     54  N   UNL     1      -8.300 -17.462   5.049  1.00  0.00    -0.248 NA
ATOM     55  C   UNL     1      -8.566 -15.369   6.050  1.00  0.00     0.031 C 
ATOM     56  C   UNL     1      -9.854 -15.802   1.200  1.00  0.00     0.029 A 
ATOM     57  N   UNL     1      -9.102 -17.637   2.234  1.00  0.00    -0.354 N 
ATOM     58  C   UNL     1      -7.877 -17.527   6.371  1.00  0.00     0.074 A 
ATOM     59  C   UNL     1      -8.010 -16.196   6.924  1.00  0.00     0.031 C 
ATOM     60  C   UNL     1      -9.891 -16.809   0.312  1.00  0.00     0.029 A 
ATOM     61  C   UNL     1      -9.391 -18.025   0.946  1.00  0.00     0.049 A 
ATOM     62  H   UNL     1      -8.741 -18.251   2.913  1.00  0.00     0.167 HD
ATOM     63  C   UNL     1      -7.441 -18.601   7.071  1.00  0.00     0.031 A 
ATOM     64  C   UNL     1      -9.269 -19.224   0.343  1.00  0.00     0.031 A 
ATOM     65  C   UNL     1      -7.317 -19.925   6.524  1.00  0.00     0.049 A 
ATOM     66  C   UNL     1      -8.746 -20.393   1.131  1.00  0.00     0.074 A 
ATOM     67  C   UNL     1      -6.914 -21.084   7.164  1.00  0.00     0.029 A 
ATOM     68  N   UNL     1      -7.597 -20.269   5.211  1.00  0.00    -0.354 N 
ATOM     69  N   UNL     1      -8.385 -20.441   2.391  1.00  0.00    -0.248 NA
ATOM     70  C   UNL     1      -8.619 -21.672   0.418  1.00  0.00     0.031 C 
ATOM     71  C   UNL     1      -6.906 -22.121   6.225  1.00  0.00     0.029 A 
ATOM     72  C   UNL     1      -7.356 -21.619   5.015  1.00  0.00     0.049 A 
ATOM     73  H   UNL     1      -7.919 -19.647   4.520  1.00  0.00     0.167 HD
ATOM     74  C   UNL     1      -8.007 -21.758   2.627  1.00  0.00     0.074 A 
ATOM     75  C   UNL     1      -8.198 -22.478   1.384  1.00  0.00     0.031 C 
ATOM     76  C   UNL     1      -7.545 -22.320   3.770  1.00  0.00     0.031 A 
BRANCH  63  77
ATOM     77  C   UNL     1      -7.072 -18.388   8.515  1.00  0.00    -0.014 A 
ATOM     78  C   UNL     1      -8.063 -18.150   9.483  1.00  0.00     0.010 A 
ATOM     79  C   UNL     1      -5.727 -18.479   8.918  1.00  0.00     0.010 A 
ATOM     80  C   UNL     1      -7.715 -17.974  10.824  1.00  0.00     0.020 A 
ATOM     81  C   UNL     1      -5.377 -18.329  10.263  1.00  0.00     0.020 A 
ATOM     82  C   UNL     1      -6.373 -18.064  11.206  1.00  0.00     0.054 A 
BRANCH  82  83
ATOM     83  S   UNL     1      -5.955 -17.861  12.959  1.00  0.00     0.124 S 
ATOM     84  O   UNL     1      -6.190 -16.433  13.160  1.00  0.00    -0.237 OA
ATOM     85  O   UNL     1      -6.906 -18.753  13.619  1.00  0.00    -0.237 OA
ATOM     86  O   UNL     1      -4.557 -18.278  13.034  1.00  0.00    -0.744 OA
ENDBRANCH  82  83
ENDBRANCH  63  77
BRANCH  64  87
ATOM     87  C   UNL     1      -9.674 -19.383  -1.080  1.00  0.00    -0.014 A 
ATOM     88  C   UNL     1     -10.836 -20.101  -1.411  1.00  0.00     0.010 A 
ATOM     89  C   UNL     1      -8.914 -18.799  -2.110  1.00  0.00     0.010 A 
ATOM     90  C   UNL     1     -11.227 -20.241  -2.746  1.00  0.00     0.020 A 
ATOM     91  C   UNL     1      -9.315 -18.916  -3.444  1.00  0.00     0.020 A 
ATOM     92  C   UNL     1     -10.466 -19.643  -3.754  1.00  0.00     0.054 A 
BRANCH  92  93
ATOM     93  S   UNL     1     -11.027 -19.787  -5.474  1.00  0.00     0.124 S 
ATOM     94  O   UNL     1     -10.750 -21.189  -5.768  1.00  0.00    -0.237 OA
ATOM     95  O   UNL     1     -12.439 -19.427  -5.374  1.00  0.00    -0.237 OA
ATOM     96  O   UNL     1     -10.195 -18.819  -6.186  1.00  0.00    -0.744 OA
ENDBRANCH  92  93
ENDBRANCH  64  87
BRANCH  76  97
ATOM     97  C   UNL     1      -7.225 -23.790   3.745  1.00  0.00    -0.014 A 
ATOM     98  C   UNL     1      -6.072 -24.268   3.099  1.00  0.00     0.010 A 
ATOM     99  C   UNL     1      -8.045 -24.694   4.446  1.00  0.00     0.010 A 
ATOM    100  C   UNL     1      -5.754 -25.628   3.139  1.00  0.00     0.020 A 
ATOM    101  C   UNL     1      -7.716 -26.050   4.509  1.00  0.00     0.020 A 
ATOM    102  C   UNL     1      -6.576 -26.510   3.847  1.00  0.00     0.054 A 
BRANCH 102 103
ATOM    103  S   UNL     1      -6.105 -28.259   3.934  1.00  0.00     0.124 S 
ATOM    104  O   UNL     1      -6.383 -28.717   2.576  1.00  0.00    -0.237 OA
ATOM    105  O   UNL     1      -4.691 -28.191   4.298  1.00  0.00    -0.237 OA
ATOM    106  O   UNL     1      -6.982 -28.805   4.968  1.00  0.00    -0.744 OA
ENDBRANCH 102 103
ENDBRANCH  76  97
ENDBRANCH  50  51
ENDBRANCH  42  45
ENDBRANCH  40  41
ENDBRANCH  39  40
ENDBRANCH  38  39
ENDBRANCH   1  38
TORSDOF 22
