REMARK SMILES NS(=O)(=O)c1ccc(N2N=C(C(=O)NCCCCCCNC(=O)c3ccc(-c4c5nc(c(-c6ccc(S(=O)(=O)[O-])cc6)c6ccc([nH]6)c(-c6ccc(S(=O)(=O)[O-])cc6)c6nc(c(-c7ccc(S(=O)(=O)[O-])cc7)c7ccc4[nH]7)C=C6)C=C5)cc3)C[C@H]2c2ccco2)cc1
REMARK SMILES IDX 17 1 16 2 15 3 14 4 12 5 13 6 11 8 9 9 10 10 85 11 84 12
REMARK SMILES IDX 8 13 5 14 6 15 92 16 7 17 91 18 2 19 3 20 4 21 1 22 86 25
REMARK SMILES IDX 87 26 90 27 88 28 89 29 18 30 19 31 20 32 21 33 22 34 23 36
REMARK SMILES IDX 24 37 25 38 83 39 26 40 82 41 27 42 28 43 29 44 76 45 30 46
REMARK SMILES IDX 81 47 75 48 77 49 31 50 80 51 74 52 73 53 32 55 62 56 43 57
REMARK SMILES IDX 61 58 44 59 47 60 60 61 78 62 45 63 46 64 59 66 79 67 48 68
REMARK SMILES IDX 33 69 34 70 42 71 35 72 41 73 36 74 37 75 38 76 39 77 40 78
REMARK SMILES IDX 63 79 64 80 72 81 65 82 71 83 66 84 67 85 68 86 69 87 70 88
REMARK SMILES IDX 49 89 50 90 58 91 51 92 57 93 52 94 53 95 54 96 55 97 56 98
REMARK H PARENT 14 7 1 23 1 24 21 35 77 54 47 65
REMARK Flexibility Score: inf
ROOT
ATOM      1  C   UNL     1       5.137  -1.785 -13.393  1.00  0.00     0.002 C 
ENDROOT
BRANCH   1   2
ATOM      2  C   UNL     1       5.424  -1.520 -11.912  1.00  0.00     0.021 C 
BRANCH   2   3
ATOM      3  C   UNL     1       4.399  -0.634 -11.210  1.00  0.00     0.116 C 
BRANCH   3   4
ATOM      4  N   UNL     1       3.157  -1.347 -10.983  1.00  0.00    -0.351 N 
ATOM      5  C   UNL     1       2.388  -1.605  -9.878  1.00  0.00     0.267 C 
ATOM      6  O   UNL     1       1.406  -2.330 -10.031  1.00  0.00    -0.268 OA
ATOM      7  H   UNL     1       2.782  -1.732 -11.808  1.00  0.00     0.163 HD
BRANCH   5   8
ATOM      8  C   UNL     1       2.647  -1.020  -8.497  1.00  0.00     0.128 C 
ATOM      9  N   UNL     1       2.234  -0.475  -6.474  1.00  0.00    -0.254 N 
ATOM     10  N   UNL     1       1.831  -1.255  -7.513  1.00  0.00    -0.171 NA
ATOM     11  C   UNL     1       3.527   0.179  -6.699  1.00  0.00     0.180 C 
ATOM     12  C   UNL     1       3.808  -0.144  -8.169  1.00  0.00     0.099 C 
BRANCH   9  13
ATOM     13  C   UNL     1       1.785  -0.749  -5.185  1.00  0.00     0.060 A 
ATOM     14  C   UNL     1       0.933  -1.238  -2.558  1.00  0.00     0.082 A 
ATOM     15  C   UNL     1       1.414  -2.293  -3.336  1.00  0.00     0.024 A 
ATOM     16  C   UNL     1       0.851   0.052  -3.082  1.00  0.00     0.024 A 
ATOM     17  C   UNL     1       1.823  -2.045  -4.651  1.00  0.00     0.029 A 
ATOM     18  C   UNL     1       1.279   0.287  -4.388  1.00  0.00     0.029 A 
BRANCH  14  19
ATOM     19  S   UNL     1       0.444  -1.521  -0.886  1.00  0.00     0.238 S 
ATOM     20  O   UNL     1       1.076  -2.723  -0.396  1.00  0.00    -0.207 OA
ATOM     21  O   UNL     1      -0.974  -1.278  -0.766  1.00  0.00    -0.207 OA
BRANCH  19  22
ATOM     22  N   UNL     1       1.202  -0.265  -0.062  1.00  0.00    -0.225 NA
ATOM     23  H   UNL     1       0.985  -0.331   0.933  1.00  0.00     0.137 HD
ATOM     24  H   UNL     1       0.870   0.629  -0.424  1.00  0.00     0.137 HD
ENDBRANCH  19  22
ENDBRANCH  14  19
ENDBRANCH   9  13
BRANCH  11  25
ATOM     25  C   UNL     1       3.623   1.645  -6.394  1.00  0.00     0.128 A 
ATOM     26  C   UNL     1       3.908   2.342  -5.235  1.00  0.00     0.048 A 
ATOM     27  O   UNL     1       3.415   2.530  -7.415  1.00  0.00    -0.467 OA
ATOM     28  C   UNL     1       3.868   3.717  -5.567  1.00  0.00     0.042 A 
ATOM     29  C   UNL     1       3.578   3.777  -6.909  1.00  0.00     0.195 A 
ENDBRANCH  11  25
ENDBRANCH   5   8
ENDBRANCH   3   4
ENDBRANCH   2   3
ENDBRANCH   1   2
BRANCH   1  30
ATOM     30  C   UNL     1       5.025  -0.539 -14.276  1.00  0.00     0.002 C 
BRANCH  30  31
ATOM     31  C   UNL     1       6.173   0.467 -14.155  1.00  0.00     0.021 C 
BRANCH  31  32
ATOM     32  C   UNL     1       7.567  -0.102 -14.406  1.00  0.00     0.116 C 
BRANCH  32  33
ATOM     33  N   UNL     1       7.722  -0.609 -15.757  1.00  0.00    -0.352 N 
ATOM     34  C   UNL     1       8.716  -0.358 -16.670  1.00  0.00     0.251 C 
ATOM     35  H   UNL     1       7.013  -1.221 -16.062  1.00  0.00     0.163 HD
ATOM     36  O   UNL     1       8.592  -0.745 -17.828  1.00  0.00    -0.269 OA
BRANCH  34  37
ATOM     37  C   UNL     1       9.923   0.396 -16.265  1.00  0.00     0.039 A 
ATOM     38  C   UNL     1      10.402   1.403 -17.108  1.00  0.00     0.014 A 
ATOM     39  C   UNL     1      10.595   0.102 -15.074  1.00  0.00     0.014 A 
ATOM     40  C   UNL     1      11.525   2.145 -16.735  1.00  0.00     0.010 A 
ATOM     41  C   UNL     1      11.676   0.884 -14.674  1.00  0.00     0.010 A 
ATOM     42  C   UNL     1      12.158   1.908 -15.504  1.00  0.00    -0.014 A 
BRANCH  42  43
ATOM     43  C   UNL     1      13.333   2.710 -15.076  1.00  0.00     0.031 A 
ATOM     44  C   UNL     1      14.678   2.052 -14.918  1.00  0.00     0.074 A 
ATOM     45  C   UNL     1      13.180   4.014 -14.774  1.00  0.00     0.049 A 
ATOM     46  N   UNL     1      15.803   2.569 -14.496  1.00  0.00    -0.248 NA
ATOM     47  C   UNL     1      14.762   0.622 -15.254  1.00  0.00     0.031 C 
ATOM     48  C   UNL     1      11.922   4.760 -14.850  1.00  0.00     0.029 A 
ATOM     49  N   UNL     1      14.090   4.943 -14.334  1.00  0.00    -0.354 N 
ATOM     50  C   UNL     1      16.722   1.526 -14.496  1.00  0.00     0.074 A 
ATOM     51  C   UNL     1      16.013   0.338 -14.918  1.00  0.00     0.031 C 
ATOM     52  C   UNL     1      12.144   6.035 -14.490  1.00  0.00     0.029 A 
ATOM     53  C   UNL     1      13.549   6.189 -14.124  1.00  0.00     0.049 A 
ATOM     54  H   UNL     1      15.040   4.736 -14.183  1.00  0.00     0.167 HD
ATOM     55  C   UNL     1      18.042   1.556 -14.189  1.00  0.00     0.031 A 
ATOM     56  C   UNL     1      14.117   7.328 -13.683  1.00  0.00     0.031 A 
ATOM     57  C   UNL     1      18.751   2.741 -13.787  1.00  0.00     0.049 A 
ATOM     58  C   UNL     1      15.586   7.340 -13.359  1.00  0.00     0.074 A 
ATOM     59  C   UNL     1      20.099   2.884 -13.507  1.00  0.00     0.029 A 
ATOM     60  N   UNL     1      18.171   3.988 -13.611  1.00  0.00    -0.354 N 
ATOM     61  N   UNL     1      16.449   6.355 -13.418  1.00  0.00    -0.248 NA
ATOM     62  C   UNL     1      16.159   8.621 -12.922  1.00  0.00     0.031 C 
ATOM     63  C   UNL     1      20.327   4.210 -13.122  1.00  0.00     0.029 A 
ATOM     64  C   UNL     1      19.130   4.903 -13.211  1.00  0.00     0.049 A 
ATOM     65  H   UNL     1      17.218   4.193 -13.750  1.00  0.00     0.167 HD
ATOM     66  C   UNL     1      17.674   6.903 -13.052  1.00  0.00     0.074 A 
ATOM     67  C   UNL     1      17.440   8.308 -12.784  1.00  0.00     0.031 C 
ATOM     68  C   UNL     1      18.882   6.298 -12.950  1.00  0.00     0.031 A 
BRANCH  55  69
ATOM     69  C   UNL     1      18.802   0.259 -14.271  1.00  0.00    -0.014 A 
ATOM     70  C   UNL     1      19.089  -0.337 -15.513  1.00  0.00     0.010 A 
ATOM     71  C   UNL     1      19.264  -0.358 -13.094  1.00  0.00     0.010 A 
ATOM     72  C   UNL     1      19.782  -1.548 -15.574  1.00  0.00     0.020 A 
ATOM     73  C   UNL     1      19.981  -1.556 -13.152  1.00  0.00     0.020 A 
ATOM     74  C   UNL     1      20.219  -2.154 -14.391  1.00  0.00     0.054 A 
BRANCH  74  75
ATOM     75  S   UNL     1      21.127  -3.720 -14.498  1.00  0.00     0.124 S 
ATOM     76  O   UNL     1      20.056  -4.667 -14.798  1.00  0.00    -0.237 OA
ATOM     77  O   UNL     1      22.069  -3.473 -15.587  1.00  0.00    -0.237 OA
ATOM     78  O   UNL     1      21.731  -3.861 -13.176  1.00  0.00    -0.744 OA
ENDBRANCH  74  75
ENDBRANCH  55  69
BRANCH  56  79
ATOM     79  C   UNL     1      13.294   8.560 -13.541  1.00  0.00    -0.014 A 
ATOM     80  C   UNL     1      13.445   9.626 -14.446  1.00  0.00     0.010 A 
ATOM     81  C   UNL     1      12.342   8.664 -12.511  1.00  0.00     0.010 A 
ATOM     82  C   UNL     1      12.669  10.781 -14.314  1.00  0.00     0.020 A 
ATOM     83  C   UNL     1      11.547   9.807 -12.391  1.00  0.00     0.020 A 
ATOM     84  C   UNL     1      11.724  10.864 -13.287  1.00  0.00     0.054 A 
BRANCH  84  85
ATOM     85  S   UNL     1      10.686  12.348 -13.168  1.00  0.00     0.124 S 
ATOM     86  O   UNL     1      11.613  13.320 -12.598  1.00  0.00    -0.237 OA
ATOM     87  O   UNL     1      10.300  12.578 -14.558  1.00  0.00    -0.237 OA
ATOM     88  O   UNL     1       9.596  11.930 -12.289  1.00  0.00    -0.744 OA
ENDBRANCH  84  85
ENDBRANCH  56  79
BRANCH  68  89
ATOM     89  C   UNL     1      20.056   7.157 -12.566  1.00  0.00    -0.014 A 
ATOM     90  C   UNL     1      20.222   7.617 -11.248  1.00  0.00     0.010 A 
ATOM     91  C   UNL     1      21.036   7.462 -13.528  1.00  0.00     0.010 A 
ATOM     92  C   UNL     1      21.334   8.391 -10.906  1.00  0.00     0.020 A 
ATOM     93  C   UNL     1      22.161   8.214 -13.185  1.00  0.00     0.020 A 
ATOM     94  C   UNL     1      22.296   8.686 -11.877  1.00  0.00     0.054 A 
BRANCH  94  95
ATOM     95  S   UNL     1      23.753   9.655 -11.400  1.00  0.00     0.124 S 
ATOM     96  O   UNL     1      23.204  11.005 -11.311  1.00  0.00    -0.237 OA
ATOM     97  O   UNL     1      24.140   9.049 -10.128  1.00  0.00    -0.237 OA
ATOM     98  O   UNL     1      24.691   9.433 -12.498  1.00  0.00    -0.744 OA
ENDBRANCH  94  95
ENDBRANCH  68  89
ENDBRANCH  42  43
ENDBRANCH  34  37
ENDBRANCH  32  33
ENDBRANCH  31  32
ENDBRANCH  30  31
ENDBRANCH   1  30
TORSDOF 20
