REMARK SMILES Cc1nc2cc(S(=O)(=O)N3CCC(C(=O)NCCCCCCNC(=O)c4ccc(-c5c6nc(c(-c7ccc(S(=O)(=O)[O-])cc7)c7ccc([nH]7)c(-c7ccc(S(=O)(=O)[O-])cc7)c7nc(c(-c8ccc(S(=O)(=O)[O-])cc8)c8ccc5[nH]8)C=C7)C=C6)cc4)CC3)ccc2n1C1CCCC1
REMARK SMILES IDX 19 1 18 2 17 3 16 4 14 5 15 6 13 8 10 9 11 10 87 11 12 12
REMARK SMILES IDX 86 13 7 14 8 15 9 16 6 17 1 18 2 19 3 20 91 21 4 22 90 23
REMARK SMILES IDX 5 24 89 25 88 26 92 27 93 28 96 29 94 30 95 31 20 32 21 33
REMARK SMILES IDX 22 34 23 35 24 36 25 38 26 39 27 40 85 41 28 42 84 43 29 44
REMARK SMILES IDX 30 45 31 46 78 47 32 48 83 49 77 50 79 51 33 52 82 53 76 54
REMARK SMILES IDX 75 55 34 57 64 58 45 59 63 60 46 61 49 62 62 63 80 64 47 65
REMARK SMILES IDX 48 66 61 68 81 69 50 70 35 71 36 72 44 73 37 74 43 75 38 76
REMARK SMILES IDX 39 77 40 78 41 79 42 80 65 81 66 82 74 83 67 84 73 85 68 86
REMARK SMILES IDX 69 87 70 88 71 89 72 90 51 91 52 92 60 93 53 94 59 95 54 96
REMARK SMILES IDX 55 97 56 98 57 99 58 100
REMARK H PARENT 16 7 23 37 79 56 49 67
REMARK Flexibility Score: inf
ROOT
ATOM      1  C   UNL     1      -3.523  14.329  -1.804  1.00  0.00     0.002 C 
ENDROOT
BRANCH   1   2
ATOM      2  C   UNL     1      -3.444  12.804  -1.762  1.00  0.00     0.021 C 
BRANCH   2   3
ATOM      3  C   UNL     1      -2.198  12.247  -2.439  1.00  0.00     0.116 C 
BRANCH   3   4
ATOM      4  N   UNL     1      -1.012  12.469  -1.623  1.00  0.00    -0.356 N 
ATOM      5  C   UNL     1      -0.190  11.580  -0.999  1.00  0.00     0.223 C 
ATOM      6  O   UNL     1       0.729  12.007  -0.297  1.00  0.00    -0.275 OA
ATOM      7  H   UNL     1      -0.764  13.415  -1.503  1.00  0.00     0.163 HD
BRANCH   5   8
ATOM      8  C   UNL     1      -0.401  10.083  -1.163  1.00  0.00     0.081 C 
ATOM      9  N   UNL     1      -1.911   7.865  -2.276  1.00  0.00    -0.198 NA
ATOM     10  C   UNL     1      -2.154   8.256  -0.868  1.00  0.00     0.103 C 
ATOM     11  C   UNL     1      -0.666   8.286  -2.964  1.00  0.00     0.103 C 
ATOM     12  C   UNL     1      -1.724   9.663  -0.535  1.00  0.00     0.030 C 
ATOM     13  C   UNL     1      -0.206   9.684  -2.622  1.00  0.00     0.030 C 
BRANCH   9  14
ATOM     14  S   UNL     1      -2.408   6.254  -2.649  1.00  0.00     0.243 S 
ATOM     15  O   UNL     1      -2.191   6.039  -4.065  1.00  0.00    -0.207 OA
ATOM     16  O   UNL     1      -3.699   6.044  -2.032  1.00  0.00    -0.207 OA
BRANCH  14  17
ATOM     17  C   UNL     1      -1.263   5.183  -1.794  1.00  0.00     0.085 A 
ATOM     18  C   UNL     1       0.866  -0.115  -0.031  1.00  0.00     0.088 C 
ATOM     19  C   UNL     1       0.457   1.270  -0.369  1.00  0.00     0.106 A 
ATOM     20  N   UNL     1      -0.575   1.582  -1.130  1.00  0.00    -0.233 NA
ATOM     21  N   UNL     1       1.103   2.403   0.078  1.00  0.00    -0.325 N 
ATOM     22  C   UNL     1      -0.598   2.949  -1.201  1.00  0.00     0.090 A 
ATOM     23  C   UNL     1       0.440   3.489  -0.450  1.00  0.00     0.068 A 
ATOM     24  C   UNL     1      -1.479   3.800  -1.885  1.00  0.00     0.052 A 
ATOM     25  C   UNL     1       0.656   4.859  -0.340  1.00  0.00     0.030 A 
ATOM     26  C   UNL     1      -0.204   5.689  -1.038  1.00  0.00     0.024 A 
BRANCH  21  27
ATOM     27  C   UNL     1       2.266   2.469   0.944  1.00  0.00     0.089 C 
ATOM     28  C   UNL     1       3.472   3.190   0.332  1.00  0.00     0.025 C 
ATOM     29  C   UNL     1       2.017   3.193   2.272  1.00  0.00     0.025 C 
ATOM     30  C   UNL     1       4.323   3.591   1.527  1.00  0.00     0.002 C 
ATOM     31  C   UNL     1       3.374   3.731   2.713  1.00  0.00     0.002 C 
ENDBRANCH  21  27
ENDBRANCH  14  17
ENDBRANCH   9  14
ENDBRANCH   5   8
ENDBRANCH   3   4
ENDBRANCH   2   3
ENDBRANCH   1   2
BRANCH   1  32
ATOM     32  C   UNL     1      -3.535  14.924  -3.216  1.00  0.00     0.002 C 
BRANCH  32  33
ATOM     33  C   UNL     1      -4.620  14.367  -4.149  1.00  0.00     0.021 C 
BRANCH  33  34
ATOM     34  C   UNL     1      -6.038  14.475  -3.587  1.00  0.00     0.116 C 
BRANCH  34  35
ATOM     35  N   UNL     1      -6.411  15.830  -3.244  1.00  0.00    -0.352 N 
ATOM     36  C   UNL     1      -6.982  16.873  -3.914  1.00  0.00     0.251 C 
ATOM     37  H   UNL     1      -6.204  16.051  -2.307  1.00  0.00     0.163 HD
ATOM     38  O   UNL     1      -7.236  17.871  -3.233  1.00  0.00    -0.269 OA
BRANCH  36  39
ATOM     39  C   UNL     1      -7.248  16.915  -5.378  1.00  0.00     0.039 A 
ATOM     40  C   UNL     1      -7.015  15.880  -6.282  1.00  0.00     0.014 A 
ATOM     41  C   UNL     1      -7.702  18.152  -5.880  1.00  0.00     0.014 A 
ATOM     42  C   UNL     1      -7.109  16.112  -7.651  1.00  0.00     0.010 A 
ATOM     43  C   UNL     1      -7.818  18.383  -7.245  1.00  0.00     0.010 A 
ATOM     44  C   UNL     1      -7.459  17.378  -8.133  1.00  0.00    -0.014 A 
BRANCH  44  45
ATOM     45  C   UNL     1      -7.498  17.566  -9.579  1.00  0.00     0.031 A 
ATOM     46  C   UNL     1      -8.404  16.634 -10.305  1.00  0.00     0.074 A 
ATOM     47  C   UNL     1      -6.814  18.517 -10.247  1.00  0.00     0.049 A 
ATOM     48  N   UNL     1      -8.068  15.685 -11.115  1.00  0.00    -0.248 NA
ATOM     49  C   UNL     1      -9.839  16.677  -9.992  1.00  0.00     0.031 C 
ATOM     50  C   UNL     1      -6.075  19.668  -9.723  1.00  0.00     0.029 A 
ATOM     51  N   UNL     1      -6.710  18.682 -11.594  1.00  0.00    -0.354 N 
ATOM     52  C   UNL     1      -9.255  15.105 -11.551  1.00  0.00     0.074 A 
ATOM     53  C   UNL     1     -10.302  15.671 -10.736  1.00  0.00     0.031 C 
ATOM     54  C   UNL     1      -5.814  20.530 -10.736  1.00  0.00     0.029 A 
ATOM     55  C   UNL     1      -6.218  19.918 -11.990  1.00  0.00     0.049 A 
ATOM     56  H   UNL     1      -6.964  17.980 -12.237  1.00  0.00     0.167 HD
ATOM     57  C   UNL     1      -9.309  14.317 -12.662  1.00  0.00     0.031 A 
ATOM     58  C   UNL     1      -6.193  20.415 -13.255  1.00  0.00     0.031 A 
ATOM     59  C   UNL     1      -8.004  13.864 -13.060  1.00  0.00     0.049 A 
ATOM     60  C   UNL     1      -6.240  19.248 -14.174  1.00  0.00     0.074 A 
ATOM     61  C   UNL     1      -7.033  13.085 -12.462  1.00  0.00     0.029 A 
ATOM     62  N   UNL     1      -7.371  14.536 -14.079  1.00  0.00    -0.354 N 
ATOM     63  N   UNL     1      -5.277  18.373 -14.272  1.00  0.00    -0.248 NA
ATOM     64  C   UNL     1      -7.546  18.800 -14.633  1.00  0.00     0.031 C 
ATOM     65  C   UNL     1      -5.803  13.717 -12.802  1.00  0.00     0.029 A 
ATOM     66  C   UNL     1      -6.091  14.788 -13.652  1.00  0.00     0.049 A 
ATOM     67  H   UNL     1      -7.761  14.789 -14.947  1.00  0.00     0.167 HD
ATOM     68  C   UNL     1      -5.923  17.151 -14.389  1.00  0.00     0.074 A 
ATOM     69  C   UNL     1      -7.319  17.485 -14.672  1.00  0.00     0.031 C 
ATOM     70  C   UNL     1      -5.341  15.984 -13.981  1.00  0.00     0.031 A 
BRANCH  57  71
ATOM     71  C   UNL     1     -10.513  14.200 -13.558  1.00  0.00    -0.014 A 
ATOM     72  C   UNL     1     -11.594  15.103 -13.509  1.00  0.00     0.010 A 
ATOM     73  C   UNL     1     -10.470  13.313 -14.654  1.00  0.00     0.010 A 
ATOM     74  C   UNL     1     -12.590  15.118 -14.488  1.00  0.00     0.020 A 
ATOM     75  C   UNL     1     -11.442  13.349 -15.665  1.00  0.00     0.020 A 
ATOM     76  C   UNL     1     -12.500  14.249 -15.569  1.00  0.00     0.054 A 
BRANCH  76  77
ATOM     77  S   UNL     1     -13.756  14.370 -16.866  1.00  0.00     0.124 S 
ATOM     78  O   UNL     1     -14.952  13.907 -16.168  1.00  0.00    -0.237 OA
ATOM     79  O   UNL     1     -13.728  15.792 -17.196  1.00  0.00    -0.237 OA
ATOM     80  O   UNL     1     -13.258  13.478 -17.910  1.00  0.00    -0.744 OA
ENDBRANCH  76  77
ENDBRANCH  57  71
BRANCH  58  81
ATOM     81  C   UNL     1      -6.683  21.762 -13.668  1.00  0.00    -0.014 A 
ATOM     82  C   UNL     1      -7.589  22.463 -12.846  1.00  0.00     0.010 A 
ATOM     83  C   UNL     1      -6.520  22.215 -14.993  1.00  0.00     0.010 A 
ATOM     84  C   UNL     1      -8.366  23.515 -13.345  1.00  0.00     0.020 A 
ATOM     85  C   UNL     1      -7.298  23.273 -15.502  1.00  0.00     0.020 A 
ATOM     86  C   UNL     1      -8.245  23.888 -14.682  1.00  0.00     0.054 A 
BRANCH  86  87
ATOM     87  S   UNL     1      -9.414  25.116 -15.335  1.00  0.00     0.124 S 
ATOM     88  O   UNL     1     -10.680  24.392 -15.275  1.00  0.00    -0.237 OA
ATOM     89  O   UNL     1      -9.277  26.218 -14.385  1.00  0.00    -0.237 OA
ATOM     90  O   UNL     1      -8.913  25.392 -16.679  1.00  0.00    -0.744 OA
ENDBRANCH  86  87
ENDBRANCH  58  81
BRANCH  70  91
ATOM     91  C   UNL     1      -3.877  15.967 -13.588  1.00  0.00    -0.014 A 
ATOM     92  C   UNL     1      -3.080  14.940 -14.129  1.00  0.00     0.010 A 
ATOM     93  C   UNL     1      -3.332  16.758 -12.556  1.00  0.00     0.010 A 
ATOM     94  C   UNL     1      -1.806  14.670 -13.627  1.00  0.00     0.020 A 
ATOM     95  C   UNL     1      -2.038  16.510 -12.065  1.00  0.00     0.020 A 
ATOM     96  C   UNL     1      -1.296  15.447 -12.586  1.00  0.00     0.054 A 
BRANCH  96  97
ATOM     97  S   UNL     1       0.332  15.007 -11.917  1.00  0.00     0.124 S 
ATOM     98  O   UNL     1       0.058  13.744 -11.234  1.00  0.00    -0.237 OA
ATOM     99  O   UNL     1       1.156  14.897 -13.119  1.00  0.00    -0.237 OA
ATOM    100  O   UNL     1       0.669  16.124 -11.038  1.00  0.00    -0.744 OA
ENDBRANCH  96  97
ENDBRANCH  70  91
ENDBRANCH  44  45
ENDBRANCH  36  39
ENDBRANCH  34  35
ENDBRANCH  33  34
ENDBRANCH  32  33
ENDBRANCH   1  32
TORSDOF 19
