REMARK SMILES Cn1c(=O)c2c(nc(Nc3cccc(Cl)c3Cl)n2CC(=O)NCCCCCCNC(=O)c2ccc(-c3c4nc(c(-c5ccc(S(=O)(=O)[O-])cc5)c5ccc([nH]5)c(-c5ccc(S(=O)(=O)[O-])cc5)c5nc(c(-c6ccc(S(=O)(=O)[O-])cc6)c6ccc3[nH]6)C=C5)C=C4)cc2)n(C)c1=O
REMARK SMILES IDX 25 1 24 2 23 3 22 4 20 5 21 6 19 8 18 9 1 10 2 11 3 12 94 13
REMARK SMILES IDX 4 14 5 15 92 16 95 17 6 18 93 19 7 20 8 21 9 22 10 24 11 25
REMARK SMILES IDX 16 26 12 27 14 28 17 29 13 30 15 31 26 32 27 33 28 34 29 35
REMARK SMILES IDX 30 36 31 38 32 39 33 40 91 41 34 42 90 43 35 44 36 45 37 46
REMARK SMILES IDX 84 47 38 48 89 49 83 50 85 51 39 52 88 53 82 54 81 55 40 57
REMARK SMILES IDX 70 58 51 59 69 60 52 61 55 62 68 63 86 64 53 65 54 66 67 68
REMARK SMILES IDX 87 69 56 70 41 71 42 72 50 73 43 74 49 75 44 76 45 77 46 78
REMARK SMILES IDX 47 79 48 80 71 81 72 82 80 83 73 84 79 85 74 86 75 87 76 88
REMARK SMILES IDX 77 89 78 90 57 91 58 92 66 93 59 94 65 95 60 96 61 97 62 98
REMARK SMILES IDX 63 99 64 100
REMARK H PARENT 22 7 9 23 29 37 85 56 55 67
REMARK Flexibility Score: inf
ROOT
ATOM      1  C   UNL     1      -4.398   4.996  -1.796  1.00  0.00     0.002 C 
ENDROOT
BRANCH   1   2
ATOM      2  C   UNL     1      -3.294   4.635  -2.793  1.00  0.00     0.021 C 
BRANCH   2   3
ATOM      3  C   UNL     1      -2.244   5.726  -2.951  1.00  0.00     0.116 C 
BRANCH   3   4
ATOM      4  N   UNL     1      -1.385   5.818  -1.795  1.00  0.00    -0.355 N 
ATOM      5  C   UNL     1      -0.064   5.505  -1.673  1.00  0.00     0.240 C 
ATOM      6  O   UNL     1       0.475   5.782  -0.597  1.00  0.00    -0.273 OA
ATOM      7  H   UNL     1      -1.815   6.156  -0.976  1.00  0.00     0.163 HD
BRANCH   5   8
ATOM      8  C   UNL     1       0.744   5.018  -2.862  1.00  0.00     0.226 C 
BRANCH   8   9
ATOM      9  N   UNL     1       0.293   3.796  -3.510  1.00  0.00    -0.295 N 
ATOM     10  C   UNL     1       0.873   0.257  -0.077  1.00  0.00     0.159 C 
ATOM     11  N   UNL     1       0.481   0.764  -1.377  1.00  0.00    -0.261 N 
ATOM     12  C   UNL     1       0.720   2.124  -1.610  1.00  0.00     0.282 A 
ATOM     13  C   UNL     1      -0.054  -0.146  -2.307  1.00  0.00     0.332 A 
ATOM     14  O   UNL     1       1.255   2.864  -0.801  1.00  0.00    -0.267 OA
ATOM     15  C   UNL     1       0.295   2.556  -2.901  1.00  0.00     0.154 A 
ATOM     16  N   UNL     1      -0.399   0.360  -3.561  1.00  0.00    -0.279 N 
ATOM     17  O   UNL     1      -0.206  -1.336  -2.020  1.00  0.00    -0.247 OA
ATOM     18  C   UNL     1      -0.217   1.698  -3.820  1.00  0.00     0.170 A 
ATOM     19  C   UNL     1      -0.931  -0.523  -4.587  1.00  0.00     0.157 C 
ATOM     20  N   UNL     1      -0.498   2.326  -4.984  1.00  0.00    -0.194 NA
ATOM     21  C   UNL     1      -0.134   3.584  -4.821  1.00  0.00     0.210 A 
BRANCH  21  22
ATOM     22  N   UNL     1      -0.296   4.469  -5.834  1.00  0.00    -0.324 N 
ATOM     23  H   UNL     1      -0.695   4.065  -6.638  1.00  0.00     0.170 HD
BRANCH  22  24
ATOM     24  C   UNL     1      -0.020   5.839  -5.986  1.00  0.00     0.061 A 
ATOM     25  C   UNL     1      -1.120   6.681  -6.248  1.00  0.00     0.028 A 
ATOM     26  C   UNL     1       1.264   6.415  -5.915  1.00  0.00     0.083 A 
ATOM     27  C   UNL     1      -0.975   8.065  -6.320  1.00  0.00     0.004 A 
ATOM     28  C   UNL     1       1.403   7.812  -5.970  1.00  0.00     0.061 A 
ATOM     29  Cl  UNL     1       2.662   5.394  -5.768  1.00  0.00    -0.080 Cl
ATOM     30  C   UNL     1       0.284   8.631  -6.156  1.00  0.00     0.022 A 
ATOM     31  Cl  UNL     1       2.931   8.603  -5.780  1.00  0.00    -0.083 Cl
ENDBRANCH  22  24
ENDBRANCH  21  22
ENDBRANCH   8   9
ENDBRANCH   5   8
ENDBRANCH   3   4
ENDBRANCH   2   3
ENDBRANCH   1   2
BRANCH   1  32
ATOM     32  C   UNL     1      -5.144   6.309  -2.082  1.00  0.00     0.002 C 
BRANCH  32  33
ATOM     33  C   UNL     1      -5.708   6.474  -3.502  1.00  0.00     0.021 C 
BRANCH  33  34
ATOM     34  C   UNL     1      -6.736   5.419  -3.881  1.00  0.00     0.116 C 
BRANCH  34  35
ATOM     35  N   UNL     1      -7.938   5.507  -3.061  1.00  0.00    -0.352 N 
ATOM     36  C   UNL     1      -9.065   4.716  -3.098  1.00  0.00     0.251 C 
ATOM     37  H   UNL     1      -7.945   6.228  -2.391  1.00  0.00     0.163 HD
ATOM     38  O   UNL     1     -10.123   5.145  -2.647  1.00  0.00    -0.269 OA
BRANCH  36  39
ATOM     39  C   UNL     1      -8.992   3.363  -3.684  1.00  0.00     0.039 A 
ATOM     40  C   UNL     1     -10.081   2.835  -4.381  1.00  0.00     0.014 A 
ATOM     41  C   UNL     1      -7.834   2.603  -3.512  1.00  0.00     0.014 A 
ATOM     42  C   UNL     1      -9.964   1.573  -4.958  1.00  0.00     0.010 A 
ATOM     43  C   UNL     1      -7.669   1.415  -4.187  1.00  0.00     0.010 A 
ATOM     44  C   UNL     1      -8.744   0.876  -4.878  1.00  0.00    -0.014 A 
BRANCH  44  45
ATOM     45  C   UNL     1      -8.549  -0.353  -5.638  1.00  0.00     0.031 A 
ATOM     46  C   UNL     1      -8.839  -0.204  -7.084  1.00  0.00     0.074 A 
ATOM     47  C   UNL     1      -8.008  -1.492  -5.156  1.00  0.00     0.049 A 
ATOM     48  N   UNL     1      -9.938  -0.518  -7.685  1.00  0.00    -0.248 NA
ATOM     49  C   UNL     1      -7.899   0.557  -7.920  1.00  0.00     0.031 C 
ATOM     50  C   UNL     1      -7.397  -1.739  -3.846  1.00  0.00     0.029 A 
ATOM     51  N   UNL     1      -7.834  -2.683  -5.794  1.00  0.00    -0.354 N 
ATOM     52  C   UNL     1      -9.723  -0.249  -9.030  1.00  0.00     0.074 A 
ATOM     53  C   UNL     1      -8.566   0.610  -9.075  1.00  0.00     0.031 C 
ATOM     54  C   UNL     1      -6.745  -2.927  -3.862  1.00  0.00     0.029 A 
ATOM     55  C   UNL     1      -7.044  -3.603  -5.111  1.00  0.00     0.049 A 
ATOM     56  H   UNL     1      -8.237  -2.878  -6.671  1.00  0.00     0.167 HD
ATOM     57  C   UNL     1     -10.338  -0.994  -9.992  1.00  0.00     0.031 A 
ATOM     58  C   UNL     1      -6.686  -4.841  -5.538  1.00  0.00     0.031 A 
ATOM     59  C   UNL     1     -11.395  -1.803  -9.425  1.00  0.00     0.049 A 
ATOM     60  C   UNL     1      -7.709  -5.253  -6.528  1.00  0.00     0.074 A 
ATOM     61  C   UNL     1     -12.552  -1.551  -8.715  1.00  0.00     0.029 A 
ATOM     62  N   UNL     1     -11.091  -3.127  -9.199  1.00  0.00    -0.354 N 
ATOM     63  N   UNL     1      -8.957  -5.471  -6.218  1.00  0.00    -0.248 NA
ATOM     64  C   UNL     1      -7.447  -5.009  -7.936  1.00  0.00     0.031 C 
ATOM     65  C   UNL     1     -12.630  -2.598  -7.748  1.00  0.00     0.029 A 
ATOM     66  C   UNL     1     -11.567  -3.477  -7.965  1.00  0.00     0.049 A 
ATOM     67  H   UNL     1     -10.613  -3.721  -9.821  1.00  0.00     0.167 HD
ATOM     68  C   UNL     1      -9.678  -4.959  -7.285  1.00  0.00     0.074 A 
ATOM     69  C   UNL     1      -8.697  -4.795  -8.357  1.00  0.00     0.031 C 
ATOM     70  C   UNL     1     -10.939  -4.463  -7.107  1.00  0.00     0.031 A 
BRANCH  57  71
ATOM     71  C   UNL     1      -9.689  -1.361 -11.313  1.00  0.00    -0.014 A 
ATOM     72  C   UNL     1     -10.369  -2.264 -12.159  1.00  0.00     0.010 A 
ATOM     73  C   UNL     1      -8.340  -1.100 -11.623  1.00  0.00     0.010 A 
ATOM     74  C   UNL     1      -9.701  -2.962 -13.172  1.00  0.00     0.020 A 
ATOM     75  C   UNL     1      -7.673  -1.759 -12.659  1.00  0.00     0.020 A 
ATOM     76  C   UNL     1      -8.349  -2.718 -13.399  1.00  0.00     0.054 A 
BRANCH  76  77
ATOM     77  S   UNL     1      -7.466  -3.708 -14.627  1.00  0.00     0.124 S 
ATOM     78  O   UNL     1      -7.527  -5.040 -14.035  1.00  0.00    -0.237 OA
ATOM     79  O   UNL     1      -8.277  -3.504 -15.824  1.00  0.00    -0.237 OA
ATOM     80  O   UNL     1      -6.139  -3.096 -14.667  1.00  0.00    -0.744 OA
ENDBRANCH  76  77
ENDBRANCH  57  71
BRANCH  58  81
ATOM     81  C   UNL     1      -5.407  -5.577  -5.372  1.00  0.00    -0.014 A 
ATOM     82  C   UNL     1      -5.301  -6.927  -5.766  1.00  0.00     0.010 A 
ATOM     83  C   UNL     1      -4.210  -4.872  -5.135  1.00  0.00     0.010 A 
ATOM     84  C   UNL     1      -4.050  -7.520  -6.008  1.00  0.00     0.020 A 
ATOM     85  C   UNL     1      -2.957  -5.459  -5.367  1.00  0.00     0.020 A 
ATOM     86  C   UNL     1      -2.884  -6.771  -5.834  1.00  0.00     0.054 A 
BRANCH  86  87
ATOM     87  S   UNL     1      -1.288  -7.476  -6.350  1.00  0.00     0.124 S 
ATOM     88  O   UNL     1      -1.078  -8.532  -5.364  1.00  0.00    -0.237 OA
ATOM     89  O   UNL     1      -1.565  -7.930  -7.710  1.00  0.00    -0.237 OA
ATOM     90  O   UNL     1      -0.365  -6.346  -6.255  1.00  0.00    -0.744 OA
ENDBRANCH  86  87
ENDBRANCH  58  81
BRANCH  70  91
ATOM     91  C   UNL     1     -11.670  -4.790  -5.823  1.00  0.00    -0.014 A 
ATOM     92  C   UNL     1     -11.249  -4.377  -4.544  1.00  0.00     0.010 A 
ATOM     93  C   UNL     1     -12.928  -5.406  -5.948  1.00  0.00     0.010 A 
ATOM     94  C   UNL     1     -12.069  -4.582  -3.420  1.00  0.00     0.020 A 
ATOM     95  C   UNL     1     -13.754  -5.596  -4.839  1.00  0.00     0.020 A 
ATOM     96  C   UNL     1     -13.321  -5.186  -3.579  1.00  0.00     0.054 A 
BRANCH  96  97
ATOM     97  S   UNL     1     -14.411  -5.385  -2.140  1.00  0.00     0.124 S 
ATOM     98  O   UNL     1     -13.695  -6.367  -1.331  1.00  0.00    -0.237 OA
ATOM     99  O   UNL     1     -14.467  -4.034  -1.586  1.00  0.00    -0.237 OA
ATOM    100  O   UNL     1     -15.668  -5.860  -2.717  1.00  0.00    -0.744 OA
ENDBRANCH  96  97
ENDBRANCH  70  91
ENDBRANCH  44  45
ENDBRANCH  36  39
ENDBRANCH  34  35
ENDBRANCH  33  34
ENDBRANCH  32  33
ENDBRANCH   1  32
TORSDOF 19
