REMARK SMILES CCN(Cc1ccccn1)C(=O)NC(=O)CCCC(=O)NCCCCCCNC(=O)c1ccc(-c2c3nc(c(-c4ccc(S(=O)(=O)[O-])cc4)c4ccc([nH]4)c(-c4ccc(S(=O)(=O)[O-])cc4)c4nc(c(-c5ccc(S(=O)(=O)[O-])cc5)c5ccc2[nH]5)C=C4)C=C3)cc1
REMARK SMILES IDX 23 1 22 2 21 3 19 4 20 5 18 7 17 8 16 9 14 10 11 11 12 12
REMARK SMILES IDX 13 13 15 15 3 16 2 17 1 18 4 19 5 20 6 21 10 22 7 23 9 24
REMARK SMILES IDX 8 25 24 26 25 27 26 28 27 29 28 30 29 31 30 33 31 34 32 35
REMARK SMILES IDX 90 36 33 37 89 38 34 39 35 40 36 41 83 42 37 43 88 44 82 45
REMARK SMILES IDX 84 46 38 47 87 48 81 49 80 50 39 52 69 53 50 54 68 55 51 56
REMARK SMILES IDX 54 57 67 58 85 59 52 60 53 61 66 63 86 64 55 65 40 66 41 67
REMARK SMILES IDX 49 68 42 69 48 70 43 71 44 72 45 73 46 74 47 75 70 76 71 77
REMARK SMILES IDX 79 78 72 79 78 80 73 81 74 82 75 83 76 84 77 85 56 86 57 87
REMARK SMILES IDX 65 88 58 89 64 90 59 91 60 92 61 93 62 94 63 95
REMARK H PARENT 21 6 13 14 28 32 84 51 54 62
REMARK Flexibility Score: inf
ROOT
ATOM      1  C   UNL     1       0.750  -4.159   3.439  1.00  0.00     0.021 C 
ENDROOT
BRANCH   1   2
ATOM      2  C   UNL     1       0.132  -3.459   2.167  1.00  0.00     0.116 C 
BRANCH   2   3
ATOM      3  N   UNL     1      -0.927  -2.291   2.244  1.00  0.00    -0.356 N 
ATOM      4  C   UNL     1      -1.331  -0.963   2.268  1.00  0.00     0.220 C 
ATOM      5  O   UNL     1      -2.578  -0.866   2.280  1.00  0.00    -0.275 OA
ATOM      6  H   UNL     1      -1.780  -2.777   2.314  1.00  0.00     0.163 HD
BRANCH   4   7
ATOM      7  C   UNL     1      -0.574   0.460   2.154  1.00  0.00     0.100 C 
BRANCH   7   8
ATOM      8  C   UNL     1      -0.454   1.672   3.188  1.00  0.00     0.020 C 
BRANCH   8   9
ATOM      9  C   UNL     1       0.420   1.828   4.490  1.00  0.00     0.101 C 
BRANCH   9  10
ATOM     10  C   UNL     1       1.957   1.839   4.751  1.00  0.00     0.227 C 
ATOM     11  C   UNL     1       3.098   0.065   3.246  1.00  0.00     0.324 C 
ATOM     12  O   UNL     1       4.168  -0.056   2.650  1.00  0.00    -0.248 OA
ATOM     13  N   UNL     1       2.941   1.127   4.104  1.00  0.00    -0.278 N 
ATOM     14  H   UNL     1       3.823   1.502   4.329  1.00  0.00     0.174 HD
ATOM     15  O   UNL     1       2.360   2.438   5.763  1.00  0.00    -0.275 OA
BRANCH  11  16
ATOM     16  N   UNL     1       2.030  -0.778   3.042  1.00  0.00    -0.319 N 
BRANCH  16  17
ATOM     17  C   UNL     1       1.979  -1.170   1.575  1.00  0.00     0.118 C 
ATOM     18  C   UNL     1       2.296  -0.125   0.430  1.00  0.00     0.027 C 
ENDBRANCH  16  17
BRANCH  16  19
ATOM     19  C   UNL     1       1.055  -0.940   4.241  1.00  0.00     0.177 C 
BRANCH  19  20
ATOM     20  C   UNL     1       0.256  -1.894   5.161  1.00  0.00     0.060 A 
ATOM     21  C   UNL     1       0.593  -1.995   6.513  1.00  0.00     0.026 A 
ATOM     22  N   UNL     1      -0.996  -2.299   4.802  1.00  0.00    -0.259 NA
ATOM     23  C   UNL     1      -0.257  -2.653   7.416  1.00  0.00     0.004 A 
ATOM     24  C   UNL     1      -1.777  -3.007   5.662  1.00  0.00     0.111 A 
ATOM     25  C   UNL     1      -1.438  -3.226   6.974  1.00  0.00     0.020 A 
ENDBRANCH  19  20
ENDBRANCH  16  19
ENDBRANCH  11  16
ENDBRANCH   9  10
ENDBRANCH   8   9
ENDBRANCH   7   8
ENDBRANCH   4   7
ENDBRANCH   2   3
ENDBRANCH   1   2
BRANCH   1  26
ATOM     26  C   UNL     1       0.949  -5.685   3.378  1.00  0.00     0.002 C 
BRANCH  26  27
ATOM     27  C   UNL     1       2.216  -6.232   4.066  1.00  0.00     0.002 C 
BRANCH  27  28
ATOM     28  C   UNL     1       2.530  -5.832   5.517  1.00  0.00     0.021 C 
BRANCH  28  29
ATOM     29  C   UNL     1       1.447  -6.081   6.564  1.00  0.00     0.116 C 
BRANCH  29  30
ATOM     30  N   UNL     1       0.993  -7.460   6.598  1.00  0.00    -0.352 N 
ATOM     31  C   UNL     1       1.122  -8.431   7.566  1.00  0.00     0.251 C 
ATOM     32  H   UNL     1       0.510  -7.750   5.791  1.00  0.00     0.163 HD
ATOM     33  O   UNL     1       0.800  -9.580   7.312  1.00  0.00    -0.269 OA
BRANCH  31  34
ATOM     34  C   UNL     1       1.662  -8.096   8.905  1.00  0.00     0.039 A 
ATOM     35  C   UNL     1       2.622  -8.943   9.467  1.00  0.00     0.014 A 
ATOM     36  C   UNL     1       1.193  -6.997   9.629  1.00  0.00     0.014 A 
ATOM     37  C   UNL     1       3.148  -8.657  10.729  1.00  0.00     0.010 A 
ATOM     38  C   UNL     1       1.767  -6.676  10.860  1.00  0.00     0.010 A 
ATOM     39  C   UNL     1       2.746  -7.507  11.428  1.00  0.00    -0.014 A 
BRANCH  39  40
ATOM     40  C   UNL     1       3.343  -7.181  12.752  1.00  0.00     0.031 A 
ATOM     41  C   UNL     1       2.494  -7.184  13.996  1.00  0.00     0.074 A 
ATOM     42  C   UNL     1       4.653  -6.868  12.833  1.00  0.00     0.049 A 
ATOM     43  N   UNL     1       2.849  -6.958  15.236  1.00  0.00    -0.248 NA
ATOM     44  C   UNL     1       1.059  -7.460  13.825  1.00  0.00     0.031 C 
ATOM     45  C   UNL     1       5.575  -6.793  11.697  1.00  0.00     0.029 A 
ATOM     46  N   UNL     1       5.439  -6.564  13.917  1.00  0.00    -0.354 N 
ATOM     47  C   UNL     1       1.684  -7.058  15.989  1.00  0.00     0.074 A 
ATOM     48  C   UNL     1       0.604  -7.307  15.060  1.00  0.00     0.031 C 
ATOM     49  C   UNL     1       6.806  -6.505  12.148  1.00  0.00     0.029 A 
ATOM     50  C   UNL     1       6.757  -6.335  13.597  1.00  0.00     0.049 A 
ATOM     51  H   UNL     1       5.092  -6.516  14.837  1.00  0.00     0.167 HD
ATOM     52  C   UNL     1       1.530  -6.973  17.332  1.00  0.00     0.031 A 
ATOM     53  C   UNL     1       7.810  -6.025  14.379  1.00  0.00     0.031 A 
ATOM     54  C   UNL     1       2.608  -6.724  18.253  1.00  0.00     0.049 A 
ATOM     55  C   UNL     1       7.610  -5.915  15.867  1.00  0.00     0.074 A 
ATOM     56  C   UNL     1       2.562  -6.667  19.636  1.00  0.00     0.029 A 
ATOM     57  N   UNL     1       3.924  -6.485  17.888  1.00  0.00    -0.354 N 
ATOM     58  N   UNL     1       6.513  -6.086  16.565  1.00  0.00    -0.248 NA
ATOM     59  C   UNL     1       8.794  -5.587  16.673  1.00  0.00     0.031 C 
ATOM     60  C   UNL     1       3.837  -6.330  20.102  1.00  0.00     0.029 A 
ATOM     61  C   UNL     1       4.694  -6.250  19.015  1.00  0.00     0.049 A 
ATOM     62  H   UNL     1       4.262  -6.482  16.963  1.00  0.00     0.167 HD
ATOM     63  C   UNL     1       6.881  -5.915  17.896  1.00  0.00     0.074 A 
ATOM     64  C   UNL     1       8.304  -5.646  17.904  1.00  0.00     0.031 C 
ATOM     65  C   UNL     1       6.110  -5.978  19.010  1.00  0.00     0.031 A 
BRANCH  52  66
ATOM     66  C   UNL     1       0.137  -7.139  17.887  1.00  0.00    -0.014 A 
ATOM     67  C   UNL     1      -0.525  -8.380  17.837  1.00  0.00     0.010 A 
ATOM     68  C   UNL     1      -0.503  -6.050  18.506  1.00  0.00     0.010 A 
ATOM     69  C   UNL     1      -1.817  -8.516  18.353  1.00  0.00     0.020 A 
ATOM     70  C   UNL     1      -1.783  -6.190  19.053  1.00  0.00     0.020 A 
ATOM     71  C   UNL     1      -2.438  -7.419  18.956  1.00  0.00     0.054 A 
BRANCH  71  72
ATOM     72  S   UNL     1      -4.107  -7.631  19.634  1.00  0.00     0.124 S 
ATOM     73  O   UNL     1      -4.911  -7.755  18.421  1.00  0.00    -0.237 OA
ATOM     74  O   UNL     1      -3.977  -8.850  20.428  1.00  0.00    -0.237 OA
ATOM     75  O   UNL     1      -4.328  -6.409  20.404  1.00  0.00    -0.744 OA
ENDBRANCH  71  72
ENDBRANCH  52  66
BRANCH  53  76
ATOM     76  C   UNL     1       9.153  -5.810  13.770  1.00  0.00    -0.014 A 
ATOM     77  C   UNL     1      10.202  -6.718  14.000  1.00  0.00     0.010 A 
ATOM     78  C   UNL     1       9.388  -4.694  12.945  1.00  0.00     0.010 A 
ATOM     79  C   UNL     1      11.464  -6.503  13.436  1.00  0.00     0.020 A 
ATOM     80  C   UNL     1      10.637  -4.493  12.353  1.00  0.00     0.020 A 
ATOM     81  C   UNL     1      11.672  -5.393  12.612  1.00  0.00     0.054 A 
BRANCH  81  82
ATOM     82  S   UNL     1      13.303  -5.162  11.851  1.00  0.00     0.124 S 
ATOM     83  O   UNL     1      14.120  -4.773  12.996  1.00  0.00    -0.237 OA
ATOM     84  O   UNL     1      13.580  -6.483  11.294  1.00  0.00    -0.237 OA
ATOM     85  O   UNL     1      13.072  -4.112  10.861  1.00  0.00    -0.744 OA
ENDBRANCH  81  82
ENDBRANCH  53  76
BRANCH  65  86
ATOM     86  C   UNL     1       6.794  -5.788  20.340  1.00  0.00    -0.014 A 
ATOM     87  C   UNL     1       7.297  -4.536  20.734  1.00  0.00     0.010 A 
ATOM     88  C   UNL     1       6.889  -6.874  21.229  1.00  0.00     0.010 A 
ATOM     89  C   UNL     1       7.918  -4.383  21.977  1.00  0.00     0.020 A 
ATOM     90  C   UNL     1       7.478  -6.718  22.486  1.00  0.00     0.020 A 
ATOM     91  C   UNL     1       8.004  -5.476  22.846  1.00  0.00     0.054 A 
BRANCH  91  92
ATOM     92  S   UNL     1       8.781  -5.243  24.467  1.00  0.00     0.124 S 
ATOM     93  O   UNL     1      10.191  -5.109  24.112  1.00  0.00    -0.237 OA
ATOM     94  O   UNL     1       8.139  -4.026  24.958  1.00  0.00    -0.237 OA
ATOM     95  O   UNL     1       8.436  -6.460  25.197  1.00  0.00    -0.744 OA
ENDBRANCH  91  92
ENDBRANCH  65  86
ENDBRANCH  39  40
ENDBRANCH  31  34
ENDBRANCH  29  30
ENDBRANCH  28  29
ENDBRANCH  27  28
ENDBRANCH  26  27
ENDBRANCH   1  26
TORSDOF 23
