REMARK SMILES O=C(NCCCCCCNC(=O)c1cc(Br)ccc1OCc1ccccc1F)c1ccc(-c2c3nc(c(-c4ccc(S(=O)(=O)[O-])cc4)c4ccc([nH]4)c(-c4ccc(S(=O)(=O)[O-])cc4)c4nc(c(-c5ccc(S(=O)(=O)[O-])cc5)c5ccc2[nH]5)C=C4)C=C3)cc1
REMARK SMILES IDX 6 1 5 2 4 3 3 4 1 5 2 6 29 8 30 9 88 10 31 11 87 12 32 13
REMARK SMILES IDX 33 14 34 15 81 16 35 17 86 18 80 19 82 20 36 21 85 22 79 23
REMARK SMILES IDX 78 24 37 26 67 27 48 28 66 29 49 30 52 31 65 32 83 33 50 34
REMARK SMILES IDX 51 35 64 37 84 38 53 39 38 40 39 41 47 42 40 43 46 44 41 45
REMARK SMILES IDX 42 46 43 47 44 48 45 49 68 50 69 51 77 52 70 53 76 54 71 55
REMARK SMILES IDX 72 56 73 57 74 58 75 59 54 60 55 61 63 62 56 63 62 64 57 65
REMARK SMILES IDX 58 66 59 67 60 68 61 69 7 70 8 71 9 72 10 73 11 74 12 76
REMARK SMILES IDX 13 77 14 78 19 79 15 80 18 81 16 82 17 83 20 84 21 85 22 86
REMARK SMILES IDX 23 87 27 88 24 89 26 90 28 91 25 92
REMARK H PARENT 3 7 82 25 52 36 10 75
REMARK Flexibility Score: inf
ROOT
ATOM      1  C   UNL     1       3.981  -3.333  -2.005  1.00  0.00     0.002 C 
ENDROOT
BRANCH   1   2
ATOM      2  C   UNL     1       4.170  -2.837  -0.569  1.00  0.00     0.021 C 
BRANCH   2   3
ATOM      3  C   UNL     1       4.069  -1.330  -0.361  1.00  0.00     0.116 C 
BRANCH   3   4
ATOM      4  N   UNL     1       2.740  -0.796  -0.597  1.00  0.00    -0.352 N 
ATOM      5  O   UNL     1       0.973   0.561  -0.223  1.00  0.00    -0.269 OA
ATOM      6  C   UNL     1       2.146   0.285   0.014  1.00  0.00     0.251 C 
ATOM      7  H   UNL     1       2.200  -1.262  -1.275  1.00  0.00     0.163 HD
BRANCH   6   8
ATOM      8  C   UNL     1       2.915   1.087   0.996  1.00  0.00     0.039 A 
ATOM      9  C   UNL     1       4.196   1.561   0.697  1.00  0.00     0.014 A 
ATOM     10  C   UNL     1       2.344   1.356   2.243  1.00  0.00     0.014 A 
ATOM     11  C   UNL     1       4.947   2.200   1.682  1.00  0.00     0.010 A 
ATOM     12  C   UNL     1       3.082   2.037   3.217  1.00  0.00     0.010 A 
ATOM     13  C   UNL     1       4.403   2.431   2.956  1.00  0.00    -0.014 A 
BRANCH  13  14
ATOM     14  C   UNL     1       5.231   3.092   3.995  1.00  0.00     0.031 A 
ATOM     15  C   UNL     1       5.774   2.311   5.160  1.00  0.00     0.074 A 
ATOM     16  C   UNL     1       5.537   4.396   3.864  1.00  0.00     0.049 A 
ATOM     17  N   UNL     1       6.573   2.712   6.117  1.00  0.00    -0.248 NA
ATOM     18  C   UNL     1       5.369   0.901   5.265  1.00  0.00     0.031 C 
ATOM     19  C   UNL     1       5.067   5.270   2.788  1.00  0.00     0.029 A 
ATOM     20  N   UNL     1       6.338   5.205   4.628  1.00  0.00    -0.354 N 
ATOM     21  C   UNL     1       6.745   1.616   6.953  1.00  0.00     0.074 A 
ATOM     22  C   UNL     1       5.967   0.531   6.390  1.00  0.00     0.031 C 
ATOM     23  C   UNL     1       5.630   6.481   2.932  1.00  0.00     0.029 A 
ATOM     24  C   UNL     1       6.479   6.473   4.119  1.00  0.00     0.049 A 
ATOM     25  H   UNL     1       6.771   4.906   5.461  1.00  0.00     0.167 HD
ATOM     26  C   UNL     1       7.481   1.517   8.086  1.00  0.00     0.031 A 
ATOM     27  C   UNL     1       7.221   7.511   4.548  1.00  0.00     0.031 A 
ATOM     28  C   UNL     1       8.274   2.579   8.644  1.00  0.00     0.049 A 
ATOM     29  C   UNL     1       8.070   7.364   5.774  1.00  0.00     0.074 A 
ATOM     30  C   UNL     1       9.059   2.564   9.785  1.00  0.00     0.029 A 
ATOM     31  N   UNL     1       8.390   3.847   8.097  1.00  0.00    -0.354 N 
ATOM     32  N   UNL     1       8.223   6.315   6.546  1.00  0.00    -0.248 NA
ATOM     33  C   UNL     1       8.847   8.541   6.186  1.00  0.00     0.031 C 
ATOM     34  C   UNL     1       9.645   3.829   9.931  1.00  0.00     0.029 A 
ATOM     35  C   UNL     1       9.233   4.623   8.874  1.00  0.00     0.049 A 
ATOM     36  H   UNL     1       7.939   4.151   7.276  1.00  0.00     0.167 HD
ATOM     37  C   UNL     1       9.114   6.706   7.537  1.00  0.00     0.074 A 
ATOM     38  C   UNL     1       9.479   8.081   7.258  1.00  0.00     0.031 C 
ATOM     39  C   UNL     1       9.583   5.989   8.587  1.00  0.00     0.031 A 
BRANCH  26  40
ATOM     40  C   UNL     1       7.440   0.202   8.808  1.00  0.00    -0.014 A 
ATOM     41  C   UNL     1       8.257  -0.868   8.402  1.00  0.00     0.010 A 
ATOM     42  C   UNL     1       6.579   0.035   9.906  1.00  0.00     0.010 A 
ATOM     43  C   UNL     1       8.184  -2.099   9.059  1.00  0.00     0.020 A 
ATOM     44  C   UNL     1       6.510  -1.192  10.572  1.00  0.00     0.020 A 
ATOM     45  C   UNL     1       7.299  -2.257  10.131  1.00  0.00     0.054 A 
BRANCH  45  46
ATOM     46  S   UNL     1       7.201  -3.861  10.973  1.00  0.00     0.124 S 
ATOM     47  O   UNL     1       6.217  -4.567  10.157  1.00  0.00    -0.237 OA
ATOM     48  O   UNL     1       8.568  -4.368  10.882  1.00  0.00    -0.237 OA
ATOM     49  O   UNL     1       6.761  -3.510  12.321  1.00  0.00    -0.744 OA
ENDBRANCH  45  46
ENDBRANCH  26  40
BRANCH  27  50
ATOM     50  C   UNL     1       7.214   8.774   3.771  1.00  0.00    -0.014 A 
ATOM     51  C   UNL     1       8.245   9.039   2.853  1.00  0.00     0.010 A 
ATOM     52  C   UNL     1       6.149   9.681   3.898  1.00  0.00     0.010 A 
ATOM     53  C   UNL     1       8.207  10.192   2.066  1.00  0.00     0.020 A 
ATOM     54  C   UNL     1       6.103  10.829   3.105  1.00  0.00     0.020 A 
ATOM     55  C   UNL     1       7.134  11.079   2.195  1.00  0.00     0.054 A 
BRANCH  55  56
ATOM     56  S   UNL     1       7.033  12.526   1.105  1.00  0.00     0.124 S 
ATOM     57  O   UNL     1       7.721  13.545   1.890  1.00  0.00    -0.237 OA
ATOM     58  O   UNL     1       7.729  12.080  -0.101  1.00  0.00    -0.237 OA
ATOM     59  O   UNL     1       5.593  12.717   0.944  1.00  0.00    -0.744 OA
ENDBRANCH  55  56
ENDBRANCH  27  50
BRANCH  39  60
ATOM     60  C   UNL     1      10.540   6.686   9.508  1.00  0.00    -0.014 A 
ATOM     61  C   UNL     1      10.063   7.530  10.525  1.00  0.00     0.010 A 
ATOM     62  C   UNL     1      11.924   6.485   9.367  1.00  0.00     0.010 A 
ATOM     63  C   UNL     1      10.958   8.188  11.373  1.00  0.00     0.020 A 
ATOM     64  C   UNL     1      12.821   7.135  10.218  1.00  0.00     0.020 A 
ATOM     65  C   UNL     1      12.332   7.995  11.206  1.00  0.00     0.054 A 
BRANCH  65  66
ATOM     66  S   UNL     1      13.492   8.833  12.323  1.00  0.00     0.124 S 
ATOM     67  O   UNL     1      13.710  10.102  11.635  1.00  0.00    -0.237 OA
ATOM     68  O   UNL     1      12.744   8.919  13.576  1.00  0.00    -0.237 OA
ATOM     69  O   UNL     1      14.641   7.931  12.354  1.00  0.00    -0.744 OA
ENDBRANCH  65  66
ENDBRANCH  39  60
ENDBRANCH  13  14
ENDBRANCH   6   8
ENDBRANCH   3   4
ENDBRANCH   2   3
ENDBRANCH   1   2
BRANCH   1  70
ATOM     70  C   UNL     1       4.842  -2.664  -3.080  1.00  0.00     0.002 C 
BRANCH  70  71
ATOM     71  C   UNL     1       6.344  -2.569  -2.794  1.00  0.00     0.021 C 
BRANCH  71  72
ATOM     72  C   UNL     1       7.050  -3.892  -2.490  1.00  0.00     0.116 C 
BRANCH  72  73
ATOM     73  N   UNL     1       7.006  -4.837  -3.594  1.00  0.00    -0.352 N 
ATOM     74  C   UNL     1       7.795  -4.649  -4.708  1.00  0.00     0.255 C 
ATOM     75  H   UNL     1       6.409  -5.618  -3.545  1.00  0.00     0.163 HD
ATOM     76  O   UNL     1       7.379  -3.977  -5.645  1.00  0.00    -0.269 OA
BRANCH  74  77
ATOM     77  C   UNL     1       9.124  -5.328  -4.745  1.00  0.00     0.082 A 
ATOM     78  C   UNL     1       9.816  -5.566  -3.544  1.00  0.00     0.033 A 
ATOM     79  C   UNL     1       9.741  -5.681  -5.957  1.00  0.00     0.132 A 
ATOM     80  C   UNL     1      11.126  -6.047  -3.560  1.00  0.00     0.019 A 
ATOM     81  C   UNL     1      11.073  -6.126  -5.956  1.00  0.00     0.048 A 
ATOM     82  Br  UNL     1      12.046  -6.320  -1.931  1.00  0.00    -0.051 Br
ATOM     83  C   UNL     1      11.768  -6.307  -4.763  1.00  0.00     0.019 A 
BRANCH  79  84
ATOM     84  O   UNL     1       9.194  -5.650  -7.212  1.00  0.00    -0.488 OA
BRANCH  84  85
ATOM     85  C   UNL     1       7.928  -6.304  -7.414  1.00  0.00     0.268 C 
BRANCH  85  86
ATOM     86  C   UNL     1       7.730  -7.643  -6.743  1.00  0.00     0.025 A 
ATOM     87  C   UNL     1       8.638  -8.694  -6.934  1.00  0.00     0.010 A 
ATOM     88  C   UNL     1       6.610  -7.868  -5.937  1.00  0.00     0.129 A 
ATOM     89  C   UNL     1       8.431  -9.929  -6.312  1.00  0.00     0.001 A 
ATOM     90  C   UNL     1       6.397  -9.097  -5.319  1.00  0.00     0.039 A 
ATOM     91  F   UNL     1       5.710  -6.893  -5.745  1.00  0.00    -0.207 F 
ATOM     92  C   UNL     1       7.311 -10.130  -5.505  1.00  0.00     0.003 A 
ENDBRANCH  85  86
ENDBRANCH  84  85
ENDBRANCH  79  84
ENDBRANCH  74  77
ENDBRANCH  72  73
ENDBRANCH  71  72
ENDBRANCH  70  71
ENDBRANCH   1  70
TORSDOF 19
