REMARK SMILES C[C@@]1(Oc2c[nH]c3ccc(Br)c(Cl)c23)O[C@@H](C(=O)NCCCCCCNC(=O)c2ccc(-c3c4nc(c(-c5ccc(S(=O)(=O)[O-])cc5)c5ccc([nH]5)c(-c5ccc(S(=O)(=O)[O-])cc5)c5nc(c(-c6ccc(S(=O)(=O)[O-])cc6)c6ccc3[nH]6)C=C5)C=C4)cc2)[C@@](C)(O)[C@@](C)(O)[C@@]1(C)O
REMARK SMILES IDX 23 1 22 2 21 3 20 4 19 5 17 6 18 7 16 9 1 10 2 11 15 12
REMARK SMILES IDX 95 13 92 14 96 15 89 16 93 17 90 18 3 19 4 20 5 21 14 22
REMARK SMILES IDX 6 23 7 24 12 25 8 27 10 28 13 29 9 30 11 31 97 32 94 34
REMARK SMILES IDX 91 36 24 38 25 39 26 40 27 41 28 43 29 44 30 45 88 46 31 47
REMARK SMILES IDX 87 48 32 49 33 50 34 51 81 52 35 53 86 54 80 55 82 56 36 57
REMARK SMILES IDX 85 58 79 59 78 60 37 62 67 63 48 64 66 65 49 66 52 67 65 68
REMARK SMILES IDX 83 69 50 70 51 71 64 73 84 74 53 75 38 76 39 77 47 78 40 79
REMARK SMILES IDX 46 80 41 81 42 82 43 83 44 84 45 85 68 86 69 87 77 88 70 89
REMARK SMILES IDX 76 90 71 91 72 92 73 93 74 94 75 95 54 96 55 97 63 98 56 99
REMARK SMILES IDX 62 100 57 101 58 102 59 103 60 104 61 105
REMARK H PARENT 19 8 6 26 97 33 94 35 91 37 26 42 82 61 52 72
REMARK Flexibility Score: inf
ROOT
ATOM      1  C   UNL     1       0.246   1.169   3.684  1.00  0.00     0.002 C 
ENDROOT
BRANCH   1   2
ATOM      2  C   UNL     1       1.183   0.044   4.162  1.00  0.00     0.002 C 
BRANCH   2   3
ATOM      3  C   UNL     1       1.486  -1.079   3.172  1.00  0.00     0.021 C 
BRANCH   3   4
ATOM      4  C   UNL     1       1.825  -0.605   1.758  1.00  0.00     0.116 C 
BRANCH   4   5
ATOM      5  N   UNL     1       3.096  -0.991   1.142  1.00  0.00    -0.354 N 
ATOM      6  C   UNL     1       3.447  -1.419  -0.118  1.00  0.00     0.252 C 
ATOM      7  O   UNL     1       4.634  -1.183  -0.407  1.00  0.00    -0.272 OA
ATOM      8  H   UNL     1       3.861  -0.932   1.759  1.00  0.00     0.163 HD
BRANCH   6   9
ATOM      9  C   UNL     1       2.547  -2.226  -1.220  1.00  0.00     0.246 C 
ATOM     10  C   UNL     1       0.723   0.074  -0.777  1.00  0.00     0.094 C 
ATOM     11  C   UNL     1       0.311  -1.359  -1.215  1.00  0.00     0.240 C 
ATOM     12  O   UNL     1       1.432  -1.720  -2.027  1.00  0.00    -0.322 OA
ATOM     13  C   UNL     1      -0.077  -2.708  -0.335  1.00  0.00     0.158 C 
ATOM     14  C   UNL     1       1.079  -3.670   0.234  1.00  0.00     0.128 C 
ATOM     15  C   UNL     1      -0.889  -3.672  -1.255  1.00  0.00     0.053 C 
ATOM     16  C   UNL     1       2.262  -3.702  -0.766  1.00  0.00     0.129 C 
ATOM     17  C   UNL     1       0.565  -5.062   0.722  1.00  0.00     0.049 C 
ATOM     18  C   UNL     1       2.055  -4.597  -2.000  1.00  0.00     0.049 C 
BRANCH  11  19
ATOM     19  O   UNL     1      -0.982  -0.826  -1.708  1.00  0.00    -0.457 OA
BRANCH  19  20
ATOM     20  C   UNL     1      -1.495  -1.164  -2.892  1.00  0.00     0.150 A 
ATOM     21  C   UNL     1      -1.019  -0.817  -4.127  1.00  0.00     0.130 A 
ATOM     22  C   UNL     1      -2.705  -1.900  -3.047  1.00  0.00     0.061 A 
ATOM     23  N   UNL     1      -1.799  -1.488  -5.039  1.00  0.00    -0.358 N 
ATOM     24  C   UNL     1      -2.697  -2.307  -4.380  1.00  0.00     0.051 A 
ATOM     25  C   UNL     1      -3.661  -2.457  -2.169  1.00  0.00     0.068 A 
ATOM     26  H   UNL     1      -1.728  -1.399  -6.016  1.00  0.00     0.166 HD
ATOM     27  C   UNL     1      -3.473  -3.380  -4.830  1.00  0.00     0.028 A 
ATOM     28  C   UNL     1      -4.340  -3.611  -2.559  1.00  0.00     0.037 A 
ATOM     29  Cl  UNL     1      -3.782  -1.723  -0.621  1.00  0.00    -0.082 Cl
ATOM     30  C   UNL     1      -4.223  -4.077  -3.869  1.00  0.00     0.019 A 
ATOM     31  Br  UNL     1      -5.307  -4.669  -1.313  1.00  0.00    -0.049 Br
ENDBRANCH  19  20
ENDBRANCH  11  19
BRANCH  13  32
ATOM     32  O   UNL     1      -0.947  -2.325   0.749  1.00  0.00    -0.380 OA
ATOM     33  H   UNL     1      -0.474  -1.723   1.345  1.00  0.00     0.211 HD
ENDBRANCH  13  32
BRANCH  14  34
ATOM     34  O   UNL     1       1.677  -3.183   1.447  1.00  0.00    -0.384 OA
ATOM     35  H   UNL     1       2.049  -2.301   1.292  1.00  0.00     0.211 HD
ENDBRANCH  14  34
BRANCH  16  36
ATOM     36  O   UNL     1       3.410  -4.278  -0.106  1.00  0.00    -0.384 OA
ATOM     37  H   UNL     1       3.613  -3.768   0.694  1.00  0.00     0.211 HD
ENDBRANCH  16  36
ENDBRANCH   6   9
ENDBRANCH   4   5
ENDBRANCH   3   4
ENDBRANCH   2   3
ENDBRANCH   1   2
BRANCH   1  38
ATOM     38  C   UNL     1      -1.179   0.782   3.260  1.00  0.00     0.021 C 
BRANCH  38  39
ATOM     39  C   UNL     1      -1.992   0.135   4.368  1.00  0.00     0.116 C 
BRANCH  39  40
ATOM     40  N   UNL     1      -2.025   0.965   5.571  1.00  0.00    -0.352 N 
ATOM     41  C   UNL     1      -2.662   0.758   6.772  1.00  0.00     0.251 C 
ATOM     42  H   UNL     1      -1.512   1.803   5.512  1.00  0.00     0.163 HD
ATOM     43  O   UNL     1      -2.821   1.688   7.548  1.00  0.00    -0.269 OA
BRANCH  41  44
ATOM     44  C   UNL     1      -3.128  -0.594   7.119  1.00  0.00     0.039 A 
ATOM     45  C   UNL     1      -4.274  -0.770   7.902  1.00  0.00     0.014 A 
ATOM     46  C   UNL     1      -2.368  -1.689   6.711  1.00  0.00     0.014 A 
ATOM     47  C   UNL     1      -4.646  -2.061   8.254  1.00  0.00     0.010 A 
ATOM     48  C   UNL     1      -2.818  -2.961   6.917  1.00  0.00     0.010 A 
ATOM     49  C   UNL     1      -3.901  -3.139   7.760  1.00  0.00    -0.014 A 
BRANCH  49  50
ATOM     50  C   UNL     1      -4.258  -4.503   8.076  1.00  0.00     0.031 A 
ATOM     51  C   UNL     1      -5.543  -4.935   7.485  1.00  0.00     0.074 A 
ATOM     52  C   UNL     1      -3.395  -5.349   8.673  1.00  0.00     0.049 A 
ATOM     53  N   UNL     1      -6.668  -5.064   8.099  1.00  0.00    -0.248 NA
ATOM     54  C   UNL     1      -5.640  -5.058   6.021  1.00  0.00     0.031 C 
ATOM     55  C   UNL     1      -1.977  -5.153   8.994  1.00  0.00     0.029 A 
ATOM     56  N   UNL     1      -3.602  -6.638   9.026  1.00  0.00    -0.354 N 
ATOM     57  C   UNL     1      -7.569  -5.512   7.144  1.00  0.00     0.074 A 
ATOM     58  C   UNL     1      -6.945  -5.290   5.864  1.00  0.00     0.031 C 
ATOM     59  C   UNL     1      -1.410  -6.352   9.267  1.00  0.00     0.029 A 
ATOM     60  C   UNL     1      -2.451  -7.365   9.296  1.00  0.00     0.049 A 
ATOM     61  H   UNL     1      -4.503  -7.032   9.087  1.00  0.00     0.167 HD
ATOM     62  C   UNL     1      -8.647  -6.268   7.491  1.00  0.00     0.031 A 
ATOM     63  C   UNL     1      -2.380  -8.711   9.465  1.00  0.00     0.031 A 
ATOM     64  C   UNL     1      -8.828  -6.309   8.920  1.00  0.00     0.049 A 
ATOM     65  C   UNL     1      -3.754  -9.153   9.837  1.00  0.00     0.074 A 
ATOM     66  C   UNL     1      -9.069  -5.359   9.892  1.00  0.00     0.029 A 
ATOM     67  N   UNL     1      -8.317  -7.408   9.575  1.00  0.00    -0.354 N 
ATOM     68  N   UNL     1      -4.355  -8.769  10.934  1.00  0.00    -0.248 NA
ATOM     69  C   UNL     1      -4.640  -9.591   8.767  1.00  0.00     0.031 C 
ATOM     70  C   UNL     1      -8.248  -5.747  10.990  1.00  0.00     0.029 A 
ATOM     71  C   UNL     1      -7.615  -6.950  10.662  1.00  0.00     0.049 A 
ATOM     72  H   UNL     1      -8.434  -8.350   9.312  1.00  0.00     0.167 HD
ATOM     73  C   UNL     1      -5.667  -8.511  10.555  1.00  0.00     0.074 A 
ATOM     74  C   UNL     1      -5.800  -9.107   9.225  1.00  0.00     0.031 C 
ATOM     75  C   UNL     1      -6.439  -7.595  11.213  1.00  0.00     0.031 A 
BRANCH  62  76
ATOM     76  C   UNL     1      -9.276  -7.291   6.590  1.00  0.00    -0.014 A 
ATOM     77  C   UNL     1     -10.485  -7.890   6.990  1.00  0.00     0.010 A 
ATOM     78  C   UNL     1      -8.584  -7.880   5.512  1.00  0.00     0.010 A 
ATOM     79  C   UNL     1     -10.946  -9.062   6.380  1.00  0.00     0.020 A 
ATOM     80  C   UNL     1      -9.057  -9.024   4.869  1.00  0.00     0.020 A 
ATOM     81  C   UNL     1     -10.220  -9.627   5.330  1.00  0.00     0.054 A 
BRANCH  81  82
ATOM     82  S   UNL     1     -10.757 -11.210   4.640  1.00  0.00     0.124 S 
ATOM     83  O   UNL     1     -10.763 -12.069   5.821  1.00  0.00    -0.237 OA
ATOM     84  O   UNL     1     -12.067 -10.875   4.092  1.00  0.00    -0.237 OA
ATOM     85  O   UNL     1      -9.729 -11.519   3.649  1.00  0.00    -0.744 OA
ENDBRANCH  81  82
ENDBRANCH  62  76
BRANCH  63  86
ATOM     86  C   UNL     1      -1.339  -9.622   8.903  1.00  0.00    -0.014 A 
ATOM     87  C   UNL     1      -1.328 -10.999   9.204  1.00  0.00     0.010 A 
ATOM     88  C   UNL     1      -0.504  -9.188   7.850  1.00  0.00     0.010 A 
ATOM     89  C   UNL     1      -0.567 -11.908   8.440  1.00  0.00     0.020 A 
ATOM     90  C   UNL     1       0.260 -10.084   7.091  1.00  0.00     0.020 A 
ATOM     91  C   UNL     1       0.203 -11.445   7.370  1.00  0.00     0.054 A 
BRANCH  91  92
ATOM     92  S   UNL     1       1.060 -12.632   6.290  1.00  0.00     0.124 S 
ATOM     93  O   UNL     1       1.930 -13.340   7.225  1.00  0.00    -0.237 OA
ATOM     94  O   UNL     1      -0.047 -13.410   5.742  1.00  0.00    -0.237 OA
ATOM     95  O   UNL     1       1.754 -11.781   5.324  1.00  0.00    -0.744 OA
ENDBRANCH  91  92
ENDBRANCH  63  86
BRANCH  75  96
ATOM     96  C   UNL     1      -5.949  -7.022  12.524  1.00  0.00    -0.014 A 
ATOM     97  C   UNL     1      -4.871  -6.119  12.631  1.00  0.00     0.010 A 
ATOM     98  C   UNL     1      -6.771  -7.221  13.646  1.00  0.00     0.010 A 
ATOM     99  C   UNL     1      -4.638  -5.424  13.831  1.00  0.00     0.020 A 
ATOM    100  C   UNL     1      -6.553  -6.522  14.835  1.00  0.00     0.020 A 
ATOM    101  C   UNL     1      -5.493  -5.620  14.921  1.00  0.00     0.054 A 
BRANCH 101 102
ATOM    102  S   UNL     1      -5.246  -4.660  16.444  1.00  0.00     0.124 S 
ATOM    103  O   UNL     1      -3.882  -5.011  16.830  1.00  0.00    -0.237 OA
ATOM    104  O   UNL     1      -5.437  -3.284  15.989  1.00  0.00    -0.237 OA
ATOM    105  O   UNL     1      -6.287  -5.157  17.343  1.00  0.00    -0.744 OA
ENDBRANCH 101 102
ENDBRANCH  75  96
ENDBRANCH  49  50
ENDBRANCH  41  44
ENDBRANCH  39  40
ENDBRANCH  38  39
ENDBRANCH   1  38
TORSDOF 21
