REMARK SMILES O=C(/C=C/c1ccc(O)c(O)c1)NCCCCCCNC(=O)c1ccc(-c2c3nc(c(-c4ccc(S(=O)(=O)[O-])cc4)c4ccc([nH]4)c(-c4ccc(S(=O)(=O)[O-])cc4)c4nc(c(-c5ccc(S(=O)(=O)[O-])cc5)c5ccc2[nH]5)C=C4)C=C3)cc1
REMARK SMILES IDX 17 1 16 2 15 3 14 4 13 5 1 6 2 7 3 9 4 10 5 11 6 12 12 13
REMARK SMILES IDX 7 14 10 15 8 16 11 17 9 19 18 21 19 22 20 23 21 24 22 26
REMARK SMILES IDX 23 27 24 28 82 29 25 30 81 31 26 32 27 33 28 34 75 35 29 36
REMARK SMILES IDX 80 37 74 38 76 39 30 40 79 41 73 42 72 43 31 45 61 46 42 47
REMARK SMILES IDX 60 48 43 49 46 50 59 51 77 52 44 53 45 54 58 56 78 57 47 58
REMARK SMILES IDX 32 59 33 60 41 61 34 62 40 63 35 64 36 65 37 66 38 67 39 68
REMARK SMILES IDX 62 69 63 70 71 71 64 72 70 73 65 74 66 75 67 76 68 77 69 78
REMARK SMILES IDX 48 79 49 80 57 81 50 82 56 83 51 84 52 85 53 86 54 87 55 88
REMARK H PARENT 13 8 11 18 9 20 20 25 76 44 46 55
REMARK Flexibility Score: inf
ROOT
ATOM      1  C   UNL     1       4.626   4.360  -0.182  1.00  0.00     0.002 C 
ENDROOT
BRANCH   1   2
ATOM      2  C   UNL     1       4.163   3.594   1.061  1.00  0.00     0.002 C 
BRANCH   2   3
ATOM      3  C   UNL     1       2.663   3.272   1.115  1.00  0.00     0.021 C 
BRANCH   3   4
ATOM      4  C   UNL     1       2.143   2.461  -0.073  1.00  0.00     0.116 C 
BRANCH   4   5
ATOM      5  N   UNL     1       2.818   1.182  -0.180  1.00  0.00    -0.353 N 
ATOM      6  O   UNL     1       0.990  -0.119   0.307  1.00  0.00    -0.270 OA
ATOM      7  C   UNL     1       2.188  -0.004   0.071  1.00  0.00     0.243 C 
ATOM      8  H   UNL     1       3.767   1.168  -0.444  1.00  0.00     0.163 HD
BRANCH   7   9
ATOM      9  C   UNL     1       3.031  -1.227   0.022  1.00  0.00     0.072 C 
ATOM     10  C   UNL     1       4.371  -1.274   0.101  1.00  0.00     0.014 C 
BRANCH  10  11
ATOM     11  C   UNL     1       5.121  -2.538   0.141  1.00  0.00    -0.022 A 
ATOM     12  C   UNL     1       4.775  -3.640  -0.661  1.00  0.00     0.012 A 
ATOM     13  C   UNL     1       6.234  -2.635   0.986  1.00  0.00     0.058 A 
ATOM     14  C   UNL     1       5.504  -4.833  -0.596  1.00  0.00     0.051 A 
ATOM     15  C   UNL     1       6.952  -3.822   1.045  1.00  0.00     0.157 A 
ATOM     16  C   UNL     1       6.590  -4.916   0.265  1.00  0.00     0.157 A 
BRANCH  15  17
ATOM     17  O   UNL     1       8.025  -3.910   1.885  1.00  0.00    -0.504 OA
ATOM     18  H   UNL     1       8.518  -4.705   1.934  1.00  0.00     0.293 HD
ENDBRANCH  15  17
BRANCH  16  19
ATOM     19  O   UNL     1       7.336  -6.056   0.380  1.00  0.00    -0.504 OA
ATOM     20  H   UNL     1       7.120  -6.811  -0.130  1.00  0.00     0.293 HD
ENDBRANCH  16  19
ENDBRANCH  10  11
ENDBRANCH   7   9
ENDBRANCH   4   5
ENDBRANCH   3   4
ENDBRANCH   2   3
ENDBRANCH   1   2
BRANCH   1  21
ATOM     21  C   UNL     1       3.936   5.705  -0.414  1.00  0.00     0.021 C 
BRANCH  21  22
ATOM     22  C   UNL     1       4.086   6.710   0.724  1.00  0.00     0.116 C 
BRANCH  22  23
ATOM     23  N   UNL     1       5.471   7.105   0.937  1.00  0.00    -0.352 N 
ATOM     24  C   UNL     1       6.016   8.364   1.006  1.00  0.00     0.251 C 
ATOM     25  H   UNL     1       6.108   6.363   1.048  1.00  0.00     0.163 HD
ATOM     26  O   UNL     1       7.238   8.502   1.018  1.00  0.00    -0.269 OA
BRANCH  24  27
ATOM     27  C   UNL     1       5.135   9.552   1.042  1.00  0.00     0.039 A 
ATOM     28  C   UNL     1       5.448  10.652   0.239  1.00  0.00     0.014 A 
ATOM     29  C   UNL     1       4.003   9.582   1.860  1.00  0.00     0.014 A 
ATOM     30  C   UNL     1       4.588  11.753   0.208  1.00  0.00     0.010 A 
ATOM     31  C   UNL     1       3.108  10.645   1.768  1.00  0.00     0.010 A 
ATOM     32  C   UNL     1       3.392  11.744   0.943  1.00  0.00    -0.014 A 
BRANCH  32  33
ATOM     33  C   UNL     1       2.421  12.867   0.854  1.00  0.00     0.031 A 
ATOM     34  C   UNL     1       2.093  13.688   2.071  1.00  0.00     0.074 A 
ATOM     35  C   UNL     1       1.785  13.107  -0.311  1.00  0.00     0.049 A 
ATOM     36  N   UNL     1       1.239  14.672   2.196  1.00  0.00    -0.248 NA
ATOM     37  C   UNL     1       2.797  13.343   3.316  1.00  0.00     0.031 C 
ATOM     38  C   UNL     1       1.982  12.356  -1.553  1.00  0.00     0.029 A 
ATOM     39  N   UNL     1       0.838  14.045  -0.638  1.00  0.00    -0.354 N 
ATOM     40  C   UNL     1       1.291  15.052   3.533  1.00  0.00     0.074 A 
ATOM     41  C   UNL     1       2.220  14.156   4.188  1.00  0.00     0.031 C 
ATOM     42  C   UNL     1       1.203  12.880  -2.512  1.00  0.00     0.029 A 
ATOM     43  C   UNL     1       0.417  13.972  -1.945  1.00  0.00     0.049 A 
ATOM     44  H   UNL     1       0.492  14.707   0.003  1.00  0.00     0.167 HD
ATOM     45  C   UNL     1       0.641  16.064   4.156  1.00  0.00     0.031 A 
ATOM     46  C   UNL     1      -0.504  14.693  -2.614  1.00  0.00     0.031 A 
ATOM     47  C   UNL     1      -0.286  16.950   3.500  1.00  0.00     0.049 A 
ATOM     48  C   UNL     1      -1.230  15.799  -1.900  1.00  0.00     0.074 A 
ATOM     49  C   UNL     1      -0.956  18.039   4.030  1.00  0.00     0.029 A 
ATOM     50  N   UNL     1      -0.682  16.844   2.175  1.00  0.00    -0.354 N 
ATOM     51  N   UNL     1      -1.114  16.190  -0.652  1.00  0.00    -0.248 NA
ATOM     52  C   UNL     1      -2.202  16.571  -2.686  1.00  0.00     0.031 C 
ATOM     53  C   UNL     1      -1.805  18.552   3.044  1.00  0.00     0.029 A 
ATOM     54  C   UNL     1      -1.611  17.828   1.877  1.00  0.00     0.049 A 
ATOM     55  H   UNL     1      -0.352  16.169   1.539  1.00  0.00     0.167 HD
ATOM     56  C   UNL     1      -1.977  17.271  -0.511  1.00  0.00     0.074 A 
ATOM     57  C   UNL     1      -2.598  17.480  -1.804  1.00  0.00     0.031 C 
ATOM     58  C   UNL     1      -2.229  18.023   0.589  1.00  0.00     0.031 A 
BRANCH  45  59
ATOM     59  C   UNL     1       0.898  16.252   5.630  1.00  0.00    -0.014 A 
ATOM     60  C   UNL     1       2.156  16.668   6.106  1.00  0.00     0.010 A 
ATOM     61  C   UNL     1      -0.138  16.026   6.555  1.00  0.00     0.010 A 
ATOM     62  C   UNL     1       2.388  16.798   7.478  1.00  0.00     0.020 A 
ATOM     63  C   UNL     1       0.080  16.188   7.926  1.00  0.00     0.020 A 
ATOM     64  C   UNL     1       1.349  16.551   8.380  1.00  0.00     0.054 A 
BRANCH  64  65
ATOM     65  S   UNL     1       1.681  16.725  10.155  1.00  0.00     0.124 S 
ATOM     66  O   UNL     1       2.524  15.561  10.418  1.00  0.00    -0.237 OA
ATOM     67  O   UNL     1       2.356  18.018  10.229  1.00  0.00    -0.237 OA
ATOM     68  O   UNL     1       0.353  16.682  10.762  1.00  0.00    -0.744 OA
ENDBRANCH  64  65
ENDBRANCH  45  59
BRANCH  46  69
ATOM     69  C   UNL     1      -0.774  14.394  -4.048  1.00  0.00    -0.014 A 
ATOM     70  C   UNL     1      -0.366  15.286  -5.054  1.00  0.00     0.010 A 
ATOM     71  C   UNL     1      -1.409  13.193  -4.416  1.00  0.00     0.010 A 
ATOM     72  C   UNL     1      -0.591  14.986  -6.402  1.00  0.00     0.020 A 
ATOM     73  C   UNL     1      -1.609  12.876  -5.763  1.00  0.00     0.020 A 
ATOM     74  C   UNL     1      -1.204  13.779  -6.747  1.00  0.00     0.054 A 
BRANCH  74  75
ATOM     75  S   UNL     1      -1.416  13.378  -8.504  1.00  0.00     0.124 S 
ATOM     76  O   UNL     1      -2.466  14.309  -8.905  1.00  0.00    -0.237 OA
ATOM     77  O   UNL     1      -0.088  13.648  -9.050  1.00  0.00    -0.237 OA
ATOM     78  O   UNL     1      -1.800  11.968  -8.490  1.00  0.00    -0.744 OA
ENDBRANCH  74  75
ENDBRANCH  46  69
BRANCH  58  79
ATOM     79  C   UNL     1      -3.194  19.171   0.441  1.00  0.00    -0.014 A 
ATOM     80  C   UNL     1      -4.573  18.954   0.268  1.00  0.00     0.010 A 
ATOM     81  C   UNL     1      -2.717  20.492   0.535  1.00  0.00     0.010 A 
ATOM     82  C   UNL     1      -5.451  20.036   0.161  1.00  0.00     0.020 A 
ATOM     83  C   UNL     1      -3.596  21.576   0.461  1.00  0.00     0.020 A 
ATOM     84  C   UNL     1      -4.957  21.340   0.260  1.00  0.00     0.054 A 
BRANCH  84  85
ATOM     85  S   UNL     1      -6.124  22.726   0.165  1.00  0.00     0.124 S 
ATOM     86  O   UNL     1      -6.492  22.716  -1.248  1.00  0.00    -0.237 OA
ATOM     87  O   UNL     1      -7.178  22.320   1.092  1.00  0.00    -0.237 OA
ATOM     88  O   UNL     1      -5.333  23.877   0.594  1.00  0.00    -0.744 OA
ENDBRANCH  84  85
ENDBRANCH  58  79
ENDBRANCH  32  33
ENDBRANCH  24  27
ENDBRANCH  22  23
ENDBRANCH  21  22
ENDBRANCH   1  21
TORSDOF 19
