REMARK SMILES CCc1ccc(Oc2ncnc(N3CCC(C(=O)NCCCCCCNC(=O)c4ccc(-c5c6nc(c(-c7ccc(S(=O)(=O)[O-])cc7)c7ccc([nH]7)c(-c7ccc(S(=O)(=O)[O-])cc7)c7nc(c(-c8ccc(S(=O)(=O)[O-])cc8)c8ccc5[nH]8)C=C7)C=C6)cc4)CC3)c2[N+](=O)[O-])cc1
REMARK SMILES IDX 22 1 21 2 20 3 19 4 17 5 18 6 16 8 13 9 14 10 90 11 15 12
REMARK SMILES IDX 89 13 12 14 8 15 9 16 91 17 10 18 11 19 7 20 6 21 3 22 4 23
REMARK SMILES IDX 96 24 5 25 95 26 2 27 1 28 92 29 93 30 94 31 23 32 24 33
REMARK SMILES IDX 25 34 26 35 27 36 28 38 29 39 30 40 88 41 31 42 87 43 32 44
REMARK SMILES IDX 33 45 34 46 81 47 35 48 86 49 80 50 82 51 36 52 85 53 79 54
REMARK SMILES IDX 78 55 37 57 67 58 48 59 66 60 49 61 52 62 65 63 83 64 50 65
REMARK SMILES IDX 51 66 64 68 84 69 53 70 38 71 39 72 47 73 40 74 46 75 41 76
REMARK SMILES IDX 42 77 43 78 44 79 45 80 68 81 69 82 77 83 70 84 76 85 71 86
REMARK SMILES IDX 72 87 73 88 74 89 75 90 54 91 55 92 63 93 56 94 62 95 57 96
REMARK SMILES IDX 58 97 59 98 60 99 61 100
REMARK H PARENT 19 7 26 37 82 56 52 67
REMARK Flexibility Score: inf
ROOT
ATOM      1  C   UNL     1      -1.126  15.323  -1.637  1.00  0.00     0.002 C 
ENDROOT
BRANCH   1   2
ATOM      2  C   UNL     1      -1.032  13.829  -1.313  1.00  0.00     0.021 C 
BRANCH   2   3
ATOM      3  C   UNL     1       0.284  13.425  -0.652  1.00  0.00     0.116 C 
BRANCH   3   4
ATOM      4  N   UNL     1       0.376  13.966   0.696  1.00  0.00    -0.356 N 
ATOM      5  C   UNL     1       0.476  13.339   1.900  1.00  0.00     0.223 C 
ATOM      6  O   UNL     1       0.477  14.031   2.920  1.00  0.00    -0.275 OA
ATOM      7  H   UNL     1       0.364  14.950   0.746  1.00  0.00     0.163 HD
BRANCH   5   8
ATOM      8  C   UNL     1       0.618  11.828   1.992  1.00  0.00     0.082 C 
ATOM      9  N   UNL     1       0.830   9.512   0.389  1.00  0.00    -0.351 N 
ATOM     10  C   UNL     1      -0.419   9.653   1.123  1.00  0.00     0.119 C 
ATOM     11  C   UNL     1       2.041   9.911   1.082  1.00  0.00     0.119 C 
ATOM     12  C   UNL     1      -0.646  11.112   1.484  1.00  0.00     0.035 C 
ATOM     13  C   UNL     1       1.959  11.401   1.368  1.00  0.00     0.035 C 
BRANCH   9  14
ATOM     14  C   UNL     1       0.813   8.782  -0.774  1.00  0.00     0.215 A 
ATOM     15  C   UNL     1       1.318   6.956  -2.195  1.00  0.00     0.305 A 
ATOM     16  N   UNL     1       0.517   7.433  -3.167  1.00  0.00    -0.195 NA
ATOM     17  C   UNL     1       1.539   7.631  -1.013  1.00  0.00     0.373 A 
ATOM     18  C   UNL     1      -0.110   8.576  -2.888  1.00  0.00     0.228 A 
ATOM     19  N   UNL     1      -0.027   9.250  -1.728  1.00  0.00    -0.212 NA
BRANCH  15  20
ATOM     20  O   UNL     1       1.886   5.738  -2.482  1.00  0.00    -0.434 OA
BRANCH  20  21
ATOM     21  C   UNL     1       1.430   4.631  -1.795  1.00  0.00     0.129 A 
ATOM     22  C   UNL     1       0.798   2.279  -0.371  1.00  0.00    -0.048 A 
ATOM     23  C   UNL     1       1.878   2.308  -1.262  1.00  0.00     0.007 A 
ATOM     24  C   UNL     1       0.027   3.441  -0.223  1.00  0.00     0.007 A 
ATOM     25  C   UNL     1       2.189   3.474  -1.968  1.00  0.00     0.047 A 
ATOM     26  C   UNL     1       0.320   4.599  -0.948  1.00  0.00     0.047 A 
BRANCH  22  27
ATOM     27  C   UNL     1       0.460   1.081   0.485  1.00  0.00     0.032 C 
ATOM     28  C   UNL     1       0.941  -0.269  -0.028  1.00  0.00     0.009 C 
ENDBRANCH  22  27
ENDBRANCH  20  21
ENDBRANCH  15  20
BRANCH  17  29
ATOM     29  N   UNL     1       2.403   7.069  -0.026  1.00  0.00     0.072 N 
ATOM     30  O   UNL     1       1.894   6.702   1.044  1.00  0.00    -0.258 OA
ATOM     31  O   UNL     1       3.610   7.013  -0.296  1.00  0.00    -0.258 OA
ENDBRANCH  17  29
ENDBRANCH   9  14
ENDBRANCH   5   8
ENDBRANCH   3   4
ENDBRANCH   2   3
ENDBRANCH   1   2
BRANCH   1  32
ATOM     32  C   UNL     1      -0.006  15.855  -2.538  1.00  0.00     0.002 C 
BRANCH  32  33
ATOM     33  C   UNL     1       0.174  15.099  -3.856  1.00  0.00     0.021 C 
BRANCH  33  34
ATOM     34  C   UNL     1      -1.074  15.050  -4.730  1.00  0.00     0.116 C 
BRANCH  34  35
ATOM     35  N   UNL     1      -1.507  16.379  -5.132  1.00  0.00    -0.352 N 
ATOM     36  C   UNL     1      -1.731  16.872  -6.391  1.00  0.00     0.251 C 
ATOM     37  H   UNL     1      -1.661  17.014  -4.396  1.00  0.00     0.163 HD
ATOM     38  O   UNL     1      -1.885  18.080  -6.561  1.00  0.00    -0.269 OA
BRANCH  36  39
ATOM     39  C   UNL     1      -1.769  15.948  -7.543  1.00  0.00     0.039 A 
ATOM     40  C   UNL     1      -1.087  16.293  -8.712  1.00  0.00     0.014 A 
ATOM     41  C   UNL     1      -2.475  14.744  -7.469  1.00  0.00     0.014 A 
ATOM     42  C   UNL     1      -1.065  15.402  -9.786  1.00  0.00     0.010 A 
ATOM     43  C   UNL     1      -2.389  13.825  -8.510  1.00  0.00     0.010 A 
ATOM     44  C   UNL     1      -1.686  14.146  -9.682  1.00  0.00    -0.014 A 
BRANCH  44  45
ATOM     45  C   UNL     1      -1.607  13.153 -10.784  1.00  0.00     0.031 A 
ATOM     46  C   UNL     1      -2.857  12.706 -11.492  1.00  0.00     0.074 A 
ATOM     47  C   UNL     1      -0.416  12.610 -11.105  1.00  0.00     0.049 A 
ATOM     48  N   UNL     1      -2.993  11.810 -12.437  1.00  0.00    -0.248 NA
ATOM     49  C   UNL     1      -4.122  13.328 -11.069  1.00  0.00     0.031 C 
ATOM     50  C   UNL     1       0.863  12.934 -10.468  1.00  0.00     0.029 A 
ATOM     51  N   UNL     1      -0.086  11.666 -12.045  1.00  0.00    -0.354 N 
ATOM     52  C   UNL     1      -4.355  11.752 -12.710  1.00  0.00     0.074 A 
ATOM     53  C   UNL     1      -5.008  12.662 -11.796  1.00  0.00     0.031 C 
ATOM     54  C   UNL     1       1.840  12.223 -11.054  1.00  0.00     0.029 A 
ATOM     55  C   UNL     1       1.254  11.359 -12.073  1.00  0.00     0.049 A 
ATOM     56  H   UNL     1      -0.747  11.247 -12.643  1.00  0.00     0.167 HD
ATOM     57  C   UNL     1      -5.001  11.020 -13.649  1.00  0.00     0.031 A 
ATOM     58  C   UNL     1       1.936  10.473 -12.825  1.00  0.00     0.031 A 
ATOM     59  C   UNL     1      -4.345  10.117 -14.559  1.00  0.00     0.049 A 
ATOM     60  C   UNL     1       1.192   9.652 -13.843  1.00  0.00     0.074 A 
ATOM     61  C   UNL     1      -4.904   9.370 -15.581  1.00  0.00     0.029 A 
ATOM     62  N   UNL     1      -2.987   9.833 -14.553  1.00  0.00    -0.354 N 
ATOM     63  N   UNL     1      -0.087   9.661 -14.133  1.00  0.00    -0.248 NA
ATOM     64  C   UNL     1       1.986   8.708 -14.642  1.00  0.00     0.031 C 
ATOM     65  C   UNL     1      -3.896   8.587 -16.151  1.00  0.00     0.029 A 
ATOM     66  C   UNL     1      -2.695   8.898 -15.532  1.00  0.00     0.049 A 
ATOM     67  H   UNL     1      -2.328  10.236 -13.943  1.00  0.00     0.167 HD
ATOM     68  C   UNL     1      -0.247   8.745 -15.167  1.00  0.00     0.074 A 
ATOM     69  C   UNL     1       1.068   8.215 -15.463  1.00  0.00     0.031 C 
ATOM     70  C   UNL     1      -1.381   8.375 -15.813  1.00  0.00     0.031 A 
BRANCH  57  71
ATOM     71  C   UNL     1      -6.500  11.157 -13.733  1.00  0.00    -0.014 A 
ATOM     72  C   UNL     1      -7.099  12.349 -14.181  1.00  0.00     0.010 A 
ATOM     73  C   UNL     1      -7.321  10.064 -13.402  1.00  0.00     0.010 A 
ATOM     74  C   UNL     1      -8.490  12.459 -14.255  1.00  0.00     0.020 A 
ATOM     75  C   UNL     1      -8.712  10.159 -13.505  1.00  0.00     0.020 A 
ATOM     76  C   UNL     1      -9.288  11.363 -13.915  1.00  0.00     0.054 A 
BRANCH  76  77
ATOM     77  S   UNL     1     -11.090  11.528 -14.044  1.00  0.00     0.124 S 
ATOM     78  O   UNL     1     -11.390  12.424 -12.930  1.00  0.00    -0.237 OA
ATOM     79  O   UNL     1     -11.263  12.102 -15.376  1.00  0.00    -0.237 OA
ATOM     80  O   UNL     1     -11.576  10.159 -13.889  1.00  0.00    -0.744 OA
ENDBRANCH  76  77
ENDBRANCH  57  71
BRANCH  58  81
ATOM     81  C   UNL     1       3.407  10.322 -12.648  1.00  0.00    -0.014 A 
ATOM     82  C   UNL     1       4.297  10.741 -13.652  1.00  0.00     0.010 A 
ATOM     83  C   UNL     1       3.928   9.765 -11.464  1.00  0.00     0.010 A 
ATOM     84  C   UNL     1       5.677  10.589 -13.486  1.00  0.00     0.020 A 
ATOM     85  C   UNL     1       5.308   9.641 -11.281  1.00  0.00     0.020 A 
ATOM     86  C   UNL     1       6.173  10.043 -12.299  1.00  0.00     0.054 A 
BRANCH  86  87
ATOM     87  S   UNL     1       7.970   9.902 -12.086  1.00  0.00     0.124 S 
ATOM     88  O   UNL     1       8.300   8.817 -13.004  1.00  0.00    -0.237 OA
ATOM     89  O   UNL     1       8.437  11.229 -12.478  1.00  0.00    -0.237 OA
ATOM     90  O   UNL     1       8.122   9.591 -10.667  1.00  0.00    -0.744 OA
ENDBRANCH  86  87
ENDBRANCH  58  81
BRANCH  70  91
ATOM     91  C   UNL     1      -1.249   7.371 -16.928  1.00  0.00    -0.014 A 
ATOM     92  C   UNL     1      -0.947   6.023 -16.666  1.00  0.00     0.010 A 
ATOM     93  C   UNL     1      -1.485   7.774 -18.256  1.00  0.00     0.010 A 
ATOM     94  C   UNL     1      -0.850   5.104 -17.715  1.00  0.00     0.020 A 
ATOM     95  C   UNL     1      -1.422   6.852 -19.303  1.00  0.00     0.020 A 
ATOM     96  C   UNL     1      -1.090   5.524 -19.027  1.00  0.00     0.054 A 
BRANCH  96  97
ATOM     97  S   UNL     1      -1.002   4.302 -20.364  1.00  0.00     0.124 S 
ATOM     98  O   UNL     1       0.434   4.051 -20.453  1.00  0.00    -0.237 OA
ATOM     99  O   UNL     1      -1.802   3.198 -19.840  1.00  0.00    -0.237 OA
ATOM    100  O   UNL     1      -1.585   4.997 -21.509  1.00  0.00    -0.744 OA
ENDBRANCH  96  97
ENDBRANCH  70  91
ENDBRANCH  44  45
ENDBRANCH  36  39
ENDBRANCH  34  35
ENDBRANCH  33  34
ENDBRANCH  32  33
ENDBRANCH   1  32
TORSDOF 21
