REMARK SMILES CCc1ccnc(C(=O)c2[nH]c3ccc(OC(F)(F)F)cc3c2CC(=O)NCCCCCCNC(=O)c2ccc(-c3c4nc(c(-c5ccc(S(=O)(=O)[O-])cc5)c5ccc([nH]5)c(-c5ccc(S(=O)(=O)[O-])cc5)c5nc(c(-c6ccc(S(=O)(=O)[O-])cc6)c6ccc3[nH]6)C=C5)C=C4)cc2)c1
REMARK SMILES IDX 30 1 29 2 28 3 27 4 25 5 26 6 24 8 23 9 10 10 11 11 12 12
REMARK SMILES IDX 22 14 13 15 21 16 14 17 15 18 8 19 9 20 7 21 3 22 4 23 97 24
REMARK SMILES IDX 5 25 6 26 2 27 1 28 16 29 17 30 18 31 19 32 20 33 31 34
REMARK SMILES IDX 32 35 33 36 34 37 35 38 36 40 37 41 38 42 96 43 39 44 95 45
REMARK SMILES IDX 40 46 41 47 42 48 89 49 43 50 94 51 88 52 90 53 44 54 93 55
REMARK SMILES IDX 87 56 86 57 45 59 75 60 56 61 74 62 57 63 60 64 73 65 91 66
REMARK SMILES IDX 58 67 59 68 72 70 92 71 61 72 46 73 47 74 55 75 48 76 54 77
REMARK SMILES IDX 49 78 50 79 51 80 52 81 53 82 76 83 77 84 85 85 78 86 84 87
REMARK SMILES IDX 79 88 80 89 81 90 82 91 83 92 62 93 63 94 71 95 64 96 70 97
REMARK SMILES IDX 65 98 66 99 67 100 68 101 69 102
REMARK H PARENT 27 7 11 13 34 39 90 58 60 69
REMARK Flexibility Score: inf
ROOT
ATOM      1  C   UNL     1       7.375  -3.052  -8.315  1.00  0.00     0.002 C 
ENDROOT
BRANCH   1   2
ATOM      2  C   UNL     1       6.463  -1.846  -8.054  1.00  0.00     0.021 C 
BRANCH   2   3
ATOM      3  C   UNL     1       5.262  -1.736  -8.993  1.00  0.00     0.116 C 
BRANCH   3   4
ATOM      4  N   UNL     1       4.272  -2.766  -8.748  1.00  0.00    -0.356 N 
ATOM      5  C   UNL     1       3.059  -2.675  -8.126  1.00  0.00     0.224 C 
ATOM      6  O   UNL     1       2.329  -3.670  -8.127  1.00  0.00    -0.275 OA
ATOM      7  H   UNL     1       4.508  -3.663  -9.078  1.00  0.00     0.163 HD
BRANCH   5   8
ATOM      8  C   UNL     1       2.566  -1.351  -7.563  1.00  0.00     0.138 C 
BRANCH   8   9
ATOM      9  C   UNL     1       3.386  -0.783  -6.440  1.00  0.00    -0.002 A 
ATOM     10  C   UNL     1       3.639  -1.355  -5.197  1.00  0.00     0.093 A 
ATOM     11  N   UNL     1       4.509  -0.523  -4.530  1.00  0.00    -0.352 N 
ATOM     12  C   UNL     1       4.702   0.640  -5.233  1.00  0.00     0.046 A 
ATOM     13  H   UNL     1       4.934  -0.733  -3.668  1.00  0.00     0.167 HD
ATOM     14  C   UNL     1       4.005   0.514  -6.430  1.00  0.00     0.008 A 
ATOM     15  C   UNL     1       5.446   1.778  -4.907  1.00  0.00     0.030 A 
ATOM     16  C   UNL     1       4.046   1.592  -7.339  1.00  0.00     0.057 A 
ATOM     17  C   UNL     1       5.472   2.831  -5.831  1.00  0.00     0.049 A 
ATOM     18  C   UNL     1       4.780   2.749  -7.038  1.00  0.00     0.130 A 
BRANCH  10  19
ATOM     19  C   UNL     1       3.180  -2.619  -4.649  1.00  0.00     0.227 C 
ATOM     20  O   UNL     1       3.621  -3.686  -5.062  1.00  0.00    -0.285 OA
BRANCH  19  21
ATOM     21  C   UNL     1       2.173  -2.584  -3.519  1.00  0.00     0.113 A 
ATOM     22  C   UNL     1       0.757  -1.423  -1.947  1.00  0.00    -0.044 A 
ATOM     23  C   UNL     1       0.389  -2.666  -1.430  1.00  0.00     0.024 A 
ATOM     24  C   UNL     1       1.655  -1.387  -3.022  1.00  0.00     0.036 A 
ATOM     25  C   UNL     1       0.939  -3.807  -1.990  1.00  0.00     0.112 A 
ATOM     26  N   UNL     1       1.824  -3.793  -3.006  1.00  0.00    -0.253 NA
BRANCH  22  27
ATOM     27  C   UNL     1       0.218  -0.150  -1.346  1.00  0.00     0.032 C 
ATOM     28  C   UNL     1       0.861   0.160  -0.001  1.00  0.00     0.009 C 
ENDBRANCH  22  27
ENDBRANCH  19  21
ENDBRANCH  10  19
BRANCH  18  29
ATOM     29  O   UNL     1       4.728   3.706  -8.012  1.00  0.00    -0.406 OA
BRANCH  29  30
ATOM     30  C   UNL     1       5.444   4.912  -7.799  1.00  0.00     0.573 C 
ATOM     31  F   UNL     1       4.985   5.555  -6.704  1.00  0.00    -0.132 F 
ATOM     32  F   UNL     1       6.765   4.674  -7.665  1.00  0.00    -0.132 F 
ATOM     33  F   UNL     1       5.260   5.717  -8.867  1.00  0.00    -0.132 F 
ENDBRANCH  29  30
ENDBRANCH  18  29
ENDBRANCH   8   9
ENDBRANCH   5   8
ENDBRANCH   3   4
ENDBRANCH   2   3
ENDBRANCH   1   2
BRANCH   1  34
ATOM     34  C   UNL     1       8.015  -3.119  -9.706  1.00  0.00     0.002 C 
BRANCH  34  35
ATOM     35  C   UNL     1       8.788  -1.873 -10.152  1.00  0.00     0.021 C 
BRANCH  35  36
ATOM     36  C   UNL     1       9.953  -1.460  -9.252  1.00  0.00     0.116 C 
BRANCH  36  37
ATOM     37  N   UNL     1      11.018  -2.447  -9.233  1.00  0.00    -0.352 N 
ATOM     38  C   UNL     1      12.374  -2.275  -9.360  1.00  0.00     0.251 C 
ATOM     39  H   UNL     1      10.724  -3.379  -9.112  1.00  0.00     0.163 HD
ATOM     40  O   UNL     1      13.103  -3.259  -9.475  1.00  0.00    -0.269 OA
BRANCH  38  41
ATOM     41  C   UNL     1      12.969  -0.918  -9.382  1.00  0.00     0.039 A 
ATOM     42  C   UNL     1      13.957  -0.635 -10.333  1.00  0.00     0.014 A 
ATOM     43  C   UNL     1      12.602   0.057  -8.449  1.00  0.00     0.014 A 
ATOM     44  C   UNL     1      14.536   0.636 -10.384  1.00  0.00     0.010 A 
ATOM     45  C   UNL     1      13.157   1.337  -8.522  1.00  0.00     0.010 A 
ATOM     46  C   UNL     1      14.126   1.638  -9.491  1.00  0.00    -0.014 A 
BRANCH  46  47
ATOM     47  C   UNL     1      14.694   3.007  -9.565  1.00  0.00     0.031 A 
ATOM     48  C   UNL     1      15.636   3.500  -8.502  1.00  0.00     0.074 A 
ATOM     49  C   UNL     1      14.319   3.831 -10.561  1.00  0.00     0.049 A 
ATOM     50  N   UNL     1      16.168   4.687  -8.361  1.00  0.00    -0.248 NA
ATOM     51  C   UNL     1      16.014   2.538  -7.456  1.00  0.00     0.031 C 
ATOM     52  C   UNL     1      13.394   3.488 -11.643  1.00  0.00     0.029 A 
ATOM     53  N   UNL     1      14.665   5.134 -10.818  1.00  0.00    -0.354 N 
ATOM     54  C   UNL     1      16.924   4.626  -7.197  1.00  0.00     0.074 A 
ATOM     55  C   UNL     1      16.772   3.287  -6.666  1.00  0.00     0.031 C 
ATOM     56  C   UNL     1      13.253   4.552 -12.451  1.00  0.00     0.029 A 
ATOM     57  C   UNL     1      14.057   5.655 -11.934  1.00  0.00     0.049 A 
ATOM     58  H   UNL     1      15.290   5.647 -10.255  1.00  0.00     0.167 HD
ATOM     59  C   UNL     1      17.678   5.593  -6.621  1.00  0.00     0.031 A 
ATOM     60  C   UNL     1      14.131   6.884 -12.478  1.00  0.00     0.031 A 
ATOM     61  C   UNL     1      17.851   6.919  -7.150  1.00  0.00     0.049 A 
ATOM     62  C   UNL     1      14.995   7.932 -11.840  1.00  0.00     0.074 A 
ATOM     63  C   UNL     1      18.627   7.952  -6.652  1.00  0.00     0.029 A 
ATOM     64  N   UNL     1      17.242   7.396  -8.300  1.00  0.00    -0.354 N 
ATOM     65  N   UNL     1      15.722   7.846 -10.752  1.00  0.00    -0.248 NA
ATOM     66  C   UNL     1      15.051   9.241 -12.506  1.00  0.00     0.031 C 
ATOM     67  C   UNL     1      18.474   9.061  -7.495  1.00  0.00     0.029 A 
ATOM     68  C   UNL     1      17.618   8.709  -8.525  1.00  0.00     0.049 A 
ATOM     69  H   UNL     1      16.632   6.877  -8.872  1.00  0.00     0.167 HD
ATOM     70  C   UNL     1      16.329   9.087 -10.607  1.00  0.00     0.074 A 
ATOM     71  C   UNL     1      15.893   9.903 -11.722  1.00  0.00     0.031 C 
ATOM     72  C   UNL     1      17.174   9.510  -9.636  1.00  0.00     0.031 A 
BRANCH  59  73
ATOM     73  C   UNL     1      18.359   5.241  -5.330  1.00  0.00    -0.014 A 
ATOM     74  C   UNL     1      19.538   4.475  -5.323  1.00  0.00     0.010 A 
ATOM     75  C   UNL     1      17.810   5.676  -4.111  1.00  0.00     0.010 A 
ATOM     76  C   UNL     1      20.131   4.108  -4.112  1.00  0.00     0.020 A 
ATOM     77  C   UNL     1      18.409   5.323  -2.900  1.00  0.00     0.020 A 
ATOM     78  C   UNL     1      19.553   4.521  -2.908  1.00  0.00     0.054 A 
BRANCH  78  79
ATOM     79  S   UNL     1      20.320   4.025  -1.340  1.00  0.00     0.124 S 
ATOM     80  O   UNL     1      19.720   2.712  -1.117  1.00  0.00    -0.237 OA
ATOM     81  O   UNL     1      21.746   4.018  -1.656  1.00  0.00    -0.237 OA
ATOM     82  O   UNL     1      19.898   5.070  -0.410  1.00  0.00    -0.744 OA
ENDBRANCH  78  79
ENDBRANCH  59  73
BRANCH  60  83
ATOM     83  C   UNL     1      13.364   7.182 -13.713  1.00  0.00    -0.014 A 
ATOM     84  C   UNL     1      14.000   7.143 -14.965  1.00  0.00     0.010 A 
ATOM     85  C   UNL     1      11.989   7.463 -13.643  1.00  0.00     0.010 A 
ATOM     86  C   UNL     1      13.271   7.380 -16.133  1.00  0.00     0.020 A 
ATOM     87  C   UNL     1      11.255   7.689 -14.811  1.00  0.00     0.020 A 
ATOM     88  C   UNL     1      11.903   7.651 -16.048  1.00  0.00     0.054 A 
BRANCH  88  89
ATOM     89  S   UNL     1      10.945   7.875 -17.574  1.00  0.00     0.124 S 
ATOM     90  O   UNL     1      11.128   9.298 -17.840  1.00  0.00    -0.237 OA
ATOM     91  O   UNL     1      11.606   6.966 -18.509  1.00  0.00    -0.237 OA
ATOM     92  O   UNL     1       9.596   7.475 -17.182  1.00  0.00    -0.744 OA
ENDBRANCH  88  89
ENDBRANCH  60  83
BRANCH  72  93
ATOM     93  C   UNL     1      17.690  10.915  -9.744  1.00  0.00    -0.014 A 
ATOM     94  C   UNL     1      16.911  12.000  -9.308  1.00  0.00     0.010 A 
ATOM     95  C   UNL     1      18.979  11.150 -10.253  1.00  0.00     0.010 A 
ATOM     96  C   UNL     1      17.406  13.304  -9.397  1.00  0.00     0.020 A 
ATOM     97  C   UNL     1      19.481  12.451 -10.334  1.00  0.00     0.020 A 
ATOM     98  C   UNL     1      18.686  13.522  -9.917  1.00  0.00     0.054 A 
BRANCH  98  99
ATOM     99  S   UNL     1      19.337  15.214  -9.991  1.00  0.00     0.124 S 
ATOM    100  O   UNL     1      18.796  15.692 -11.260  1.00  0.00    -0.237 OA
ATOM    101  O   UNL     1      18.775  15.837  -8.794  1.00  0.00    -0.237 OA
ATOM    102  O   UNL     1      20.785  15.023  -9.960  1.00  0.00    -0.744 OA
ENDBRANCH  98  99
ENDBRANCH  72  93
ENDBRANCH  46  47
ENDBRANCH  38  41
ENDBRANCH  36  37
ENDBRANCH  35  36
ENDBRANCH  34  35
ENDBRANCH   1  34
TORSDOF 22
