REMARK SMILES O=C(NCCCCCCNC(=O)c1cccc2cccc([S@](=O)c3ccccc3CO)c12)c1ccc(-c2c3nc(c(-c4ccc(S(=O)(=O)[O-])cc4)c4ccc([nH]4)c(-c4ccc(S(=O)(=O)[O-])cc4)c4nc(c(-c5ccc(S(=O)(=O)[O-])cc5)c5ccc2[nH]5)C=C4)C=C3)cc1
REMARK SMILES IDX 7 1 6 2 5 3 4 4 3 5 1 6 2 7 33 9 34 10 92 11 35 12 91 13
REMARK SMILES IDX 36 14 37 15 38 16 85 17 39 18 90 19 84 20 86 21 40 22 89 23
REMARK SMILES IDX 83 24 82 25 41 27 71 28 52 29 70 30 53 31 56 32 69 33 87 34
REMARK SMILES IDX 54 35 55 36 68 38 88 39 57 40 42 41 43 42 51 43 44 44 50 45
REMARK SMILES IDX 45 46 46 47 47 48 48 49 49 50 72 51 73 52 81 53 74 54 80 55
REMARK SMILES IDX 75 56 76 57 77 58 78 59 79 60 58 61 59 62 67 63 60 64 66 65
REMARK SMILES IDX 61 66 62 67 63 68 64 69 65 70 8 71 9 72 10 73 11 74 12 76
REMARK SMILES IDX 13 77 14 78 32 79 15 80 17 81 21 82 16 83 18 84 20 85 19 86
REMARK SMILES IDX 22 87 23 88 24 89 25 90 29 91 26 92 28 93 27 94 30 95 31 96
REMARK H PARENT 3 8 86 26 56 37 10 75 31 97
REMARK Flexibility Score: inf
ROOT
ATOM      1  C   UNL     1      12.335   9.380   1.851  1.00  0.00     0.002 C 
ENDROOT
BRANCH   1   2
ATOM      2  C   UNL     1      13.770   8.959   1.516  1.00  0.00     0.002 C 
BRANCH   2   3
ATOM      3  C   UNL     1      14.838  10.046   1.641  1.00  0.00     0.021 C 
BRANCH   3   4
ATOM      4  C   UNL     1      14.926  10.728   3.001  1.00  0.00     0.116 C 
BRANCH   4   5
ATOM      5  N   UNL     1      15.355   9.825   4.056  1.00  0.00    -0.352 N 
ATOM      6  O   UNL     1      16.704   8.999   5.660  1.00  0.00    -0.269 OA
ATOM      7  C   UNL     1      16.409   9.941   4.933  1.00  0.00     0.251 C 
ATOM      8  H   UNL     1      14.810   9.012   4.160  1.00  0.00     0.163 HD
BRANCH   7   9
ATOM      9  C   UNL     1      17.203  11.192   4.984  1.00  0.00     0.039 A 
ATOM     10  C   UNL     1      16.579  12.441   4.971  1.00  0.00     0.014 A 
ATOM     11  C   UNL     1      18.596  11.111   5.072  1.00  0.00     0.014 A 
ATOM     12  C   UNL     1      17.347  13.601   4.914  1.00  0.00     0.010 A 
ATOM     13  C   UNL     1      19.365  12.280   5.097  1.00  0.00     0.010 A 
ATOM     14  C   UNL     1      18.748  13.535   4.993  1.00  0.00    -0.014 A 
BRANCH  14  15
ATOM     15  C   UNL     1      19.533  14.796   5.045  1.00  0.00     0.031 A 
ATOM     16  C   UNL     1      20.483  15.176   3.942  1.00  0.00     0.074 A 
ATOM     17  C   UNL     1      19.358  15.619   6.099  1.00  0.00     0.049 A 
ATOM     18  N   UNL     1      21.209  16.259   3.823  1.00  0.00    -0.248 NA
ATOM     19  C   UNL     1      20.644  14.222   2.834  1.00  0.00     0.031 C 
ATOM     20  C   UNL     1      18.474  15.352   7.238  1.00  0.00     0.029 A 
ATOM     21  N   UNL     1      19.893  16.850   6.378  1.00  0.00    -0.354 N 
ATOM     22  C   UNL     1      21.924  16.114   2.639  1.00  0.00     0.074 A 
ATOM     23  C   UNL     1      21.561  14.825   2.087  1.00  0.00     0.031 C 
ATOM     24  C   UNL     1      18.490  16.407   8.065  1.00  0.00     0.029 A 
ATOM     25  C   UNL     1      19.429  17.397   7.551  1.00  0.00     0.049 A 
ATOM     26  H   UNL     1      20.548  17.299   5.795  1.00  0.00     0.167 HD
ATOM     27  C   UNL     1      22.798  16.976   2.065  1.00  0.00     0.031 A 
ATOM     28  C   UNL     1      19.731  18.560   8.158  1.00  0.00     0.031 A 
ATOM     29  C   UNL     1      23.158  18.256   2.621  1.00  0.00     0.049 A 
ATOM     30  C   UNL     1      20.722  19.484   7.512  1.00  0.00     0.074 A 
ATOM     31  C   UNL     1      24.012  19.212   2.096  1.00  0.00     0.029 A 
ATOM     32  N   UNL     1      22.692  18.758   3.827  1.00  0.00    -0.354 N 
ATOM     33  N   UNL     1      21.357  19.342   6.374  1.00  0.00    -0.248 NA
ATOM     34  C   UNL     1      21.035  20.725   8.232  1.00  0.00     0.031 C 
ATOM     35  C   UNL     1      24.100  20.270   3.009  1.00  0.00     0.029 A 
ATOM     36  C   UNL     1      23.259  19.997   4.076  1.00  0.00     0.049 A 
ATOM     37  H   UNL     1      22.053  18.300   4.420  1.00  0.00     0.167 HD
ATOM     38  C   UNL     1      22.138  20.482   6.234  1.00  0.00     0.074 A 
ATOM     39  C   UNL     1      21.876  21.313   7.392  1.00  0.00     0.031 C 
ATOM     40  C   UNL     1      22.998  20.808   5.238  1.00  0.00     0.031 A 
BRANCH  27  41
ATOM     41  C   UNL     1      23.448  16.558   0.771  1.00  0.00    -0.014 A 
ATOM     42  C   UNL     1      22.724  16.536  -0.434  1.00  0.00     0.010 A 
ATOM     43  C   UNL     1      24.820  16.245   0.749  1.00  0.00     0.010 A 
ATOM     44  C   UNL     1      23.351  16.175  -1.630  1.00  0.00     0.020 A 
ATOM     45  C   UNL     1      25.456  15.906  -0.449  1.00  0.00     0.020 A 
ATOM     46  C   UNL     1      24.713  15.859  -1.630  1.00  0.00     0.054 A 
BRANCH  46  47
ATOM     47  S   UNL     1      25.506  15.421  -3.202  1.00  0.00     0.124 S 
ATOM     48  O   UNL     1      24.983  14.078  -3.439  1.00  0.00    -0.237 OA
ATOM     49  O   UNL     1      25.014  16.455  -4.109  1.00  0.00    -0.237 OA
ATOM     50  O   UNL     1      26.934  15.489  -2.901  1.00  0.00    -0.744 OA
ENDBRANCH  46  47
ENDBRANCH  27  41
BRANCH  28  51
ATOM     51  C   UNL     1      19.095  18.900   9.459  1.00  0.00    -0.014 A 
ATOM     52  C   UNL     1      18.145  19.932   9.545  1.00  0.00     0.010 A 
ATOM     53  C   UNL     1      19.419  18.168  10.616  1.00  0.00     0.010 A 
ATOM     54  C   UNL     1      17.542  20.235  10.769  1.00  0.00     0.020 A 
ATOM     55  C   UNL     1      18.797  18.449  11.834  1.00  0.00     0.020 A 
ATOM     56  C   UNL     1      17.870  19.490  11.905  1.00  0.00     0.054 A 
BRANCH  56  57
ATOM     57  S   UNL     1      17.036  19.863  13.472  1.00  0.00     0.124 S 
ATOM     58  O   UNL     1      17.719  21.081  13.896  1.00  0.00    -0.237 OA
ATOM     59  O   UNL     1      15.644  20.029  13.059  1.00  0.00    -0.237 OA
ATOM     60  O   UNL     1      17.297  18.680  14.288  1.00  0.00    -0.744 OA
ENDBRANCH  56  57
ENDBRANCH  28  51
BRANCH  40  61
ATOM     61  C   UNL     1      23.703  22.133   5.351  1.00  0.00    -0.014 A 
ATOM     62  C   UNL     1      24.737  22.328   6.283  1.00  0.00     0.010 A 
ATOM     63  C   UNL     1      23.345  23.186   4.491  1.00  0.00     0.010 A 
ATOM     64  C   UNL     1      25.377  23.566   6.378  1.00  0.00     0.020 A 
ATOM     65  C   UNL     1      24.001  24.418   4.565  1.00  0.00     0.020 A 
ATOM     66  C   UNL     1      25.002  24.605   5.520  1.00  0.00     0.054 A 
BRANCH  66  67
ATOM     67  S   UNL     1      25.868  26.194   5.640  1.00  0.00     0.124 S 
ATOM     68  O   UNL     1      25.284  26.767   6.850  1.00  0.00    -0.237 OA
ATOM     69  O   UNL     1      27.268  25.791   5.747  1.00  0.00    -0.237 OA
ATOM     70  O   UNL     1      25.516  26.874   4.396  1.00  0.00    -0.744 OA
ENDBRANCH  66  67
ENDBRANCH  40  61
ENDBRANCH  14  15
ENDBRANCH   7   9
ENDBRANCH   4   5
ENDBRANCH   3   4
ENDBRANCH   2   3
ENDBRANCH   1   2
BRANCH   1  71
ATOM     71  C   UNL     1      11.800  10.614   1.119  1.00  0.00     0.021 C 
BRANCH  71  72
ATOM     72  C   UNL     1      11.925  10.595  -0.402  1.00  0.00     0.116 C 
BRANCH  72  73
ATOM     73  N   UNL     1      11.230   9.481  -1.028  1.00  0.00    -0.352 N 
ATOM     74  C   UNL     1      10.267   9.503  -2.011  1.00  0.00     0.251 C 
ATOM     75  H   UNL     1      11.483   8.588  -0.702  1.00  0.00     0.163 HD
ATOM     76  O   UNL     1       9.818   8.465  -2.488  1.00  0.00    -0.269 OA
BRANCH  74  77
ATOM     77  C   UNL     1       9.867  10.798  -2.593  1.00  0.00     0.048 A 
ATOM     78  C   UNL     1      10.913  11.412  -3.319  1.00  0.00     0.014 A 
ATOM     79  C   UNL     1       8.537  11.354  -2.519  1.00  0.00     0.011 A 
ATOM     80  C   UNL     1      10.720  12.626  -3.947  1.00  0.00     0.001 A 
ATOM     81  C   UNL     1       8.389  12.589  -3.235  1.00  0.00    -0.016 A 
ATOM     82  C   UNL     1       7.344  10.885  -1.841  1.00  0.00     0.052 A 
ATOM     83  C   UNL     1       9.463  13.203  -3.902  1.00  0.00     0.009 A 
ATOM     84  C   UNL     1       7.162  13.262  -3.307  1.00  0.00     0.009 A 
ATOM     85  C   UNL     1       6.129  11.610  -1.941  1.00  0.00     0.019 A 
ATOM     86  C   UNL     1       6.032  12.775  -2.679  1.00  0.00     0.002 A 
BRANCH  82  87
ATOM     87  S   UNL     1       7.176   9.499  -0.680  1.00  0.00     0.086 S 
ATOM     88  O   UNL     1       8.477   9.292   0.017  1.00  0.00    -0.249 OA
BRANCH  87  89
ATOM     89  C   UNL     1       6.809   8.109  -1.805  1.00  0.00     0.049 A 
ATOM     90  C   UNL     1       6.076   8.342  -2.989  1.00  0.00     0.018 A 
ATOM     91  C   UNL     1       7.045   6.763  -1.436  1.00  0.00    -0.006 A 
ATOM     92  C   UNL     1       5.574   7.297  -3.772  1.00  0.00     0.001 A 
ATOM     93  C   UNL     1       6.508   5.721  -2.230  1.00  0.00     0.007 A 
ATOM     94  C   UNL     1       5.776   5.983  -3.383  1.00  0.00     0.000 A 
BRANCH  91  95
ATOM     95  C   UNL     1       7.799   6.321  -0.208  1.00  0.00     0.192 C 
BRANCH  95  96
ATOM     96  O   UNL     1       6.870   5.930   0.797  1.00  0.00    -0.392 OA
ATOM     97  H   UNL     1       6.298   6.681   1.018  1.00  0.00     0.211 HD
ENDBRANCH  95  96
ENDBRANCH  91  95
ENDBRANCH  87  89
ENDBRANCH  82  87
ENDBRANCH  74  77
ENDBRANCH  72  73
ENDBRANCH  71  72
ENDBRANCH   1  71
TORSDOF 20
