REMARK SMILES Nc1c(Nc2ccc(I)cc2)ncnc1Nc1ccc(C(=O)NCCCCCCNC(=O)c2ccc(-c3c4nc(c(-c5ccc(S(=O)(=O)[O-])cc5)c5ccc([nH]5)c(-c5ccc(S(=O)(=O)[O-])cc5)c5nc(c(-c6ccc(S(=O)(=O)[O-])cc6)c6ccc3[nH]6)C=C5)C=C4)cc2)cc1
REMARK SMILES IDX 26 1 25 2 24 3 23 4 21 5 22 6 20 8 17 9 18 10 94 11 19 12
REMARK SMILES IDX 93 13 16 14 15 16 2 17 3 18 12 19 14 20 13 21 1 22 4 25 5 27
REMARK SMILES IDX 6 28 11 29 7 30 10 31 8 32 9 33 27 34 28 35 29 36 30 37
REMARK SMILES IDX 31 38 32 40 33 41 34 42 92 43 35 44 91 45 36 46 37 47 38 48
REMARK SMILES IDX 85 49 39 50 90 51 84 52 86 53 40 54 89 55 83 56 82 57 41 59
REMARK SMILES IDX 71 60 52 61 70 62 53 63 56 64 69 65 87 66 54 67 55 68 68 70
REMARK SMILES IDX 88 71 57 72 42 73 43 74 51 75 44 76 50 77 45 78 46 79 47 80
REMARK SMILES IDX 48 81 49 82 72 83 73 84 81 85 74 86 80 87 75 88 76 89 77 90
REMARK SMILES IDX 78 91 79 92 58 93 59 94 67 95 60 96 66 97 61 98 62 99 63 100
REMARK SMILES IDX 64 101 65 102
REMARK H PARENT 23 7 16 15 1 23 1 24 4 26 30 39 86 58 56 69
REMARK Flexibility Score: inf
ROOT
ATOM      1  C   UNL     1       5.623   3.659  -9.719  1.00  0.00     0.002 C 
ENDROOT
BRANCH   1   2
ATOM      2  C   UNL     1       4.944   3.425  -8.360  1.00  0.00     0.021 C 
BRANCH   2   3
ATOM      3  C   UNL     1       3.598   2.707  -8.475  1.00  0.00     0.116 C 
BRANCH   3   4
ATOM      4  N   UNL     1       3.815   1.292  -8.708  1.00  0.00    -0.352 N 
ATOM      5  C   UNL     1       3.791   0.190  -7.896  1.00  0.00     0.251 C 
ATOM      6  O   UNL     1       4.080  -0.892  -8.414  1.00  0.00    -0.269 OA
ATOM      7  H   UNL     1       4.024   1.079  -9.646  1.00  0.00     0.163 HD
BRANCH   5   8
ATOM      8  C   UNL     1       3.376   0.209  -6.463  1.00  0.00     0.039 A 
ATOM      9  C   UNL     1       2.357   0.055  -3.823  1.00  0.00     0.040 A 
ATOM     10  C   UNL     1       2.367  -1.073  -4.644  1.00  0.00     0.027 A 
ATOM     11  C   UNL     1       2.911   1.242  -4.316  1.00  0.00     0.027 A 
ATOM     12  C   UNL     1       2.861  -0.993  -5.950  1.00  0.00     0.016 A 
ATOM     13  C   UNL     1       3.456   1.308  -5.607  1.00  0.00     0.016 A 
BRANCH   9  14
ATOM     14  N   UNL     1       1.693   0.018  -2.587  1.00  0.00    -0.338 N 
ATOM     15  H   UNL     1       2.022  -0.622  -1.915  1.00  0.00     0.168 HD
BRANCH  14  16
ATOM     16  C   UNL     1       0.584   0.829  -2.226  1.00  0.00     0.159 A 
ATOM     17  C   UNL     1       0.151   0.811  -0.892  1.00  0.00     0.118 A 
ATOM     18  C   UNL     1      -0.985   1.586  -0.622  1.00  0.00     0.159 A 
ATOM     19  N   UNL     1      -1.635   2.272  -1.579  1.00  0.00    -0.217 NA
ATOM     20  N   UNL     1      -0.021   1.566  -3.176  1.00  0.00    -0.217 NA
ATOM     21  C   UNL     1      -1.111   2.241  -2.806  1.00  0.00     0.226 A 
BRANCH  17  22
ATOM     22  N   UNL     1       0.781   0.022   0.079  1.00  0.00    -0.393 N 
ATOM     23  H   UNL     1       0.454   0.031   1.008  1.00  0.00     0.156 HD
ATOM     24  H   UNL     1       1.550  -0.540  -0.166  1.00  0.00     0.156 HD
ENDBRANCH  17  22
BRANCH  18  25
ATOM     25  N   UNL     1      -1.440   1.683   0.719  1.00  0.00    -0.338 N 
ATOM     26  H   UNL     1      -0.852   1.308   1.414  1.00  0.00     0.168 HD
BRANCH  25  27
ATOM     27  C   UNL     1      -2.646   2.261   1.156  1.00  0.00     0.040 A 
ATOM     28  C   UNL     1      -2.631   3.193   2.202  1.00  0.00     0.027 A 
ATOM     29  C   UNL     1      -3.863   1.997   0.515  1.00  0.00     0.027 A 
ATOM     30  C   UNL     1      -3.800   3.857   2.587  1.00  0.00     0.017 A 
ATOM     31  C   UNL     1      -5.039   2.646   0.904  1.00  0.00     0.017 A 
ATOM     32  C   UNL     1      -5.000   3.581   1.935  1.00  0.00     0.013 A 
ATOM     33  I   UNL     1      -6.733   4.586   2.486  1.00  0.00    -0.044 I 
ENDBRANCH  25  27
ENDBRANCH  18  25
ENDBRANCH  14  16
ENDBRANCH   9  14
ENDBRANCH   5   8
ENDBRANCH   3   4
ENDBRANCH   2   3
ENDBRANCH   1   2
BRANCH   1  34
ATOM     34  C   UNL     1       4.874   4.609 -10.663  1.00  0.00     0.002 C 
BRANCH  34  35
ATOM     35  C   UNL     1       4.531   5.976 -10.069  1.00  0.00     0.021 C 
BRANCH  35  36
ATOM     36  C   UNL     1       5.741   6.780  -9.604  1.00  0.00     0.116 C 
BRANCH  36  37
ATOM     37  N   UNL     1       6.582   7.186 -10.720  1.00  0.00    -0.352 N 
ATOM     38  C   UNL     1       6.938   8.454 -11.114  1.00  0.00     0.251 C 
ATOM     39  H   UNL     1       6.945   6.452 -11.268  1.00  0.00     0.163 HD
ATOM     40  O   UNL     1       7.477   8.639 -12.197  1.00  0.00    -0.269 OA
BRANCH  38  41
ATOM     41  C   UNL     1       6.644   9.594 -10.220  1.00  0.00     0.039 A 
ATOM     42  C   UNL     1       6.004  10.718 -10.744  1.00  0.00     0.014 A 
ATOM     43  C   UNL     1       6.981   9.537  -8.864  1.00  0.00     0.014 A 
ATOM     44  C   UNL     1       5.648  11.764  -9.890  1.00  0.00     0.010 A 
ATOM     45  C   UNL     1       6.564  10.549  -8.004  1.00  0.00     0.010 A 
ATOM     46  C   UNL     1       5.897  11.674  -8.509  1.00  0.00    -0.014 A 
BRANCH  46  47
ATOM     47  C   UNL     1       5.457  12.754  -7.592  1.00  0.00     0.031 A 
ATOM     48  C   UNL     1       6.473  13.597  -6.872  1.00  0.00     0.074 A 
ATOM     49  C   UNL     1       4.140  12.962  -7.396  1.00  0.00     0.049 A 
ATOM     50  N   UNL     1       6.276  14.617  -6.077  1.00  0.00    -0.248 NA
ATOM     51  C   UNL     1       7.890  13.241  -7.051  1.00  0.00     0.031 C 
ATOM     52  C   UNL     1       3.061  12.177  -8.000  1.00  0.00     0.029 A 
ATOM     53  N   UNL     1       3.482  13.905  -6.646  1.00  0.00    -0.354 N 
ATOM     54  C   UNL     1       7.539  15.026  -5.667  1.00  0.00     0.074 A 
ATOM     55  C   UNL     1       8.492  14.107  -6.248  1.00  0.00     0.031 C 
ATOM     56  C   UNL     1       1.879  12.703  -7.640  1.00  0.00     0.029 A 
ATOM     57  C   UNL     1       2.113  13.843  -6.758  1.00  0.00     0.049 A 
ATOM     58  H   UNL     1       3.947  14.565  -6.082  1.00  0.00     0.167 HD
ATOM     59  C   UNL     1       7.878  16.090  -4.903  1.00  0.00     0.031 A 
ATOM     60  C   UNL     1       1.153  14.626  -6.228  1.00  0.00     0.031 A 
ATOM     61  C   UNL     1       6.928  17.008  -4.336  1.00  0.00     0.049 A 
ATOM     62  C   UNL     1       1.552  15.796  -5.372  1.00  0.00     0.074 A 
ATOM     63  C   UNL     1       7.174  18.142  -3.584  1.00  0.00     0.029 A 
ATOM     64  N   UNL     1       5.552  16.898  -4.462  1.00  0.00    -0.354 N 
ATOM     65  N   UNL     1       2.756  16.207  -5.054  1.00  0.00    -0.248 NA
ATOM     66  C   UNL     1       0.467  16.614  -4.811  1.00  0.00     0.031 C 
ATOM     67  C   UNL     1       5.944  18.696  -3.218  1.00  0.00     0.029 A 
ATOM     68  C   UNL     1       4.934  17.933  -3.784  1.00  0.00     0.049 A 
ATOM     69  H   UNL     1       5.084  16.189  -4.959  1.00  0.00     0.167 HD
ATOM     70  C   UNL     1       2.575  17.345  -4.277  1.00  0.00     0.074 A 
ATOM     71  C   UNL     1       1.146  17.562  -4.176  1.00  0.00     0.031 C 
ATOM     72  C   UNL     1       3.510  18.139  -3.702  1.00  0.00     0.031 A 
BRANCH  59  73
ATOM     73  C   UNL     1       9.342  16.330  -4.651  1.00  0.00    -0.014 A 
ATOM     74  C   UNL     1      10.180  16.789  -5.683  1.00  0.00     0.010 A 
ATOM     75  C   UNL     1       9.877  16.145  -3.364  1.00  0.00     0.010 A 
ATOM     76  C   UNL     1      11.535  17.026  -5.441  1.00  0.00     0.020 A 
ATOM     77  C   UNL     1      11.227  16.405  -3.112  1.00  0.00     0.020 A 
ATOM     78  C   UNL     1      12.051  16.830  -4.157  1.00  0.00     0.054 A 
BRANCH  78  79
ATOM     79  S   UNL     1      13.808  17.171  -3.869  1.00  0.00     0.124 S 
ATOM     80  O   UNL     1      14.448  16.055  -4.561  1.00  0.00    -0.237 OA
ATOM     81  O   UNL     1      13.987  18.481  -4.490  1.00  0.00    -0.237 OA
ATOM     82  O   UNL     1      13.932  17.152  -2.413  1.00  0.00    -0.744 OA
ENDBRANCH  78  79
ENDBRANCH  59  73
BRANCH  60  83
ATOM     83  C   UNL     1      -0.276  14.357  -6.542  1.00  0.00    -0.014 A 
ATOM     84  C   UNL     1      -0.980  15.201  -7.418  1.00  0.00     0.010 A 
ATOM     85  C   UNL     1      -0.929  13.235  -6.000  1.00  0.00     0.010 A 
ATOM     86  C   UNL     1      -2.312  14.933  -7.744  1.00  0.00     0.020 A 
ATOM     87  C   UNL     1      -2.256  12.951  -6.340  1.00  0.00     0.020 A 
ATOM     88  C   UNL     1      -2.941  13.806  -7.206  1.00  0.00     0.054 A 
BRANCH  88  89
ATOM     89  S   UNL     1      -4.651  13.444  -7.695  1.00  0.00     0.124 S 
ATOM     90  O   UNL     1      -5.396  14.476  -6.982  1.00  0.00    -0.237 OA
ATOM     91  O   UNL     1      -4.599  13.588  -9.148  1.00  0.00    -0.237 OA
ATOM     92  O   UNL     1      -4.859  12.078  -7.220  1.00  0.00    -0.744 OA
ENDBRANCH  88  89
ENDBRANCH  60  83
BRANCH  72  93
ATOM     93  C   UNL     1       3.039  19.334  -2.921  1.00  0.00    -0.014 A 
ATOM     94  C   UNL     1       2.526  19.186  -1.621  1.00  0.00     0.010 A 
ATOM     95  C   UNL     1       3.243  20.626  -3.440  1.00  0.00     0.010 A 
ATOM     96  C   UNL     1       2.234  20.312  -0.849  1.00  0.00     0.020 A 
ATOM     97  C   UNL     1       2.971  21.754  -2.663  1.00  0.00     0.020 A 
ATOM     98  C   UNL     1       2.470  21.589  -1.370  1.00  0.00     0.054 A 
BRANCH  98  99
ATOM     99  S   UNL     1       2.188  23.029  -0.303  1.00  0.00     0.124 S 
ATOM    100  O   UNL     1       0.730  23.077  -0.234  1.00  0.00    -0.237 OA
ATOM    101  O   UNL     1       2.863  22.645   0.935  1.00  0.00    -0.237 OA
ATOM    102  O   UNL     1       2.814  24.130  -1.032  1.00  0.00    -0.744 OA
ENDBRANCH  98  99
ENDBRANCH  72  93
ENDBRANCH  46  47
ENDBRANCH  38  41
ENDBRANCH  36  37
ENDBRANCH  35  36
ENDBRANCH  34  35
ENDBRANCH   1  34
TORSDOF 21
