REMARK SMILES O=C(CNC(=O)CN1C(=O)S/C(=C\c2cccc(F)c2)C1=O)NCCCCCCNC(=O)c1ccc(-c2c3nc(c(-c4ccc(S(=O)(=O)[O-])cc4)c4ccc([nH]4)c(-c4ccc(S(=O)(=O)[O-])cc4)c4nc(c(-c5ccc(S(=O)(=O)[O-])cc5)c5ccc2[nH]5)C=C4)C=C3)cc1
REMARK SMILES IDX 26 1 25 2 24 3 23 4 1 5 2 6 3 8 4 9 5 10 6 12 7 13 8 14 9 15
REMARK SMILES IDX 21 16 10 17 11 18 12 19 22 20 13 21 14 22 15 23 20 24 16 25
REMARK SMILES IDX 18 26 17 27 19 28 27 29 28 30 29 31 30 32 31 33 32 35 33 36
REMARK SMILES IDX 34 37 92 38 35 39 91 40 36 41 37 42 38 43 85 44 39 45 90 46
REMARK SMILES IDX 84 47 86 48 40 49 89 50 83 51 82 52 41 54 71 55 52 56 70 57
REMARK SMILES IDX 53 58 56 59 69 60 87 61 54 62 55 63 68 65 88 66 57 67 42 68
REMARK SMILES IDX 43 69 51 70 44 71 50 72 45 73 46 74 47 75 48 76 49 77 72 78
REMARK SMILES IDX 73 79 81 80 74 81 80 82 75 83 76 84 77 85 78 86 79 87 58 88
REMARK SMILES IDX 59 89 67 90 60 91 66 92 61 93 62 94 63 95 64 96 65 97
REMARK H PARENT 23 7 4 11 30 34 86 53 56 64
REMARK Flexibility Score: inf
ROOT
ATOM      1  C   UNL     1       3.909   3.458  -1.039  1.00  0.00     0.002 C 
ENDROOT
BRANCH   1   2
ATOM      2  C   UNL     1       2.432   3.151  -0.779  1.00  0.00     0.021 C 
BRANCH   2   3
ATOM      3  C   UNL     1       1.926   1.859  -1.419  1.00  0.00     0.116 C 
BRANCH   3   4
ATOM      4  N   UNL     1       2.621   0.678  -0.938  1.00  0.00    -0.355 N 
ATOM      5  O   UNL     1       1.009   0.030   0.564  1.00  0.00    -0.273 OA
ATOM      6  C   UNL     1       2.073  -0.183  -0.011  1.00  0.00     0.239 C 
ATOM      7  H   UNL     1       3.520   0.483  -1.289  1.00  0.00     0.163 HD
BRANCH   6   8
ATOM      8  C   UNL     1       2.897  -1.448   0.273  1.00  0.00     0.216 C 
BRANCH   8   9
ATOM      9  N   UNL     1       4.048  -1.612  -0.608  1.00  0.00    -0.345 N 
ATOM     10  C   UNL     1       5.383  -1.571  -0.348  1.00  0.00     0.240 C 
ATOM     11  H   UNL     1       3.820  -1.782  -1.550  1.00  0.00     0.164 HD
ATOM     12  O   UNL     1       6.142  -1.812  -1.289  1.00  0.00    -0.273 OA
BRANCH  10  13
ATOM     13  C   UNL     1       5.927  -1.269   1.048  1.00  0.00     0.229 C 
BRANCH  13  14
ATOM     14  N   UNL     1       5.781   0.130   1.408  1.00  0.00    -0.259 N 
ATOM     15  C   UNL     1       4.895   0.526   2.365  1.00  0.00     0.294 C 
ATOM     16  C   UNL     1       6.646   1.091   0.935  1.00  0.00     0.268 C 
ATOM     17  O   UNL     1       4.194  -0.195   3.062  1.00  0.00    -0.261 OA
ATOM     18  S   UNL     1       4.929   2.260   2.541  1.00  0.00    -0.022 SA
ATOM     19  C   UNL     1       6.279   2.430   1.487  1.00  0.00     0.083 C 
ATOM     20  O   UNL     1       7.583   0.902   0.175  1.00  0.00    -0.268 OA
ATOM     21  C   UNL     1       6.899   3.557   1.096  1.00  0.00     0.029 C 
BRANCH  21  22
ATOM     22  C   UNL     1       6.530   4.949   1.423  1.00  0.00    -0.021 A 
ATOM     23  C   UNL     1       6.101   5.355   2.695  1.00  0.00     0.008 A 
ATOM     24  C   UNL     1       6.597   5.914   0.409  1.00  0.00     0.047 A 
ATOM     25  C   UNL     1       5.648   6.659   2.922  1.00  0.00     0.004 A 
ATOM     26  C   UNL     1       6.153   7.213   0.648  1.00  0.00     0.123 A 
ATOM     27  C   UNL     1       5.659   7.588   1.888  1.00  0.00     0.039 A 
ATOM     28  F   UNL     1       6.181   8.116  -0.338  1.00  0.00    -0.207 F 
ENDBRANCH  21  22
ENDBRANCH  13  14
ENDBRANCH  10  13
ENDBRANCH   8   9
ENDBRANCH   6   8
ENDBRANCH   3   4
ENDBRANCH   2   3
ENDBRANCH   1   2
BRANCH   1  29
ATOM     29  C   UNL     1       4.340   3.582  -2.501  1.00  0.00     0.002 C 
BRANCH  29  30
ATOM     30  C   UNL     1       3.680   4.711  -3.293  1.00  0.00     0.021 C 
BRANCH  30  31
ATOM     31  C   UNL     1       4.006   6.125  -2.819  1.00  0.00     0.116 C 
BRANCH  31  32
ATOM     32  N   UNL     1       5.418   6.455  -2.937  1.00  0.00    -0.352 N 
ATOM     33  C   UNL     1       6.025   7.649  -3.252  1.00  0.00     0.251 C 
ATOM     34  H   UNL     1       6.036   5.708  -2.764  1.00  0.00     0.163 HD
ATOM     35  O   UNL     1       7.250   7.698  -3.333  1.00  0.00    -0.269 OA
BRANCH  33  36
ATOM     36  C   UNL     1       5.208   8.841  -3.579  1.00  0.00     0.039 A 
ATOM     37  C   UNL     1       5.549   9.570  -4.723  1.00  0.00     0.014 A 
ATOM     38  C   UNL     1       4.088   9.206  -2.828  1.00  0.00     0.014 A 
ATOM     39  C   UNL     1       4.702  10.580  -5.181  1.00  0.00     0.010 A 
ATOM     40  C   UNL     1       3.208  10.170  -3.320  1.00  0.00     0.010 A 
ATOM     41  C   UNL     1       3.490  10.839  -4.521  1.00  0.00    -0.014 A 
BRANCH  41  42
ATOM     42  C   UNL     1       2.471  11.723  -5.142  1.00  0.00     0.031 A 
ATOM     43  C   UNL     1       2.080  13.024  -4.508  1.00  0.00     0.074 A 
ATOM     44  C   UNL     1       1.851  11.305  -6.264  1.00  0.00     0.049 A 
ATOM     45  N   UNL     1       1.210  13.910  -4.921  1.00  0.00    -0.248 NA
ATOM     46  C   UNL     1       2.735  13.367  -3.237  1.00  0.00     0.031 C 
ATOM     47  C   UNL     1       2.102  10.029  -6.941  1.00  0.00     0.029 A 
ATOM     48  N   UNL     1       0.880  11.899  -7.031  1.00  0.00    -0.354 N 
ATOM     49  C   UNL     1       1.214  14.918  -3.966  1.00  0.00     0.074 A 
ATOM     50  C   UNL     1       2.133  14.506  -2.925  1.00  0.00     0.031 C 
ATOM     51  C   UNL     1       1.324   9.948  -8.031  1.00  0.00     0.029 A 
ATOM     52  C   UNL     1       0.493  11.144  -8.113  1.00  0.00     0.049 A 
ATOM     53  H   UNL     1       0.498  12.783  -6.825  1.00  0.00     0.167 HD
ATOM     54  C   UNL     1       0.527  16.087  -3.964  1.00  0.00     0.031 A 
ATOM     55  C   UNL     1      -0.432  11.380  -9.063  1.00  0.00     0.031 A 
ATOM     56  C   UNL     1      -0.406  16.477  -4.989  1.00  0.00     0.049 A 
ATOM     57  C   UNL     1      -1.196  12.672  -9.034  1.00  0.00     0.074 A 
ATOM     58  C   UNL     1      -1.119  17.658  -5.102  1.00  0.00     0.029 A 
ATOM     59  N   UNL     1      -0.770  15.687  -6.071  1.00  0.00    -0.354 N 
ATOM     60  N   UNL     1      -1.115  13.653  -8.167  1.00  0.00    -0.248 NA
ATOM     61  C   UNL     1      -2.166  12.895 -10.114  1.00  0.00     0.031 C 
ATOM     62  C   UNL     1      -1.954  17.559  -6.222  1.00  0.00     0.029 A 
ATOM     63  C   UNL     1      -1.720  16.341  -6.840  1.00  0.00     0.049 A 
ATOM     64  H   UNL     1      -0.406  14.793  -6.265  1.00  0.00     0.167 HD
ATOM     65  C   UNL     1      -2.018  14.617  -8.601  1.00  0.00     0.074 A 
ATOM     66  C   UNL     1      -2.615  14.109  -9.821  1.00  0.00     0.031 C 
ATOM     67  C   UNL     1      -2.324  15.812  -8.039  1.00  0.00     0.031 A 
BRANCH  54  68
ATOM     68  C   UNL     1       0.756  17.015  -2.798  1.00  0.00    -0.014 A 
ATOM     69  C   UNL     1       1.991  17.667  -2.624  1.00  0.00     0.010 A 
ATOM     70  C   UNL     1      -0.271  17.239  -1.864  1.00  0.00     0.010 A 
ATOM     71  C   UNL     1       2.216  18.473  -1.505  1.00  0.00     0.020 A 
ATOM     72  C   UNL     1      -0.060  18.069  -0.758  1.00  0.00     0.020 A 
ATOM     73  C   UNL     1       1.192  18.659  -0.572  1.00  0.00     0.054 A 
BRANCH  73  74
ATOM     74  S   UNL     1       1.518  19.691   0.884  1.00  0.00     0.124 S 
ATOM     75  O   UNL     1       2.366  18.814   1.688  1.00  0.00    -0.237 OA
ATOM     76  O   UNL     1       2.186  20.856   0.310  1.00  0.00    -0.237 OA
ATOM     77  O   UNL     1       0.188  19.946   1.433  1.00  0.00    -0.744 OA
ENDBRANCH  73  74
ENDBRANCH  54  68
BRANCH  55  78
ATOM     78  C   UNL     1      -0.670  10.358 -10.119  1.00  0.00    -0.014 A 
ATOM     79  C   UNL     1      -0.221  10.567 -11.434  1.00  0.00     0.010 A 
ATOM     80  C   UNL     1      -1.295   9.140  -9.794  1.00  0.00     0.010 A 
ATOM     81  C   UNL     1      -0.390   9.574 -12.405  1.00  0.00     0.020 A 
ATOM     82  C   UNL     1      -1.443   8.136 -10.755  1.00  0.00     0.020 A 
ATOM     83  C   UNL     1      -0.992   8.361 -12.057  1.00  0.00     0.054 A 
BRANCH  83  84
ATOM     84  S   UNL     1      -1.117   7.052 -13.308  1.00  0.00     0.124 S 
ATOM     85  O   UNL     1      -2.188   7.552 -14.165  1.00  0.00    -0.237 OA
ATOM     86  O   UNL     1       0.219   7.052 -13.899  1.00  0.00    -0.237 OA
ATOM     87  O   UNL     1      -1.443   5.862 -12.526  1.00  0.00    -0.744 OA
ENDBRANCH  83  84
ENDBRANCH  55  78
BRANCH  67  88
ATOM     88  C   UNL     1      -3.357  16.656  -8.737  1.00  0.00    -0.014 A 
ATOM     89  C   UNL     1      -4.719  16.308  -8.703  1.00  0.00     0.010 A 
ATOM     90  C   UNL     1      -2.967  17.841  -9.388  1.00  0.00     0.010 A 
ATOM     91  C   UNL     1      -5.671  17.116  -9.331  1.00  0.00     0.020 A 
ATOM     92  C   UNL     1      -3.919  18.665  -9.994  1.00  0.00     0.020 A 
ATOM     93  C   UNL     1      -5.264  18.291  -9.972  1.00  0.00     0.054 A 
BRANCH  93  94
ATOM     94  S   UNL     1      -6.525  19.348 -10.735  1.00  0.00     0.124 S 
ATOM     95  O   UNL     1      -6.881  18.584 -11.928  1.00  0.00    -0.237 OA
ATOM     96  O   UNL     1      -7.555  19.417  -9.702  1.00  0.00    -0.237 OA
ATOM     97  O   UNL     1      -5.819  20.603 -10.986  1.00  0.00    -0.744 OA
ENDBRANCH  93  94
ENDBRANCH  67  88
ENDBRANCH  41  42
ENDBRANCH  33  36
ENDBRANCH  31  32
ENDBRANCH  30  31
ENDBRANCH  29  30
ENDBRANCH   1  29
TORSDOF 20
