REMARK SMILES CO[C@@H]1C[C@@H](C(=O)NCCCCCCNC(=O)c2ccc(-c3c4nc(c(-c5ccc(S(=O)(=O)[O-])cc5)c5ccc([nH]5)c(-c5ccc(S(=O)(=O)[O-])cc5)c5nc(c(-c6ccc(S(=O)(=O)[O-])cc6)c6ccc3[nH]6)C=C5)C=C4)cc2)N(S(=O)(=O)c2ccc(Cl)cc2F)C1
REMARK SMILES IDX 12 1 11 2 10 3 9 4 8 5 6 6 7 7 5 9 3 10 4 11 90 12 78 13
REMARK SMILES IDX 2 14 1 15 79 16 80 17 81 18 82 19 83 20 88 21 84 22 87 23
REMARK SMILES IDX 89 24 85 25 86 26 13 27 14 28 15 29 16 30 17 32 18 33 19 34
REMARK SMILES IDX 77 35 20 36 76 37 21 38 22 39 23 40 70 41 24 42 75 43 69 44
REMARK SMILES IDX 71 45 25 46 74 47 68 48 67 49 26 51 56 52 37 53 55 54 38 55
REMARK SMILES IDX 41 56 54 57 72 58 39 59 40 60 53 62 73 63 42 64 27 65 28 66
REMARK SMILES IDX 36 67 29 68 35 69 30 70 31 71 32 72 33 73 34 74 57 75 58 76
REMARK SMILES IDX 66 77 59 78 65 79 60 80 61 81 62 82 63 83 64 84 43 85 44 86
REMARK SMILES IDX 52 87 45 88 51 89 46 90 47 91 48 92 49 93 50 94
REMARK H PARENT 8 8 15 31 71 50 41 61
REMARK Flexibility Score: inf
ROOT
ATOM      1  C   UNL     1      -4.620  -2.213  -7.263  1.00  0.00     0.002 C 
ENDROOT
BRANCH   1   2
ATOM      2  C   UNL     1      -5.293  -1.445  -6.130  1.00  0.00     0.002 C 
BRANCH   2   3
ATOM      3  C   UNL     1      -4.844  -1.856  -4.723  1.00  0.00     0.021 C 
BRANCH   3   4
ATOM      4  C   UNL     1      -3.342  -1.737  -4.458  1.00  0.00     0.116 C 
BRANCH   4   5
ATOM      5  N   UNL     1      -2.858  -0.378  -4.629  1.00  0.00    -0.355 N 
ATOM      6  C   UNL     1      -1.691   0.161  -4.162  1.00  0.00     0.238 C 
ATOM      7  O   UNL     1      -1.514   1.371  -4.306  1.00  0.00    -0.273 OA
ATOM      8  H   UNL     1      -3.441   0.227  -5.143  1.00  0.00     0.163 HD
BRANCH   6   9
ATOM      9  C   UNL     1      -0.745  -0.726  -3.394  1.00  0.00     0.165 C 
ATOM     10  C   UNL     1       1.145  -1.148  -2.041  1.00  0.00     0.135 C 
ATOM     11  C   UNL     1       0.444  -0.007  -2.776  1.00  0.00     0.064 C 
ATOM     12  C   UNL     1       0.733  -2.434  -2.809  1.00  0.00     0.135 C 
ATOM     13  N   UNL     1      -0.164  -1.982  -3.956  1.00  0.00    -0.183 NA
BRANCH  10  14
ATOM     14  O   UNL     1       0.660  -1.245  -0.694  1.00  0.00    -0.380 OA
ATOM     15  C   UNL     1       1.196  -0.248   0.169  1.00  0.00     0.195 C 
ENDBRANCH  10  14
BRANCH  13  16
ATOM     16  S   UNL     1       0.741  -1.997  -5.419  1.00  0.00     0.246 S 
ATOM     17  O   UNL     1       1.851  -1.073  -5.276  1.00  0.00    -0.207 OA
ATOM     18  O   UNL     1       1.029  -3.391  -5.675  1.00  0.00    -0.207 OA
BRANCH  16  19
ATOM     19  C   UNL     1      -0.275  -1.451  -6.748  1.00  0.00     0.118 A 
ATOM     20  C   UNL     1      -0.802  -2.377  -7.658  1.00  0.00     0.026 A 
ATOM     21  C   UNL     1      -0.400  -0.093  -7.009  1.00  0.00     0.144 A 
ATOM     22  C   UNL     1      -1.514  -1.926  -8.776  1.00  0.00     0.022 A 
ATOM     23  C   UNL     1      -1.161   0.362  -8.081  1.00  0.00     0.061 A 
ATOM     24  F   UNL     1       0.204   0.817  -6.236  1.00  0.00    -0.205 F 
ATOM     25  C   UNL     1      -1.722  -0.558  -8.960  1.00  0.00     0.044 A 
ATOM     26  Cl  UNL     1      -2.688  -0.007 -10.271  1.00  0.00    -0.084 Cl
ENDBRANCH  16  19
ENDBRANCH  13  16
ENDBRANCH   6   9
ENDBRANCH   4   5
ENDBRANCH   3   4
ENDBRANCH   2   3
ENDBRANCH   1   2
BRANCH   1  27
ATOM     27  C   UNL     1      -4.844  -3.721  -7.281  1.00  0.00     0.021 C 
BRANCH  27  28
ATOM     28  C   UNL     1      -6.305  -4.144  -7.311  1.00  0.00     0.116 C 
BRANCH  28  29
ATOM     29  N   UNL     1      -7.020  -3.640  -8.475  1.00  0.00    -0.352 N 
ATOM     30  C   UNL     1      -7.948  -4.286  -9.257  1.00  0.00     0.251 C 
ATOM     31  H   UNL     1      -6.811  -2.714  -8.736  1.00  0.00     0.163 HD
ATOM     32  O   UNL     1      -8.377  -3.755 -10.276  1.00  0.00    -0.269 OA
BRANCH  30  33
ATOM     33  C   UNL     1      -8.393  -5.643  -8.876  1.00  0.00     0.039 A 
ATOM     34  C   UNL     1      -8.421  -6.646  -9.848  1.00  0.00     0.014 A 
ATOM     35  C   UNL     1      -8.730  -5.934  -7.552  1.00  0.00     0.014 A 
ATOM     36  C   UNL     1      -8.717  -7.958  -9.475  1.00  0.00     0.010 A 
ATOM     37  C   UNL     1      -8.934  -7.254  -7.168  1.00  0.00     0.010 A 
ATOM     38  C   UNL     1      -8.937  -8.280  -8.125  1.00  0.00    -0.014 A 
BRANCH  38  39
ATOM     39  C   UNL     1      -9.173  -9.678  -7.688  1.00  0.00     0.031 A 
ATOM     40  C   UNL     1     -10.468 -10.048  -7.017  1.00  0.00     0.074 A 
ATOM     41  C   UNL     1      -8.188 -10.591  -7.805  1.00  0.00     0.049 A 
ATOM     42  N   UNL     1     -10.829 -11.191  -6.494  1.00  0.00    -0.248 NA
ATOM     43  C   UNL     1     -11.473  -8.981  -6.881  1.00  0.00     0.031 C 
ATOM     44  C   UNL     1      -6.860 -10.338  -8.370  1.00  0.00     0.029 A 
ATOM     45  N   UNL     1      -8.146 -11.913  -7.439  1.00  0.00    -0.354 N 
ATOM     46  C   UNL     1     -12.083 -10.971  -5.935  1.00  0.00     0.074 A 
ATOM     47  C   UNL     1     -12.397  -9.574  -6.140  1.00  0.00     0.031 C 
ATOM     48  C   UNL     1      -6.142 -11.472  -8.328  1.00  0.00     0.029 A 
ATOM     49  C   UNL     1      -6.942 -12.521  -7.704  1.00  0.00     0.049 A 
ATOM     50  H   UNL     1      -8.906 -12.382  -7.025  1.00  0.00     0.167 HD
ATOM     51  C   UNL     1     -12.907 -11.854  -5.323  1.00  0.00     0.031 A 
ATOM     52  C   UNL     1      -6.524 -13.780  -7.467  1.00  0.00     0.031 A 
ATOM     53  C   UNL     1     -12.601 -13.248  -5.147  1.00  0.00     0.049 A 
ATOM     54  C   UNL     1      -7.471 -14.759  -6.835  1.00  0.00     0.074 A 
ATOM     55  C   UNL     1     -13.404 -14.246  -4.627  1.00  0.00     0.029 A 
ATOM     56  N   UNL     1     -11.392 -13.839  -5.484  1.00  0.00    -0.354 N 
ATOM     57  N   UNL     1      -8.693 -14.557  -6.402  1.00  0.00    -0.248 NA
ATOM     58  C   UNL     1      -6.993 -16.139  -6.677  1.00  0.00     0.031 C 
ATOM     59  C   UNL     1     -12.663 -15.433  -4.603  1.00  0.00     0.029 A 
ATOM     60  C   UNL     1     -11.417 -15.185  -5.159  1.00  0.00     0.049 A 
ATOM     61  H   UNL     1     -10.629 -13.371  -5.893  1.00  0.00     0.167 HD
ATOM     62  C   UNL     1      -9.137 -15.789  -5.934  1.00  0.00     0.074 A 
ATOM     63  C   UNL     1      -8.059 -16.732  -6.154  1.00  0.00     0.031 C 
ATOM     64  C   UNL     1     -10.331 -16.108  -5.375  1.00  0.00     0.031 A 
BRANCH  51  65
ATOM     65  C   UNL     1     -14.212 -11.323  -4.788  1.00  0.00    -0.014 A 
ATOM     66  C   UNL     1     -15.230 -10.875  -5.650  1.00  0.00     0.010 A 
ATOM     67  C   UNL     1     -14.421 -11.264  -3.398  1.00  0.00     0.010 A 
ATOM     68  C   UNL     1     -16.402 -10.317  -5.134  1.00  0.00     0.020 A 
ATOM     69  C   UNL     1     -15.605 -10.736  -2.877  1.00  0.00     0.020 A 
ATOM     70  C   UNL     1     -16.577 -10.241  -3.749  1.00  0.00     0.054 A 
BRANCH  70  71
ATOM     71  S   UNL     1     -18.099  -9.495  -3.103  1.00  0.00     0.124 S 
ATOM     72  O   UNL     1     -17.852  -8.072  -3.325  1.00  0.00    -0.237 OA
ATOM     73  O   UNL     1     -19.133 -10.091  -3.945  1.00  0.00    -0.237 OA
ATOM     74  O   UNL     1     -18.122  -9.913  -1.703  1.00  0.00    -0.744 OA
ENDBRANCH  70  71
ENDBRANCH  51  65
BRANCH  52  75
ATOM     75  C   UNL     1      -5.144 -14.176  -7.858  1.00  0.00    -0.014 A 
ATOM     76  C   UNL     1      -4.926 -14.983  -8.989  1.00  0.00     0.010 A 
ATOM     77  C   UNL     1      -4.036 -13.692  -7.138  1.00  0.00     0.010 A 
ATOM     78  C   UNL     1      -3.624 -15.297  -9.393  1.00  0.00     0.020 A 
ATOM     79  C   UNL     1      -2.734 -13.985  -7.553  1.00  0.00     0.020 A 
ATOM     80  C   UNL     1      -2.537 -14.788  -8.677  1.00  0.00     0.054 A 
BRANCH  80  81
ATOM     81  S   UNL     1      -0.858 -15.129  -9.277  1.00  0.00     0.124 S 
ATOM     82  O   UNL     1      -0.678 -16.527  -8.899  1.00  0.00    -0.237 OA
ATOM     83  O   UNL     1      -0.976 -14.870 -10.710  1.00  0.00    -0.237 OA
ATOM     84  O   UNL     1      -0.033 -14.170  -8.546  1.00  0.00    -0.744 OA
ENDBRANCH  80  81
ENDBRANCH  52  75
BRANCH  64  85
ATOM     85  C   UNL     1     -10.547 -17.543  -4.976  1.00  0.00    -0.014 A 
ATOM     86  C   UNL     1      -9.909 -18.088  -3.848  1.00  0.00     0.010 A 
ATOM     87  C   UNL     1     -11.451 -18.337  -5.705  1.00  0.00     0.010 A 
ATOM     88  C   UNL     1     -10.151 -19.411  -3.471  1.00  0.00     0.020 A 
ATOM     89  C   UNL     1     -11.716 -19.652  -5.316  1.00  0.00     0.020 A 
ATOM     90  C   UNL     1     -11.053 -20.186  -4.208  1.00  0.00     0.054 A 
BRANCH  90  91
ATOM     91  S   UNL     1     -11.389 -21.885  -3.670  1.00  0.00     0.124 S 
ATOM     92  O   UNL     1     -10.177 -22.581  -4.092  1.00  0.00    -0.237 OA
ATOM     93  O   UNL     1     -11.560 -21.738  -2.227  1.00  0.00    -0.237 OA
ATOM     94  O   UNL     1     -12.602 -22.246  -4.402  1.00  0.00    -0.744 OA
ENDBRANCH  90  91
ENDBRANCH  64  85
ENDBRANCH  38  39
ENDBRANCH  30  33
ENDBRANCH  28  29
ENDBRANCH  27  28
ENDBRANCH   1  27
TORSDOF 19
