REMARK SMILES Cc1ccc(S(=O)(=O)N(CC(=O)NCCCCCCNC(=O)c2ccc(-c3c4nc(c(-c5ccc(S(=O)(=O)[O-])cc5)c5ccc([nH]5)c(-c5ccc(S(=O)(=O)[O-])cc5)c5nc(c(-c6ccc(S(=O)(=O)[O-])cc6)c6ccc3[nH]6)C=C5)C=C4)cc2)c2cc(Cl)cc(Cl)c2)cc1
REMARK SMILES IDX 16 1 15 2 14 3 13 4 11 5 12 6 10 8 9 9 6 10 7 11 8 12 5 13
REMARK SMILES IDX 1 14 2 15 3 16 92 17 4 18 91 19 83 20 84 21 90 22 85 23
REMARK SMILES IDX 88 24 86 25 87 26 89 27 17 28 18 29 19 30 20 31 21 32 22 34
REMARK SMILES IDX 23 35 24 36 82 37 25 38 81 39 26 40 27 41 28 42 75 43 29 44
REMARK SMILES IDX 80 45 74 46 76 47 30 48 79 49 73 50 72 51 31 53 61 54 42 55
REMARK SMILES IDX 60 56 43 57 46 58 59 59 77 60 44 61 45 62 58 64 78 65 47 66
REMARK SMILES IDX 32 67 33 68 41 69 34 70 40 71 35 72 36 73 37 74 38 75 39 76
REMARK SMILES IDX 62 77 63 78 71 79 64 80 70 81 65 82 66 83 67 84 68 85 69 86
REMARK SMILES IDX 48 87 49 88 57 89 50 90 56 91 51 92 52 93 53 94 54 95 55 96
REMARK H PARENT 13 7 20 33 76 52 46 63
REMARK Flexibility Score: inf
ROOT
ATOM      1  C   UNL     1      -3.948   1.965  -5.130  1.00  0.00     0.002 C 
ENDROOT
BRANCH   1   2
ATOM      2  C   UNL     1      -3.784   1.342  -3.738  1.00  0.00     0.021 C 
BRANCH   2   3
ATOM      3  C   UNL     1      -2.715   1.966  -2.843  1.00  0.00     0.116 C 
BRANCH   3   4
ATOM      4  N   UNL     1      -2.998   3.327  -2.424  1.00  0.00    -0.355 N 
ATOM      5  C   UNL     1      -3.320   3.856  -1.212  1.00  0.00     0.240 C 
ATOM      6  O   UNL     1      -3.277   5.090  -1.117  1.00  0.00    -0.273 OA
ATOM      7  H   UNL     1      -2.947   3.989  -3.151  1.00  0.00     0.163 HD
BRANCH   5   8
ATOM      8  C   UNL     1      -3.691   3.035   0.014  1.00  0.00     0.235 C 
BRANCH   8   9
ATOM      9  N   UNL     1      -4.237   1.665  -0.215  1.00  0.00    -0.257 N 
BRANCH   9  10
ATOM     10  S   UNL     1      -3.482   0.422   0.729  1.00  0.00     0.264 S 
ATOM     11  O   UNL     1      -4.128  -0.826   0.369  1.00  0.00    -0.201 OA
ATOM     12  O   UNL     1      -3.470   0.873   2.107  1.00  0.00    -0.201 OA
BRANCH  10  13
ATOM     13  C   UNL     1      -1.756   0.230   0.264  1.00  0.00     0.088 A 
ATOM     14  C   UNL     1       2.480  -0.494  -0.206  1.00  0.00     0.044 C 
ATOM     15  C   UNL     1       1.006  -0.238  -0.102  1.00  0.00    -0.051 A 
ATOM     16  C   UNL     1       0.097  -1.301  -0.127  1.00  0.00     0.005 A 
ATOM     17  C   UNL     1       0.521   1.058   0.083  1.00  0.00     0.005 A 
ATOM     18  C   UNL     1      -1.274  -1.070   0.046  1.00  0.00     0.022 A 
ATOM     19  C   UNL     1      -0.844   1.288   0.286  1.00  0.00     0.022 A 
ENDBRANCH  10  13
ENDBRANCH   9  10
BRANCH   9  20
ATOM     20  C   UNL     1      -5.718   1.690  -0.182  1.00  0.00     0.055 A 
ATOM     21  C   UNL     1      -6.380   2.525  -1.099  1.00  0.00     0.047 A 
ATOM     22  C   UNL     1      -6.484   1.105   0.836  1.00  0.00     0.047 A 
ATOM     23  C   UNL     1      -7.747   2.787  -0.980  1.00  0.00     0.044 A 
ATOM     24  C   UNL     1      -7.859   1.347   0.924  1.00  0.00     0.044 A 
ATOM     25  Cl  UNL     1      -8.495   3.908  -2.051  1.00  0.00    -0.084 Cl
ATOM     26  C   UNL     1      -8.495   2.198   0.030  1.00  0.00     0.041 A 
ATOM     27  Cl  UNL     1      -8.770   0.629   2.198  1.00  0.00    -0.084 Cl
ENDBRANCH   9  20
ENDBRANCH   8   9
ENDBRANCH   5   8
ENDBRANCH   3   4
ENDBRANCH   2   3
ENDBRANCH   1   2
BRANCH   1  28
ATOM     28  C   UNL     1      -2.678   2.118  -5.979  1.00  0.00     0.002 C 
BRANCH  28  29
ATOM     29  C   UNL     1      -1.789   0.881  -6.109  1.00  0.00     0.021 C 
BRANCH  29  30
ATOM     30  C   UNL     1      -2.424  -0.267  -6.889  1.00  0.00     0.116 C 
BRANCH  30  31
ATOM     31  N   UNL     1      -1.700  -0.589  -8.115  1.00  0.00    -0.352 N 
ATOM     32  C   UNL     1      -1.883  -1.675  -8.955  1.00  0.00     0.251 C 
ATOM     33  H   UNL     1      -0.993   0.044  -8.377  1.00  0.00     0.163 HD
ATOM     34  O   UNL     1      -1.141  -1.903  -9.893  1.00  0.00    -0.269 OA
BRANCH  32  35
ATOM     35  C   UNL     1      -3.071  -2.517  -8.707  1.00  0.00     0.039 A 
ATOM     36  C   UNL     1      -4.118  -2.455  -9.633  1.00  0.00     0.014 A 
ATOM     37  C   UNL     1      -3.241  -3.111  -7.461  1.00  0.00     0.014 A 
ATOM     38  C   UNL     1      -5.401  -2.823  -9.235  1.00  0.00     0.010 A 
ATOM     39  C   UNL     1      -4.527  -3.384  -7.039  1.00  0.00     0.010 A 
ATOM     40  C   UNL     1      -5.614  -3.192  -7.907  1.00  0.00    -0.014 A 
BRANCH  40  41
ATOM     41  C   UNL     1      -6.934  -3.313  -7.298  1.00  0.00     0.031 A 
ATOM     42  C   UNL     1      -7.462  -4.646  -6.922  1.00  0.00     0.074 A 
ATOM     43  C   UNL     1      -7.632  -2.207  -6.955  1.00  0.00     0.049 A 
ATOM     44  N   UNL     1      -8.707  -4.902  -6.689  1.00  0.00    -0.248 NA
ATOM     45  C   UNL     1      -6.612  -5.829  -6.846  1.00  0.00     0.031 C 
ATOM     46  C   UNL     1      -8.746  -2.140  -6.011  1.00  0.00     0.029 A 
ATOM     47  N   UNL     1      -7.627  -0.947  -7.556  1.00  0.00    -0.354 N 
ATOM     48  C   UNL     1      -8.768  -6.153  -6.117  1.00  0.00     0.074 A 
ATOM     49  C   UNL     1      -7.464  -6.729  -6.348  1.00  0.00     0.031 C 
ATOM     50  C   UNL     1      -9.490  -1.063  -6.301  1.00  0.00     0.029 A 
ATOM     51  C   UNL     1      -8.958  -0.495  -7.528  1.00  0.00     0.049 A 
ATOM     52  H   UNL     1      -6.849  -0.470  -7.926  1.00  0.00     0.167 HD
ATOM     53  C   UNL     1      -9.857  -6.502  -5.373  1.00  0.00     0.031 A 
ATOM     54  C   UNL     1      -9.696  -0.179  -8.632  1.00  0.00     0.031 A 
ATOM     55  C   UNL     1     -10.920  -5.499  -5.457  1.00  0.00     0.049 A 
ATOM     56  C   UNL     1     -11.001  -0.940  -8.724  1.00  0.00     0.074 A 
ATOM     57  C   UNL     1     -11.382  -4.524  -4.587  1.00  0.00     0.029 A 
ATOM     58  N   UNL     1     -11.516  -5.242  -6.686  1.00  0.00    -0.354 N 
ATOM     59  N   UNL     1     -11.287  -1.986  -8.001  1.00  0.00    -0.248 NA
ATOM     60  C   UNL     1     -12.061  -0.623  -9.677  1.00  0.00     0.031 C 
ATOM     61  C   UNL     1     -12.223  -3.644  -5.318  1.00  0.00     0.029 A 
ATOM     62  C   UNL     1     -12.287  -4.097  -6.624  1.00  0.00     0.049 A 
ATOM     63  H   UNL     1     -11.403  -5.798  -7.490  1.00  0.00     0.167 HD
ATOM     64  C   UNL     1     -12.503  -2.497  -8.377  1.00  0.00     0.074 A 
ATOM     65  C   UNL     1     -12.958  -1.591  -9.416  1.00  0.00     0.031 C 
ATOM     66  C   UNL     1     -13.005  -3.633  -7.807  1.00  0.00     0.031 A 
BRANCH  53  67
ATOM     67  C   UNL     1      -9.845  -7.612  -4.336  1.00  0.00    -0.014 A 
ATOM     68  C   UNL     1     -10.763  -7.577  -3.264  1.00  0.00     0.010 A 
ATOM     69  C   UNL     1      -8.917  -8.670  -4.306  1.00  0.00     0.010 A 
ATOM     70  C   UNL     1     -10.688  -8.471  -2.182  1.00  0.00     0.020 A 
ATOM     71  C   UNL     1      -8.809  -9.552  -3.221  1.00  0.00     0.020 A 
ATOM     72  C   UNL     1      -9.688  -9.437  -2.153  1.00  0.00     0.054 A 
BRANCH  72  73
ATOM     73  S   UNL     1      -9.540 -10.529  -0.716  1.00  0.00     0.124 S 
ATOM     74  O   UNL     1      -9.355  -9.583   0.381  1.00  0.00    -0.237 OA
ATOM     75  O   UNL     1     -10.815 -11.240  -0.729  1.00  0.00    -0.237 OA
ATOM     76  O   UNL     1      -8.370 -11.351  -1.024  1.00  0.00    -0.744 OA
ENDBRANCH  72  73
ENDBRANCH  53  67
BRANCH  54  77
ATOM     77  C   UNL     1      -8.893   0.277  -9.798  1.00  0.00    -0.014 A 
ATOM     78  C   UNL     1      -8.271   1.539  -9.699  1.00  0.00     0.010 A 
ATOM     79  C   UNL     1      -8.402  -0.660 -10.724  1.00  0.00     0.010 A 
ATOM     80  C   UNL     1      -7.075   1.790 -10.373  1.00  0.00     0.020 A 
ATOM     81  C   UNL     1      -7.204  -0.405 -11.406  1.00  0.00     0.020 A 
ATOM     82  C   UNL     1      -6.517   0.789 -11.168  1.00  0.00     0.054 A 
BRANCH  82  83
ATOM     83  S   UNL     1      -4.788   0.990 -11.694  1.00  0.00     0.124 S 
ATOM     84  O   UNL     1      -4.837   2.224 -12.469  1.00  0.00    -0.237 OA
ATOM     85  O   UNL     1      -4.098   1.078 -10.408  1.00  0.00    -0.237 OA
ATOM     86  O   UNL     1      -4.527  -0.226 -12.458  1.00  0.00    -0.744 OA
ENDBRANCH  82  83
ENDBRANCH  54  77
BRANCH  66  87
ATOM     87  C   UNL     1     -14.233  -4.410  -8.239  1.00  0.00    -0.014 A 
ATOM     88  C   UNL     1     -14.883  -4.268  -9.474  1.00  0.00     0.010 A 
ATOM     89  C   UNL     1     -14.718  -5.437  -7.387  1.00  0.00     0.010 A 
ATOM     90  C   UNL     1     -15.984  -5.070  -9.821  1.00  0.00     0.020 A 
ATOM     91  C   UNL     1     -15.784  -6.270  -7.739  1.00  0.00     0.020 A 
ATOM     92  C   UNL     1     -16.429  -6.065  -8.950  1.00  0.00     0.054 A 
BRANCH  92  93
ATOM     93  S   UNL     1     -17.802  -7.139  -9.439  1.00  0.00     0.124 S 
ATOM     94  O   UNL     1     -18.961  -6.358  -9.014  1.00  0.00    -0.237 OA
ATOM     95  O   UNL     1     -17.625  -7.260 -10.885  1.00  0.00    -0.237 OA
ATOM     96  O   UNL     1     -17.562  -8.367  -8.686  1.00  0.00    -0.744 OA
ENDBRANCH  92  93
ENDBRANCH  66  87
ENDBRANCH  40  41
ENDBRANCH  32  35
ENDBRANCH  30  31
ENDBRANCH  29  30
ENDBRANCH  28  29
ENDBRANCH   1  28
TORSDOF 20
