REMARK SMILES C=CCN1C(=O)/C(=C\c2cccn2-c2ccc(C(=O)NCCCCCCNC(=O)c3ccc(-c4c5nc(c(-c6ccc(S(=O)(=O)[O-])cc6)c6ccc([nH]6)c(-c6ccc(S(=O)(=O)[O-])cc6)c6nc(c(-c7ccc(S(=O)(=O)[O-])cc7)c7ccc4[nH]7)C=C6)C=C5)cc3)cc2)C(O)=NC1=S
REMARK SMILES IDX 23 1 22 2 21 3 20 4 18 5 19 6 17 8 14 9 15 10 91 11 16 12
REMARK SMILES IDX 90 13 13 14 9 15 10 16 11 17 12 18 8 19 4 20 5 21 95 22 6 23
REMARK SMILES IDX 7 24 94 25 96 26 92 27 3 28 2 29 1 30 93 31 24 33 25 34
REMARK SMILES IDX 26 35 27 36 28 37 29 39 30 40 31 41 89 42 32 43 88 44 33 45
REMARK SMILES IDX 34 46 35 47 82 48 36 49 87 50 81 51 83 52 37 53 86 54 80 55
REMARK SMILES IDX 79 56 38 58 68 59 49 60 67 61 50 62 53 63 66 64 84 65 51 66
REMARK SMILES IDX 52 67 65 69 85 70 54 71 39 72 40 73 48 74 41 75 47 76 42 77
REMARK SMILES IDX 43 78 44 79 45 80 46 81 69 82 70 83 78 84 71 85 77 86 72 87
REMARK SMILES IDX 73 88 74 89 75 90 76 91 55 92 56 93 64 94 57 95 63 96 58 97
REMARK SMILES IDX 59 98 60 99 61 100 62 101
REMARK H PARENT 20 7 93 32 27 38 83 57 53 68
REMARK Flexibility Score: inf
ROOT
ATOM      1  C   UNL     1      -9.307  -6.926  -1.198  1.00  0.00     0.002 C 
ENDROOT
BRANCH   1   2
ATOM      2  C   UNL     1      -7.878  -6.383  -1.055  1.00  0.00     0.021 C 
BRANCH   2   3
ATOM      3  C   UNL     1      -7.181  -6.877   0.213  1.00  0.00     0.116 C 
BRANCH   3   4
ATOM      4  N   UNL     1      -6.654  -8.210   0.000  1.00  0.00    -0.352 N 
ATOM      5  C   UNL     1      -5.394  -8.693  -0.231  1.00  0.00     0.251 C 
ATOM      6  O   UNL     1      -5.281  -9.910  -0.390  1.00  0.00    -0.269 OA
ATOM      7  H   UNL     1      -7.344  -8.912   0.027  1.00  0.00     0.163 HD
BRANCH   5   8
ATOM      8  C   UNL     1      -4.165  -7.848  -0.208  1.00  0.00     0.039 A 
ATOM      9  C   UNL     1      -1.774  -6.418   0.060  1.00  0.00     0.046 A 
ATOM     10  C   UNL     1      -1.754  -7.806   0.176  1.00  0.00     0.027 A 
ATOM     11  C   UNL     1      -2.951  -5.743  -0.267  1.00  0.00     0.027 A 
ATOM     12  C   UNL     1      -2.955  -8.510   0.075  1.00  0.00     0.016 A 
ATOM     13  C   UNL     1      -4.128  -6.473  -0.458  1.00  0.00     0.016 A 
BRANCH   9  14
ATOM     14  N   UNL     1      -0.572  -5.686   0.166  1.00  0.00    -0.317 N 
ATOM     15  C   UNL     1      -0.289  -4.638   1.034  1.00  0.00     0.047 A 
ATOM     16  C   UNL     1       0.929  -4.102   0.649  1.00  0.00     0.028 A 
ATOM     17  C   UNL     1       1.423  -4.870  -0.429  1.00  0.00     0.020 A 
ATOM     18  C   UNL     1       0.510  -5.871  -0.668  1.00  0.00     0.092 A 
BRANCH  15  19
ATOM     19  C   UNL     1      -1.123  -4.352   2.152  1.00  0.00     0.046 C 
ATOM     20  N   UNL     1      -1.731  -0.767   1.971  1.00  0.00    -0.279 N 
ATOM     21  C   UNL     1      -1.659  -2.038   1.403  1.00  0.00     0.265 C 
ATOM     22  C   UNL     1      -2.210  -0.541   3.270  1.00  0.00     0.206 C 
ATOM     23  O   UNL     1      -1.627  -2.251   0.194  1.00  0.00    -0.268 OA
ATOM     24  C   UNL     1      -1.696  -3.154   2.379  1.00  0.00     0.104 C 
ATOM     25  N   UNL     1      -2.588  -1.617   4.038  1.00  0.00    -0.184 NA
ATOM     26  S   UNL     1      -2.370   0.997   3.968  1.00  0.00    -0.038 S 
ATOM     27  C   UNL     1      -2.342  -2.811   3.645  1.00  0.00     0.226 C 
BRANCH  20  28
ATOM     28  C   UNL     1      -1.335   0.320   1.068  1.00  0.00     0.155 C 
BRANCH  28  29
ATOM     29  C   UNL     1       0.172   0.407   1.077  1.00  0.00    -0.013 C 
ATOM     30  C   UNL     1       0.945   0.102   0.025  1.00  0.00     0.006 C 
ENDBRANCH  28  29
ENDBRANCH  20  28
BRANCH  27  31
ATOM     31  O   UNL     1      -2.723  -3.808   4.463  1.00  0.00    -0.493 OA
ATOM     32  H   UNL     1      -2.566  -4.699   4.220  1.00  0.00     0.295 HD
ENDBRANCH  27  31
ENDBRANCH  15  19
ENDBRANCH   9  14
ENDBRANCH   5   8
ENDBRANCH   3   4
ENDBRANCH   2   3
ENDBRANCH   1   2
BRANCH   1  33
ATOM     33  C   UNL     1     -10.258  -6.535  -0.057  1.00  0.00     0.002 C 
BRANCH  33  34
ATOM     34  C   UNL     1     -10.319  -5.030   0.245  1.00  0.00     0.021 C 
BRANCH  34  35
ATOM     35  C   UNL     1     -10.963  -4.221  -0.881  1.00  0.00     0.116 C 
BRANCH  35  36
ATOM     36  N   UNL     1     -12.378  -4.539  -0.963  1.00  0.00    -0.352 N 
ATOM     37  C   UNL     1     -13.368  -4.041  -1.765  1.00  0.00     0.251 C 
ATOM     38  H   UNL     1     -12.677  -5.232  -0.330  1.00  0.00     0.163 HD
ATOM     39  O   UNL     1     -14.530  -4.174  -1.399  1.00  0.00    -0.269 OA
BRANCH  37  40
ATOM     40  C   UNL     1     -13.080  -3.353  -3.043  1.00  0.00     0.039 A 
ATOM     41  C   UNL     1     -13.966  -2.342  -3.438  1.00  0.00     0.014 A 
ATOM     42  C   UNL     1     -12.049  -3.753  -3.901  1.00  0.00     0.014 A 
ATOM     43  C   UNL     1     -13.793  -1.702  -4.660  1.00  0.00     0.010 A 
ATOM     44  C   UNL     1     -11.860  -3.102  -5.120  1.00  0.00     0.010 A 
ATOM     45  C   UNL     1     -12.724  -2.067  -5.490  1.00  0.00    -0.014 A 
BRANCH  45  46
ATOM     46  C   UNL     1     -12.403  -1.192  -6.641  1.00  0.00     0.031 A 
ATOM     47  C   UNL     1     -11.658   0.075  -6.163  1.00  0.00     0.074 A 
ATOM     48  C   UNL     1     -12.851  -1.581  -7.877  1.00  0.00     0.049 A 
ATOM     49  N   UNL     1     -11.680   1.278  -6.643  1.00  0.00    -0.248 NA
ATOM     50  C   UNL     1     -10.844   0.025  -4.913  1.00  0.00     0.031 C 
ATOM     51  C   UNL     1     -13.512  -2.876  -8.170  1.00  0.00     0.029 A 
ATOM     52  N   UNL     1     -12.855  -0.997  -9.131  1.00  0.00    -0.354 N 
ATOM     53  C   UNL     1     -10.775   2.067  -5.891  1.00  0.00     0.074 A 
ATOM     54  C   UNL     1     -10.375   1.269  -4.775  1.00  0.00     0.031 C 
ATOM     55  C   UNL     1     -13.915  -2.941  -9.461  1.00  0.00     0.029 A 
ATOM     56  C   UNL     1     -13.556  -1.713 -10.144  1.00  0.00     0.049 A 
ATOM     57  H   UNL     1     -12.402  -0.142  -9.312  1.00  0.00     0.167 HD
ATOM     58  C   UNL     1     -10.312   3.280  -6.319  1.00  0.00     0.031 A 
ATOM     59  C   UNL     1     -13.867  -1.324 -11.424  1.00  0.00     0.031 A 
ATOM     60  C   UNL     1     -10.924   3.610  -7.560  1.00  0.00     0.049 A 
ATOM     61  C   UNL     1     -13.173  -0.043 -11.616  1.00  0.00     0.074 A 
ATOM     62  C   UNL     1     -12.206   3.953  -7.899  1.00  0.00     0.029 A 
ATOM     63  N   UNL     1     -10.246   3.196  -8.682  1.00  0.00    -0.354 N 
ATOM     64  N   UNL     1     -11.896   0.095 -11.793  1.00  0.00    -0.248 NA
ATOM     65  C   UNL     1     -13.960   1.197 -11.556  1.00  0.00     0.031 C 
ATOM     66  C   UNL     1     -12.412   3.229  -9.091  1.00  0.00     0.029 A 
ATOM     67  C   UNL     1     -11.191   2.712  -9.545  1.00  0.00     0.049 A 
ATOM     68  H   UNL     1      -9.274   3.240  -8.834  1.00  0.00     0.167 HD
ATOM     69  C   UNL     1     -11.705   1.410 -11.458  1.00  0.00     0.074 A 
ATOM     70  C   UNL     1     -12.972   2.081 -11.668  1.00  0.00     0.031 C 
ATOM     71  C   UNL     1     -10.784   1.724 -10.512  1.00  0.00     0.031 A 
BRANCH  58  72
ATOM     72  C   UNL     1      -9.139   4.132  -5.905  1.00  0.00    -0.014 A 
ATOM     73  C   UNL     1      -9.071   5.437  -6.467  1.00  0.00     0.010 A 
ATOM     74  C   UNL     1      -7.972   3.622  -5.322  1.00  0.00     0.010 A 
ATOM     75  C   UNL     1      -7.867   6.130  -6.586  1.00  0.00     0.020 A 
ATOM     76  C   UNL     1      -6.761   4.336  -5.399  1.00  0.00     0.020 A 
ATOM     77  C   UNL     1      -6.708   5.556  -6.079  1.00  0.00     0.054 A 
BRANCH  77  78
ATOM     78  S   UNL     1      -5.133   6.399  -6.392  1.00  0.00     0.124 S 
ATOM     79  O   UNL     1      -4.959   6.205  -7.828  1.00  0.00    -0.237 OA
ATOM     80  O   UNL     1      -5.422   7.771  -5.978  1.00  0.00    -0.237 OA
ATOM     81  O   UNL     1      -4.186   5.686  -5.539  1.00  0.00    -0.744 OA
ENDBRANCH  77  78
ENDBRANCH  58  72
BRANCH  59  82
ATOM     82  C   UNL     1     -14.751  -1.741 -12.588  1.00  0.00    -0.014 A 
ATOM     83  C   UNL     1     -15.514  -2.908 -12.697  1.00  0.00     0.010 A 
ATOM     84  C   UNL     1     -14.936  -0.798 -13.646  1.00  0.00     0.010 A 
ATOM     85  C   UNL     1     -16.510  -3.039 -13.704  1.00  0.00     0.020 A 
ATOM     86  C   UNL     1     -15.947  -0.885 -14.604  1.00  0.00     0.020 A 
ATOM     87  C   UNL     1     -16.759  -2.000 -14.611  1.00  0.00     0.054 A 
BRANCH  87  88
ATOM     88  S   UNL     1     -18.218  -2.012 -15.696  1.00  0.00     0.124 S 
ATOM     89  O   UNL     1     -17.761  -2.802 -16.834  1.00  0.00    -0.237 OA
ATOM     90  O   UNL     1     -19.238  -2.638 -14.858  1.00  0.00    -0.237 OA
ATOM     91  O   UNL     1     -18.448  -0.594 -15.974  1.00  0.00    -0.744 OA
ENDBRANCH  87  88
ENDBRANCH  59  82
BRANCH  71  92
ATOM     92  C   UNL     1      -9.634   0.738 -10.350  1.00  0.00    -0.014 A 
ATOM     93  C   UNL     1      -8.807   0.459 -11.454  1.00  0.00     0.010 A 
ATOM     94  C   UNL     1      -9.386   0.015  -9.164  1.00  0.00     0.010 A 
ATOM     95  C   UNL     1      -7.777  -0.492 -11.384  1.00  0.00     0.020 A 
ATOM     96  C   UNL     1      -8.355  -0.944  -9.083  1.00  0.00     0.020 A 
ATOM     97  C   UNL     1      -7.552  -1.187 -10.197  1.00  0.00     0.054 A 
BRANCH  97  98
ATOM     98  S   UNL     1      -6.199  -2.403 -10.143  1.00  0.00     0.124 S 
ATOM     99  O   UNL     1      -6.557  -3.335 -11.209  1.00  0.00    -0.237 OA
ATOM    100  O   UNL     1      -5.023  -1.579 -10.405  1.00  0.00    -0.237 OA
ATOM    101  O   UNL     1      -6.278  -2.958  -8.791  1.00  0.00    -0.744 OA
ENDBRANCH  97  98
ENDBRANCH  71  92
ENDBRANCH  45  46
ENDBRANCH  37  40
ENDBRANCH  35  36
ENDBRANCH  34  35
ENDBRANCH  33  34
ENDBRANCH   1  33
TORSDOF 21
