REMARK SMILES CC(C)=CC(=O)Nc1ccc(C(=O)NCCCCCCNC(=O)c2ccc(-c3c4nc(c(-c5ccc(S(=O)(=O)[O-])cc5)c5ccc([nH]5)c(-c5ccc(S(=O)(=O)[O-])cc5)c5nc(c(-c6ccc(S(=O)(=O)[O-])cc6)c6ccc3[nH]6)C=C5)C=C4)cc2)cc1
REMARK SMILES IDX 18 1 17 2 16 3 15 4 14 5 12 6 13 7 11 9 8 10 9 11 85 12
REMARK SMILES IDX 10 13 84 14 7 15 5 16 6 17 4 19 1 20 2 21 3 22 19 23 20 24
REMARK SMILES IDX 21 25 22 26 23 28 24 29 25 30 83 31 26 32 82 33 27 34 28 35
REMARK SMILES IDX 29 36 76 37 30 38 81 39 75 40 77 41 31 42 80 43 74 44 73 45
REMARK SMILES IDX 32 47 62 48 43 49 61 50 44 51 47 52 60 53 78 54 45 55 46 56
REMARK SMILES IDX 59 58 79 59 48 60 33 61 34 62 42 63 35 64 41 65 36 66 37 67
REMARK SMILES IDX 38 68 39 69 40 70 63 71 64 72 72 73 65 74 71 75 66 76 67 77
REMARK SMILES IDX 68 78 69 79 70 80 49 81 50 82 58 83 51 84 57 85 52 86 53 87
REMARK SMILES IDX 54 88 55 89 56 90
REMARK H PARENT 14 8 7 18 21 27 77 46 47 57
REMARK Flexibility Score: inf
ROOT
ATOM      1  C   UNL     1       0.842   6.848   2.008  1.00  0.00     0.002 C 
ENDROOT
BRANCH   1   2
ATOM      2  C   UNL     1       1.983   6.378   1.097  1.00  0.00     0.002 C 
BRANCH   2   3
ATOM      3  C   UNL     1       2.196   4.859   1.069  1.00  0.00     0.021 C 
BRANCH   3   4
ATOM      4  C   UNL     1       1.037   4.102   0.417  1.00  0.00     0.116 C 
BRANCH   4   5
ATOM      5  N   UNL     1       1.087   4.270  -1.027  1.00  0.00    -0.352 N 
ATOM      6  C   UNL     1       1.523   3.447  -2.034  1.00  0.00     0.251 C 
ATOM      7  O   UNL     1       1.470   3.857  -3.192  1.00  0.00    -0.269 OA
ATOM      8  H   UNL     1       0.744   5.138  -1.340  1.00  0.00     0.163 HD
BRANCH   6   9
ATOM      9  C   UNL     1       1.943   2.045  -1.779  1.00  0.00     0.039 A 
ATOM     10  C   UNL     1       2.197  -0.675  -1.220  1.00  0.00     0.041 A 
ATOM     11  C   UNL     1       1.732  -0.270  -2.471  1.00  0.00     0.027 A 
ATOM     12  C   UNL     1       2.714   0.268  -0.333  1.00  0.00     0.027 A 
ATOM     13  C   UNL     1       1.569   1.090  -2.734  1.00  0.00     0.016 A 
ATOM     14  C   UNL     1       2.625   1.629  -0.634  1.00  0.00     0.016 A 
BRANCH  10  15
ATOM     15  N   UNL     1       2.055  -2.025  -0.888  1.00  0.00    -0.323 N 
ATOM     16  C   UNL     1       1.696  -2.598   0.298  1.00  0.00     0.248 C 
ATOM     17  O   UNL     1       1.797  -3.818   0.439  1.00  0.00    -0.270 OA
ATOM     18  H   UNL     1       2.242  -2.658  -1.619  1.00  0.00     0.170 HD
BRANCH  16  19
ATOM     19  C   UNL     1       1.128  -1.799   1.421  1.00  0.00     0.070 C 
ATOM     20  C   UNL     1      -0.682  -0.489   0.192  1.00  0.00     0.039 C 
ATOM     21  C   UNL     1       0.104  -0.919   1.401  1.00  0.00    -0.071 C 
ATOM     22  C   UNL     1      -0.388  -0.299   2.685  1.00  0.00     0.039 C 
ENDBRANCH  16  19
ENDBRANCH  10  15
ENDBRANCH   6   9
ENDBRANCH   4   5
ENDBRANCH   3   4
ENDBRANCH   2   3
ENDBRANCH   1   2
BRANCH   1  23
ATOM     23  C   UNL     1       0.968   6.432   3.477  1.00  0.00     0.021 C 
BRANCH  23  24
ATOM     24  C   UNL     1       2.243   6.904   4.173  1.00  0.00     0.116 C 
BRANCH  24  25
ATOM     25  N   UNL     1       2.333   8.353   4.221  1.00  0.00    -0.352 N 
ATOM     26  C   UNL     1       2.600   9.181   5.281  1.00  0.00     0.251 C 
ATOM     27  H   UNL     1       2.179   8.810   3.362  1.00  0.00     0.163 HD
ATOM     28  O   UNL     1       2.437  10.392   5.156  1.00  0.00    -0.269 OA
BRANCH  26  29
ATOM     29  C   UNL     1       3.067   8.628   6.573  1.00  0.00     0.039 A 
ATOM     30  C   UNL     1       2.559   9.175   7.755  1.00  0.00     0.014 A 
ATOM     31  C   UNL     1       4.033   7.618   6.631  1.00  0.00     0.014 A 
ATOM     32  C   UNL     1       2.989   8.684   8.990  1.00  0.00     0.010 A 
ATOM     33  C   UNL     1       4.415   7.087   7.864  1.00  0.00     0.010 A 
ATOM     34  C   UNL     1       3.907   7.623   9.056  1.00  0.00    -0.014 A 
BRANCH  34  35
ATOM     35  C   UNL     1       4.338   7.077  10.369  1.00  0.00     0.031 A 
ATOM     36  C   UNL     1       5.763   7.231  10.832  1.00  0.00     0.074 A 
ATOM     37  C   UNL     1       3.450   6.417  11.137  1.00  0.00     0.049 A 
ATOM     38  N   UNL     1       6.311   6.839  11.954  1.00  0.00    -0.248 NA
ATOM     39  C   UNL     1       6.698   7.891   9.907  1.00  0.00     0.031 C 
ATOM     40  C   UNL     1       2.053   6.155  10.781  1.00  0.00     0.029 A 
ATOM     41  N   UNL     1       3.587   5.848  12.378  1.00  0.00    -0.354 N 
ATOM     42  C   UNL     1       7.652   7.194  11.867  1.00  0.00     0.074 A 
ATOM     43  C   UNL     1       7.846   7.789  10.562  1.00  0.00     0.031 C 
ATOM     44  C   UNL     1       1.455   5.508  11.794  1.00  0.00     0.029 A 
ATOM     45  C   UNL     1       2.429   5.285  12.858  1.00  0.00     0.049 A 
ATOM     46  H   UNL     1       4.436   5.844  12.877  1.00  0.00     0.167 HD
ATOM     47  C   UNL     1       8.631   7.055  12.794  1.00  0.00     0.031 A 
ATOM     48  C   UNL     1       2.174   4.667  14.027  1.00  0.00     0.031 A 
ATOM     49  C   UNL     1       8.436   6.475  14.096  1.00  0.00     0.049 A 
ATOM     50  C   UNL     1       3.268   4.548  15.050  1.00  0.00     0.074 A 
ATOM     51  C   UNL     1       9.352   6.340  15.126  1.00  0.00     0.029 A 
ATOM     52  N   UNL     1       7.243   5.933  14.550  1.00  0.00    -0.354 N 
ATOM     53  N   UNL     1       4.514   4.951  14.974  1.00  0.00    -0.248 NA
ATOM     54  C   UNL     1       2.916   3.908  16.325  1.00  0.00     0.031 C 
ATOM     55  C   UNL     1       8.723   5.680  16.188  1.00  0.00     0.029 A 
ATOM     56  C   UNL     1       7.403   5.448  15.838  1.00  0.00     0.049 A 
ATOM     57  H   UNL     1       6.406   5.897  14.034  1.00  0.00     0.167 HD
ATOM     58  C   UNL     1       5.089   4.635  16.200  1.00  0.00     0.074 A 
ATOM     59  C   UNL     1       4.050   4.023  17.003  1.00  0.00     0.031 C 
ATOM     60  C   UNL     1       6.362   4.833  16.622  1.00  0.00     0.031 A 
BRANCH  47  61
ATOM     61  C   UNL     1      10.008   7.543  12.426  1.00  0.00    -0.014 A 
ATOM     62  C   UNL     1      10.285   8.918  12.316  1.00  0.00     0.010 A 
ATOM     63  C   UNL     1      11.047   6.617  12.220  1.00  0.00     0.010 A 
ATOM     64  C   UNL     1      11.564   9.357  11.963  1.00  0.00     0.020 A 
ATOM     65  C   UNL     1      12.335   7.054  11.892  1.00  0.00     0.020 A 
ATOM     66  C   UNL     1      12.580   8.421  11.747  1.00  0.00     0.054 A 
BRANCH  66  67
ATOM     67  S   UNL     1      14.234   9.018  11.304  1.00  0.00     0.124 S 
ATOM     68  O   UNL     1      14.050   9.402   9.906  1.00  0.00    -0.237 OA
ATOM     69  O   UNL     1      14.439  10.124  12.236  1.00  0.00    -0.237 OA
ATOM     70  O   UNL     1      15.092   7.856  11.523  1.00  0.00    -0.744 OA
ENDBRANCH  66  67
ENDBRANCH  47  61
BRANCH  48  71
ATOM     71  C   UNL     1       0.809   4.144  14.305  1.00  0.00    -0.014 A 
ATOM     72  C   UNL     1      -0.029   4.794  15.227  1.00  0.00     0.010 A 
ATOM     73  C   UNL     1       0.334   3.004  13.632  1.00  0.00     0.010 A 
ATOM     74  C   UNL     1      -1.313   4.304  15.483  1.00  0.00     0.020 A 
ATOM     75  C   UNL     1      -0.958   2.526  13.867  1.00  0.00     0.020 A 
ATOM     76  C   UNL     1      -1.770   3.174  14.800  1.00  0.00     0.054 A 
BRANCH  76  77
ATOM     77  S   UNL     1      -3.461   2.589  15.102  1.00  0.00     0.124 S 
ATOM     78  O   UNL     1      -3.325   1.921  16.392  1.00  0.00    -0.237 OA
ATOM     79  O   UNL     1      -4.230   3.832  15.109  1.00  0.00    -0.237 OA
ATOM     80  O   UNL     1      -3.724   1.711  13.964  1.00  0.00    -0.744 OA
ENDBRANCH  76  77
ENDBRANCH  48  71
BRANCH  60  81
ATOM     81  C   UNL     1       6.692   4.407  18.027  1.00  0.00    -0.014 A 
ATOM     82  C   UNL     1       6.804   3.047  18.368  1.00  0.00     0.010 A 
ATOM     83  C   UNL     1       6.916   5.383  19.015  1.00  0.00     0.010 A 
ATOM     84  C   UNL     1       7.090   2.670  19.683  1.00  0.00     0.020 A 
ATOM     85  C   UNL     1       7.227   5.010  20.325  1.00  0.00     0.020 A 
ATOM     86  C   UNL     1       7.293   3.655  20.655  1.00  0.00     0.054 A 
BRANCH  86  87
ATOM     87  S   UNL     1       7.678   3.145  22.352  1.00  0.00     0.124 S 
ATOM     88  O   UNL     1       6.367   2.738  22.851  1.00  0.00    -0.237 OA
ATOM     89  O   UNL     1       8.639   2.062  22.154  1.00  0.00    -0.237 OA
ATOM     90  O   UNL     1       8.229   4.354  22.959  1.00  0.00    -0.744 OA
ENDBRANCH  86  87
ENDBRANCH  60  81
ENDBRANCH  34  35
ENDBRANCH  26  29
ENDBRANCH  24  25
ENDBRANCH  23  24
ENDBRANCH   1  23
TORSDOF 18
