REMARK SMILES O=C(NCCCCCCNC(=O)[C@@H]1CSc2ccccc21)c1ccc(-c2c3nc(c(-c4ccc(S(=O)(=O)[O-])cc4)c4ccc([nH]4)c(-c4ccc(S(=O)(=O)[O-])cc4)c4nc(c(-c5ccc(S(=O)(=O)[O-])cc5)c5ccc2[nH]5)C=C4)C=C3)cc1
REMARK SMILES IDX 5 1 4 2 3 3 1 4 2 5 22 7 23 8 81 9 24 10 80 11 25 12 26 13
REMARK SMILES IDX 27 14 74 15 28 16 79 17 73 18 75 19 29 20 78 21 72 22 71 23
REMARK SMILES IDX 30 25 60 26 41 27 59 28 42 29 45 30 58 31 76 32 43 33 44 34
REMARK SMILES IDX 57 36 77 37 46 38 31 39 32 40 40 41 33 42 39 43 34 44 35 45
REMARK SMILES IDX 36 46 37 47 38 48 61 49 62 50 70 51 63 52 69 53 64 54 65 55
REMARK SMILES IDX 66 56 67 57 68 58 47 59 48 60 56 61 49 62 55 63 50 64 51 65
REMARK SMILES IDX 52 66 53 67 54 68 6 69 7 70 8 71 9 72 10 73 11 74 12 76
REMARK SMILES IDX 13 77 14 78 21 79 15 80 16 81 20 82 17 83 19 84 18 85
REMARK H PARENT 3 6 75 24 45 35 10 75
REMARK Flexibility Score: inf
ROOT
ATOM      1  C   UNL     1      14.437   4.810  -6.612  1.00  0.00     0.021 C 
ENDROOT
BRANCH   1   2
ATOM      2  C   UNL     1      15.683   4.272  -5.921  1.00  0.00     0.116 C 
BRANCH   2   3
ATOM      3  N   UNL     1      16.883   4.457  -6.718  1.00  0.00    -0.352 N 
ATOM      4  O   UNL     1      18.910   5.266  -7.256  1.00  0.00    -0.269 OA
ATOM      5  C   UNL     1      18.072   5.044  -6.378  1.00  0.00     0.251 C 
ATOM      6  H   UNL     1      16.834   4.109  -7.638  1.00  0.00     0.163 HD
BRANCH   5   7
ATOM      7  C   UNL     1      18.357   5.422  -4.976  1.00  0.00     0.039 A 
ATOM      8  C   UNL     1      19.035   6.618  -4.724  1.00  0.00     0.014 A 
ATOM      9  C   UNL     1      18.006   4.585  -3.912  1.00  0.00     0.014 A 
ATOM     10  C   UNL     1      19.345   6.980  -3.411  1.00  0.00     0.010 A 
ATOM     11  C   UNL     1      18.238   4.987  -2.600  1.00  0.00     0.010 A 
ATOM     12  C   UNL     1      18.941   6.171  -2.336  1.00  0.00    -0.014 A 
BRANCH  12  13
ATOM     13  C   UNL     1      19.314   6.507  -0.938  1.00  0.00     0.031 A 
ATOM     14  C   UNL     1      20.230   5.591  -0.170  1.00  0.00     0.074 A 
ATOM     15  C   UNL     1      18.828   7.619  -0.354  1.00  0.00     0.049 A 
ATOM     16  N   UNL     1      20.648   5.689   1.065  1.00  0.00    -0.248 NA
ATOM     17  C   UNL     1      20.724   4.395  -0.875  1.00  0.00     0.031 C 
ATOM     18  C   UNL     1      17.923   8.577  -0.990  1.00  0.00     0.029 A 
ATOM     19  N   UNL     1      19.037   8.138   0.900  1.00  0.00    -0.354 N 
ATOM     20  C   UNL     1      21.450   4.575   1.282  1.00  0.00     0.074 A 
ATOM     21  C   UNL     1      21.396   3.772   0.081  1.00  0.00     0.031 C 
ATOM     22  C   UNL     1      17.690   9.589  -0.139  1.00  0.00     0.029 A 
ATOM     23  C   UNL     1      18.391   9.332   1.117  1.00  0.00     0.049 A 
ATOM     24  H   UNL     1      19.595   7.696   1.580  1.00  0.00     0.167 HD
ATOM     25  C   UNL     1      22.199   4.266   2.366  1.00  0.00     0.031 A 
ATOM     26  C   UNL     1      18.369  10.137   2.200  1.00  0.00     0.031 A 
ATOM     27  C   UNL     1      22.262   5.077   3.552  1.00  0.00     0.049 A 
ATOM     28  C   UNL     1      19.182   9.764   3.408  1.00  0.00     0.074 A 
ATOM     29  C   UNL     1      23.002   4.859   4.700  1.00  0.00     0.029 A 
ATOM     30  N   UNL     1      21.574   6.267   3.739  1.00  0.00    -0.354 N 
ATOM     31  N   UNL     1      19.950   8.715   3.588  1.00  0.00    -0.248 NA
ATOM     32  C   UNL     1      19.142  10.684   4.553  1.00  0.00     0.031 C 
ATOM     33  C   UNL     1      22.717   5.885   5.604  1.00  0.00     0.029 A 
ATOM     34  C   UNL     1      21.858   6.785   4.991  1.00  0.00     0.049 A 
ATOM     35  H   UNL     1      20.973   6.682   3.079  1.00  0.00     0.167 HD
ATOM     36  C   UNL     1      20.496   8.856   4.859  1.00  0.00     0.074 A 
ATOM     37  C   UNL     1      19.987  10.102   5.395  1.00  0.00     0.031 C 
ATOM     38  C   UNL     1      21.339   8.024   5.519  1.00  0.00     0.031 A 
BRANCH  25  39
ATOM     39  C   UNL     1      23.038   3.014   2.310  1.00  0.00    -0.014 A 
ATOM     40  C   UNL     1      22.776   1.945   3.185  1.00  0.00     0.010 A 
ATOM     41  C   UNL     1      24.142   2.928   1.440  1.00  0.00     0.010 A 
ATOM     42  C   UNL     1      23.612   0.825   3.208  1.00  0.00     0.020 A 
ATOM     43  C   UNL     1      24.960   1.796   1.435  1.00  0.00     0.020 A 
ATOM     44  C   UNL     1      24.703   0.760   2.336  1.00  0.00     0.054 A 
BRANCH  44  45
ATOM     45  S   UNL     1      25.780  -0.698   2.383  1.00  0.00     0.124 S 
ATOM     46  O   UNL     1      26.550  -0.473   3.602  1.00  0.00    -0.237 OA
ATOM     47  O   UNL     1      24.823  -1.801   2.434  1.00  0.00    -0.237 OA
ATOM     48  O   UNL     1      26.538  -0.603   1.137  1.00  0.00    -0.744 OA
ENDBRANCH  44  45
ENDBRANCH  25  39
BRANCH  26  49
ATOM     49  C   UNL     1      17.589  11.405   2.135  1.00  0.00    -0.014 A 
ATOM     50  C   UNL     1      16.183  11.376   2.058  1.00  0.00     0.010 A 
ATOM     51  C   UNL     1      18.252  12.639   2.020  1.00  0.00     0.010 A 
ATOM     52  C   UNL     1      15.462  12.543   1.791  1.00  0.00     0.020 A 
ATOM     53  C   UNL     1      17.531  13.815   1.784  1.00  0.00     0.020 A 
ATOM     54  C   UNL     1      16.144  13.752   1.633  1.00  0.00     0.054 A 
BRANCH  54  55
ATOM     55  S   UNL     1      15.197  15.232   1.181  1.00  0.00     0.124 S 
ATOM     56  O   UNL     1      14.876  14.964  -0.218  1.00  0.00    -0.237 OA
ATOM     57  O   UNL     1      14.068  15.182   2.106  1.00  0.00    -0.237 OA
ATOM     58  O   UNL     1      16.139  16.325   1.409  1.00  0.00    -0.744 OA
ENDBRANCH  54  55
ENDBRANCH  26  49
BRANCH  38  59
ATOM     59  C   UNL     1      21.776   8.408   6.910  1.00  0.00    -0.014 A 
ATOM     60  C   UNL     1      23.130   8.705   7.160  1.00  0.00     0.010 A 
ATOM     61  C   UNL     1      20.881   8.335   7.992  1.00  0.00     0.010 A 
ATOM     62  C   UNL     1      23.588   8.883   8.468  1.00  0.00     0.020 A 
ATOM     63  C   UNL     1      21.330   8.544   9.299  1.00  0.00     0.020 A 
ATOM     64  C   UNL     1      22.686   8.789   9.530  1.00  0.00     0.054 A 
BRANCH  64  65
ATOM     65  S   UNL     1      23.307   8.983  11.224  1.00  0.00     0.124 S 
ATOM     66  O   UNL     1      23.975   7.705  11.454  1.00  0.00    -0.237 OA
ATOM     67  O   UNL     1      24.188  10.143  11.112  1.00  0.00    -0.237 OA
ATOM     68  O   UNL     1      22.095   9.204  12.010  1.00  0.00    -0.744 OA
ENDBRANCH  64  65
ENDBRANCH  38  59
ENDBRANCH  12  13
ENDBRANCH   5   7
ENDBRANCH   2   3
ENDBRANCH   1   2
BRANCH   1  69
ATOM     69  C   UNL     1      14.081   4.139  -7.941  1.00  0.00     0.002 C 
BRANCH  69  70
ATOM     70  C   UNL     1      13.917   2.617  -7.902  1.00  0.00     0.002 C 
BRANCH  70  71
ATOM     71  C   UNL     1      12.970   2.070  -6.830  1.00  0.00     0.021 C 
BRANCH  71  72
ATOM     72  C   UNL     1      11.577   2.689  -6.799  1.00  0.00     0.116 C 
BRANCH  72  73
ATOM     73  N   UNL     1      10.802   2.425  -7.994  1.00  0.00    -0.356 N 
ATOM     74  C   UNL     1       9.534   1.969  -8.165  1.00  0.00     0.228 C 
ATOM     75  H   UNL     1      11.282   2.608  -8.834  1.00  0.00     0.163 HD
ATOM     76  O   UNL     1       9.123   1.920  -9.332  1.00  0.00    -0.274 OA
BRANCH  74  77
ATOM     77  C   UNL     1       8.637   1.460  -7.034  1.00  0.00     0.120 C 
ATOM     78  C   UNL     1       8.505   2.351  -5.792  1.00  0.00     0.093 C 
ATOM     79  C   UNL     1       8.990   0.061  -6.596  1.00  0.00    -0.021 A 
ATOM     80  S   UNL     1       9.101   1.422  -4.331  1.00  0.00    -0.125 SA
ATOM     81  C   UNL     1       9.300  -0.077  -5.245  1.00  0.00     0.011 A 
ATOM     82  C   UNL     1       8.998  -1.052  -7.435  1.00  0.00     0.006 A 
ATOM     83  C   UNL     1       9.689  -1.303  -4.725  1.00  0.00     0.015 A 
ATOM     84  C   UNL     1       9.360  -2.295  -6.914  1.00  0.00     0.000 A 
ATOM     85  C   UNL     1       9.721  -2.417  -5.568  1.00  0.00     0.001 A 
ENDBRANCH  74  77
ENDBRANCH  72  73
ENDBRANCH  71  72
ENDBRANCH  70  71
ENDBRANCH  69  70
ENDBRANCH   1  69
TORSDOF 16
