REMARK SMILES CCCCCCNC(=O)Oc1cccc(-c2ccc([C@@H](C)C(=O)NCCCCCCNC(=O)c3ccc(-c4c5nc(c(-c6ccc(S(=O)(=O)[O-])cc6)c6ccc([nH]6)c(-c6ccc(S(=O)(=O)[O-])cc6)c6nc(c(-c7ccc(S(=O)(=O)[O-])cc7)c7ccc4[nH]7)C=C6)C=C5)cc3)cc2Cl)c1
REMARK SMILES IDX 22 1 23 2 24 3 20 5 21 6 19 7 16 8 17 9 95 10 18 11 94 12
REMARK SMILES IDX 96 13 15 14 11 15 12 16 97 17 13 18 14 19 10 20 8 21 7 22
REMARK SMILES IDX 9 24 6 25 5 26 4 27 3 28 2 29 1 30 25 31 26 32 27 33 28 34
REMARK SMILES IDX 29 35 30 36 31 37 32 38 33 40 34 41 35 42 93 43 36 44 92 45
REMARK SMILES IDX 37 46 38 47 39 48 86 49 40 50 91 51 85 52 87 53 41 54 90 55
REMARK SMILES IDX 84 56 83 57 42 59 72 60 53 61 71 62 54 63 57 64 70 65 88 66
REMARK SMILES IDX 55 67 56 68 69 70 89 71 58 72 43 73 44 74 52 75 45 76 51 77
REMARK SMILES IDX 46 78 47 79 48 80 49 81 50 82 73 83 74 84 82 85 75 86 81 87
REMARK SMILES IDX 76 88 77 89 78 90 79 91 80 92 59 93 60 94 68 95 61 96 67 97
REMARK SMILES IDX 62 98 63 99 64 100 65 101 66 102
REMARK H PARENT 24 4 7 23 31 39 87 58 57 69
REMARK Flexibility Score: inf
ROOT
ATOM      1  C   UNL     1      -3.879  11.147   8.963  1.00  0.00     0.227 C 
ATOM      2  O   UNL     1      -2.897  11.694   8.443  1.00  0.00    -0.274 OA
ATOM      3  N   UNL     1      -3.790  10.890  10.296  1.00  0.00    -0.356 N 
ATOM      4  H   UNL     1      -2.975  11.243  10.720  1.00  0.00     0.163 HD
ENDROOT
BRANCH   1   5
ATOM      5  C   UNL     1      -5.111  10.818   8.106  1.00  0.00     0.105 C 
ATOM      6  C   UNL     1      -6.396  11.505   8.565  1.00  0.00     0.023 C 
BRANCH   5   7
ATOM      7  C   UNL     1      -5.245   9.344   7.755  1.00  0.00    -0.034 A 
ATOM      8  C   UNL     1      -5.338   6.554   7.078  1.00  0.00     0.000 A 
ATOM      9  C   UNL     1      -5.880   7.056   8.276  1.00  0.00     0.010 A 
ATOM     10  C   UNL     1      -4.789   7.506   6.195  1.00  0.00     0.049 A 
ATOM     11  C   UNL     1      -5.877   8.419   8.584  1.00  0.00     0.005 A 
ATOM     12  C   UNL     1      -4.713   8.866   6.548  1.00  0.00     0.025 A 
ATOM     13  Cl  UNL     1      -4.241   7.109   4.597  1.00  0.00    -0.084 Cl
BRANCH   8  14
ATOM     14  C   UNL     1      -5.391   5.091   6.837  1.00  0.00    -0.013 A 
ATOM     15  C   UNL     1      -4.382   3.000   6.111  1.00  0.00     0.133 A 
ATOM     16  C   UNL     1      -5.529   2.287   6.443  1.00  0.00     0.047 A 
ATOM     17  C   UNL     1      -4.297   4.378   6.320  1.00  0.00     0.056 A 
ATOM     18  C   UNL     1      -6.611   2.963   6.989  1.00  0.00     0.004 A 
ATOM     19  C   UNL     1      -6.547   4.349   7.165  1.00  0.00     0.009 A 
BRANCH  15  20
ATOM     20  O   UNL     1      -3.390   2.291   5.410  1.00  0.00    -0.410 OA
BRANCH  20  21
ATOM     21  C   UNL     1      -2.047   2.477   5.697  1.00  0.00     0.412 C 
ATOM     22  N   UNL     1      -1.227   1.873   4.784  1.00  0.00    -0.321 N 
ATOM     23  H   UNL     1      -0.259   1.918   4.959  1.00  0.00     0.167 HD
ATOM     24  O   UNL     1      -1.590   3.097   6.648  1.00  0.00    -0.224 OA
BRANCH  22  25
ATOM     25  C   UNL     1      -1.642   1.173   3.584  1.00  0.00     0.119 C 
BRANCH  25  26
ATOM     26  C   UNL     1      -1.057   1.811   2.323  1.00  0.00     0.021 C 
BRANCH  26  27
ATOM     27  C   UNL     1       0.472   1.747   2.224  1.00  0.00     0.002 C 
BRANCH  27  28
ATOM     28  C   UNL     1       1.075   0.338   2.269  1.00  0.00    -0.000 C 
BRANCH  28  29
ATOM     29  C   UNL     1       0.585  -0.620   1.181  1.00  0.00    -0.003 C 
ATOM     30  C   UNL     1       0.946  -0.165  -0.225  1.00  0.00     0.004 C 
ENDBRANCH  28  29
ENDBRANCH  27  28
ENDBRANCH  26  27
ENDBRANCH  25  26
ENDBRANCH  22  25
ENDBRANCH  20  21
ENDBRANCH  15  20
ENDBRANCH   8  14
ENDBRANCH   5   7
ENDBRANCH   1   5
BRANCH   3  31
ATOM     31  C   UNL     1      -4.675  10.193  11.204  1.00  0.00     0.116 C 
BRANCH  31  32
ATOM     32  C   UNL     1      -4.183   8.772  11.489  1.00  0.00     0.021 C 
BRANCH  32  33
ATOM     33  C   UNL     1      -3.229   8.677  12.684  1.00  0.00     0.002 C 
BRANCH  33  34
ATOM     34  C   UNL     1      -3.841   9.078  14.032  1.00  0.00     0.002 C 
BRANCH  34  35
ATOM     35  C   UNL     1      -5.117   8.326  14.425  1.00  0.00     0.021 C 
BRANCH  35  36
ATOM     36  C   UNL     1      -4.949   6.814  14.551  1.00  0.00     0.116 C 
BRANCH  36  37
ATOM     37  N   UNL     1      -3.997   6.466  15.595  1.00  0.00    -0.352 N 
ATOM     38  C   UNL     1      -4.188   5.746  16.747  1.00  0.00     0.251 C 
ATOM     39  H   UNL     1      -3.080   6.796  15.453  1.00  0.00     0.163 HD
ATOM     40  O   UNL     1      -3.337   5.771  17.631  1.00  0.00    -0.269 OA
BRANCH  38  41
ATOM     41  C   UNL     1      -5.419   4.947  16.925  1.00  0.00     0.039 A 
ATOM     42  C   UNL     1      -6.070   4.968  18.161  1.00  0.00     0.014 A 
ATOM     43  C   UNL     1      -5.912   4.154  15.884  1.00  0.00     0.014 A 
ATOM     44  C   UNL     1      -7.246   4.234  18.336  1.00  0.00     0.010 A 
ATOM     45  C   UNL     1      -7.120   3.479  16.038  1.00  0.00     0.010 A 
ATOM     46  C   UNL     1      -7.796   3.506  17.267  1.00  0.00    -0.014 A 
BRANCH  46  47
ATOM     47  C   UNL     1      -9.073   2.764  17.417  1.00  0.00     0.031 A 
ATOM     48  C   UNL     1      -9.097   1.264  17.294  1.00  0.00     0.074 A 
ATOM     49  C   UNL     1     -10.221   3.445  17.603  1.00  0.00     0.049 A 
ATOM     50  N   UNL     1     -10.120   0.449  17.335  1.00  0.00    -0.248 NA
ATOM     51  C   UNL     1      -7.805   0.594  17.070  1.00  0.00     0.031 C 
ATOM     52  C   UNL     1     -10.335   4.903  17.703  1.00  0.00     0.029 A 
ATOM     53  N   UNL     1     -11.514   3.003  17.735  1.00  0.00    -0.354 N 
ATOM     54  C   UNL     1      -9.600  -0.823  17.128  1.00  0.00     0.074 A 
ATOM     55  C   UNL     1      -8.178  -0.668  16.912  1.00  0.00     0.031 C 
ATOM     56  C   UNL     1     -11.621   5.231  17.906  1.00  0.00     0.029 A 
ATOM     57  C   UNL     1     -12.428   4.015  17.909  1.00  0.00     0.049 A 
ATOM     58  H   UNL     1     -11.763   2.051  17.707  1.00  0.00     0.167 HD
ATOM     59  C   UNL     1     -10.244  -2.015  17.136  1.00  0.00     0.031 A 
ATOM     60  C   UNL     1     -13.768   3.972  18.049  1.00  0.00     0.031 A 
ATOM     61  C   UNL     1     -11.657  -2.166  17.361  1.00  0.00     0.049 A 
ATOM     62  C   UNL     1     -14.462   2.637  18.042  1.00  0.00     0.074 A 
ATOM     63  C   UNL     1     -12.396  -3.333  17.441  1.00  0.00     0.029 A 
ATOM     64  N   UNL     1     -12.547  -1.117  17.541  1.00  0.00    -0.354 N 
ATOM     65  N   UNL     1     -13.944   1.440  17.906  1.00  0.00    -0.248 NA
ATOM     66  C   UNL     1     -15.921   2.648  18.218  1.00  0.00     0.031 C 
ATOM     67  C   UNL     1     -13.740  -2.988  17.616  1.00  0.00     0.029 A 
ATOM     68  C   UNL     1     -13.830  -1.608  17.707  1.00  0.00     0.049 A 
ATOM     69  H   UNL     1     -12.301  -0.163  17.549  1.00  0.00     0.167 HD
ATOM     70  C   UNL     1     -15.009   0.553  18.009  1.00  0.00     0.074 A 
ATOM     71  C   UNL     1     -16.198   1.351  18.233  1.00  0.00     0.031 C 
ATOM     72  C   UNL     1     -15.004  -0.801  17.928  1.00  0.00     0.031 A 
BRANCH  59  73
ATOM     73  C   UNL     1      -9.422  -3.253  16.886  1.00  0.00    -0.014 A 
ATOM     74  C   UNL     1      -8.489  -3.711  17.835  1.00  0.00     0.010 A 
ATOM     75  C   UNL     1      -9.611  -3.992  15.704  1.00  0.00     0.010 A 
ATOM     76  C   UNL     1      -7.730  -4.857  17.587  1.00  0.00     0.020 A 
ATOM     77  C   UNL     1      -8.875  -5.157  15.465  1.00  0.00     0.020 A 
ATOM     78  C   UNL     1      -7.926  -5.572  16.402  1.00  0.00     0.054 A 
BRANCH  78  79
ATOM     79  S   UNL     1      -6.941  -7.068  16.116  1.00  0.00     0.124 S 
ATOM     80  O   UNL     1      -5.622  -6.510  15.828  1.00  0.00    -0.237 OA
ATOM     81  O   UNL     1      -7.058  -7.777  17.388  1.00  0.00    -0.237 OA
ATOM     82  O   UNL     1      -7.606  -7.711  14.985  1.00  0.00    -0.744 OA
ENDBRANCH  78  79
ENDBRANCH  59  73
BRANCH  60  83
ATOM     83  C   UNL     1     -14.538   5.234  18.222  1.00  0.00    -0.014 A 
ATOM     84  C   UNL     1     -15.130   5.544  19.459  1.00  0.00     0.010 A 
ATOM     85  C   UNL     1     -14.672   6.139  17.154  1.00  0.00     0.010 A 
ATOM     86  C   UNL     1     -15.858   6.727  19.619  1.00  0.00     0.020 A 
ATOM     87  C   UNL     1     -15.375   7.336  17.318  1.00  0.00     0.020 A 
ATOM     88  C   UNL     1     -15.975   7.617  18.547  1.00  0.00     0.054 A 
BRANCH  88  89
ATOM     89  S   UNL     1     -16.881   9.169  18.792  1.00  0.00     0.124 S 
ATOM     90  O   UNL     1     -18.266   8.710  18.821  1.00  0.00    -0.237 OA
ATOM     91  O   UNL     1     -16.346   9.650  20.062  1.00  0.00    -0.237 OA
ATOM     92  O   UNL     1     -16.510   9.968  17.626  1.00  0.00    -0.744 OA
ENDBRANCH  88  89
ENDBRANCH  60  83
BRANCH  72  93
ATOM     93  C   UNL     1     -16.318  -1.512  18.116  1.00  0.00    -0.014 A 
ATOM     94  C   UNL     1     -17.318  -1.471  17.129  1.00  0.00     0.010 A 
ATOM     95  C   UNL     1     -16.530  -2.277  19.277  1.00  0.00     0.010 A 
ATOM     96  C   UNL     1     -18.520  -2.158  17.315  1.00  0.00     0.020 A 
ATOM     97  C   UNL     1     -17.719  -2.990  19.453  1.00  0.00     0.020 A 
ATOM     98  C   UNL     1     -18.713  -2.914  18.476  1.00  0.00     0.054 A 
BRANCH  98  99
ATOM     99  S   UNL     1     -20.264  -3.834  18.672  1.00  0.00     0.124 S 
ATOM    100  O   UNL     1     -21.215  -2.766  18.967  1.00  0.00    -0.237 OA
ATOM    101  O   UNL     1     -20.423  -4.475  17.369  1.00  0.00    -0.237 OA
ATOM    102  O   UNL     1     -19.988  -4.747  19.779  1.00  0.00    -0.744 OA
ENDBRANCH  98  99
ENDBRANCH  72  93
ENDBRANCH  46  47
ENDBRANCH  38  41
ENDBRANCH  36  37
ENDBRANCH  35  36
ENDBRANCH  34  35
ENDBRANCH  33  34
ENDBRANCH  32  33
ENDBRANCH  31  32
ENDBRANCH   3  31
TORSDOF 25
