REMARK SMILES Cc1ccc(NC(=O)C[C@H]([NH2+]Cc2cccnc2)C(=O)NCCCCCCNC(=O)c2ccc(-c3c4nc(c(-c5ccc(S(=O)(=O)[O-])cc5)c5ccc([nH]5)c(-c5ccc(S(=O)(=O)[O-])cc5)c5nc(c(-c6ccc(S(=O)(=O)[O-])cc6)c6ccc3[nH]6)C=C5)C=C4)cc2)cc1Cl
REMARK SMILES IDX 24 1 23 2 22 3 21 4 19 5 20 6 10 8 9 9 7 10 6 11 8 13 5 14
REMARK SMILES IDX 1 15 2 16 3 17 92 18 4 19 91 20 93 21 11 22 12 25 13 26
REMARK SMILES IDX 14 27 18 28 15 29 17 30 16 31 25 32 26 33 27 34 28 35 29 36
REMARK SMILES IDX 30 38 31 39 32 40 90 41 33 42 89 43 34 44 35 45 36 46 83 47
REMARK SMILES IDX 37 48 88 49 82 50 84 51 38 52 87 53 81 54 80 55 39 57 69 58
REMARK SMILES IDX 50 59 68 60 51 61 54 62 67 63 85 64 52 65 53 66 66 68 86 69
REMARK SMILES IDX 55 70 40 71 41 72 49 73 42 74 48 75 43 76 44 77 45 78 46 79
REMARK SMILES IDX 47 80 70 81 71 82 79 83 72 84 78 85 73 86 74 87 75 88 76 89
REMARK SMILES IDX 77 90 56 91 57 92 65 93 58 94 64 95 59 96 60 97 61 98 62 99
REMARK SMILES IDX 63 100
REMARK H PARENT 21 7 6 12 11 23 11 24 28 37 84 56 54 67
REMARK Flexibility Score: inf
ROOT
ATOM      1  C   UNL     1       4.429  -2.459   1.997  1.00  0.00     0.002 C 
ENDROOT
BRANCH   1   2
ATOM      2  C   UNL     1       3.065  -2.837   1.420  1.00  0.00     0.021 C 
BRANCH   2   3
ATOM      3  C   UNL     1       2.654  -2.139   0.113  1.00  0.00     0.116 C 
BRANCH   3   4
ATOM      4  N   UNL     1       2.208  -3.089  -0.916  1.00  0.00    -0.351 N 
ATOM      5  C   UNL     1       1.055  -3.399  -1.566  1.00  0.00     0.278 C 
ATOM      6  O   UNL     1       1.160  -4.308  -2.408  1.00  0.00    -0.268 OA
ATOM      7  H   UNL     1       2.952  -3.659  -1.219  1.00  0.00     0.163 HD
BRANCH   5   8
ATOM      8  C   UNL     1      -0.373  -2.807  -1.311  1.00  0.00     0.282 C 
BRANCH   8   9
ATOM      9  C   UNL     1      -0.421  -1.403  -0.750  1.00  0.00     0.175 C 
BRANCH   9  10
ATOM     10  C   UNL     1      -0.648  -0.923   0.676  1.00  0.00     0.230 C 
ATOM     11  N   UNL     1      -0.584  -1.525   1.878  1.00  0.00    -0.326 N 
ATOM     12  H   UNL     1      -0.788  -0.873   2.586  1.00  0.00     0.169 HD
ATOM     13  O   UNL     1      -0.927   0.291   0.768  1.00  0.00    -0.274 OA
BRANCH  11  14
ATOM     14  C   UNL     1      -0.320  -2.779   2.452  1.00  0.00     0.042 A 
ATOM     15  C   UNL     1       0.240  -6.584   4.474  1.00  0.00     0.046 C 
ATOM     16  C   UNL     1       0.089  -5.264   3.782  1.00  0.00    -0.032 A 
ATOM     17  C   UNL     1      -0.323  -4.128   4.488  1.00  0.00     0.007 A 
ATOM     18  C   UNL     1       0.315  -5.132   2.415  1.00  0.00     0.046 A 
ATOM     19  C   UNL     1      -0.525  -2.904   3.830  1.00  0.00     0.026 A 
ATOM     20  C   UNL     1       0.141  -3.897   1.788  1.00  0.00     0.047 A 
ATOM     21  Cl  UNL     1       0.821  -6.464   1.434  1.00  0.00    -0.084 Cl
ENDBRANCH  11  14
ENDBRANCH   9  10
ENDBRANCH   8   9
BRANCH   8  22
ATOM     22  N   UNL     1      -1.242  -3.855  -0.750  1.00  0.00    -0.332 N 
ATOM     23  H   UNL     1      -0.852  -4.115   0.156  1.00  0.00     0.347 HD
ATOM     24  H   UNL     1      -1.247  -4.581  -1.467  1.00  0.00     0.347 HD
BRANCH  22  25
ATOM     25  C   UNL     1      -2.653  -3.560  -0.540  1.00  0.00     0.299 C 
BRANCH  25  26
ATOM     26  C   UNL     1      -3.137  -4.211   0.736  1.00  0.00     0.024 A 
ATOM     27  C   UNL     1      -3.087  -5.595   0.935  1.00  0.00     0.013 A 
ATOM     28  C   UNL     1      -3.596  -3.441   1.803  1.00  0.00     0.120 A 
ATOM     29  C   UNL     1      -3.448  -6.135   2.169  1.00  0.00     0.021 A 
ATOM     30  N   UNL     1      -3.967  -3.937   3.008  1.00  0.00    -0.264 NA
ATOM     31  C   UNL     1      -3.868  -5.272   3.167  1.00  0.00     0.111 A 
ENDBRANCH  25  26
ENDBRANCH  22  25
ENDBRANCH   8  22
ENDBRANCH   5   8
ENDBRANCH   3   4
ENDBRANCH   2   3
ENDBRANCH   1   2
BRANCH   1  32
ATOM     32  C   UNL     1       4.590  -1.000   2.432  1.00  0.00     0.002 C 
BRANCH  32  33
ATOM     33  C   UNL     1       3.631  -0.486   3.515  1.00  0.00     0.021 C 
BRANCH  33  34
ATOM     34  C   UNL     1       3.609  -1.255   4.840  1.00  0.00     0.116 C 
BRANCH  34  35
ATOM     35  N   UNL     1       4.924  -1.367   5.450  1.00  0.00    -0.352 N 
ATOM     36  C   UNL     1       5.435  -0.864   6.620  1.00  0.00     0.251 C 
ATOM     37  H   UNL     1       5.566  -1.901   4.928  1.00  0.00     0.163 HD
ATOM     38  O   UNL     1       6.647  -0.953   6.818  1.00  0.00    -0.269 OA
BRANCH  36  39
ATOM     39  C   UNL     1       4.581  -0.213   7.644  1.00  0.00     0.039 A 
ATOM     40  C   UNL     1       5.094   0.898   8.325  1.00  0.00     0.014 A 
ATOM     41  C   UNL     1       3.333  -0.723   8.011  1.00  0.00     0.014 A 
ATOM     42  C   UNL     1       4.343   1.522   9.327  1.00  0.00     0.010 A 
ATOM     43  C   UNL     1       2.558  -0.063   8.973  1.00  0.00     0.010 A 
ATOM     44  C   UNL     1       3.054   1.065   9.643  1.00  0.00    -0.014 A 
BRANCH  44  45
ATOM     45  C   UNL     1       2.223   1.778  10.653  1.00  0.00     0.031 A 
ATOM     46  C   UNL     1       1.838   1.117  11.952  1.00  0.00     0.074 A 
ATOM     47  C   UNL     1       1.781   3.023  10.384  1.00  0.00     0.049 A 
ATOM     48  N   UNL     1       1.133   1.599  12.945  1.00  0.00    -0.248 NA
ATOM     49  C   UNL     1       2.288  -0.269  12.155  1.00  0.00     0.031 C 
ATOM     50  C   UNL     1       2.044   3.765   9.149  1.00  0.00     0.029 A 
ATOM     51  N   UNL     1       1.020   3.888  11.133  1.00  0.00    -0.354 N 
ATOM     52  C   UNL     1       1.039   0.575  13.882  1.00  0.00     0.074 A 
ATOM     53  C   UNL     1       1.728  -0.568  13.319  1.00  0.00     0.031 C 
ATOM     54  C   UNL     1       1.486   4.983   9.239  1.00  0.00     0.029 A 
ATOM     55  C   UNL     1       0.797   5.099  10.521  1.00  0.00     0.049 A 
ATOM     56  H   UNL     1       0.668   3.662  12.024  1.00  0.00     0.167 HD
ATOM     57  C   UNL     1       0.448   0.586  15.102  1.00  0.00     0.031 A 
ATOM     58  C   UNL     1       0.120   6.185  10.940  1.00  0.00     0.031 A 
ATOM     59  C   UNL     1      -0.230   1.725  15.667  1.00  0.00     0.049 A 
ATOM     60  C   UNL     1      -0.522   6.175  12.300  1.00  0.00     0.074 A 
ATOM     61  C   UNL     1      -0.801   1.852  16.922  1.00  0.00     0.029 A 
ATOM     62  N   UNL     1      -0.435   2.931  15.014  1.00  0.00    -0.354 N 
ATOM     63  N   UNL     1      -0.533   5.220  13.199  1.00  0.00    -0.248 NA
ATOM     64  C   UNL     1      -1.229   7.397  12.706  1.00  0.00     0.031 C 
ATOM     65  C   UNL     1      -1.396   3.116  17.008  1.00  0.00     0.029 A 
ATOM     66  C   UNL     1      -1.147   3.797  15.828  1.00  0.00     0.049 A 
ATOM     67  H   UNL     1      -0.121   3.141  14.104  1.00  0.00     0.167 HD
ATOM     68  C   UNL     1      -1.229   5.736  14.287  1.00  0.00     0.074 A 
ATOM     69  C   UNL     1      -1.603   7.092  13.940  1.00  0.00     0.031 C 
ATOM     70  C   UNL     1      -1.529   5.139  15.468  1.00  0.00     0.031 A 
BRANCH  57  71
ATOM     71  C   UNL     1       0.496  -0.686  15.912  1.00  0.00    -0.014 A 
ATOM     72  C   UNL     1       1.699  -1.144  16.479  1.00  0.00     0.010 A 
ATOM     73  C   UNL     1      -0.687  -1.411  16.144  1.00  0.00     0.010 A 
ATOM     74  C   UNL     1       1.726  -2.327  17.224  1.00  0.00     0.020 A 
ATOM     75  C   UNL     1      -0.670  -2.580  16.911  1.00  0.00     0.020 A 
ATOM     76  C   UNL     1       0.542  -3.041  17.430  1.00  0.00     0.054 A 
BRANCH  76  77
ATOM     77  S   UNL     1       0.600  -4.567  18.410  1.00  0.00     0.124 S 
ATOM     78  O   UNL     1       1.238  -5.497  17.478  1.00  0.00    -0.237 OA
ATOM     79  O   UNL     1       1.415  -4.178  19.561  1.00  0.00    -0.237 OA
ATOM     80  O   UNL     1      -0.798  -4.845  18.707  1.00  0.00    -0.744 OA
ENDBRANCH  76  77
ENDBRANCH  57  71
BRANCH  58  81
ATOM     81  C   UNL     1       0.039   7.391  10.070  1.00  0.00    -0.014 A 
ATOM     82  C   UNL     1       0.749   8.557  10.404  1.00  0.00     0.010 A 
ATOM     83  C   UNL     1      -0.739   7.375   8.899  1.00  0.00     0.010 A 
ATOM     84  C   UNL     1       0.671   9.692   9.591  1.00  0.00     0.020 A 
ATOM     85  C   UNL     1      -0.798   8.498   8.069  1.00  0.00     0.020 A 
ATOM     86  C   UNL     1      -0.101   9.654   8.427  1.00  0.00     0.054 A 
BRANCH  86  87
ATOM     87  S   UNL     1      -0.144  11.119   7.357  1.00  0.00     0.124 S 
ATOM     88  O   UNL     1      -1.011  12.019   8.110  1.00  0.00    -0.237 OA
ATOM     89  O   UNL     1       1.264  11.504   7.291  1.00  0.00    -0.237 OA
ATOM     90  O   UNL     1      -0.701  10.611   6.106  1.00  0.00    -0.744 OA
ENDBRANCH  86  87
ENDBRANCH  58  81
BRANCH  70  91
ATOM     91  C   UNL     1      -2.282   5.964  16.479  1.00  0.00    -0.014 A 
ATOM     92  C   UNL     1      -3.635   6.298  16.286  1.00  0.00     0.010 A 
ATOM     93  C   UNL     1      -1.629   6.402  17.645  1.00  0.00     0.010 A 
ATOM     94  C   UNL     1      -4.305   7.100  17.215  1.00  0.00     0.020 A 
ATOM     95  C   UNL     1      -2.303   7.179  18.590  1.00  0.00     0.020 A 
ATOM     96  C   UNL     1      -3.631   7.542  18.358  1.00  0.00     0.054 A 
BRANCH  96  97
ATOM     97  S   UNL     1      -4.521   8.577  19.553  1.00  0.00     0.124 S 
ATOM     98  O   UNL     1      -4.541   9.871  18.878  1.00  0.00    -0.237 OA
ATOM     99  O   UNL     1      -5.814   7.905  19.663  1.00  0.00    -0.237 OA
ATOM    100  O   UNL     1      -3.689   8.512  20.753  1.00  0.00    -0.744 OA
ENDBRANCH  96  97
ENDBRANCH  70  91
ENDBRANCH  44  45
ENDBRANCH  36  39
ENDBRANCH  34  35
ENDBRANCH  33  34
ENDBRANCH  32  33
ENDBRANCH   1  32
TORSDOF 22
