REMARK SMILES COc1ccc(-c2[nH]nc3nc(-c4ccc(C(F)(F)F)cc4)cc(C(=O)NCCCCCCNC(=O)c4ccc(-c5c6nc(c(-c7ccc(S(=O)(=O)[O-])cc7)c7ccc([nH]7)c(-c7ccc(S(=O)(=O)[O-])cc7)c7nc(c(-c8ccc(S(=O)(=O)[O-])cc8)c8ccc5[nH]8)C=C7)C=C6)cc4)c23)cc1
REMARK SMILES IDX 31 1 30 2 29 3 28 4 27 5 25 6 26 7 24 9 7 10 8 11 97 12 9 13
REMARK SMILES IDX 10 15 11 16 23 17 12 18 6 19 3 20 4 21 99 22 5 23 98 24 2 25
REMARK SMILES IDX 1 26 13 27 14 28 22 29 15 30 21 31 16 32 17 33 18 34 19 35
REMARK SMILES IDX 20 36 32 37 33 38 34 39 35 40 36 42 37 43 38 44 96 45 39 46
REMARK SMILES IDX 95 47 40 48 41 49 42 50 89 51 43 52 94 53 88 54 90 55 44 56
REMARK SMILES IDX 93 57 87 58 86 59 45 61 75 62 56 63 74 64 57 65 60 66 73 67
REMARK SMILES IDX 91 68 58 69 59 70 72 72 92 73 61 74 46 75 47 76 55 77 48 78
REMARK SMILES IDX 54 79 49 80 50 81 51 82 52 83 53 84 76 85 77 86 85 87 78 88
REMARK SMILES IDX 84 89 79 90 80 91 81 92 82 93 83 94 62 95 63 96 71 97 64 98
REMARK SMILES IDX 70 99 65 100 66 101 67 102 68 103 69 104
REMARK H PARENT 27 8 8 14 34 41 90 60 60 71
REMARK Flexibility Score: inf
ROOT
ATOM      1  C   UNL     1       7.265  -7.504   1.648  1.00  0.00     0.002 C 
ENDROOT
BRANCH   1   2
ATOM      2  C   UNL     1       7.448  -6.627   0.397  1.00  0.00     0.002 C 
BRANCH   2   3
ATOM      3  C   UNL     1       6.946  -7.242  -0.918  1.00  0.00     0.021 C 
BRANCH   3   4
ATOM      4  C   UNL     1       5.524  -7.785  -0.820  1.00  0.00     0.116 C 
BRANCH   4   5
ATOM      5  N   UNL     1       4.546  -6.721  -0.837  1.00  0.00    -0.352 N 
ATOM      6  C   UNL     1       3.592  -6.275  -1.710  1.00  0.00     0.252 C 
ATOM      7  O   UNL     1       2.765  -5.532  -1.189  1.00  0.00    -0.269 OA
ATOM      8  H   UNL     1       4.573  -6.181  -0.014  1.00  0.00     0.163 HD
BRANCH   6   9
ATOM      9  C   UNL     1       3.458  -6.693  -3.127  1.00  0.00     0.055 A 
ATOM     10  C   UNL     1       1.576  -5.212  -3.983  1.00  0.00     0.075 A 
ATOM     11  N   UNL     1       0.874  -5.286  -5.165  1.00  0.00    -0.275 N 
ATOM     12  C   UNL     1       2.471  -6.272  -4.042  1.00  0.00     0.059 A 
ATOM     13  N   UNL     1       1.202  -6.307  -5.964  1.00  0.00    -0.154 NA
ATOM     14  H   UNL     1       0.178  -4.632  -5.405  1.00  0.00     0.190 HD
ATOM     15  C   UNL     1       2.204  -6.901  -5.317  1.00  0.00     0.182 A 
ATOM     16  N   UNL     1       2.880  -7.992  -5.760  1.00  0.00    -0.226 NA
ATOM     17  C   UNL     1       4.242  -7.681  -3.731  1.00  0.00     0.043 A 
ATOM     18  C   UNL     1       3.896  -8.342  -4.935  1.00  0.00     0.074 A 
BRANCH  10  19
ATOM     19  C   UNL     1       1.294  -4.132  -3.042  1.00  0.00     0.001 A 
ATOM     20  C   UNL     1       0.773  -2.171  -1.091  1.00  0.00     0.118 A 
ATOM     21  C   UNL     1      -0.208  -3.101  -1.439  1.00  0.00     0.047 A 
ATOM     22  C   UNL     1       2.013  -2.212  -1.730  1.00  0.00     0.047 A 
ATOM     23  C   UNL     1       0.044  -4.069  -2.414  1.00  0.00     0.014 A 
ATOM     24  C   UNL     1       2.267  -3.178  -2.714  1.00  0.00     0.014 A 
BRANCH  20  25
ATOM     25  O   UNL     1       0.424  -1.316  -0.082  1.00  0.00    -0.497 OA
ATOM     26  C   UNL     1       1.097  -0.064  -0.075  1.00  0.00     0.278 C 
ENDBRANCH  20  25
ENDBRANCH  10  19
BRANCH  18  27
ATOM     27  C   UNL     1       4.612  -9.593  -5.247  1.00  0.00     0.000 A 
ATOM     28  C   UNL     1       5.419  -9.729  -6.381  1.00  0.00     0.011 A 
ATOM     29  C   UNL     1       4.568 -10.665  -4.330  1.00  0.00     0.011 A 
ATOM     30  C   UNL     1       6.198 -10.881  -6.567  1.00  0.00     0.014 A 
ATOM     31  C   UNL     1       5.340 -11.813  -4.514  1.00  0.00     0.014 A 
ATOM     32  C   UNL     1       6.177 -11.928  -5.630  1.00  0.00     0.056 A 
BRANCH  32  33
ATOM     33  C   UNL     1       7.048 -13.148  -5.821  1.00  0.00     0.416 C 
ATOM     34  F   UNL     1       6.752 -13.830  -6.960  1.00  0.00    -0.166 F 
ATOM     35  F   UNL     1       8.371 -12.841  -5.884  1.00  0.00    -0.166 F 
ATOM     36  F   UNL     1       6.928 -14.053  -4.806  1.00  0.00    -0.166 F 
ENDBRANCH  32  33
ENDBRANCH  18  27
ENDBRANCH   6   9
ENDBRANCH   4   5
ENDBRANCH   3   4
ENDBRANCH   2   3
ENDBRANCH   1   2
BRANCH   1  37
ATOM     37  C   UNL     1       7.724  -8.966   1.521  1.00  0.00     0.021 C 
BRANCH  37  38
ATOM     38  C   UNL     1       9.227  -9.107   1.363  1.00  0.00     0.116 C 
BRANCH  38  39
ATOM     39  N   UNL     1       9.931  -8.695   2.572  1.00  0.00    -0.352 N 
ATOM     40  C   UNL     1      11.290  -8.654   2.804  1.00  0.00     0.251 C 
ATOM     41  H   UNL     1       9.361  -8.409   3.322  1.00  0.00     0.163 HD
ATOM     42  O   UNL     1      11.726  -8.636   3.942  1.00  0.00    -0.269 OA
BRANCH  40  43
ATOM     43  C   UNL     1      12.199  -8.638   1.645  1.00  0.00     0.039 A 
ATOM     44  C   UNL     1      13.381  -9.383   1.655  1.00  0.00     0.014 A 
ATOM     45  C   UNL     1      11.845  -7.873   0.535  1.00  0.00     0.014 A 
ATOM     46  C   UNL     1      14.169  -9.406   0.508  1.00  0.00     0.010 A 
ATOM     47  C   UNL     1      12.542  -8.013  -0.638  1.00  0.00     0.010 A 
ATOM     48  C   UNL     1      13.734  -8.729  -0.640  1.00  0.00    -0.014 A 
BRANCH  48  49
ATOM     49  C   UNL     1      14.478  -8.832  -1.889  1.00  0.00     0.031 A 
ATOM     50  C   UNL     1      14.670 -10.217  -2.399  1.00  0.00     0.074 A 
ATOM     51  C   UNL     1      14.772  -7.756  -2.650  1.00  0.00     0.049 A 
ATOM     52  N   UNL     1      15.777 -10.872  -2.504  1.00  0.00    -0.248 NA
ATOM     53  C   UNL     1      13.474 -11.018  -2.710  1.00  0.00     0.031 C 
ATOM     54  C   UNL     1      14.357  -6.361  -2.454  1.00  0.00     0.029 A 
ATOM     55  N   UNL     1      15.391  -7.713  -3.857  1.00  0.00    -0.354 N 
ATOM     56  C   UNL     1      15.453 -12.091  -3.094  1.00  0.00     0.074 A 
ATOM     57  C   UNL     1      14.017 -12.195  -3.029  1.00  0.00     0.031 C 
ATOM     58  C   UNL     1      14.495  -5.685  -3.615  1.00  0.00     0.029 A 
ATOM     59  C   UNL     1      15.166  -6.544  -4.574  1.00  0.00     0.049 A 
ATOM     60  H   UNL     1      15.951  -8.448  -4.197  1.00  0.00     0.167 HD
ATOM     61  C   UNL     1      16.371 -12.813  -3.798  1.00  0.00     0.031 A 
ATOM     62  C   UNL     1      15.457  -6.324  -5.881  1.00  0.00     0.031 A 
ATOM     63  C   UNL     1      17.708 -12.319  -3.589  1.00  0.00     0.049 A 
ATOM     64  C   UNL     1      16.484  -7.326  -6.268  1.00  0.00     0.074 A 
ATOM     65  C   UNL     1      18.512 -12.138  -2.481  1.00  0.00     0.029 A 
ATOM     66  N   UNL     1      18.247 -11.528  -4.580  1.00  0.00    -0.354 N 
ATOM     67  N   UNL     1      17.688  -7.346  -5.764  1.00  0.00    -0.248 NA
ATOM     68  C   UNL     1      16.030  -8.585  -6.839  1.00  0.00     0.031 C 
ATOM     69  C   UNL     1      19.156 -10.886  -2.703  1.00  0.00     0.029 A 
ATOM     70  C   UNL     1      18.780 -10.424  -3.966  1.00  0.00     0.049 A 
ATOM     71  H   UNL     1      18.249 -11.720  -5.545  1.00  0.00     0.167 HD
ATOM     72  C   UNL     1      17.964  -8.690  -5.553  1.00  0.00     0.074 A 
ATOM     73  C   UNL     1      16.946  -9.409  -6.321  1.00  0.00     0.031 C 
ATOM     74  C   UNL     1      18.804  -9.100  -4.555  1.00  0.00     0.031 A 
BRANCH  61  75
ATOM     75  C   UNL     1      16.034 -13.704  -4.970  1.00  0.00    -0.014 A 
ATOM     76  C   UNL     1      17.073 -14.432  -5.589  1.00  0.00     0.010 A 
ATOM     77  C   UNL     1      14.805 -13.639  -5.655  1.00  0.00     0.010 A 
ATOM     78  C   UNL     1      16.913 -14.988  -6.864  1.00  0.00     0.020 A 
ATOM     79  C   UNL     1      14.620 -14.230  -6.907  1.00  0.00     0.020 A 
ATOM     80  C   UNL     1      15.690 -14.867  -7.522  1.00  0.00     0.054 A 
BRANCH  80  81
ATOM     81  S   UNL     1      15.529 -15.482  -9.215  1.00  0.00     0.124 S 
ATOM     82  O   UNL     1      16.422 -14.587  -9.945  1.00  0.00    -0.237 OA
ATOM     83  O   UNL     1      15.983 -16.864  -9.086  1.00  0.00    -0.237 OA
ATOM     84  O   UNL     1      14.106 -15.322  -9.504  1.00  0.00    -0.744 OA
ENDBRANCH  80  81
ENDBRANCH  61  75
BRANCH  62  85
ATOM     85  C   UNL     1      14.662  -5.538  -6.860  1.00  0.00    -0.014 A 
ATOM     86  C   UNL     1      15.176  -5.214  -8.129  1.00  0.00     0.010 A 
ATOM     87  C   UNL     1      13.282  -5.332  -6.646  1.00  0.00     0.010 A 
ATOM     88  C   UNL     1      14.332  -4.760  -9.160  1.00  0.00     0.020 A 
ATOM     89  C   UNL     1      12.437  -4.872  -7.662  1.00  0.00     0.020 A 
ATOM     90  C   UNL     1      12.962  -4.612  -8.924  1.00  0.00     0.054 A 
BRANCH  90  91
ATOM     91  S   UNL     1      11.847  -4.208 -10.303  1.00  0.00     0.124 S 
ATOM     92  O   UNL     1      12.181  -2.813 -10.574  1.00  0.00    -0.237 OA
ATOM     93  O   UNL     1      12.248  -5.167 -11.328  1.00  0.00    -0.237 OA
ATOM     94  O   UNL     1      10.514  -4.429  -9.741  1.00  0.00    -0.744 OA
ENDBRANCH  90  91
ENDBRANCH  62  85
BRANCH  74  95
ATOM     95  C   UNL     1      19.653  -8.073  -3.838  1.00  0.00    -0.014 A 
ATOM     96  C   UNL     1      19.132  -6.970  -3.132  1.00  0.00     0.010 A 
ATOM     97  C   UNL     1      21.031  -8.339  -3.734  1.00  0.00     0.010 A 
ATOM     98  C   UNL     1      19.973  -6.144  -2.368  1.00  0.00     0.020 A 
ATOM     99  C   UNL     1      21.869  -7.534  -2.959  1.00  0.00     0.020 A 
ATOM    100  C   UNL     1      21.338  -6.433  -2.288  1.00  0.00     0.054 A 
BRANCH 100 101
ATOM    101  S   UNL     1      22.418  -5.387  -1.271  1.00  0.00     0.124 S 
ATOM    102  O   UNL     1      22.425  -4.127  -2.007  1.00  0.00    -0.237 OA
ATOM    103  O   UNL     1      21.727  -5.361   0.017  1.00  0.00    -0.237 OA
ATOM    104  O   UNL     1      23.693  -6.105  -1.264  1.00  0.00    -0.744 OA
ENDBRANCH 100 101
ENDBRANCH  74  95
ENDBRANCH  48  49
ENDBRANCH  40  43
ENDBRANCH  38  39
ENDBRANCH  37  38
ENDBRANCH   1  37
TORSDOF 20
