REMARK SMILES O=C(NCCCCCCNC(=O)[C@@]1([C@@H]2CCO[C@@]3(CCOC3)C2)CCOC1)c1ccc(-c2c3nc(c(-c4ccc(S(=O)(=O)[O-])cc4)c4ccc([nH]4)c(-c4ccc(S(=O)(=O)[O-])cc4)c4nc(c(-c5ccc(S(=O)(=O)[O-])cc5)c5ccc2[nH]5)C=C4)C=C3)cc1
REMARK SMILES IDX 5 1 4 2 3 3 1 4 2 5 28 7 29 8 87 9 30 10 86 11 31 12 32 13
REMARK SMILES IDX 33 14 80 15 34 16 85 17 79 18 81 19 35 20 84 21 78 22 77 23
REMARK SMILES IDX 36 25 66 26 47 27 65 28 48 29 51 30 64 31 82 32 49 33 50 34
REMARK SMILES IDX 63 36 83 37 52 38 37 39 38 40 46 41 39 42 45 43 40 44 41 45
REMARK SMILES IDX 42 46 43 47 44 48 67 49 68 50 76 51 69 52 75 53 70 54 71 55
REMARK SMILES IDX 72 56 73 57 74 58 53 59 54 60 62 61 55 62 61 63 56 64 57 65
REMARK SMILES IDX 58 66 59 67 60 68 6 69 7 70 8 71 9 72 10 73 11 74 12 76
REMARK SMILES IDX 13 77 24 78 27 79 25 80 26 81 14 82 15 83 23 84 16 85 18 86
REMARK SMILES IDX 17 87 19 88 22 89 20 90 21 91
REMARK H PARENT 3 6 81 24 51 35 10 75
REMARK Flexibility Score: inf
ROOT
ATOM      1  C   UNL     1       4.046   6.074  -3.074  1.00  0.00     0.021 C 
ENDROOT
BRANCH   1   2
ATOM      2  C   UNL     1       2.797   6.823  -2.628  1.00  0.00     0.116 C 
BRANCH   2   3
ATOM      3  N   UNL     1       2.313   7.737  -3.651  1.00  0.00    -0.352 N 
ATOM      4  O   UNL     1       0.910   8.478  -5.255  1.00  0.00    -0.269 OA
ATOM      5  C   UNL     1       1.086   7.767  -4.268  1.00  0.00     0.251 C 
ATOM      6  H   UNL     1       2.952   8.428  -3.941  1.00  0.00     0.163 HD
BRANCH   5   7
ATOM      7  C   UNL     1      -0.014   6.928  -3.746  1.00  0.00     0.039 A 
ATOM      8  C   UNL     1      -0.255   6.857  -2.372  1.00  0.00     0.014 A 
ATOM      9  C   UNL     1      -0.819   6.212  -4.637  1.00  0.00     0.014 A 
ATOM     10  C   UNL     1      -1.208   5.974  -1.881  1.00  0.00     0.010 A 
ATOM     11  C   UNL     1      -1.841   5.394  -4.145  1.00  0.00     0.010 A 
ATOM     12  C   UNL     1      -2.033   5.255  -2.761  1.00  0.00    -0.014 A 
BRANCH  12  13
ATOM     13  C   UNL     1      -3.158   4.460  -2.206  1.00  0.00     0.031 A 
ATOM     14  C   UNL     1      -3.220   2.966  -2.361  1.00  0.00     0.074 A 
ATOM     15  C   UNL     1      -4.126   5.115  -1.533  1.00  0.00     0.049 A 
ATOM     16  N   UNL     1      -4.128   2.135  -1.915  1.00  0.00    -0.248 NA
ATOM     17  C   UNL     1      -2.133   2.317  -3.112  1.00  0.00     0.031 C 
ATOM     18  C   UNL     1      -4.175   6.568  -1.330  1.00  0.00     0.029 A 
ATOM     19  N   UNL     1      -5.242   4.656  -0.883  1.00  0.00    -0.354 N 
ATOM     20  C   UNL     1      -3.738   0.872  -2.345  1.00  0.00     0.074 A 
ATOM     21  C   UNL     1      -2.517   1.045  -3.103  1.00  0.00     0.031 C 
ATOM     22  C   UNL     1      -5.234   6.873  -0.569  1.00  0.00     0.029 A 
ATOM     23  C   UNL     1      -5.982   5.653  -0.293  1.00  0.00     0.049 A 
ATOM     24  H   UNL     1      -5.489   3.704  -0.842  1.00  0.00     0.167 HD
ATOM     25  C   UNL     1      -4.346  -0.319  -2.126  1.00  0.00     0.031 A 
ATOM     26  C   UNL     1      -7.151   5.603   0.373  1.00  0.00     0.031 A 
ATOM     27  C   UNL     1      -5.563  -0.478  -1.369  1.00  0.00     0.049 A 
ATOM     28  C   UNL     1      -7.817   4.271   0.565  1.00  0.00     0.074 A 
ATOM     29  C   UNL     1      -6.230  -1.651  -1.055  1.00  0.00     0.029 A 
ATOM     30  N   UNL     1      -6.300   0.558  -0.817  1.00  0.00    -0.354 N 
ATOM     31  N   UNL     1      -7.401   3.083   0.197  1.00  0.00    -0.248 NA
ATOM     32  C   UNL     1      -9.110   4.272   1.261  1.00  0.00     0.031 C 
ATOM     33  C   UNL     1      -7.403  -1.319  -0.371  1.00  0.00     0.029 A 
ATOM     34  C   UNL     1      -7.432   0.055  -0.196  1.00  0.00     0.049 A 
ATOM     35  H   UNL     1      -6.055   1.511  -0.859  1.00  0.00     0.167 HD
ATOM     36  C   UNL     1      -8.373   2.193   0.635  1.00  0.00     0.074 A 
ATOM     37  C   UNL     1      -9.381   2.977   1.319  1.00  0.00     0.031 C 
ATOM     38  C   UNL     1      -8.428   0.848   0.479  1.00  0.00     0.031 A 
BRANCH  25  39
ATOM     39  C   UNL     1      -3.732  -1.557  -2.728  1.00  0.00    -0.014 A 
ATOM     40  C   UNL     1      -2.551  -2.115  -2.206  1.00  0.00     0.010 A 
ATOM     41  C   UNL     1      -4.408  -2.234  -3.761  1.00  0.00     0.010 A 
ATOM     42  C   UNL     1      -2.052  -3.318  -2.716  1.00  0.00     0.020 A 
ATOM     43  C   UNL     1      -3.925  -3.449  -4.257  1.00  0.00     0.020 A 
ATOM     44  C   UNL     1      -2.745  -3.980  -3.734  1.00  0.00     0.054 A 
BRANCH  44  45
ATOM     45  S   UNL     1      -2.107  -5.571  -4.329  1.00  0.00     0.124 S 
ATOM     46  O   UNL     1      -0.902  -5.163  -5.048  1.00  0.00    -0.237 OA
ATOM     47  O   UNL     1      -1.877  -6.306  -3.087  1.00  0.00    -0.237 OA
ATOM     48  O   UNL     1      -3.186  -6.089  -5.167  1.00  0.00    -0.744 OA
ENDBRANCH  44  45
ENDBRANCH  25  39
BRANCH  26  49
ATOM     49  C   UNL     1      -7.784   6.857   0.865  1.00  0.00    -0.014 A 
ATOM     50  C   UNL     1      -7.932   7.100   2.241  1.00  0.00     0.010 A 
ATOM     51  C   UNL     1      -8.255   7.816  -0.053  1.00  0.00     0.010 A 
ATOM     52  C   UNL     1      -8.571   8.260   2.689  1.00  0.00     0.020 A 
ATOM     53  C   UNL     1      -8.860   8.992   0.391  1.00  0.00     0.020 A 
ATOM     54  C   UNL     1      -9.034   9.197   1.760  1.00  0.00     0.054 A 
BRANCH  54  55
ATOM     55  S   UNL     1      -9.849  10.700   2.363  1.00  0.00     0.124 S 
ATOM     56  O   UNL     1     -11.143  10.187   2.799  1.00  0.00    -0.237 OA
ATOM     57  O   UNL     1      -8.951  11.142   3.427  1.00  0.00    -0.237 OA
ATOM     58  O   UNL     1      -9.882  11.566   1.186  1.00  0.00    -0.744 OA
ENDBRANCH  54  55
ENDBRANCH  26  49
BRANCH  38  59
ATOM     59  C   UNL     1      -9.605   0.134   1.090  1.00  0.00    -0.014 A 
ATOM     60  C   UNL     1     -10.897   0.265   0.551  1.00  0.00     0.010 A 
ATOM     61  C   UNL     1      -9.405  -0.709   2.199  1.00  0.00     0.010 A 
ATOM     62  C   UNL     1     -11.976  -0.405   1.134  1.00  0.00     0.020 A 
ATOM     63  C   UNL     1     -10.475  -1.406   2.764  1.00  0.00     0.020 A 
ATOM     64  C   UNL     1     -11.757  -1.237   2.237  1.00  0.00     0.054 A 
BRANCH  64  65
ATOM     65  S   UNL     1     -13.168  -2.125   2.951  1.00  0.00     0.124 S 
ATOM     66  O   UNL     1     -13.895  -1.051   3.622  1.00  0.00    -0.237 OA
ATOM     67  O   UNL     1     -13.822  -2.687   1.772  1.00  0.00    -0.237 OA
ATOM     68  O   UNL     1     -12.546  -3.105   3.839  1.00  0.00    -0.744 OA
ENDBRANCH  64  65
ENDBRANCH  38  59
ENDBRANCH  12  13
ENDBRANCH   5   7
ENDBRANCH   2   3
ENDBRANCH   1   2
BRANCH   1  69
ATOM     69  C   UNL     1       5.291   6.951  -3.211  1.00  0.00     0.002 C 
BRANCH  69  70
ATOM     70  C   UNL     1       5.721   7.678  -1.930  1.00  0.00     0.002 C 
BRANCH  70  71
ATOM     71  C   UNL     1       5.873   6.788  -0.691  1.00  0.00     0.021 C 
BRANCH  71  72
ATOM     72  C   UNL     1       6.889   5.661  -0.858  1.00  0.00     0.116 C 
BRANCH  72  73
ATOM     73  N   UNL     1       8.249   6.174  -0.865  1.00  0.00    -0.356 N 
ATOM     74  C   UNL     1       9.294   6.011  -0.009  1.00  0.00     0.228 C 
ATOM     75  H   UNL     1       8.453   6.750  -1.638  1.00  0.00     0.163 HD
ATOM     76  O   UNL     1      10.334   6.613  -0.293  1.00  0.00    -0.274 OA
BRANCH  74  77
ATOM     77  C   UNL     1       9.230   5.042   1.188  1.00  0.00     0.078 C 
ATOM     78  C   UNL     1      10.401   5.309   2.137  1.00  0.00     0.048 C 
ATOM     79  C   UNL     1       8.048   5.395   2.106  1.00  0.00     0.177 C 
ATOM     80  C   UNL     1       9.861   5.023   3.518  1.00  0.00     0.161 C 
ATOM     81  O   UNL     1       8.459   5.269   3.474  1.00  0.00    -0.380 OA
BRANCH  77  82
ATOM     82  C   UNL     1       9.148   3.591   0.626  1.00  0.00     0.012 C 
ATOM     83  C   UNL     1       8.877   2.470   1.625  1.00  0.00     0.033 C 
ATOM     84  C   UNL     1      10.355   3.089  -0.183  1.00  0.00     0.043 C 
ATOM     85  C   UNL     1       8.305   1.297   0.848  1.00  0.00     0.161 C 
ATOM     86  C   UNL     1       9.964   1.798  -0.952  1.00  0.00     0.094 C 
ATOM     87  O   UNL     1       8.864   1.046  -0.430  1.00  0.00    -0.372 OA
ATOM     88  C   UNL     1       9.614   2.145  -2.400  1.00  0.00     0.066 C 
ATOM     89  C   UNL     1      11.139   0.837  -1.148  1.00  0.00     0.195 C 
ATOM     90  C   UNL     1      10.885   1.907  -3.189  1.00  0.00     0.163 C 
ATOM     91  O   UNL     1      11.797   1.171  -2.373  1.00  0.00    -0.378 OA
ENDBRANCH  77  82
ENDBRANCH  74  77
ENDBRANCH  72  73
ENDBRANCH  71  72
ENDBRANCH  70  71
ENDBRANCH  69  70
ENDBRANCH   1  69
TORSDOF 17
