REMARK SMILES O=C(CCOCc1ccccc1)NCCCCCCNC(=O)c1ccc(-c2c3nc(c(-c4ccc(S(=O)(=O)[O-])cc4)c4ccc([nH]4)c(-c4ccc(S(=O)(=O)[O-])cc4)c4nc(c(-c5ccc(S(=O)(=O)[O-])cc5)c5ccc2[nH]5)C=C4)C=C3)cc1
REMARK SMILES IDX 16 1 15 2 14 3 13 4 1 5 2 6 3 8 4 9 5 10 6 11 7 12 8 13
REMARK SMILES IDX 12 14 9 15 11 16 10 17 17 18 18 19 19 20 20 21 21 22 22 24
REMARK SMILES IDX 23 25 24 26 82 27 25 28 81 29 26 30 27 31 28 32 75 33 29 34
REMARK SMILES IDX 80 35 74 36 76 37 30 38 79 39 73 40 72 41 31 43 61 44 42 45
REMARK SMILES IDX 60 46 43 47 46 48 59 49 77 50 44 51 45 52 58 54 78 55 47 56
REMARK SMILES IDX 32 57 33 58 41 59 34 60 40 61 35 62 36 63 37 64 38 65 39 66
REMARK SMILES IDX 62 67 63 68 71 69 64 70 70 71 65 72 66 73 67 74 68 75 69 76
REMARK SMILES IDX 48 77 49 78 57 79 50 80 56 81 51 82 52 83 53 84 54 85 55 86
REMARK H PARENT 13 7 20 23 76 42 46 53
REMARK Flexibility Score: inf
ROOT
ATOM      1  C   UNL     1       4.203  -3.389   1.905  1.00  0.00     0.002 C 
ENDROOT
BRANCH   1   2
ATOM      2  C   UNL     1       2.711  -3.472   1.544  1.00  0.00     0.021 C 
BRANCH   2   3
ATOM      3  C   UNL     1       2.019  -2.128   1.335  1.00  0.00     0.116 C 
BRANCH   3   4
ATOM      4  N   UNL     1       2.637  -1.360   0.277  1.00  0.00    -0.356 N 
ATOM      5  O   UNL     1       1.080   0.326   0.262  1.00  0.00    -0.275 OA
ATOM      6  C   UNL     1       2.152  -0.134  -0.112  1.00  0.00     0.222 C 
ATOM      7  H   UNL     1       3.429  -1.727  -0.180  1.00  0.00     0.163 HD
BRANCH   6   8
ATOM      8  C   UNL     1       3.103   0.631  -1.002  1.00  0.00     0.128 C 
BRANCH   8   9
ATOM      9  C   UNL     1       3.656   1.844  -0.267  1.00  0.00     0.170 C 
BRANCH   9  10
ATOM     10  O   UNL     1       4.802   1.569   0.548  1.00  0.00    -0.376 OA
BRANCH  10  11
ATOM     11  C   UNL     1       4.547   1.015   1.843  1.00  0.00     0.195 C 
BRANCH  11  12
ATOM     12  C   UNL     1       3.680   1.849   2.756  1.00  0.00    -0.022 A 
ATOM     13  C   UNL     1       3.772   3.247   2.762  1.00  0.00     0.006 A 
ATOM     14  C   UNL     1       2.790   1.229   3.646  1.00  0.00     0.006 A 
ATOM     15  C   UNL     1       2.948   4.008   3.593  1.00  0.00     0.000 A 
ATOM     16  C   UNL     1       1.973   1.990   4.484  1.00  0.00     0.000 A 
ATOM     17  C   UNL     1       2.046   3.380   4.450  1.00  0.00     0.000 A 
ENDBRANCH  11  12
ENDBRANCH  10  11
ENDBRANCH   9  10
ENDBRANCH   8   9
ENDBRANCH   6   8
ENDBRANCH   3   4
ENDBRANCH   2   3
ENDBRANCH   1   2
BRANCH   1  18
ATOM     18  C   UNL     1       4.535  -2.767   3.264  1.00  0.00     0.002 C 
BRANCH  18  19
ATOM     19  C   UNL     1       3.891  -3.438   4.476  1.00  0.00     0.021 C 
BRANCH  19  20
ATOM     20  C   UNL     1       4.104  -4.943   4.573  1.00  0.00     0.116 C 
BRANCH  20  21
ATOM     21  N   UNL     1       5.503  -5.311   4.717  1.00  0.00    -0.352 N 
ATOM     22  C   UNL     1       6.067  -6.245   5.556  1.00  0.00     0.251 C 
ATOM     23  H   UNL     1       6.132  -4.827   4.135  1.00  0.00     0.163 HD
ATOM     24  O   UNL     1       7.285  -6.332   5.643  1.00  0.00    -0.269 OA
BRANCH  22  25
ATOM     25  C   UNL     1       5.194  -7.120   6.373  1.00  0.00     0.039 A 
ATOM     26  C   UNL     1       5.518  -7.332   7.715  1.00  0.00     0.014 A 
ATOM     27  C   UNL     1       4.063  -7.729   5.823  1.00  0.00     0.014 A 
ATOM     28  C   UNL     1       4.679  -8.112   8.516  1.00  0.00     0.010 A 
ATOM     29  C   UNL     1       3.185  -8.435   6.641  1.00  0.00     0.010 A 
ATOM     30  C   UNL     1       3.490  -8.648   7.994  1.00  0.00    -0.014 A 
BRANCH  30  31
ATOM     31  C   UNL     1       2.577  -9.466   8.835  1.00  0.00     0.031 A 
ATOM     32  C   UNL     1       2.325 -10.910   8.485  1.00  0.00     0.074 A 
ATOM     33  C   UNL     1       1.947  -8.907   9.889  1.00  0.00     0.049 A 
ATOM     34  N   UNL     1       1.523 -11.771   9.059  1.00  0.00    -0.248 NA
ATOM     35  C   UNL     1       3.050 -11.453   7.324  1.00  0.00     0.031 C 
ATOM     36  C   UNL     1       2.075  -7.510  10.312  1.00  0.00     0.029 A 
ATOM     37  N   UNL     1       1.067  -9.447  10.795  1.00  0.00    -0.354 N 
ATOM     38  C   UNL     1       1.648 -12.949   8.332  1.00  0.00     0.074 A 
ATOM     39  C   UNL     1       2.546 -12.675   7.232  1.00  0.00     0.031 C 
ATOM     40  C   UNL     1       1.321  -7.311  11.407  1.00  0.00     0.029 A 
ATOM     41  C   UNL     1       0.625  -8.550  11.740  1.00  0.00     0.049 A 
ATOM     42  H   UNL     1       0.779 -10.387  10.770  1.00  0.00     0.167 HD
ATOM     43  C   UNL     1       1.095 -14.162   8.572  1.00  0.00     0.031 A 
ATOM     44  C   UNL     1      -0.247  -8.704  12.756  1.00  0.00     0.031 A 
ATOM     45  C   UNL     1       0.206 -14.438   9.669  1.00  0.00     0.049 A 
ATOM     46  C   UNL     1      -0.869 -10.057  12.987  1.00  0.00     0.074 A 
ATOM     47  C   UNL     1      -0.395 -15.638  10.009  1.00  0.00     0.029 A 
ATOM     48  N   UNL     1      -0.200 -13.507  10.613  1.00  0.00    -0.354 N 
ATOM     49  N   UNL     1      -0.705 -11.168  12.309  1.00  0.00    -0.248 NA
ATOM     50  C   UNL     1      -1.777 -10.182  14.136  1.00  0.00     0.031 C 
ATOM     51  C   UNL     1      -1.199 -15.422  11.132  1.00  0.00     0.029 A 
ATOM     52  C   UNL     1      -1.046 -14.105  11.532  1.00  0.00     0.049 A 
ATOM     53  H   UNL     1       0.073 -12.561  10.627  1.00  0.00     0.167 HD
ATOM     54  C   UNL     1      -1.454 -12.133  12.976  1.00  0.00     0.074 A 
ATOM     55  C   UNL     1      -2.058 -11.477  14.117  1.00  0.00     0.031 C 
ATOM     56  C   UNL     1      -1.625 -13.444  12.673  1.00  0.00     0.031 A 
BRANCH  43  57
ATOM     57  C   UNL     1       1.453 -15.290   7.641  1.00  0.00    -0.014 A 
ATOM     58  C   UNL     1       2.752 -15.833   7.635  1.00  0.00     0.010 A 
ATOM     59  C   UNL     1       0.473 -15.857   6.806  1.00  0.00     0.010 A 
ATOM     60  C   UNL     1       3.072 -16.899   6.792  1.00  0.00     0.020 A 
ATOM     61  C   UNL     1       0.781 -16.945   5.983  1.00  0.00     0.020 A 
ATOM     62  C   UNL     1       2.083 -17.451   5.973  1.00  0.00     0.054 A 
BRANCH  62  63
ATOM     63  S   UNL     1       2.518 -18.867   4.926  1.00  0.00     0.124 S 
ATOM     64  O   UNL     1       3.383 -18.247   3.925  1.00  0.00    -0.237 OA
ATOM     65  O   UNL     1       3.188 -19.763   5.865  1.00  0.00    -0.237 OA
ATOM     66  O   UNL     1       1.229 -19.340   4.428  1.00  0.00    -0.744 OA
ENDBRANCH  62  63
ENDBRANCH  43  57
BRANCH  44  67
ATOM     67  C   UNL     1      -0.593  -7.551  13.636  1.00  0.00    -0.014 A 
ATOM     68  C   UNL     1      -0.227  -7.543  14.994  1.00  0.00     0.010 A 
ATOM     69  C   UNL     1      -1.328  -6.466  13.123  1.00  0.00     0.010 A 
ATOM     70  C   UNL     1      -0.632  -6.499  15.832  1.00  0.00     0.020 A 
ATOM     71  C   UNL     1      -1.703  -5.403  13.949  1.00  0.00     0.020 A 
ATOM     72  C   UNL     1      -1.373  -5.438  15.305  1.00  0.00     0.054 A 
BRANCH  72  73
ATOM     73  S   UNL     1      -1.887  -4.093  16.408  1.00  0.00     0.124 S 
ATOM     74  O   UNL     1      -2.942  -4.730  17.190  1.00  0.00    -0.237 OA
ATOM     75  O   UNL     1      -0.656  -3.790  17.132  1.00  0.00    -0.237 OA
ATOM     76  O   UNL     1      -2.333  -3.049  15.488  1.00  0.00    -0.744 OA
ENDBRANCH  72  73
ENDBRANCH  44  67
BRANCH  56  77
ATOM     77  C   UNL     1      -2.439 -14.278  13.629  1.00  0.00    -0.014 A 
ATOM     78  C   UNL     1      -3.828 -14.109  13.760  1.00  0.00     0.010 A 
ATOM     79  C   UNL     1      -1.797 -15.277  14.384  1.00  0.00     0.010 A 
ATOM     80  C   UNL     1      -4.552 -14.892  14.664  1.00  0.00     0.020 A 
ATOM     81  C   UNL     1      -2.522 -16.084  15.263  1.00  0.00     0.020 A 
ATOM     82  C   UNL     1      -3.893 -15.873  15.412  1.00  0.00     0.054 A 
BRANCH  82  83
ATOM     83  S   UNL     1      -4.858 -16.890  16.562  1.00  0.00     0.124 S 
ATOM     84  O   UNL     1      -5.144 -15.944  17.637  1.00  0.00    -0.237 OA
ATOM     85  O   UNL     1      -6.007 -17.287  15.752  1.00  0.00    -0.237 OA
ATOM     86  O   UNL     1      -3.946 -17.976  16.914  1.00  0.00    -0.744 OA
ENDBRANCH  82  83
ENDBRANCH  56  77
ENDBRANCH  30  31
ENDBRANCH  22  25
ENDBRANCH  20  21
ENDBRANCH  19  20
ENDBRANCH  18  19
ENDBRANCH   1  18
TORSDOF 20
