REMARK SMILES C[NH2+][C@@]1(C(=O)NCCCCCCNC(=O)c2ccc(-c3c4nc(c(-c5ccc(S(=O)(=O)[O-])cc5)c5ccc([nH]5)c(-c5ccc(S(=O)(=O)[O-])cc5)c5nc(c(-c6ccc(S(=O)(=O)[O-])cc6)c6ccc3[nH]6)C=C5)C=C4)cc2)CCC[C@H]1CCSc1nccc(=O)[nH]1
REMARK SMILES IDX 9 1 8 2 7 3 6 4 4 5 5 6 3 8 76 9 79 10 77 11 78 12 2 13 1 14
REMARK SMILES IDX 80 17 81 18 82 19 83 20 84 21 89 22 85 23 87 24 86 26 88 27
REMARK SMILES IDX 10 28 11 29 12 30 13 31 14 32 15 34 16 35 17 36 75 37 18 38
REMARK SMILES IDX 74 39 19 40 20 41 21 42 68 43 22 44 73 45 67 46 69 47 23 48
REMARK SMILES IDX 72 49 66 50 65 51 24 53 54 54 35 55 53 56 36 57 39 58 52 59
REMARK SMILES IDX 70 60 37 61 38 62 51 64 71 65 40 66 25 67 26 68 34 69 27 70
REMARK SMILES IDX 33 71 28 72 29 73 30 74 31 75 32 76 55 77 56 78 64 79 57 80
REMARK SMILES IDX 63 81 58 82 59 83 60 84 61 85 62 86 41 87 42 88 50 89 43 90
REMARK SMILES IDX 49 91 44 92 45 93 46 94 47 95 48 96
REMARK H PARENT 6 7 2 15 2 16 89 25 13 33 69 52 39 63
REMARK Flexibility Score: inf
ROOT
ATOM      1  C   UNL     1      -5.293  -1.835   4.043  1.00  0.00     0.002 C 
ENDROOT
BRANCH   1   2
ATOM      2  C   UNL     1      -4.603  -2.065   2.700  1.00  0.00     0.021 C 
BRANCH   2   3
ATOM      3  C   UNL     1      -3.959  -0.835   2.078  1.00  0.00     0.116 C 
BRANCH   3   4
ATOM      4  N   UNL     1      -2.703  -0.457   2.667  1.00  0.00    -0.351 N 
ATOM      5  C   UNL     1      -1.480  -0.218   2.134  1.00  0.00     0.281 C 
ATOM      6  O   UNL     1      -0.675   0.297   2.934  1.00  0.00    -0.268 OA
ATOM      7  H   UNL     1      -2.739  -0.351   3.646  1.00  0.00     0.163 HD
BRANCH   5   8
ATOM      8  C   UNL     1      -1.006  -0.501   0.626  1.00  0.00     0.178 C 
ATOM      9  C   UNL     1      -1.555   0.606  -0.297  1.00  0.00     0.079 C 
ATOM     10  C   UNL     1      -1.509  -1.847   0.005  1.00  0.00     0.061 C 
ATOM     11  C   UNL     1      -2.818   0.066  -0.938  1.00  0.00     0.008 C 
ATOM     12  C   UNL     1      -2.633  -1.445  -0.999  1.00  0.00     0.011 C 
BRANCH   8  13
ATOM     13  N   UNL     1       0.477  -0.549   0.746  1.00  0.00    -0.336 N 
ATOM     14  C   UNL     1       1.286   0.315  -0.082  1.00  0.00     0.331 C 
ATOM     15  H   UNL     1       0.704  -0.327   1.716  1.00  0.00     0.346 HD
ATOM     16  H   UNL     1       0.714  -1.485   0.418  1.00  0.00     0.346 HD
ENDBRANCH   8  13
BRANCH  10  17
ATOM     17  C   UNL     1      -0.497  -2.702  -0.815  1.00  0.00     0.022 C 
BRANCH  17  18
ATOM     18  C   UNL     1       0.709  -3.366  -0.135  1.00  0.00     0.079 C 
BRANCH  18  19
ATOM     19  S   UNL     1       0.331  -4.902   0.750  1.00  0.00    -0.088 SA
BRANCH  19  20
ATOM     20  C   UNL     1      -0.298  -4.305   2.246  1.00  0.00     0.168 A 
ATOM     21  N   UNL     1       0.063  -3.199   2.802  1.00  0.00    -0.233 NA
ATOM     22  N   UNL     1      -1.219  -5.158   2.763  1.00  0.00    -0.301 N 
ATOM     23  C   UNL     1      -0.571  -2.877   3.975  1.00  0.00     0.120 A 
ATOM     24  C   UNL     1      -1.881  -4.886   3.916  1.00  0.00     0.251 A 
ATOM     25  H   UNL     1      -1.412  -5.998   2.287  1.00  0.00     0.172 HD
ATOM     26  C   UNL     1      -1.515  -3.619   4.563  1.00  0.00     0.091 A 
ATOM     27  O   UNL     1      -2.736  -5.625   4.392  1.00  0.00    -0.269 OA
ENDBRANCH  19  20
ENDBRANCH  18  19
ENDBRANCH  17  18
ENDBRANCH  10  17
ENDBRANCH   5   8
ENDBRANCH   3   4
ENDBRANCH   2   3
ENDBRANCH   1   2
BRANCH   1  28
ATOM     28  C   UNL     1      -6.272  -0.656   4.088  1.00  0.00     0.002 C 
BRANCH  28  29
ATOM     29  C   UNL     1      -7.312  -0.608   2.963  1.00  0.00     0.021 C 
BRANCH  29  30
ATOM     30  C   UNL     1      -8.198  -1.843   2.851  1.00  0.00     0.116 C 
BRANCH  30  31
ATOM     31  N   UNL     1      -8.963  -2.073   4.064  1.00  0.00    -0.352 N 
ATOM     32  C   UNL     1     -10.322  -2.134   4.240  1.00  0.00     0.251 C 
ATOM     33  H   UNL     1      -8.427  -2.204   4.880  1.00  0.00     0.163 HD
ATOM     34  O   UNL     1     -10.793  -2.102   5.373  1.00  0.00    -0.269 OA
BRANCH  32  35
ATOM     35  C   UNL     1     -11.215  -2.226   3.065  1.00  0.00     0.039 A 
ATOM     36  C   UNL     1     -12.381  -1.457   3.040  1.00  0.00     0.014 A 
ATOM     37  C   UNL     1     -10.916  -3.081   2.001  1.00  0.00     0.014 A 
ATOM     38  C   UNL     1     -13.219  -1.507   1.925  1.00  0.00     0.010 A 
ATOM     39  C   UNL     1     -11.710  -3.071   0.858  1.00  0.00     0.010 A 
ATOM     40  C   UNL     1     -12.875  -2.291   0.811  1.00  0.00    -0.014 A 
BRANCH  40  41
ATOM     41  C   UNL     1     -13.722  -2.306  -0.410  1.00  0.00     0.031 A 
ATOM     42  C   UNL     1     -14.389  -3.579  -0.855  1.00  0.00     0.074 A 
ATOM     43  C   UNL     1     -13.842  -1.185  -1.149  1.00  0.00     0.049 A 
ATOM     44  N   UNL     1     -15.125  -3.797  -1.915  1.00  0.00    -0.248 NA
ATOM     45  C   UNL     1     -14.184  -4.770  -0.013  1.00  0.00     0.031 C 
ATOM     46  C   UNL     1     -13.210   0.102  -0.845  1.00  0.00     0.029 A 
ATOM     47  N   UNL     1     -14.531  -0.948  -2.312  1.00  0.00    -0.354 N 
ATOM     48  C   UNL     1     -15.456  -5.147  -1.875  1.00  0.00     0.074 A 
ATOM     49  C   UNL     1     -14.797  -5.709  -0.717  1.00  0.00     0.031 C 
ATOM     50  C   UNL     1     -13.563   0.997  -1.781  1.00  0.00     0.029 A 
ATOM     51  C   UNL     1     -14.405   0.340  -2.776  1.00  0.00     0.049 A 
ATOM     52  H   UNL     1     -15.065  -1.636  -2.772  1.00  0.00     0.167 HD
ATOM     53  C   UNL     1     -16.251  -5.851  -2.717  1.00  0.00     0.031 A 
ATOM     54  C   UNL     1     -14.902   0.927  -3.882  1.00  0.00     0.031 A 
ATOM     55  C   UNL     1     -16.906  -5.284  -3.867  1.00  0.00     0.049 A 
ATOM     56  C   UNL     1     -15.768   0.121  -4.812  1.00  0.00     0.074 A 
ATOM     57  C   UNL     1     -17.776  -5.899  -4.750  1.00  0.00     0.029 A 
ATOM     58  N   UNL     1     -16.758  -3.974  -4.298  1.00  0.00    -0.354 N 
ATOM     59  N   UNL     1     -16.129  -1.136  -4.717  1.00  0.00    -0.248 NA
ATOM     60  C   UNL     1     -16.303   0.817  -5.990  1.00  0.00     0.031 C 
ATOM     61  C   UNL     1     -18.103  -4.979  -5.752  1.00  0.00     0.029 A 
ATOM     62  C   UNL     1     -17.495  -3.770  -5.453  1.00  0.00     0.049 A 
ATOM     63  H   UNL     1     -16.209  -3.290  -3.850  1.00  0.00     0.167 HD
ATOM     64  C   UNL     1     -16.957  -1.375  -5.809  1.00  0.00     0.074 A 
ATOM     65  C   UNL     1     -17.056  -0.127  -6.538  1.00  0.00     0.031 C 
ATOM     66  C   UNL     1     -17.581  -2.523  -6.172  1.00  0.00     0.031 A 
BRANCH  53  67
ATOM     67  C   UNL     1     -16.444  -7.319  -2.432  1.00  0.00    -0.014 A 
ATOM     68  C   UNL     1     -17.157  -7.757  -1.301  1.00  0.00     0.010 A 
ATOM     69  C   UNL     1     -15.936  -8.277  -3.329  1.00  0.00     0.010 A 
ATOM     70  C   UNL     1     -17.318  -9.122  -1.048  1.00  0.00     0.020 A 
ATOM     71  C   UNL     1     -16.123  -9.643  -3.097  1.00  0.00     0.020 A 
ATOM     72  C   UNL     1     -16.797 -10.056  -1.947  1.00  0.00     0.054 A 
BRANCH  72  73
ATOM     73  S   UNL     1     -17.037 -11.821  -1.602  1.00  0.00     0.124 S 
ATOM     74  O   UNL     1     -16.143 -12.029  -0.465  1.00  0.00    -0.237 OA
ATOM     75  O   UNL     1     -18.464 -11.896  -1.300  1.00  0.00    -0.237 OA
ATOM     76  O   UNL     1     -16.629 -12.476  -2.842  1.00  0.00    -0.744 OA
ENDBRANCH  72  73
ENDBRANCH  53  67
BRANCH  54  77
ATOM     77  C   UNL     1     -14.593   2.357  -4.166  1.00  0.00    -0.014 A 
ATOM     78  C   UNL     1     -15.597   3.338  -4.085  1.00  0.00     0.010 A 
ATOM     79  C   UNL     1     -13.284   2.746  -4.503  1.00  0.00     0.010 A 
ATOM     80  C   UNL     1     -15.301   4.678  -4.354  1.00  0.00     0.020 A 
ATOM     81  C   UNL     1     -12.977   4.089  -4.741  1.00  0.00     0.020 A 
ATOM     82  C   UNL     1     -13.992   5.045  -4.676  1.00  0.00     0.054 A 
BRANCH  82  83
ATOM     83  S   UNL     1     -13.620   6.797  -4.968  1.00  0.00     0.124 S 
ATOM     84  O   UNL     1     -14.260   7.032  -6.259  1.00  0.00    -0.237 OA
ATOM     85  O   UNL     1     -14.249   7.447  -3.821  1.00  0.00    -0.237 OA
ATOM     86  O   UNL     1     -12.160   6.840  -4.976  1.00  0.00    -0.744 OA
ENDBRANCH  82  83
ENDBRANCH  54  77
BRANCH  66  87
ATOM     87  C   UNL     1     -18.459  -2.480  -7.396  1.00  0.00    -0.014 A 
ATOM     88  C   UNL     1     -17.913  -2.358  -8.686  1.00  0.00     0.010 A 
ATOM     89  C   UNL     1     -19.852  -2.621  -7.253  1.00  0.00     0.010 A 
ATOM     90  C   UNL     1     -18.746  -2.345  -9.808  1.00  0.00     0.020 A 
ATOM     91  C   UNL     1     -20.686  -2.641  -8.373  1.00  0.00     0.020 A 
ATOM     92  C   UNL     1     -20.128  -2.489  -9.644  1.00  0.00     0.054 A 
BRANCH  92  93
ATOM     93  S   UNL     1     -21.183  -2.515 -11.119  1.00  0.00     0.124 S 
ATOM     94  O   UNL     1     -21.136  -1.121 -11.551  1.00  0.00    -0.237 OA
ATOM     95  O   UNL     1     -20.493  -3.466 -11.988  1.00  0.00    -0.237 OA
ATOM     96  O   UNL     1     -22.477  -2.967 -10.613  1.00  0.00    -0.744 OA
ENDBRANCH  92  93
ENDBRANCH  66  87
ENDBRANCH  40  41
ENDBRANCH  32  35
ENDBRANCH  30  31
ENDBRANCH  29  30
ENDBRANCH  28  29
ENDBRANCH   1  28
TORSDOF 21
