REMARK SMILES CCOc1ccc(C(=O)NC(=S)Nc2cccc(C(=O)NCCCCCCNC(=O)c3ccc(-c4c5nc(c(-c6ccc(S(=O)(=O)[O-])cc6)c6ccc([nH]6)c(-c6ccc(S(=O)(=O)[O-])cc6)c6nc(c(-c7ccc(S(=O)(=O)[O-])cc7)c7ccc4[nH]7)C=C6)C=C5)cc3)c2C)cc1Br
REMARK SMILES IDX 23 1 22 2 21 3 19 4 20 5 18 7 14 8 15 9 91 10 16 11 92 12
REMARK SMILES IDX 17 13 13 14 11 16 12 17 10 18 8 19 9 20 7 22 4 23 5 24 94 25
REMARK SMILES IDX 6 26 93 27 95 28 3 29 2 30 1 31 24 32 25 33 26 34 27 35
REMARK SMILES IDX 28 36 29 37 30 39 31 40 32 41 90 42 33 43 89 44 34 45 35 46
REMARK SMILES IDX 36 47 83 48 37 49 88 50 82 51 84 52 38 53 87 54 81 55 80 56
REMARK SMILES IDX 39 58 69 59 50 60 68 61 51 62 54 63 67 64 85 65 52 66 53 67
REMARK SMILES IDX 66 69 86 70 55 71 40 72 41 73 49 74 42 75 48 76 43 77 44 78
REMARK SMILES IDX 45 79 46 80 47 81 70 82 71 83 79 84 72 85 78 86 73 87 74 88
REMARK SMILES IDX 75 89 76 90 77 91 56 92 57 93 65 94 58 95 64 96 59 97 60 98
REMARK SMILES IDX 61 99 62 100 63 101
REMARK H PARENT 21 6 13 15 10 21 28 38 84 57 54 68
REMARK Flexibility Score: inf
ROOT
ATOM      1  C   UNL     1      -0.185  -1.643  -4.844  1.00  0.00     0.021 C 
ENDROOT
BRANCH   1   2
ATOM      2  C   UNL     1       1.145  -0.889  -5.030  1.00  0.00     0.116 C 
BRANCH   2   3
ATOM      3  N   UNL     1       1.399   0.313  -4.191  1.00  0.00    -0.352 N 
ATOM      4  C   UNL     1       2.255   0.759  -3.176  1.00  0.00     0.251 C 
ATOM      5  O   UNL     1       2.242   1.965  -2.924  1.00  0.00    -0.269 OA
ATOM      6  H   UNL     1       0.759   1.024  -4.424  1.00  0.00     0.163 HD
BRANCH   4   7
ATOM      7  C   UNL     1       3.112  -0.110  -2.305  1.00  0.00     0.044 A 
ATOM      8  C   UNL     1       4.739  -0.931   0.317  1.00  0.00     0.044 A 
ATOM      9  C   UNL     1       4.652  -2.675   0.025  1.00  0.00     0.026 A 
ATOM     10  C   UNL     1       3.864   0.297  -0.723  1.00  0.00    -0.015 A 
ATOM     11  C   UNL     1       3.883  -3.189  -1.469  1.00  0.00     0.003 A 
ATOM     12  C   UNL     1       3.801   1.706  -0.212  1.00  0.00     0.047 C 
ATOM     13  C   UNL     1       3.188  -1.811  -2.756  1.00  0.00     0.014 A 
BRANCH   8  14
ATOM     14  N   UNL     1       6.138  -0.648   0.491  1.00  0.00    -0.332 N 
ATOM     15  H   UNL     1       6.351   0.124   1.063  1.00  0.00     0.169 HD
BRANCH  14  16
ATOM     16  C   UNL     1       7.228  -1.321  -0.041  1.00  0.00     0.177 C 
ATOM     17  S   UNL     1       8.678  -1.175   0.798  1.00  0.00    -0.040 S 
BRANCH  16  18
ATOM     18  N   UNL     1       7.278  -2.070  -1.288  1.00  0.00    -0.299 N 
ATOM     19  C   UNL     1       6.716  -2.646  -2.581  1.00  0.00     0.257 C 
ATOM     20  O   UNL     1       7.462  -3.273  -3.328  1.00  0.00    -0.269 OA
ATOM     21  H   UNL     1       8.211  -2.382  -1.308  1.00  0.00     0.172 HD
BRANCH  19  22
ATOM     22  C   UNL     1       5.265  -2.496  -2.934  1.00  0.00     0.041 A 
ATOM     23  C   UNL     1       1.739  -2.838  -1.642  1.00  0.00     0.133 A 
ATOM     24  C   UNL     1       2.384  -3.815  -3.002  1.00  0.00     0.048 A 
ATOM     25  C   UNL     1       2.862  -1.687  -0.862  1.00  0.00     0.060 A 
ATOM     26  C   UNL     1       4.104  -3.676  -3.601  1.00  0.00     0.018 A 
ATOM     27  C   UNL     1       4.677  -1.461  -1.694  1.00  0.00     0.033 A 
ATOM     28  Br  UNL     1       2.235  -1.767   1.220  1.00  0.00    -0.047 Br
BRANCH  23  29
ATOM     29  O   UNL     1       0.399  -2.702  -1.336  1.00  0.00    -0.493 OA
BRANCH  29  30
ATOM     30  C   UNL     1      -0.126  -1.338  -1.422  1.00  0.00     0.226 C 
ATOM     31  C   UNL     1      -0.051  -0.354  -0.253  1.00  0.00     0.049 C 
ENDBRANCH  29  30
ENDBRANCH  23  29
ENDBRANCH  19  22
ENDBRANCH  16  18
ENDBRANCH  14  16
ENDBRANCH   8  14
ENDBRANCH   4   7
ENDBRANCH   2   3
ENDBRANCH   1   2
BRANCH   1  32
ATOM     32  C   UNL     1      -1.361  -1.096  -5.651  1.00  0.00     0.002 C 
BRANCH  32  33
ATOM     33  C   UNL     1      -1.102  -0.969  -7.156  1.00  0.00     0.002 C 
BRANCH  33  34
ATOM     34  C   UNL     1      -0.557  -2.227  -7.823  1.00  0.00     0.021 C 
BRANCH  34  35
ATOM     35  C   UNL     1      -1.594  -3.321  -7.961  1.00  0.00     0.116 C 
BRANCH  35  36
ATOM     36  N   UNL     1      -2.394  -3.151  -9.160  1.00  0.00    -0.352 N 
ATOM     37  C   UNL     1      -2.725  -4.159 -10.052  1.00  0.00     0.251 C 
ATOM     38  H   UNL     1      -2.729  -2.246  -9.355  1.00  0.00     0.163 HD
ATOM     39  O   UNL     1      -2.533  -4.093 -11.256  1.00  0.00    -0.269 OA
BRANCH  37  40
ATOM     40  C   UNL     1      -3.482  -5.282  -9.462  1.00  0.00     0.039 A 
ATOM     41  C   UNL     1      -4.844  -5.376  -9.782  1.00  0.00     0.014 A 
ATOM     42  C   UNL     1      -2.974  -5.830  -8.295  1.00  0.00     0.014 A 
ATOM     43  C   UNL     1      -5.732  -5.772  -8.799  1.00  0.00     0.010 A 
ATOM     44  C   UNL     1      -3.842  -5.976  -7.263  1.00  0.00     0.010 A 
ATOM     45  C   UNL     1      -5.216  -5.918  -7.522  1.00  0.00    -0.014 A 
BRANCH  45  46
ATOM     46  C   UNL     1      -5.964  -6.298  -6.354  1.00  0.00     0.031 A 
ATOM     47  C   UNL     1      -5.960  -7.768  -6.171  1.00  0.00     0.074 A 
ATOM     48  C   UNL     1      -6.162  -5.273  -5.488  1.00  0.00     0.049 A 
ATOM     49  N   UNL     1      -6.612  -8.401  -5.281  1.00  0.00    -0.248 NA
ATOM     50  C   UNL     1      -5.177  -8.697  -7.018  1.00  0.00     0.031 C 
ATOM     51  C   UNL     1      -6.418  -5.231  -4.054  1.00  0.00     0.029 A 
ATOM     52  N   UNL     1      -6.389  -3.946  -5.877  1.00  0.00    -0.354 N 
ATOM     53  C   UNL     1      -5.990  -9.629  -5.128  1.00  0.00     0.074 A 
ATOM     54  C   UNL     1      -5.224  -9.835  -6.321  1.00  0.00     0.031 C 
ATOM     55  C   UNL     1      -7.119  -4.112  -3.767  1.00  0.00     0.029 A 
ATOM     56  C   UNL     1      -7.397  -3.445  -5.032  1.00  0.00     0.049 A 
ATOM     57  H   UNL     1      -5.932  -3.458  -6.600  1.00  0.00     0.167 HD
ATOM     58  C   UNL     1      -6.052 -10.198  -3.895  1.00  0.00     0.031 A 
ATOM     59  C   UNL     1      -8.646  -3.292  -5.574  1.00  0.00     0.031 A 
ATOM     60  C   UNL     1      -6.902  -9.359  -3.047  1.00  0.00     0.049 A 
ATOM     61  C   UNL     1      -9.551  -4.404  -5.070  1.00  0.00     0.074 A 
ATOM     62  C   UNL     1      -6.607  -8.358  -2.138  1.00  0.00     0.029 A 
ATOM     63  N   UNL     1      -8.210  -9.143  -3.463  1.00  0.00    -0.354 N 
ATOM     64  N   UNL     1      -9.150  -5.618  -4.779  1.00  0.00    -0.248 NA
ATOM     65  C   UNL     1     -10.929  -4.150  -4.661  1.00  0.00     0.031 C 
ATOM     66  C   UNL     1      -7.727  -7.470  -2.109  1.00  0.00     0.029 A 
ATOM     67  C   UNL     1      -8.672  -7.917  -3.021  1.00  0.00     0.049 A 
ATOM     68  H   UNL     1      -8.736  -9.778  -4.001  1.00  0.00     0.167 HD
ATOM     69  C   UNL     1     -10.126  -6.252  -4.051  1.00  0.00     0.074 A 
ATOM     70  C   UNL     1     -11.225  -5.296  -4.028  1.00  0.00     0.031 C 
ATOM     71  C   UNL     1      -9.997  -7.466  -3.429  1.00  0.00     0.031 A 
BRANCH  58  72
ATOM     72  C   UNL     1      -5.194 -11.312  -3.351  1.00  0.00    -0.014 A 
ATOM     73  C   UNL     1      -5.194 -11.497  -1.951  1.00  0.00     0.010 A 
ATOM     74  C   UNL     1      -4.372 -12.185  -4.093  1.00  0.00     0.010 A 
ATOM     75  C   UNL     1      -4.421 -12.474  -1.318  1.00  0.00     0.020 A 
ATOM     76  C   UNL     1      -3.588 -13.179  -3.466  1.00  0.00     0.020 A 
ATOM     77  C   UNL     1      -3.622 -13.316  -2.079  1.00  0.00     0.054 A 
BRANCH  77  78
ATOM     78  S   UNL     1      -2.664 -14.588  -1.213  1.00  0.00     0.124 S 
ATOM     79  O   UNL     1      -1.800 -13.793  -0.344  1.00  0.00    -0.237 OA
ATOM     80  O   UNL     1      -3.704 -15.354  -0.531  1.00  0.00    -0.237 OA
ATOM     81  O   UNL     1      -1.974 -15.298  -2.288  1.00  0.00    -0.744 OA
ENDBRANCH  77  78
ENDBRANCH  58  72
BRANCH  59  82
ATOM     82  C   UNL     1      -8.550  -2.707  -6.961  1.00  0.00    -0.014 A 
ATOM     83  C   UNL     1      -7.992  -1.404  -7.045  1.00  0.00     0.010 A 
ATOM     84  C   UNL     1      -8.488  -3.524  -8.102  1.00  0.00     0.010 A 
ATOM     85  C   UNL     1      -7.204  -1.022  -8.138  1.00  0.00     0.020 A 
ATOM     86  C   UNL     1      -7.729  -3.120  -9.221  1.00  0.00     0.020 A 
ATOM     87  C   UNL     1      -7.035  -1.906  -9.199  1.00  0.00     0.054 A 
BRANCH  87  88
ATOM     88  S   UNL     1      -5.776  -1.506 -10.453  1.00  0.00     0.124 S 
ATOM     89  O   UNL     1      -6.329  -0.303 -11.068  1.00  0.00    -0.237 OA
ATOM     90  O   UNL     1      -4.573  -1.304  -9.640  1.00  0.00    -0.237 OA
ATOM     91  O   UNL     1      -5.760  -2.689 -11.306  1.00  0.00    -0.744 OA
ENDBRANCH  87  88
ENDBRANCH  59  82
BRANCH  71  92
ATOM     92  C   UNL     1     -11.175  -8.351  -3.080  1.00  0.00    -0.014 A 
ATOM     93  C   UNL     1     -12.478  -8.114  -3.534  1.00  0.00     0.010 A 
ATOM     94  C   UNL     1     -10.957  -9.566  -2.383  1.00  0.00     0.010 A 
ATOM     95  C   UNL     1     -13.529  -8.967  -3.198  1.00  0.00     0.020 A 
ATOM     96  C   UNL     1     -11.978 -10.479  -2.133  1.00  0.00     0.020 A 
ATOM     97  C   UNL     1     -13.271 -10.142  -2.497  1.00  0.00     0.054 A 
BRANCH  97  98
ATOM     98  S   UNL     1     -14.650 -11.220  -2.077  1.00  0.00     0.124 S 
ATOM     99  O   UNL     1     -15.289 -10.470  -0.998  1.00  0.00    -0.237 OA
ATOM    100  O   UNL     1     -15.398 -11.279  -3.330  1.00  0.00    -0.237 OA
ATOM    101  O   UNL     1     -14.008 -12.469  -1.679  1.00  0.00    -0.744 OA
ENDBRANCH  97  98
ENDBRANCH  71  92
ENDBRANCH  45  46
ENDBRANCH  37  40
ENDBRANCH  35  36
ENDBRANCH  34  35
ENDBRANCH  33  34
ENDBRANCH  32  33
ENDBRANCH   1  32
TORSDOF 22
