REMARK SMILES Cc1ccc(F)cc1S(=O)(=O)Nc1cc(C(=O)NCCCCCCNC(=O)c2ccc(-c3c4nc(c(-c5ccc(S(=O)(=O)[O-])cc5)c5ccc([nH]5)c(-c5ccc(S(=O)(=O)[O-])cc5)c5nc(c(-c6ccc(S(=O)(=O)[O-])cc6)c6ccc3[nH]6)C=C5)C=C4)cc2)ccc1N(C)Cc1ccccc1
REMARK SMILES IDX 21 1 20 2 19 3 18 4 16 5 17 6 15 8 13 9 14 10 90 11 89 12
REMARK SMILES IDX 88 13 12 14 9 16 10 17 11 18 8 19 1 20 2 21 3 22 4 23 7 24
REMARK SMILES IDX 5 25 6 26 91 27 92 28 93 29 94 30 95 31 99 32 96 33 98 34
REMARK SMILES IDX 97 35 22 36 23 37 24 38 25 39 26 40 27 42 28 43 29 44 87 45
REMARK SMILES IDX 30 46 86 47 31 48 32 49 33 50 80 51 34 52 85 53 79 54 81 55
REMARK SMILES IDX 35 56 84 57 78 58 77 59 36 61 66 62 47 63 65 64 48 65 51 66
REMARK SMILES IDX 64 67 82 68 49 69 50 70 63 72 83 73 52 74 37 75 38 76 46 77
REMARK SMILES IDX 39 78 45 79 40 80 41 81 42 82 43 83 44 84 67 85 68 86 76 87
REMARK SMILES IDX 69 88 75 89 70 90 71 91 72 92 73 93 74 94 53 95 54 96 62 97
REMARK SMILES IDX 55 98 61 99 56 100 57 101 58 102 59 103 60 104
REMARK H PARENT 18 7 12 15 25 41 81 60 51 71
REMARK Flexibility Score: inf
ROOT
ATOM      1  C   UNL     1       9.335   3.917   0.477  1.00  0.00     0.002 C 
ENDROOT
BRANCH   1   2
ATOM      2  C   UNL     1       7.994   3.442   1.067  1.00  0.00     0.021 C 
BRANCH   2   3
ATOM      3  C   UNL     1       6.900   3.162   0.034  1.00  0.00     0.116 C 
BRANCH   3   4
ATOM      4  N   UNL     1       7.147   1.890  -0.609  1.00  0.00    -0.352 N 
ATOM      5  C   UNL     1       6.783   0.592  -0.364  1.00  0.00     0.251 C 
ATOM      6  O   UNL     1       7.426  -0.254  -0.997  1.00  0.00    -0.269 OA
ATOM      7  H   UNL     1       7.710   1.978  -1.412  1.00  0.00     0.163 HD
BRANCH   5   8
ATOM      8  C   UNL     1       5.629   0.118   0.483  1.00  0.00     0.042 A 
ATOM      9  C   UNL     1       3.814  -1.541   0.494  1.00  0.00     0.073 A 
ATOM     10  C   UNL     1       5.109  -1.123   0.101  1.00  0.00     0.042 A 
ATOM     11  C   UNL     1       3.081  -0.947   1.528  1.00  0.00     0.061 A 
ATOM     12  C   UNL     1       3.697   0.250   1.997  1.00  0.00     0.029 A 
ATOM     13  C   UNL     1       4.912   0.798   1.459  1.00  0.00     0.016 A 
BRANCH   9  14
ATOM     14  N   UNL     1       3.065  -2.221  -0.517  1.00  0.00    -0.277 N 
ATOM     15  H   UNL     1       2.869  -3.186  -0.501  1.00  0.00     0.180 HD
BRANCH  14  16
ATOM     16  S   UNL     1       2.543  -1.147  -1.773  1.00  0.00     0.262 S 
ATOM     17  O   UNL     1       1.539  -1.843  -2.539  1.00  0.00    -0.201 OA
ATOM     18  O   UNL     1       3.761  -0.750  -2.461  1.00  0.00    -0.201 OA
BRANCH  16  19
ATOM     19  C   UNL     1       1.766   0.335  -1.068  1.00  0.00     0.093 A 
ATOM     20  C   UNL     1       3.410   2.003  -2.049  1.00  0.00     0.046 C 
ATOM     21  C   UNL     1       2.123   1.646  -1.383  1.00  0.00    -0.030 A 
ATOM     22  C   UNL     1       1.236   2.705  -1.046  1.00  0.00     0.008 A 
ATOM     23  C   UNL     1       0.066   2.490  -0.319  1.00  0.00     0.039 A 
ATOM     24  C   UNL     1       0.650   0.183  -0.255  1.00  0.00     0.061 A 
ATOM     25  C   UNL     1      -0.190   1.219   0.122  1.00  0.00     0.124 A 
ATOM     26  F   UNL     1      -1.240   0.969   0.918  1.00  0.00    -0.207 F 
ENDBRANCH  16  19
ENDBRANCH  14  16
ENDBRANCH   9  14
BRANCH  11  27
ATOM     27  N   UNL     1       1.791  -1.400   1.928  1.00  0.00    -0.369 N 
ATOM     28  C   UNL     1       1.206  -0.676   3.067  1.00  0.00     0.144 C 
BRANCH  27  29
ATOM     29  C   UNL     1       1.205  -2.804   1.723  1.00  0.00     0.151 C 
BRANCH  29  30
ATOM     30  C   UNL     1       0.475  -3.308   0.435  1.00  0.00    -0.029 A 
ATOM     31  C   UNL     1      -0.566  -2.687  -0.288  1.00  0.00     0.005 A 
ATOM     32  C   UNL     1       0.774  -4.614  -0.006  1.00  0.00     0.005 A 
ATOM     33  C   UNL     1      -0.998  -3.159  -1.546  1.00  0.00     0.000 A 
ATOM     34  C   UNL     1       0.254  -5.153  -1.199  1.00  0.00     0.000 A 
ATOM     35  C   UNL     1      -0.566  -4.388  -2.015  1.00  0.00     0.000 A 
ENDBRANCH  29  30
ENDBRANCH  27  29
ENDBRANCH  11  27
ENDBRANCH   5   8
ENDBRANCH   3   4
ENDBRANCH   2   3
ENDBRANCH   1   2
BRANCH   1  36
ATOM     36  C   UNL     1       9.296   5.230  -0.315  1.00  0.00     0.002 C 
BRANCH  36  37
ATOM     37  C   UNL     1       8.588   6.395   0.380  1.00  0.00     0.021 C 
BRANCH  37  38
ATOM     38  C   UNL     1       9.161   6.773   1.742  1.00  0.00     0.116 C 
BRANCH  38  39
ATOM     39  N   UNL     1      10.537   7.229   1.646  1.00  0.00    -0.352 N 
ATOM     40  C   UNL     1      11.098   8.409   2.063  1.00  0.00     0.251 C 
ATOM     41  H   UNL     1      11.159   6.598   1.217  1.00  0.00     0.163 HD
ATOM     42  O   UNL     1      12.228   8.709   1.687  1.00  0.00    -0.269 OA
BRANCH  40  43
ATOM     43  C   UNL     1      10.346   9.324   2.950  1.00  0.00     0.039 A 
ATOM     44  C   UNL     1      10.426  10.699   2.717  1.00  0.00     0.014 A 
ATOM     45  C   UNL     1       9.592   8.840   4.025  1.00  0.00     0.014 A 
ATOM     46  C   UNL     1       9.715  11.581   3.533  1.00  0.00     0.010 A 
ATOM     47  C   UNL     1       8.820   9.715   4.786  1.00  0.00     0.010 A 
ATOM     48  C   UNL     1       8.880  11.096   4.555  1.00  0.00    -0.014 A 
BRANCH  48  49
ATOM     49  C   UNL     1       8.057  12.036   5.360  1.00  0.00     0.031 A 
ATOM     50  C   UNL     1       8.287  12.194   6.838  1.00  0.00     0.074 A 
ATOM     51  C   UNL     1       7.085  12.741   4.748  1.00  0.00     0.049 A 
ATOM     52  N   UNL     1       7.709  13.018   7.676  1.00  0.00    -0.248 NA
ATOM     53  C   UNL     1       9.275  11.302   7.463  1.00  0.00     0.031 C 
ATOM     54  C   UNL     1       6.729  12.634   3.331  1.00  0.00     0.029 A 
ATOM     55  N   UNL     1       6.231  13.699   5.233  1.00  0.00    -0.354 N 
ATOM     56  C   UNL     1       8.261  12.743   8.922  1.00  0.00     0.074 A 
ATOM     57  C   UNL     1       9.172  11.634   8.742  1.00  0.00     0.031 C 
ATOM     58  C   UNL     1       5.772  13.531   3.049  1.00  0.00     0.029 A 
ATOM     59  C   UNL     1       5.417  14.247   4.270  1.00  0.00     0.049 A 
ATOM     60  H   UNL     1       6.204  13.968   6.179  1.00  0.00     0.167 HD
ATOM     61  C   UNL     1       8.046  13.370  10.105  1.00  0.00     0.031 A 
ATOM     62  C   UNL     1       4.494  15.224   4.355  1.00  0.00     0.031 A 
ATOM     63  C   UNL     1       7.128  14.466  10.280  1.00  0.00     0.049 A 
ATOM     64  C   UNL     1       4.267  15.899   5.678  1.00  0.00     0.074 A 
ATOM     65  C   UNL     1       6.873  15.203  11.424  1.00  0.00     0.029 A 
ATOM     66  N   UNL     1       6.305  14.978   9.286  1.00  0.00    -0.354 N 
ATOM     67  N   UNL     1       4.857  15.678   6.829  1.00  0.00    -0.248 NA
ATOM     68  C   UNL     1       3.260  16.967   5.707  1.00  0.00     0.031 C 
ATOM     69  C   UNL     1       5.850  16.115  11.139  1.00  0.00     0.029 A 
ATOM     70  C   UNL     1       5.517  15.997   9.799  1.00  0.00     0.049 A 
ATOM     71  H   UNL     1       6.284  14.664   8.354  1.00  0.00     0.167 HD
ATOM     72  C   UNL     1       4.305  16.593   7.718  1.00  0.00     0.074 A 
ATOM     73  C   UNL     1       3.358  17.389   6.960  1.00  0.00     0.031 C 
ATOM     74  C   UNL     1       4.556  16.761   9.041  1.00  0.00     0.031 A 
BRANCH  61  75
ATOM     75  C   UNL     1       8.810  12.869  11.306  1.00  0.00    -0.014 A 
ATOM     76  C   UNL     1      10.208  13.018  11.396  1.00  0.00     0.010 A 
ATOM     77  C   UNL     1       8.122  12.263  12.372  1.00  0.00     0.010 A 
ATOM     78  C   UNL     1      10.905  12.523  12.502  1.00  0.00     0.020 A 
ATOM     79  C   UNL     1       8.811  11.797  13.496  1.00  0.00     0.020 A 
ATOM     80  C   UNL     1      10.202  11.911  13.544  1.00  0.00     0.054 A 
BRANCH  80  81
ATOM     81  S   UNL     1      11.132  11.283  14.969  1.00  0.00     0.124 S 
ATOM     82  O   UNL     1      11.810  10.122  14.397  1.00  0.00    -0.237 OA
ATOM     83  O   UNL     1      11.997  12.410  15.308  1.00  0.00    -0.237 OA
ATOM     84  O   UNL     1      10.097  10.977  15.953  1.00  0.00    -0.744 OA
ENDBRANCH  80  81
ENDBRANCH  61  75
BRANCH  62  85
ATOM     85  C   UNL     1       3.743  15.638   3.138  1.00  0.00    -0.014 A 
ATOM     86  C   UNL     1       3.971  16.892   2.546  1.00  0.00     0.010 A 
ATOM     87  C   UNL     1       2.813  14.763   2.546  1.00  0.00     0.010 A 
ATOM     88  C   UNL     1       3.277  17.269   1.392  1.00  0.00     0.020 A 
ATOM     89  C   UNL     1       2.141  15.122   1.375  1.00  0.00     0.020 A 
ATOM     90  C   UNL     1       2.372  16.377   0.810  1.00  0.00     0.054 A 
BRANCH  90  91
ATOM     91  S   UNL     1       1.534  16.859  -0.725  1.00  0.00     0.124 S 
ATOM     92  O   UNL     1       0.601  17.878  -0.256  1.00  0.00    -0.237 OA
ATOM     93  O   UNL     1       2.640  17.343  -1.547  1.00  0.00    -0.237 OA
ATOM     94  O   UNL     1       0.924  15.614  -1.187  1.00  0.00    -0.744 OA
ENDBRANCH  90  91
ENDBRANCH  62  85
BRANCH  74  95
ATOM     95  C   UNL     1       3.798  17.857   9.745  1.00  0.00    -0.014 A 
ATOM     96  C   UNL     1       2.409  17.768   9.952  1.00  0.00     0.010 A 
ATOM     97  C   UNL     1       4.486  18.993  10.210  1.00  0.00     0.010 A 
ATOM     98  C   UNL     1       1.713  18.822  10.550  1.00  0.00     0.020 A 
ATOM     99  C   UNL     1       3.800  20.032  10.842  1.00  0.00     0.020 A 
ATOM    100  C   UNL     1       2.413  19.951  10.986  1.00  0.00     0.054 A 
BRANCH 100 101
ATOM    101  S   UNL     1       1.488  21.308  11.755  1.00  0.00     0.124 S 
ATOM    102  O   UNL     1       0.806  21.898  10.606  1.00  0.00    -0.237 OA
ATOM    103  O   UNL     1       0.627  20.609  12.706  1.00  0.00    -0.237 OA
ATOM    104  O   UNL     1       2.527  22.139  12.357  1.00  0.00    -0.744 OA
ENDBRANCH 100 101
ENDBRANCH  74  95
ENDBRANCH  48  49
ENDBRANCH  40  43
ENDBRANCH  38  39
ENDBRANCH  37  38
ENDBRANCH  36  37
ENDBRANCH   1  36
TORSDOF 22
