REMARK SMILES O=C(NCCCCCCNC(=O)c1sccc1S(=O)(=O)Nc1ccc(-c2nc3ccccc3n2C(F)F)cc1)c1ccc(-c2c3nc(c(-c4ccc(S(=O)(=O)[O-])cc4)c4ccc([nH]4)c(-c4ccc(S(=O)(=O)[O-])cc4)c4nc(c(-c5ccc(S(=O)(=O)[O-])cc5)c5ccc2[nH]5)C=C4)C=C3)cc1
REMARK SMILES IDX 7 1 6 2 5 3 4 4 3 5 1 6 2 7 40 9 41 10 99 11 42 12 98 13
REMARK SMILES IDX 43 14 44 15 45 16 92 17 46 18 97 19 91 20 93 21 47 22 96 23
REMARK SMILES IDX 90 24 89 25 48 27 78 28 59 29 77 30 60 31 63 32 76 33 94 34
REMARK SMILES IDX 61 35 62 36 75 38 95 39 64 40 49 41 50 42 58 43 51 44 57 45
REMARK SMILES IDX 52 46 53 47 54 48 55 49 56 50 79 51 80 52 88 53 81 54 87 55
REMARK SMILES IDX 82 56 83 57 84 58 85 59 86 60 65 61 66 62 74 63 67 64 73 65
REMARK SMILES IDX 68 66 69 67 70 68 71 69 72 70 8 71 9 72 10 73 11 74 12 76
REMARK SMILES IDX 13 77 14 78 17 79 15 80 16 81 18 82 19 83 20 84 21 85 22 87
REMARK SMILES IDX 23 88 39 89 24 90 38 91 25 92 26 93 27 94 34 95 28 96 33 97
REMARK SMILES IDX 29 98 32 99 30 100 31 101 35 102 36 103 37 104
REMARK H PARENT 3 8 93 26 63 37 10 75 21 86
REMARK Flexibility Score: inf
ROOT
ATOM      1  C   UNL     1       4.948   3.654  -1.660  1.00  0.00     0.002 C 
ENDROOT
BRANCH   1   2
ATOM      2  C   UNL     1       4.530   2.407  -2.447  1.00  0.00     0.002 C 
BRANCH   2   3
ATOM      3  C   UNL     1       4.938   1.067  -1.828  1.00  0.00     0.021 C 
BRANCH   3   4
ATOM      4  C   UNL     1       4.654   0.943  -0.331  1.00  0.00     0.116 C 
BRANCH   4   5
ATOM      5  N   UNL     1       3.256   1.083   0.004  1.00  0.00    -0.352 N 
ATOM      6  O   UNL     1       1.173   0.667   0.582  1.00  0.00    -0.269 OA
ATOM      7  C   UNL     1       2.214   0.208   0.104  1.00  0.00     0.251 C 
ATOM      8  H   UNL     1       3.000   2.012   0.203  1.00  0.00     0.163 HD
BRANCH   7   9
ATOM      9  C   UNL     1       2.235  -1.201  -0.373  1.00  0.00     0.039 A 
ATOM     10  C   UNL     1       3.344  -1.883  -0.878  1.00  0.00     0.014 A 
ATOM     11  C   UNL     1       0.992  -1.859  -0.356  1.00  0.00     0.014 A 
ATOM     12  C   UNL     1       3.202  -3.150  -1.433  1.00  0.00     0.010 A 
ATOM     13  C   UNL     1       0.844  -3.127  -0.899  1.00  0.00     0.010 A 
ATOM     14  C   UNL     1       1.946  -3.752  -1.474  1.00  0.00    -0.014 A 
BRANCH  14  15
ATOM     15  C   UNL     1       1.851  -5.109  -1.997  1.00  0.00     0.031 A 
ATOM     16  C   UNL     1       2.561  -6.134  -1.178  1.00  0.00     0.074 A 
ATOM     17  C   UNL     1       1.064  -5.438  -3.041  1.00  0.00     0.049 A 
ATOM     18  N   UNL     1       3.538  -6.907  -1.526  1.00  0.00    -0.248 NA
ATOM     19  C   UNL     1       2.217  -6.218   0.253  1.00  0.00     0.031 C 
ATOM     20  C   UNL     1       0.099  -4.589  -3.745  1.00  0.00     0.029 A 
ATOM     21  N   UNL     1       0.873  -6.656  -3.618  1.00  0.00    -0.354 N 
ATOM     22  C   UNL     1       3.804  -7.715  -0.421  1.00  0.00     0.074 A 
ATOM     23  C   UNL     1       3.071  -7.148   0.681  1.00  0.00     0.031 C 
ATOM     24  C   UNL     1      -0.739  -5.370  -4.464  1.00  0.00     0.029 A 
ATOM     25  C   UNL     1      -0.283  -6.748  -4.386  1.00  0.00     0.049 A 
ATOM     26  H   UNL     1       1.500  -7.407  -3.502  1.00  0.00     0.167 HD
ATOM     27  C   UNL     1       4.433  -8.918  -0.536  1.00  0.00     0.031 A 
ATOM     28  C   UNL     1      -0.861  -7.885  -4.854  1.00  0.00     0.031 A 
ATOM     29  C   UNL     1       5.116  -9.047  -1.795  1.00  0.00     0.049 A 
ATOM     30  C   UNL     1       0.176  -8.945  -4.832  1.00  0.00     0.074 A 
ATOM     31  C   UNL     1       6.148  -8.374  -2.417  1.00  0.00     0.029 A 
ATOM     32  N   UNL     1       4.487  -9.771  -2.780  1.00  0.00    -0.354 N 
ATOM     33  N   UNL     1       1.243  -8.921  -5.581  1.00  0.00    -0.248 NA
ATOM     34  C   UNL     1       0.262  -9.790  -3.651  1.00  0.00     0.031 C 
ATOM     35  C   UNL     1       5.779  -8.335  -3.792  1.00  0.00     0.029 A 
ATOM     36  C   UNL     1       4.584  -9.044  -3.938  1.00  0.00     0.049 A 
ATOM     37  H   UNL     1       4.049 -10.646  -2.674  1.00  0.00     0.167 HD
ATOM     38  C   UNL     1       2.262  -9.389  -4.764  1.00  0.00     0.074 A 
ATOM     39  C   UNL     1       1.582  -9.988  -3.616  1.00  0.00     0.031 C 
ATOM     40  C   UNL     1       3.559  -9.006  -4.958  1.00  0.00     0.031 A 
BRANCH  27  41
ATOM     41  C   UNL     1       4.092 -10.123   0.310  1.00  0.00    -0.014 A 
ATOM     42  C   UNL     1       4.795 -11.327   0.093  1.00  0.00     0.010 A 
ATOM     43  C   UNL     1       2.918 -10.203   1.087  1.00  0.00     0.010 A 
ATOM     44  C   UNL     1       4.294 -12.555   0.545  1.00  0.00     0.020 A 
ATOM     45  C   UNL     1       2.433 -11.416   1.579  1.00  0.00     0.020 A 
ATOM     46  C   UNL     1       3.103 -12.591   1.268  1.00  0.00     0.054 A 
BRANCH  46  47
ATOM     47  S   UNL     1       2.391 -14.190   1.727  1.00  0.00     0.124 S 
ATOM     48  O   UNL     1       2.059 -14.755   0.423  1.00  0.00    -0.237 OA
ATOM     49  O   UNL     1       3.498 -14.829   2.433  1.00  0.00    -0.237 OA
ATOM     50  O   UNL     1       1.249 -13.828   2.564  1.00  0.00    -0.744 OA
ENDBRANCH  46  47
ENDBRANCH  27  41
BRANCH  28  51
ATOM     51  C   UNL     1      -2.314  -8.187  -4.956  1.00  0.00    -0.014 A 
ATOM     52  C   UNL     1      -2.787  -9.295  -5.686  1.00  0.00     0.010 A 
ATOM     53  C   UNL     1      -3.224  -7.539  -4.095  1.00  0.00     0.010 A 
ATOM     54  C   UNL     1      -4.104  -9.765  -5.521  1.00  0.00     0.020 A 
ATOM     55  C   UNL     1      -4.537  -7.998  -3.929  1.00  0.00     0.020 A 
ATOM     56  C   UNL     1      -4.966  -9.123  -4.627  1.00  0.00     0.054 A 
BRANCH  56  57
ATOM     57  S   UNL     1      -6.608  -9.830  -4.290  1.00  0.00     0.124 S 
ATOM     58  O   UNL     1      -7.321  -9.573  -5.538  1.00  0.00    -0.237 OA
ATOM     59  O   UNL     1      -6.302 -11.231  -4.014  1.00  0.00    -0.237 OA
ATOM     60  O   UNL     1      -7.083  -9.066  -3.138  1.00  0.00    -0.744 OA
ENDBRANCH  56  57
ENDBRANCH  28  51
BRANCH  40  61
ATOM     61  C   UNL     1       3.919  -8.274  -6.229  1.00  0.00    -0.014 A 
ATOM     62  C   UNL     1       3.415  -7.003  -6.569  1.00  0.00     0.010 A 
ATOM     63  C   UNL     1       4.954  -8.817  -7.010  1.00  0.00     0.010 A 
ATOM     64  C   UNL     1       3.930  -6.301  -7.671  1.00  0.00     0.020 A 
ATOM     65  C   UNL     1       5.482  -8.117  -8.096  1.00  0.00     0.020 A 
ATOM     66  C   UNL     1       4.965  -6.863  -8.425  1.00  0.00     0.054 A 
BRANCH  66  67
ATOM     67  S   UNL     1       5.682  -5.924  -9.803  1.00  0.00     0.124 S 
ATOM     68  O   UNL     1       4.602  -5.928 -10.786  1.00  0.00    -0.237 OA
ATOM     69  O   UNL     1       5.975  -4.628  -9.195  1.00  0.00    -0.237 OA
ATOM     70  O   UNL     1       6.862  -6.703 -10.179  1.00  0.00    -0.744 OA
ENDBRANCH  66  67
ENDBRANCH  40  61
ENDBRANCH  14  15
ENDBRANCH   7   9
ENDBRANCH   4   5
ENDBRANCH   3   4
ENDBRANCH   2   3
ENDBRANCH   1   2
BRANCH   1  71
ATOM     71  C   UNL     1       6.437   3.726  -1.285  1.00  0.00     0.021 C 
BRANCH  71  72
ATOM     72  C   UNL     1       7.353   3.974  -2.473  1.00  0.00     0.116 C 
BRANCH  72  73
ATOM     73  N   UNL     1       7.208   5.335  -2.936  1.00  0.00    -0.351 N 
ATOM     74  C   UNL     1       8.113   6.140  -3.566  1.00  0.00     0.262 C 
ATOM     75  H   UNL     1       6.327   5.742  -2.773  1.00  0.00     0.163 HD
ATOM     76  O   UNL     1       7.834   7.339  -3.624  1.00  0.00    -0.268 OA
BRANCH  74  77
ATOM     77  C   UNL     1       9.359   5.589  -4.043  1.00  0.00     0.112 A 
ATOM     78  S   UNL     1      10.766   6.467  -3.543  1.00  0.00    -0.137 S 
ATOM     79  C   UNL     1       9.703   4.526  -4.862  1.00  0.00     0.111 A 
ATOM     80  C   UNL     1      11.822   5.369  -4.295  1.00  0.00     0.067 A 
ATOM     81  C   UNL     1      11.135   4.380  -4.954  1.00  0.00     0.035 A 
BRANCH  79  82
ATOM     82  S   UNL     1       8.710   3.407  -5.754  1.00  0.00     0.263 S 
ATOM     83  O   UNL     1       9.194   3.567  -7.111  1.00  0.00    -0.201 OA
ATOM     84  O   UNL     1       8.929   2.174  -5.029  1.00  0.00    -0.201 OA
BRANCH  82  85
ATOM     85  N   UNL     1       7.067   3.632  -5.758  1.00  0.00    -0.280 N 
ATOM     86  H   UNL     1       6.510   2.837  -5.591  1.00  0.00     0.180 HD
BRANCH  85  87
ATOM     87  C   UNL     1       6.388   4.850  -5.977  1.00  0.00     0.049 A 
ATOM     88  C   UNL     1       5.119   4.956  -5.400  1.00  0.00     0.027 A 
ATOM     89  C   UNL     1       6.965   5.963  -6.561  1.00  0.00     0.027 A 
ATOM     90  C   UNL     1       4.524   6.207  -5.204  1.00  0.00     0.014 A 
ATOM     91  C   UNL     1       6.359   7.208  -6.375  1.00  0.00     0.014 A 
ATOM     92  C   UNL     1       5.175   7.366  -5.622  1.00  0.00     0.018 A 
BRANCH  92  93
ATOM     93  C   UNL     1       4.767   8.748  -5.302  1.00  0.00     0.145 A 
ATOM     94  N   UNL     1       5.208   9.771  -6.020  1.00  0.00    -0.228 NA
ATOM     95  N   UNL     1       4.041   9.232  -4.223  1.00  0.00    -0.266 N 
ATOM     96  C   UNL     1       4.881  10.906  -5.348  1.00  0.00     0.089 A 
ATOM     97  C   UNL     1       4.162  10.613  -4.198  1.00  0.00     0.074 A 
ATOM     98  C   UNL     1       5.187  12.233  -5.673  1.00  0.00     0.030 A 
ATOM     99  C   UNL     1       3.730  11.619  -3.320  1.00  0.00     0.029 A 
ATOM    100  C   UNL     1       4.757  13.249  -4.817  1.00  0.00     0.002 A 
ATOM    101  C   UNL     1       4.044  12.944  -3.658  1.00  0.00     0.002 A 
BRANCH  95 102
ATOM    102  C   UNL     1       3.259   8.478  -3.268  1.00  0.00     0.451 C 
ATOM    103  F   UNL     1       2.247   7.805  -3.877  1.00  0.00    -0.185 F 
ATOM    104  F   UNL     1       4.003   7.562  -2.593  1.00  0.00    -0.185 F 
ENDBRANCH  95 102
ENDBRANCH  92  93
ENDBRANCH  85  87
ENDBRANCH  82  85
ENDBRANCH  79  82
ENDBRANCH  74  77
ENDBRANCH  72  73
ENDBRANCH  71  72
ENDBRANCH   1  71
TORSDOF 21
