REMARK SMILES C[C@@H](C(=O)NCCCCCCNC(=O)c1ccc(-c2c3nc(c(-c4ccc(S(=O)(=O)[O-])cc4)c4ccc([nH]4)c(-c4ccc(S(=O)(=O)[O-])cc4)c4nc(c(-c5ccc(S(=O)(=O)[O-])cc5)c5ccc2[nH]5)C=C4)C=C3)cc1)S(=O)(=O)N[C@@]12C[C@@H]3C[C@@](C)(C[C@@](C)(C3)C1)C2
REMARK SMILES IDX 8 1 7 2 6 3 5 4 3 5 4 6 2 8 1 9 75 10 76 11 77 12 78 13
REMARK SMILES IDX 79 15 80 16 89 17 90 18 81 19 86 20 83 21 88 22 82 23 85 24
REMARK SMILES IDX 87 25 84 26 9 27 10 28 11 29 12 30 13 31 14 33 15 34 16 35
REMARK SMILES IDX 74 36 17 37 73 38 18 39 19 40 20 41 67 42 21 43 72 44 66 45
REMARK SMILES IDX 68 46 22 47 71 48 65 49 64 50 23 52 53 53 34 54 52 55 35 56
REMARK SMILES IDX 38 57 51 58 69 59 36 60 37 61 50 63 70 64 39 65 24 66 25 67
REMARK SMILES IDX 33 68 26 69 32 70 27 71 28 72 29 73 30 74 31 75 54 76 55 77
REMARK SMILES IDX 63 78 56 79 62 80 57 81 58 82 59 83 60 84 61 85 40 86 41 87
REMARK SMILES IDX 49 88 42 89 48 90 43 91 44 92 45 93 46 94 47 95
REMARK H PARENT 5 7 78 14 12 32 68 51 38 62
REMARK Flexibility Score: inf
ROOT
ATOM      1  C   UNL     1       5.048  -3.042   0.369  1.00  0.00     0.002 C 
ENDROOT
BRANCH   1   2
ATOM      2  C   UNL     1       4.204  -1.862  -0.124  1.00  0.00     0.021 C 
BRANCH   2   3
ATOM      3  C   UNL     1       3.426  -2.187  -1.409  1.00  0.00     0.116 C 
BRANCH   3   4
ATOM      4  N   UNL     1       2.236  -2.953  -1.073  1.00  0.00    -0.355 N 
ATOM      5  C   UNL     1       0.963  -2.512  -0.792  1.00  0.00     0.239 C 
ATOM      6  O   UNL     1       0.211  -3.296  -0.216  1.00  0.00    -0.274 OA
ATOM      7  H   UNL     1       2.359  -3.930  -1.041  1.00  0.00     0.163 HD
BRANCH   5   8
ATOM      8  C   UNL     1       0.569  -1.117  -1.217  1.00  0.00     0.209 C 
ATOM      9  C   UNL     1       1.353  -0.009  -0.536  1.00  0.00     0.037 C 
BRANCH   8  10
ATOM     10  S   UNL     1      -1.240  -0.877  -1.162  1.00  0.00     0.223 S 
ATOM     11  O   UNL     1      -1.513   0.485  -1.589  1.00  0.00    -0.212 OA
ATOM     12  O   UNL     1      -1.852  -1.958  -1.904  1.00  0.00    -0.212 OA
BRANCH  10  13
ATOM     13  N   UNL     1      -1.848  -1.028   0.387  1.00  0.00    -0.208 NA
ATOM     14  H   UNL     1      -1.623  -1.985   0.659  1.00  0.00     0.141 HD
BRANCH  13  15
ATOM     15  C   UNL     1      -1.527  -0.216   1.583  1.00  0.00     0.034 C 
ATOM     16  C   UNL     1      -0.995   1.187   1.260  1.00  0.00     0.027 C 
ATOM     17  C   UNL     1      -2.791   0.074   2.448  1.00  0.00     0.030 C 
ATOM     18  C   UNL     1      -0.601  -1.084   2.463  1.00  0.00     0.030 C 
ATOM     19  C   UNL     1      -0.435   1.872   2.504  1.00  0.00    -0.008 C 
ATOM     20  C   UNL     1      -2.394   0.891   3.731  1.00  0.00    -0.030 C 
ATOM     21  C   UNL     1      -0.165  -0.334   3.730  1.00  0.00    -0.030 C 
ATOM     22  C   UNL     1      -1.643   2.198   3.372  1.00  0.00     0.010 C 
ATOM     23  C   UNL     1       0.540   0.960   3.274  1.00  0.00     0.010 C 
ATOM     24  C   UNL     1      -1.419   0.028   4.564  1.00  0.00     0.013 C 
ATOM     25  C   UNL     1      -3.633   1.270   4.544  1.00  0.00     0.011 C 
ATOM     26  C   UNL     1       0.774  -1.217   4.560  1.00  0.00     0.011 C 
ENDBRANCH  13  15
ENDBRANCH  10  13
ENDBRANCH   8  10
ENDBRANCH   5   8
ENDBRANCH   3   4
ENDBRANCH   2   3
ENDBRANCH   1   2
BRANCH   1  27
ATOM     27  C   UNL     1       6.129  -3.488  -0.620  1.00  0.00     0.002 C 
BRANCH  27  28
ATOM     28  C   UNL     1       7.113  -2.385  -1.019  1.00  0.00     0.021 C 
BRANCH  28  29
ATOM     29  C   UNL     1       7.939  -1.854   0.147  1.00  0.00     0.116 C 
BRANCH  29  30
ATOM     30  N   UNL     1       8.779  -2.900   0.711  1.00  0.00    -0.352 N 
ATOM     31  C   UNL     1      10.146  -2.953   0.799  1.00  0.00     0.251 C 
ATOM     32  H   UNL     1       8.299  -3.676   1.081  1.00  0.00     0.163 HD
ATOM     33  O   UNL     1      10.709  -4.018   1.033  1.00  0.00    -0.269 OA
BRANCH  31  34
ATOM     34  C   UNL     1      10.929  -1.717   0.607  1.00  0.00     0.039 A 
ATOM     35  C   UNL     1      12.085  -1.754  -0.175  1.00  0.00     0.014 A 
ATOM     36  C   UNL     1      10.519  -0.524   1.211  1.00  0.00     0.014 A 
ATOM     37  C   UNL     1      12.806  -0.578  -0.389  1.00  0.00     0.010 A 
ATOM     38  C   UNL     1      11.193   0.658   0.931  1.00  0.00     0.010 A 
ATOM     39  C   UNL     1      12.351   0.641   0.140  1.00  0.00    -0.014 A 
BRANCH  39  40
ATOM     40  C   UNL     1      13.079   1.910  -0.108  1.00  0.00     0.031 A 
ATOM     41  C   UNL     1      13.687   2.665   1.042  1.00  0.00     0.074 A 
ATOM     42  C   UNL     1      13.139   2.411  -1.358  1.00  0.00     0.049 A 
ATOM     43  N   UNL     1      14.306   3.817   1.036  1.00  0.00    -0.248 NA
ATOM     44  C   UNL     1      13.561   2.059   2.379  1.00  0.00     0.031 C 
ATOM     45  C   UNL     1      12.556   1.788  -2.550  1.00  0.00     0.029 A 
ATOM     46  N   UNL     1      13.713   3.563  -1.833  1.00  0.00    -0.354 N 
ATOM     47  C   UNL     1      14.626   4.081   2.363  1.00  0.00     0.074 A 
ATOM     48  C   UNL     1      14.085   2.997   3.153  1.00  0.00     0.031 C 
ATOM     49  C   UNL     1      12.828   2.551  -3.621  1.00  0.00     0.029 A 
ATOM     50  C   UNL     1      13.561   3.736  -3.188  1.00  0.00     0.049 A 
ATOM     51  H   UNL     1      14.189   4.204  -1.257  1.00  0.00     0.167 HD
ATOM     52  C   UNL     1      15.325   5.122   2.876  1.00  0.00     0.031 A 
ATOM     53  C   UNL     1      13.959   4.742  -3.992  1.00  0.00     0.031 A 
ATOM     54  C   UNL     1      15.867   6.193   2.083  1.00  0.00     0.049 A 
ATOM     55  C   UNL     1      14.717   5.897  -3.397  1.00  0.00     0.074 A 
ATOM     56  C   UNL     1      16.634   7.267   2.499  1.00  0.00     0.029 A 
ATOM     57  N   UNL     1      15.695   6.331   0.714  1.00  0.00    -0.354 N 
ATOM     58  N   UNL     1      15.066   6.097  -2.148  1.00  0.00    -0.248 NA
ATOM     59  C   UNL     1      15.146   6.955  -4.321  1.00  0.00     0.031 C 
ATOM     60  C   UNL     1      16.875   8.085   1.391  1.00  0.00     0.029 A 
ATOM     61  C   UNL     1      16.318   7.485   0.272  1.00  0.00     0.049 A 
ATOM     62  H   UNL     1      15.202   5.700   0.140  1.00  0.00     0.167 HD
ATOM     63  C   UNL     1      15.782   7.289  -2.142  1.00  0.00     0.074 A 
ATOM     64  C   UNL     1      15.828   7.756  -3.513  1.00  0.00     0.031 C 
ATOM     65  C   UNL     1      16.353   7.937  -1.096  1.00  0.00     0.031 A 
BRANCH  52  66
ATOM     66  C   UNL     1      15.533   5.154   4.368  1.00  0.00    -0.014 A 
ATOM     67  C   UNL     1      16.358   4.213   5.011  1.00  0.00     0.010 A 
ATOM     68  C   UNL     1      14.924   6.163   5.137  1.00  0.00     0.010 A 
ATOM     69  C   UNL     1      16.533   4.251   6.397  1.00  0.00     0.020 A 
ATOM     70  C   UNL     1      15.122   6.226   6.519  1.00  0.00     0.020 A 
ATOM     71  C   UNL     1      15.911   5.257   7.143  1.00  0.00     0.054 A 
BRANCH  71  72
ATOM     72  S   UNL     1      16.171   5.293   8.937  1.00  0.00     0.124 S 
ATOM     73  O   UNL     1      15.396   4.135   9.376  1.00  0.00    -0.237 OA
ATOM     74  O   UNL     1      17.621   5.158   9.053  1.00  0.00    -0.237 OA
ATOM     75  O   UNL     1      15.634   6.590   9.340  1.00  0.00    -0.744 OA
ENDBRANCH  71  72
ENDBRANCH  52  66
BRANCH  53  76
ATOM     76  C   UNL     1      13.658   4.691  -5.449  1.00  0.00    -0.014 A 
ATOM     77  C   UNL     1      14.689   4.502  -6.387  1.00  0.00     0.010 A 
ATOM     78  C   UNL     1      12.333   4.815  -5.907  1.00  0.00     0.010 A 
ATOM     79  C   UNL     1      14.403   4.457  -7.755  1.00  0.00     0.020 A 
ATOM     80  C   UNL     1      12.040   4.739  -7.271  1.00  0.00     0.020 A 
ATOM     81  C   UNL     1      13.079   4.572  -8.188  1.00  0.00     0.054 A 
BRANCH  81  82
ATOM     82  S   UNL     1      12.727   4.457  -9.964  1.00  0.00     0.124 S 
ATOM     83  O   UNL     1      13.250   5.726 -10.460  1.00  0.00    -0.237 OA
ATOM     84  O   UNL     1      13.476   3.266 -10.356  1.00  0.00    -0.237 OA
ATOM     85  O   UNL     1      11.274   4.315 -10.015  1.00  0.00    -0.744 OA
ENDBRANCH  81  82
ENDBRANCH  53  76
BRANCH  65  86
ATOM     86  C   UNL     1      17.113   9.204  -1.395  1.00  0.00    -0.014 A 
ATOM     87  C   UNL     1      16.449  10.386  -1.767  1.00  0.00     0.010 A 
ATOM     88  C   UNL     1      18.511   9.222  -1.240  1.00  0.00     0.010 A 
ATOM     89  C   UNL     1      17.174  11.555  -2.011  1.00  0.00     0.020 A 
ATOM     90  C   UNL     1      19.236  10.397  -1.451  1.00  0.00     0.020 A 
ATOM     91  C   UNL     1      18.564  11.554  -1.849  1.00  0.00     0.054 A 
BRANCH  91  92
ATOM     92  S   UNL     1      19.475  13.097  -2.125  1.00  0.00     0.124 S 
ATOM     93  O   UNL     1      19.409  13.233  -3.578  1.00  0.00    -0.237 OA
ATOM     94  O   UNL     1      18.694  14.070  -1.366  1.00  0.00    -0.237 OA
ATOM     95  O   UNL     1      20.804  12.817  -1.585  1.00  0.00    -0.744 OA
ENDBRANCH  91  92
ENDBRANCH  65  86
ENDBRANCH  39  40
ENDBRANCH  31  34
ENDBRANCH  29  30
ENDBRANCH  28  29
ENDBRANCH  27  28
ENDBRANCH   1  27
TORSDOF 19
