REMARK SMILES Cn1cc(C(=O)NCCCCCCNC(=O)c2ccc(-c3c4nc(c(-c5ccc(S(=O)(=O)[O-])cc5)c5ccc([nH]5)c(-c5ccc(S(=O)(=O)[O-])cc5)c5nc(c(-c6ccc(S(=O)(=O)[O-])cc6)c6ccc3[nH]6)C=C5)C=C4)cc2)c(C(=O)Nc2ccc(-c3nc4cc(Cl)ccc4o3)cc2)n1
REMARK SMILES IDX 10 1 9 2 8 3 7 4 5 5 6 6 4 8 1 9 2 10 3 11 97 12 77 13 78 14
REMARK SMILES IDX 79 15 80 16 81 18 82 19 96 20 83 21 95 22 84 23 85 24 86 25
REMARK SMILES IDX 94 26 87 27 93 28 88 29 92 30 89 31 91 32 90 33 11 34 12 35
REMARK SMILES IDX 13 36 14 37 15 38 16 40 17 41 18 42 76 43 19 44 75 45 20 46
REMARK SMILES IDX 21 47 22 48 69 49 23 50 74 51 68 52 70 53 24 54 73 55 67 56
REMARK SMILES IDX 66 57 25 59 55 60 36 61 54 62 37 63 40 64 53 65 71 66 38 67
REMARK SMILES IDX 39 68 52 70 72 71 41 72 26 73 27 74 35 75 28 76 34 77 29 78
REMARK SMILES IDX 30 79 31 80 32 81 33 82 56 83 57 84 65 85 58 86 64 87 59 88
REMARK SMILES IDX 60 89 61 90 62 91 63 92 42 93 43 94 51 95 44 96 50 97 45 98
REMARK SMILES IDX 46 99 47 100 48 101 49 102
REMARK H PARENT 7 7 80 17 14 39 70 58 40 69
REMARK Flexibility Score: inf
ROOT
ATOM      1  C   UNL     1       1.963  -5.213  -0.261  1.00  0.00     0.002 C 
ENDROOT
BRANCH   1   2
ATOM      2  C   UNL     1       0.761  -4.261  -0.276  1.00  0.00     0.021 C 
BRANCH   2   3
ATOM      3  C   UNL     1       0.363  -3.699   1.087  1.00  0.00     0.116 C 
BRANCH   3   4
ATOM      4  N   UNL     1       1.363  -2.836   1.687  1.00  0.00    -0.352 N 
ATOM      5  C   UNL     1       1.662  -1.504   1.556  1.00  0.00     0.255 C 
ATOM      6  O   UNL     1       2.581  -1.073   2.258  1.00  0.00    -0.269 OA
ATOM      7  H   UNL     1       1.952  -3.305   2.321  1.00  0.00     0.163 HD
BRANCH   5   8
ATOM      8  C   UNL     1       0.951  -0.629   0.635  1.00  0.00     0.090 A 
ATOM      9  C   UNL     1      -1.859   0.905  -1.035  1.00  0.00     0.173 C 
ATOM     10  N   UNL     1      -0.592   0.446  -0.518  1.00  0.00    -0.274 N 
ATOM     11  C   UNL     1      -0.371  -0.672   0.228  1.00  0.00     0.123 A 
ATOM     12  N   UNL     1       0.496   1.204  -0.683  1.00  0.00    -0.167 NA
ATOM     13  C   UNL     1       1.446   0.599   0.059  1.00  0.00     0.163 A 
BRANCH  13  14
ATOM     14  C   UNL     1       2.741   1.274   0.273  1.00  0.00     0.276 C 
ATOM     15  O   UNL     1       2.801   2.462   0.605  1.00  0.00    -0.267 OA
ATOM     16  N   UNL     1       3.932   0.587   0.192  1.00  0.00    -0.321 N 
ATOM     17  H   UNL     1       4.690   1.049   0.619  1.00  0.00     0.170 HD
BRANCH  16  18
ATOM     18  C   UNL     1       4.268  -0.644  -0.381  1.00  0.00     0.041 A 
ATOM     19  C   UNL     1       5.395  -1.291   0.135  1.00  0.00     0.027 A 
ATOM     20  C   UNL     1       3.559  -1.233  -1.426  1.00  0.00     0.027 A 
ATOM     21  C   UNL     1       5.744  -2.568  -0.310  1.00  0.00     0.016 A 
ATOM     22  C   UNL     1       3.932  -2.498  -1.896  1.00  0.00     0.016 A 
ATOM     23  C   UNL     1       4.998  -3.197  -1.312  1.00  0.00     0.037 A 
BRANCH  23  24
ATOM     24  C   UNL     1       5.251  -4.583  -1.686  1.00  0.00     0.227 A 
ATOM     25  N   UNL     1       4.949  -5.221  -2.803  1.00  0.00    -0.209 NA
ATOM     26  O   UNL     1       5.724  -5.389  -0.679  1.00  0.00    -0.436 OA
ATOM     27  C   UNL     1       5.230  -6.534  -2.515  1.00  0.00     0.111 A 
ATOM     28  C   UNL     1       5.685  -6.641  -1.211  1.00  0.00     0.155 A 
ATOM     29  C   UNL     1       5.107  -7.693  -3.290  1.00  0.00     0.053 A 
ATOM     30  C   UNL     1       6.013  -7.833  -0.578  1.00  0.00     0.051 A 
ATOM     31  C   UNL     1       5.437  -8.915  -2.689  1.00  0.00     0.043 A 
ATOM     32  C   UNL     1       5.870  -8.987  -1.358  1.00  0.00     0.024 A 
ATOM     33  Cl  UNL     1       5.316 -10.362  -3.614  1.00  0.00    -0.084 Cl
ENDBRANCH  23  24
ENDBRANCH  16  18
ENDBRANCH  13  14
ENDBRANCH   5   8
ENDBRANCH   3   4
ENDBRANCH   2   3
ENDBRANCH   1   2
BRANCH   1  34
ATOM     34  C   UNL     1       1.882  -6.432   0.663  1.00  0.00     0.002 C 
BRANCH  34  35
ATOM     35  C   UNL     1       0.616  -7.286   0.558  1.00  0.00     0.021 C 
BRANCH  35  36
ATOM     36  C   UNL     1       0.331  -7.880  -0.819  1.00  0.00     0.116 C 
BRANCH  36  37
ATOM     37  N   UNL     1       1.286  -8.911  -1.193  1.00  0.00    -0.352 N 
ATOM     38  C   UNL     1       1.101 -10.257  -1.404  1.00  0.00     0.251 C 
ATOM     39  H   UNL     1       2.210  -8.595  -1.314  1.00  0.00     0.163 HD
ATOM     40  O   UNL     1       2.082 -10.985  -1.533  1.00  0.00    -0.269 OA
BRANCH  38  41
ATOM     41  C   UNL     1      -0.261 -10.846  -1.444  1.00  0.00     0.039 A 
ATOM     42  C   UNL     1      -0.495 -12.041  -0.755  1.00  0.00     0.014 A 
ATOM     43  C   UNL     1      -1.298 -10.254  -2.172  1.00  0.00     0.014 A 
ATOM     44  C   UNL     1      -1.781 -12.591  -0.721  1.00  0.00     0.010 A 
ATOM     45  C   UNL     1      -2.591 -10.778  -2.100  1.00  0.00     0.010 A 
ATOM     46  C   UNL     1      -2.849 -11.941  -1.358  1.00  0.00    -0.014 A 
BRANCH  46  47
ATOM     47  C   UNL     1      -4.244 -12.433  -1.221  1.00  0.00     0.031 A 
ATOM     48  C   UNL     1      -4.987 -12.985  -2.404  1.00  0.00     0.074 A 
ATOM     49  C   UNL     1      -4.879 -12.310  -0.039  1.00  0.00     0.049 A 
ATOM     50  N   UNL     1      -6.251 -13.312  -2.500  1.00  0.00    -0.248 NA
ATOM     51  C   UNL     1      -4.216 -13.171  -3.641  1.00  0.00     0.031 C 
ATOM     52  C   UNL     1      -4.296 -11.759   1.186  1.00  0.00     0.029 A 
ATOM     53  N   UNL     1      -6.165 -12.633   0.319  1.00  0.00    -0.354 N 
ATOM     54  C   UNL     1      -6.443 -13.690  -3.822  1.00  0.00     0.074 A 
ATOM     55  C   UNL     1      -5.159 -13.573  -4.484  1.00  0.00     0.031 C 
ATOM     56  C   UNL     1      -5.216 -11.796   2.164  1.00  0.00     0.029 A 
ATOM     57  C   UNL     1      -6.458 -12.347   1.630  1.00  0.00     0.049 A 
ATOM     58  H   UNL     1      -6.815 -13.030  -0.304  1.00  0.00     0.167 HD
ATOM     59  C   UNL     1      -7.585 -14.083  -4.437  1.00  0.00     0.031 A 
ATOM     60  C   UNL     1      -7.598 -12.501   2.329  1.00  0.00     0.031 A 
ATOM     61  C   UNL     1      -8.857 -14.244  -3.787  1.00  0.00     0.049 A 
ATOM     62  C   UNL     1      -8.819 -13.052   1.657  1.00  0.00     0.074 A 
ATOM     63  C   UNL     1     -10.066 -14.636  -4.337  1.00  0.00     0.029 A 
ATOM     64  N   UNL     1      -9.080 -14.044  -2.435  1.00  0.00    -0.354 N 
ATOM     65  N   UNL     1      -8.985 -13.378   0.399  1.00  0.00    -0.248 NA
ATOM     66  C   UNL     1     -10.005 -13.256   2.501  1.00  0.00     0.031 C 
ATOM     67  C   UNL     1     -11.020 -14.683  -3.311  1.00  0.00     0.029 A 
ATOM     68  C   UNL     1     -10.401 -14.323  -2.126  1.00  0.00     0.049 A 
ATOM     69  H   UNL     1      -8.399 -13.748  -1.788  1.00  0.00     0.167 HD
ATOM     70  C   UNL     1     -10.297 -13.820   0.297  1.00  0.00     0.074 A 
ATOM     71  C   UNL     1     -10.877 -13.735   1.622  1.00  0.00     0.031 C 
ATOM     72  C   UNL     1     -10.963 -14.248  -0.803  1.00  0.00     0.031 A 
BRANCH  59  73
ATOM     73  C   UNL     1      -7.495 -14.333  -5.914  1.00  0.00    -0.014 A 
ATOM     74  C   UNL     1      -7.061 -15.573  -6.411  1.00  0.00     0.010 A 
ATOM     75  C   UNL     1      -7.821 -13.302  -6.812  1.00  0.00     0.010 A 
ATOM     76  C   UNL     1      -6.908 -15.764  -7.787  1.00  0.00     0.020 A 
ATOM     77  C   UNL     1      -7.677 -13.492  -8.187  1.00  0.00     0.020 A 
ATOM     78  C   UNL     1      -7.199 -14.715  -8.665  1.00  0.00     0.054 A 
BRANCH  78  79
ATOM     79  S   UNL     1      -6.970 -14.942 -10.450  1.00  0.00     0.124 S 
ATOM     80  O   UNL     1      -5.624 -14.409 -10.647  1.00  0.00    -0.237 OA
ATOM     81  O   UNL     1      -7.103 -16.386 -10.628  1.00  0.00    -0.237 OA
ATOM     82  O   UNL     1      -8.050 -14.146 -11.027  1.00  0.00    -0.744 OA
ENDBRANCH  78  79
ENDBRANCH  59  73
BRANCH  60  83
ATOM     83  C   UNL     1      -7.623 -12.124   3.762  1.00  0.00    -0.014 A 
ATOM     84  C   UNL     1      -7.340 -13.086   4.746  1.00  0.00     0.010 A 
ATOM     85  C   UNL     1      -7.866 -10.793   4.141  1.00  0.00     0.010 A 
ATOM     86  C   UNL     1      -7.288 -12.720   6.093  1.00  0.00     0.020 A 
ATOM     87  C   UNL     1      -7.808 -10.424   5.486  1.00  0.00     0.020 A 
ATOM     88  C   UNL     1      -7.519 -11.390   6.455  1.00  0.00     0.054 A 
BRANCH  88  89
ATOM     89  S   UNL     1      -7.352 -10.887   8.190  1.00  0.00     0.124 S 
ATOM     90  O   UNL     1      -8.728 -10.977   8.666  1.00  0.00    -0.237 OA
ATOM     91  O   UNL     1      -6.428 -11.878   8.736  1.00  0.00    -0.237 OA
ATOM     92  O   UNL     1      -6.806  -9.535   8.085  1.00  0.00    -0.744 OA
ENDBRANCH  88  89
ENDBRANCH  60  83
BRANCH  72  93
ATOM     93  C   UNL     1     -12.391 -14.665  -0.612  1.00  0.00    -0.014 A 
ATOM     94  C   UNL     1     -13.424 -13.714  -0.678  1.00  0.00     0.010 A 
ATOM     95  C   UNL     1     -12.705 -16.015  -0.384  1.00  0.00     0.010 A 
ATOM     96  C   UNL     1     -14.754 -14.106  -0.499  1.00  0.00     0.020 A 
ATOM     97  C   UNL     1     -14.033 -16.410  -0.207  1.00  0.00     0.020 A 
ATOM     98  C   UNL     1     -15.049 -15.450  -0.254  1.00  0.00     0.054 A 
BRANCH  98  99
ATOM     99  S   UNL     1     -16.777 -15.964  -0.049  1.00  0.00     0.124 S 
ATOM    100  O   UNL     1     -16.962 -15.834   1.393  1.00  0.00    -0.237 OA
ATOM    101  O   UNL     1     -17.512 -15.001  -0.865  1.00  0.00    -0.237 OA
ATOM    102  O   UNL     1     -16.783 -17.333  -0.561  1.00  0.00    -0.744 OA
ENDBRANCH  98  99
ENDBRANCH  72  93
ENDBRANCH  46  47
ENDBRANCH  38  41
ENDBRANCH  36  37
ENDBRANCH  35  36
ENDBRANCH  34  35
ENDBRANCH   1  34
TORSDOF 19
