REMARK SMILES CN(C(=O)C[C@@H]1SC(=O)N(c2ccccc2)C1=O)c1ccccc1C(=O)NCCCCCCNC(=O)c1ccc(-c2c3nc(c(-c4ccc(S(=O)(=O)[O-])cc4)c4ccc([nH]4)c(-c4ccc(S(=O)(=O)[O-])cc4)c4nc(c(-c5ccc(S(=O)(=O)[O-])cc5)c5ccc2[nH]5)C=C4)C=C3)cc1
REMARK SMILES IDX 29 1 28 2 27 3 25 4 26 5 24 7 19 8 20 9 21 10 23 11 22 12
REMARK SMILES IDX 2 13 1 14 3 15 4 16 5 17 6 18 7 19 17 20 8 21 10 22 18 23
REMARK SMILES IDX 9 24 11 25 12 26 16 27 13 28 15 29 14 30 30 31 31 32 32 33
REMARK SMILES IDX 33 34 34 35 35 36 36 38 37 39 38 40 96 41 39 42 95 43 40 44
REMARK SMILES IDX 41 45 42 46 89 47 43 48 94 49 88 50 90 51 44 52 93 53 87 54
REMARK SMILES IDX 86 55 45 57 75 58 56 59 74 60 57 61 60 62 73 63 91 64 58 65
REMARK SMILES IDX 59 66 72 68 92 69 61 70 46 71 47 72 55 73 48 74 54 75 49 76
REMARK SMILES IDX 50 77 51 78 52 79 53 80 76 81 77 82 85 83 78 84 84 85 79 86
REMARK SMILES IDX 80 87 81 88 82 89 83 90 62 91 63 92 71 93 64 94 70 95 65 96
REMARK SMILES IDX 66 97 67 98 68 99 69 100
REMARK H PARENT 27 6 34 37 90 56 60 67
REMARK Flexibility Score: inf
ROOT
ATOM      1  C   UNL     1       2.867   1.696   0.640  1.00  0.00     0.021 C 
ENDROOT
BRANCH   1   2
ATOM      2  C   UNL     1       2.721   0.474  -0.259  1.00  0.00     0.116 C 
BRANCH   2   3
ATOM      3  N   UNL     1       3.426  -0.633   0.339  1.00  0.00    -0.352 N 
ATOM      4  C   UNL     1       3.196  -1.786   1.017  1.00  0.00     0.253 C 
ATOM      5  O   UNL     1       4.268  -2.330   1.334  1.00  0.00    -0.269 OA
ATOM      6  H   UNL     1       4.395  -0.513   0.213  1.00  0.00     0.163 HD
BRANCH   4   7
ATOM      7  C   UNL     1       1.924  -2.514   1.362  1.00  0.00     0.063 A 
ATOM      8  C   UNL     1       0.595  -2.107   1.618  1.00  0.00     0.056 A 
ATOM      9  C   UNL     1      -0.352  -3.092   2.029  1.00  0.00     0.027 A 
ATOM     10  C   UNL     1      -0.019  -4.424   2.255  1.00  0.00     0.002 A 
ATOM     11  C   UNL     1       2.209  -3.901   1.575  1.00  0.00     0.016 A 
ATOM     12  C   UNL     1       1.274  -4.833   2.028  1.00  0.00     0.001 A 
BRANCH   8  13
ATOM     13  N   UNL     1       0.059  -0.768   1.532  1.00  0.00    -0.315 N 
ATOM     14  C   UNL     1      -0.580  -0.503   0.239  1.00  0.00     0.153 C 
BRANCH  13  15
ATOM     15  C   UNL     1      -0.573  -0.254   2.696  1.00  0.00     0.228 C 
ATOM     16  O   UNL     1      -0.671  -0.893   3.749  1.00  0.00    -0.274 OA
BRANCH  15  17
ATOM     17  C   UNL     1      -1.069   1.192   2.706  1.00  0.00     0.125 C 
BRANCH  17  18
ATOM     18  C   UNL     1       0.041   2.143   3.123  1.00  0.00     0.156 C 
ATOM     19  S   UNL     1       1.190   1.589   4.405  1.00  0.00    -0.050 SA
ATOM     20  C   UNL     1      -0.296   3.562   3.551  1.00  0.00     0.248 C 
ATOM     21  C   UNL     1       1.740   3.222   4.683  1.00  0.00     0.293 C 
ATOM     22  N   UNL     1       0.845   4.124   4.139  1.00  0.00    -0.240 N 
ATOM     23  O   UNL     1      -1.333   4.120   3.213  1.00  0.00    -0.273 OA
ATOM     24  O   UNL     1       2.779   3.423   5.285  1.00  0.00    -0.261 OA
BRANCH  22  25
ATOM     25  C   UNL     1       1.133   5.524   4.119  1.00  0.00     0.053 A 
ATOM     26  C   UNL     1       0.128   6.497   4.134  1.00  0.00     0.027 A 
ATOM     27  C   UNL     1       2.466   5.964   4.002  1.00  0.00     0.027 A 
ATOM     28  C   UNL     1       0.446   7.859   4.032  1.00  0.00     0.002 A 
ATOM     29  C   UNL     1       2.784   7.319   3.890  1.00  0.00     0.002 A 
ATOM     30  C   UNL     1       1.771   8.268   3.903  1.00  0.00     0.000 A 
ENDBRANCH  22  25
ENDBRANCH  17  18
ENDBRANCH  15  17
ENDBRANCH  13  15
ENDBRANCH   8  13
ENDBRANCH   4   7
ENDBRANCH   2   3
ENDBRANCH   1   2
BRANCH   1  31
ATOM     31  C   UNL     1       3.002   3.060  -0.041  1.00  0.00     0.002 C 
BRANCH  31  32
ATOM     32  C   UNL     1       2.061   3.363  -1.205  1.00  0.00     0.002 C 
BRANCH  32  33
ATOM     33  C   UNL     1       0.584   3.547  -0.858  1.00  0.00     0.021 C 
BRANCH  33  34
ATOM     34  C   UNL     1       0.234   4.717   0.062  1.00  0.00     0.116 C 
BRANCH  34  35
ATOM     35  N   UNL     1       0.723   6.000  -0.407  1.00  0.00    -0.352 N 
ATOM     36  C   UNL     1       0.099   7.218  -0.527  1.00  0.00     0.251 C 
ATOM     37  H   UNL     1       1.666   5.997  -0.689  1.00  0.00     0.163 HD
ATOM     38  O   UNL     1       0.728   8.149  -1.029  1.00  0.00    -0.269 OA
BRANCH  36  39
ATOM     39  C   UNL     1      -1.307   7.435  -0.102  1.00  0.00     0.039 A 
ATOM     40  C   UNL     1      -2.108   8.287  -0.872  1.00  0.00     0.014 A 
ATOM     41  C   UNL     1      -1.839   6.867   1.056  1.00  0.00     0.014 A 
ATOM     42  C   UNL     1      -3.442   8.516  -0.515  1.00  0.00     0.010 A 
ATOM     43  C   UNL     1      -3.183   7.053   1.387  1.00  0.00     0.010 A 
ATOM     44  C   UNL     1      -3.999   7.878   0.603  1.00  0.00    -0.014 A 
BRANCH  44  45
ATOM     45  C   UNL     1      -5.441   8.028   0.925  1.00  0.00     0.031 A 
ATOM     46  C   UNL     1      -5.892   8.754   2.161  1.00  0.00     0.074 A 
ATOM     47  C   UNL     1      -6.355   7.449   0.122  1.00  0.00     0.049 A 
ATOM     48  N   UNL     1      -7.110   8.992   2.578  1.00  0.00    -0.248 NA
ATOM     49  C   UNL     1      -4.840   9.262   3.054  1.00  0.00     0.031 C 
ATOM     50  C   UNL     1      -6.046   6.662  -1.074  1.00  0.00     0.029 A 
ATOM     51  N   UNL     1      -7.725   7.423   0.195  1.00  0.00    -0.354 N 
ATOM     52  C   UNL     1      -6.974   9.674   3.781  1.00  0.00     0.074 A 
ATOM     53  C   UNL     1      -5.554   9.768   4.050  1.00  0.00     0.031 C 
ATOM     54  C   UNL     1      -7.194   6.242  -1.630  1.00  0.00     0.029 A 
ATOM     55  C   UNL     1      -8.316   6.708  -0.819  1.00  0.00     0.049 A 
ATOM     56  H   UNL     1      -8.236   7.873   0.906  1.00  0.00     0.167 HD
ATOM     57  C   UNL     1      -7.941  10.187   4.583  1.00  0.00     0.031 A 
ATOM     58  C   UNL     1      -9.613   6.450  -1.073  1.00  0.00     0.031 A 
ATOM     59  C   UNL     1      -9.353  10.074   4.324  1.00  0.00     0.049 A 
ATOM     60  C   UNL     1     -10.671   7.030  -0.179  1.00  0.00     0.074 A 
ATOM     61  C   UNL     1     -10.407  10.615   5.042  1.00  0.00     0.029 A 
ATOM     62  N   UNL     1      -9.913   9.357   3.276  1.00  0.00    -0.354 N 
ATOM     63  N   UNL     1     -10.523   7.759   0.901  1.00  0.00    -0.248 NA
ATOM     64  C   UNL     1     -12.068   6.769  -0.548  1.00  0.00     0.031 C 
ATOM     65  C   UNL     1     -11.603  10.181   4.459  1.00  0.00     0.029 A 
ATOM     66  C   UNL     1     -11.296   9.416   3.345  1.00  0.00     0.049 A 
ATOM     67  H   UNL     1      -9.402   8.877   2.585  1.00  0.00     0.167 HD
ATOM     68  C   UNL     1     -11.810   8.059   1.333  1.00  0.00     0.074 A 
ATOM     69  C   UNL     1     -12.722   7.444   0.389  1.00  0.00     0.031 C 
ATOM     70  C   UNL     1     -12.197   8.783   2.413  1.00  0.00     0.031 A 
BRANCH  57  71
ATOM     71  C   UNL     1      -7.490  10.901   5.831  1.00  0.00    -0.014 A 
ATOM     72  C   UNL     1      -6.819  12.137   5.759  1.00  0.00     0.010 A 
ATOM     73  C   UNL     1      -7.739  10.334   7.093  1.00  0.00     0.010 A 
ATOM     74  C   UNL     1      -6.348  12.756   6.919  1.00  0.00     0.020 A 
ATOM     75  C   UNL     1      -7.294  10.965   8.259  1.00  0.00     0.020 A 
ATOM     76  C   UNL     1      -6.576  12.159   8.162  1.00  0.00     0.054 A 
BRANCH  76  77
ATOM     77  S   UNL     1      -5.928  12.967   9.650  1.00  0.00     0.124 S 
ATOM     78  O   UNL     1      -4.504  12.652   9.565  1.00  0.00    -0.237 OA
ATOM     79  O   UNL     1      -6.274  14.370   9.433  1.00  0.00    -0.237 OA
ATOM     80  O   UNL     1      -6.647  12.313  10.741  1.00  0.00    -0.744 OA
ENDBRANCH  76  77
ENDBRANCH  57  71
BRANCH  58  81
ATOM     81  C   UNL     1      -9.965   5.619  -2.254  1.00  0.00    -0.014 A 
ATOM     82  C   UNL     1     -10.477   6.213  -3.420  1.00  0.00     0.010 A 
ATOM     83  C   UNL     1      -9.708   4.235  -2.244  1.00  0.00     0.010 A 
ATOM     84  C   UNL     1     -10.716   5.440  -4.560  1.00  0.00     0.020 A 
ATOM     85  C   UNL     1      -9.925   3.464  -3.388  1.00  0.00     0.020 A 
ATOM     86  C   UNL     1     -10.428   4.072  -4.540  1.00  0.00     0.054 A 
BRANCH  86  87
ATOM     87  S   UNL     1     -10.637   3.110  -6.065  1.00  0.00     0.124 S 
ATOM     88  O   UNL     1     -12.088   2.969  -6.138  1.00  0.00    -0.237 OA
ATOM     89  O   UNL     1     -10.032   3.979  -7.072  1.00  0.00    -0.237 OA
ATOM     90  O   UNL     1      -9.899   1.878  -5.794  1.00  0.00    -0.744 OA
ENDBRANCH  86  87
ENDBRANCH  58  81
BRANCH  70  91
ATOM     91  C   UNL     1     -13.677   8.961   2.631  1.00  0.00    -0.014 A 
ATOM     92  C   UNL     1     -14.479   7.898   3.081  1.00  0.00     0.010 A 
ATOM     93  C   UNL     1     -14.264  10.224   2.427  1.00  0.00     0.010 A 
ATOM     94  C   UNL     1     -15.848   8.087   3.297  1.00  0.00     0.020 A 
ATOM     95  C   UNL     1     -15.626  10.423   2.666  1.00  0.00     0.020 A 
ATOM     96  C   UNL     1     -16.413   9.349   3.086  1.00  0.00     0.054 A 
BRANCH  96  97
ATOM     97  S   UNL     1     -18.183   9.580   3.412  1.00  0.00     0.124 S 
ATOM     98  O   UNL     1     -18.792   8.922   2.260  1.00  0.00    -0.237 OA
ATOM     99  O   UNL     1     -18.366   8.902   4.693  1.00  0.00    -0.237 OA
ATOM    100  O   UNL     1     -18.340  11.032   3.455  1.00  0.00    -0.744 OA
ENDBRANCH  96  97
ENDBRANCH  70  91
ENDBRANCH  44  45
ENDBRANCH  36  39
ENDBRANCH  34  35
ENDBRANCH  33  34
ENDBRANCH  32  33
ENDBRANCH  31  32
ENDBRANCH   1  31
TORSDOF 21
