REMARK SMILES [NH3+][C@H]1C=C[C@@H](C(=O)N2CCC(CC(=O)NCCCCCCNC(=O)c3ccc(-c4c5nc(c(-c6ccc(S(=O)(=O)[O-])cc6)c6ccc([nH]6)c(-c6ccc(S(=O)(=O)[O-])cc6)c6nc(c(-c7ccc(S(=O)(=O)[O-])cc7)c7ccc4[nH]7)C=C6)C=C5)cc3)CC2)C1
REMARK SMILES IDX 18 1 17 2 16 3 15 4 13 5 14 6 12 8 11 9 6 10 7 11 8 12 9 13
REMARK SMILES IDX 86 14 10 15 85 16 5 17 2 18 3 19 87 20 4 21 1 22 19 26 20 27
REMARK SMILES IDX 21 28 22 29 23 30 24 32 25 33 26 34 84 35 27 36 83 37 28 38
REMARK SMILES IDX 29 39 30 40 77 41 31 42 82 43 76 44 78 45 32 46 81 47 75 48
REMARK SMILES IDX 74 49 33 51 63 52 44 53 62 54 45 55 48 56 61 57 79 58 46 59
REMARK SMILES IDX 47 60 60 62 80 63 49 64 34 65 35 66 43 67 36 68 42 69 37 70
REMARK SMILES IDX 38 71 39 72 40 73 41 74 64 75 65 76 73 77 66 78 72 79 67 80
REMARK SMILES IDX 68 81 69 82 70 83 71 84 50 85 51 86 59 87 52 88 58 89 53 90
REMARK SMILES IDX 54 91 55 92 56 93 57 94
REMARK H PARENT 15 7 1 23 1 24 1 25 22 31 78 50 48 61
REMARK Flexibility Score: inf
ROOT
ATOM      1  C   UNL     1      -8.995   4.028   1.024  1.00  0.00     0.002 C 
ENDROOT
BRANCH   1   2
ATOM      2  C   UNL     1      -7.928   2.952   0.820  1.00  0.00     0.021 C 
BRANCH   2   3
ATOM      3  C   UNL     1      -8.478   1.582   0.411  1.00  0.00     0.116 C 
BRANCH   3   4
ATOM      4  N   UNL     1      -8.485   1.446  -1.037  1.00  0.00    -0.356 N 
ATOM      5  C   UNL     1      -7.707   0.679  -1.851  1.00  0.00     0.220 C 
ATOM      6  O   UNL     1      -7.808   0.827  -3.071  1.00  0.00    -0.275 OA
ATOM      7  H   UNL     1      -9.158   1.995  -1.502  1.00  0.00     0.163 HD
BRANCH   5   8
ATOM      8  C   UNL     1      -6.748  -0.344  -1.269  1.00  0.00     0.103 C 
BRANCH   8   9
ATOM      9  C   UNL     1      -5.291   0.144  -1.167  1.00  0.00     0.002 C 
ATOM     10  C   UNL     1      -2.764   0.119   1.810  1.00  0.00     0.229 C 
ATOM     11  O   UNL     1      -3.759  -0.058   2.515  1.00  0.00    -0.274 OA
ATOM     12  N   UNL     1      -2.878   0.447   0.463  1.00  0.00    -0.342 N 
ATOM     13  C   UNL     1      -3.670   1.618   0.141  1.00  0.00     0.120 C 
ATOM     14  C   UNL     1      -2.935  -0.613  -0.531  1.00  0.00     0.120 C 
ATOM     15  C   UNL     1      -5.127   1.256  -0.124  1.00  0.00     0.026 C 
ATOM     16  C   UNL     1      -4.373  -1.043  -0.823  1.00  0.00     0.026 C 
BRANCH  10  17
ATOM     17  C   UNL     1      -1.355   0.199   2.416  1.00  0.00     0.107 C 
ATOM     18  C   UNL     1       0.914   0.244   1.443  1.00  0.00     0.205 C 
ATOM     19  C   UNL     1       0.413   1.612   1.752  1.00  0.00     0.033 C 
ATOM     20  C   UNL     1      -0.281  -0.671   1.754  1.00  0.00     0.087 C 
ATOM     21  C   UNL     1      -0.806   1.592   2.298  1.00  0.00    -0.012 C 
BRANCH  18  22
ATOM     22  N   UNL     1       1.329   0.129   0.054  1.00  0.00    -0.352 N 
ATOM     23  H   UNL     1       2.121   0.748  -0.116  1.00  0.00     0.345 HD
ATOM     24  H   UNL     1       0.554   0.393  -0.555  1.00  0.00     0.345 HD
ATOM     25  H   UNL     1       1.602  -0.834  -0.141  1.00  0.00     0.345 HD
ENDBRANCH  18  22
ENDBRANCH  10  17
ENDBRANCH   8   9
ENDBRANCH   5   8
ENDBRANCH   3   4
ENDBRANCH   2   3
ENDBRANCH   1   2
BRANCH   1  26
ATOM     26  C   UNL     1      -9.877   3.840   2.260  1.00  0.00     0.002 C 
BRANCH  26  27
ATOM     27  C   UNL     1      -9.133   3.686   3.591  1.00  0.00     0.021 C 
BRANCH  27  28
ATOM     28  C   UNL     1      -8.113   4.779   3.905  1.00  0.00     0.116 C 
BRANCH  28  29
ATOM     29  N   UNL     1      -8.720   6.099   3.955  1.00  0.00    -0.352 N 
ATOM     30  C   UNL     1      -8.806   6.987   4.997  1.00  0.00     0.251 C 
ATOM     31  H   UNL     1      -9.132   6.402   3.113  1.00  0.00     0.163 HD
ATOM     32  O   UNL     1      -9.538   7.967   4.902  1.00  0.00    -0.269 OA
BRANCH  30  33
ATOM     33  C   UNL     1      -8.028   6.763   6.236  1.00  0.00     0.039 A 
ATOM     34  C   UNL     1      -8.661   6.941   7.469  1.00  0.00     0.014 A 
ATOM     35  C   UNL     1      -6.675   6.416   6.185  1.00  0.00     0.014 A 
ATOM     36  C   UNL     1      -7.950   6.721   8.652  1.00  0.00     0.010 A 
ATOM     37  C   UNL     1      -5.984   6.138   7.364  1.00  0.00     0.010 A 
ATOM     38  C   UNL     1      -6.612   6.294   8.609  1.00  0.00    -0.014 A 
BRANCH  38  39
ATOM     39  C   UNL     1      -5.859   6.010   9.857  1.00  0.00     0.031 A 
ATOM     40  C   UNL     1      -4.681   6.863  10.244  1.00  0.00     0.074 A 
ATOM     41  C   UNL     1      -6.201   4.948  10.614  1.00  0.00     0.049 A 
ATOM     42  N   UNL     1      -3.878   6.742  11.271  1.00  0.00    -0.248 NA
ATOM     43  C   UNL     1      -4.347   7.983   9.350  1.00  0.00     0.031 C 
ATOM     44  C   UNL     1      -7.294   4.017  10.323  1.00  0.00     0.029 A 
ATOM     45  N   UNL     1      -5.658   4.467  11.779  1.00  0.00    -0.354 N 
ATOM     46  C   UNL     1      -2.936   7.755  11.136  1.00  0.00     0.074 A 
ATOM     47  C   UNL     1      -3.242   8.455   9.908  1.00  0.00     0.031 C 
ATOM     48  C   UNL     1      -7.353   3.091  11.293  1.00  0.00     0.029 A 
ATOM     49  C   UNL     1      -6.285   3.341  12.256  1.00  0.00     0.049 A 
ATOM     50  H   UNL     1      -4.891   4.889  12.230  1.00  0.00     0.167 HD
ATOM     51  C   UNL     1      -1.918   8.084  11.968  1.00  0.00     0.031 A 
ATOM     52  C   UNL     1      -6.028   2.589  13.345  1.00  0.00     0.031 A 
ATOM     53  C   UNL     1      -1.625   7.396  13.197  1.00  0.00     0.049 A 
ATOM     54  C   UNL     1      -4.902   2.982  14.260  1.00  0.00     0.074 A 
ATOM     55  C   UNL     1      -0.653   7.692  14.138  1.00  0.00     0.029 A 
ATOM     56  N   UNL     1      -2.299   6.276  13.658  1.00  0.00    -0.354 N 
ATOM     57  N   UNL     1      -4.064   3.986  14.150  1.00  0.00    -0.248 NA
ATOM     58  C   UNL     1      -4.695   2.149  15.453  1.00  0.00     0.031 C 
ATOM     59  C   UNL     1      -0.713   6.724  15.147  1.00  0.00     0.029 A 
ATOM     60  C   UNL     1      -1.753   5.855  14.859  1.00  0.00     0.049 A 
ATOM     61  H   UNL     1      -3.054   5.842  13.198  1.00  0.00     0.167 HD
ATOM     62  C   UNL     1      -3.246   3.919  15.272  1.00  0.00     0.074 A 
ATOM     63  C   UNL     1      -3.699   2.786  16.054  1.00  0.00     0.031 C 
ATOM     64  C   UNL     1      -2.213   4.724  15.624  1.00  0.00     0.031 A 
BRANCH  51  65
ATOM     65  C   UNL     1      -1.039   9.240  11.568  1.00  0.00    -0.014 A 
ATOM     66  C   UNL     1      -1.516  10.563  11.611  1.00  0.00     0.010 A 
ATOM     67  C   UNL     1       0.292   9.005  11.179  1.00  0.00     0.010 A 
ATOM     68  C   UNL     1      -0.692  11.625  11.230  1.00  0.00     0.020 A 
ATOM     69  C   UNL     1       1.128  10.068  10.823  1.00  0.00     0.020 A 
ATOM     70  C   UNL     1       0.624  11.370  10.833  1.00  0.00     0.054 A 
BRANCH  70  71
ATOM     71  S   UNL     1       1.678  12.769  10.359  1.00  0.00     0.124 S 
ATOM     72  O   UNL     1       1.152  13.107   9.039  1.00  0.00    -0.237 OA
ATOM     73  O   UNL     1       1.409  13.745  11.411  1.00  0.00    -0.237 OA
ATOM     74  O   UNL     1       3.026  12.205  10.367  1.00  0.00    -0.744 OA
ENDBRANCH  70  71
ENDBRANCH  51  65
BRANCH  52  75
ATOM     75  C   UNL     1      -6.870   1.398  13.638  1.00  0.00    -0.014 A 
ATOM     76  C   UNL     1      -7.791   1.420  14.700  1.00  0.00     0.010 A 
ATOM     77  C   UNL     1      -6.768   0.242  12.843  1.00  0.00     0.010 A 
ATOM     78  C   UNL     1      -8.582   0.301  14.974  1.00  0.00     0.020 A 
ATOM     79  C   UNL     1      -7.576  -0.870  13.098  1.00  0.00     0.020 A 
ATOM     80  C   UNL     1      -8.471  -0.837  14.170  1.00  0.00     0.054 A 
BRANCH  80  81
ATOM     81  S   UNL     1      -9.548  -2.258  14.507  1.00  0.00     0.124 S 
ATOM     82  O   UNL     1      -8.916  -2.845  15.685  1.00  0.00    -0.237 OA
ATOM     83  O   UNL     1     -10.846  -1.626  14.733  1.00  0.00    -0.237 OA
ATOM     84  O   UNL     1      -9.456  -3.053  13.284  1.00  0.00    -0.744 OA
ENDBRANCH  80  81
ENDBRANCH  52  75
BRANCH  64  85
ATOM     85  C   UNL     1      -1.520   4.428  16.926  1.00  0.00    -0.014 A 
ATOM     86  C   UNL     1      -0.660   3.323  17.057  1.00  0.00     0.010 A 
ATOM     87  C   UNL     1      -1.695   5.296  18.019  1.00  0.00     0.010 A 
ATOM     88  C   UNL     1      -0.013   3.074  18.270  1.00  0.00     0.020 A 
ATOM     89  C   UNL     1      -1.030   5.064  19.225  1.00  0.00     0.020 A 
ATOM     90  C   UNL     1      -0.204   3.945  19.348  1.00  0.00     0.054 A 
BRANCH  90  91
ATOM     91  S   UNL     1       0.677   3.623  20.900  1.00  0.00     0.124 S 
ATOM     92  O   UNL     1      -0.093   2.518  21.463  1.00  0.00    -0.237 OA
ATOM     93  O   UNL     1       2.022   3.283  20.444  1.00  0.00    -0.237 OA
ATOM     94  O   UNL     1       0.574   4.888  21.625  1.00  0.00    -0.744 OA
ENDBRANCH  90  91
ENDBRANCH  64  85
ENDBRANCH  38  39
ENDBRANCH  30  33
ENDBRANCH  28  29
ENDBRANCH  27  28
ENDBRANCH  26  27
ENDBRANCH   1  26
TORSDOF 19
