REMARK SMILES COc1ccc([C@H]2CC(c3ccc(S(C)(=O)=O)cc3)=NN2c2ccc(C(=O)NCCCCCCNC(=O)c3ccc(-c4c5nc(c(-c6ccc(S(=O)(=O)[O-])cc6)c6ccc([nH]6)c(-c6ccc(S(=O)(=O)[O-])cc6)c6nc(c(-c7ccc(S(=O)(=O)[O-])cc7)c7ccc4[nH]7)C=C6)C=C5)cc3)cc2)cc1
REMARK SMILES IDX 31 1 30 2 29 3 28 4 26 5 27 6 25 8 22 9 23 10 99 11 24 12
REMARK SMILES IDX 98 13 21 14 7 15 8 16 9 17 20 18 6 19 3 20 4 21 101 22 5 23
REMARK SMILES IDX 100 24 2 25 1 26 10 27 11 28 19 29 12 30 18 31 13 32 14 33
REMARK SMILES IDX 15 34 16 35 17 36 32 37 33 38 34 39 35 40 36 41 37 43 38 44
REMARK SMILES IDX 39 45 97 46 40 47 96 48 41 49 42 50 43 51 90 52 44 53 95 54
REMARK SMILES IDX 89 55 91 56 45 57 94 58 88 59 87 60 46 62 76 63 57 64 75 65
REMARK SMILES IDX 58 66 61 67 74 68 92 69 59 70 60 71 73 73 93 74 62 75 47 76
REMARK SMILES IDX 48 77 56 78 49 79 55 80 50 81 51 82 52 83 53 84 54 85 77 86
REMARK SMILES IDX 78 87 86 88 79 89 85 90 80 91 81 92 82 93 83 94 84 95 63 96
REMARK SMILES IDX 64 97 72 98 65 99 71 100 66 101 67 102 68 103 69 104 70 105
REMARK H PARENT 28 7 35 42 91 61 61 72
REMARK Flexibility Score: inf
ROOT
ATOM      1  C   UNL     1       0.897  -0.523  12.164  1.00  0.00     0.002 C 
ENDROOT
BRANCH   1   2
ATOM      2  C   UNL     1       1.007  -1.475  10.964  1.00  0.00     0.021 C 
BRANCH   2   3
ATOM      3  C   UNL     1       1.095  -0.741   9.624  1.00  0.00     0.116 C 
BRANCH   3   4
ATOM      4  N   UNL     1       2.432  -0.211   9.446  1.00  0.00    -0.352 N 
ATOM      5  C   UNL     1       3.510  -0.638   8.718  1.00  0.00     0.251 C 
ATOM      6  O   UNL     1       4.548   0.021   8.806  1.00  0.00    -0.269 OA
ATOM      7  H   UNL     1       2.598   0.621   9.947  1.00  0.00     0.163 HD
BRANCH   5   8
ATOM      8  C   UNL     1       3.466  -1.798   7.785  1.00  0.00     0.039 A 
ATOM      9  C   UNL     1       3.437  -3.827   5.814  1.00  0.00     0.060 A 
ATOM     10  C   UNL     1       4.344  -2.767   5.737  1.00  0.00     0.029 A 
ATOM     11  C   UNL     1       2.596  -3.899   6.927  1.00  0.00     0.029 A 
ATOM     12  C   UNL     1       4.345  -1.753   6.696  1.00  0.00     0.016 A 
ATOM     13  C   UNL     1       2.641  -2.917   7.926  1.00  0.00     0.016 A 
BRANCH   9  14
ATOM     14  N   UNL     1       3.405  -4.769   4.801  1.00  0.00    -0.257 N 
ATOM     15  C   UNL     1       2.211  -5.112   4.028  1.00  0.00     0.144 C 
ATOM     16  C   UNL     1       2.705  -6.283   3.165  1.00  0.00     0.091 C 
ATOM     17  C   UNL     1       4.029  -6.542   3.827  1.00  0.00     0.071 C 
ATOM     18  N   UNL     1       4.403  -5.683   4.721  1.00  0.00    -0.176 NA
BRANCH  15  19
ATOM     19  C   UNL     1       1.718  -3.931   3.210  1.00  0.00    -0.023 A 
ATOM     20  C   UNL     1       0.807  -1.683   1.762  1.00  0.00     0.118 A 
ATOM     21  C   UNL     1      -0.046  -2.359   2.636  1.00  0.00     0.047 A 
ATOM     22  C   UNL     1       2.121  -2.122   1.618  1.00  0.00     0.047 A 
ATOM     23  C   UNL     1       0.399  -3.477   3.349  1.00  0.00     0.010 A 
ATOM     24  C   UNL     1       2.571  -3.235   2.337  1.00  0.00     0.010 A 
BRANCH  20  25
ATOM     25  O   UNL     1       0.256  -0.596   1.141  1.00  0.00    -0.497 OA
ATOM     26  C   UNL     1       0.922  -0.129  -0.025  1.00  0.00     0.278 C 
ENDBRANCH  20  25
ENDBRANCH  15  19
BRANCH  17  27
ATOM     27  C   UNL     1       4.842  -7.712   3.485  1.00  0.00    -0.002 A 
ATOM     28  C   UNL     1       5.197  -8.596   4.509  1.00  0.00     0.011 A 
ATOM     29  C   UNL     1       5.299  -7.897   2.180  1.00  0.00     0.011 A 
ATOM     30  C   UNL     1       6.014  -9.689   4.224  1.00  0.00     0.021 A 
ATOM     31  C   UNL     1       6.140  -8.976   1.898  1.00  0.00     0.021 A 
ATOM     32  C   UNL     1       6.497  -9.861   2.922  1.00  0.00     0.067 A 
BRANCH  32  33
ATOM     33  S   UNL     1       7.581 -11.227   2.577  1.00  0.00     0.175 S 
ATOM     34  C   UNL     1       8.980 -10.951   3.634  1.00  0.00     0.163 C 
ATOM     35  O   UNL     1       6.900 -12.427   3.019  1.00  0.00    -0.224 OA
ATOM     36  O   UNL     1       8.040 -11.088   1.207  1.00  0.00    -0.224 OA
ENDBRANCH  32  33
ENDBRANCH  17  27
ENDBRANCH   9  14
ENDBRANCH   5   8
ENDBRANCH   3   4
ENDBRANCH   2   3
ENDBRANCH   1   2
BRANCH   1  37
ATOM     37  C   UNL     1      -0.381   0.324  12.195  1.00  0.00     0.002 C 
BRANCH  37  38
ATOM     38  C   UNL     1      -1.685  -0.476  12.141  1.00  0.00     0.021 C 
BRANCH  38  39
ATOM     39  C   UNL     1      -1.875  -1.443  13.305  1.00  0.00     0.116 C 
BRANCH  39  40
ATOM     40  N   UNL     1      -2.017  -0.738  14.569  1.00  0.00    -0.352 N 
ATOM     41  C   UNL     1      -3.029  -0.815  15.493  1.00  0.00     0.251 C 
ATOM     42  H   UNL     1      -1.284  -0.119  14.793  1.00  0.00     0.163 HD
ATOM     43  O   UNL     1      -3.109   0.019  16.389  1.00  0.00    -0.269 OA
BRANCH  41  44
ATOM     44  C   UNL     1      -4.026  -1.901  15.395  1.00  0.00     0.039 A 
ATOM     45  C   UNL     1      -5.380  -1.598  15.557  1.00  0.00     0.014 A 
ATOM     46  C   UNL     1      -3.622  -3.219  15.158  1.00  0.00     0.014 A 
ATOM     47  C   UNL     1      -6.334  -2.610  15.433  1.00  0.00     0.010 A 
ATOM     48  C   UNL     1      -4.577  -4.212  14.968  1.00  0.00     0.010 A 
ATOM     49  C   UNL     1      -5.941  -3.921  15.114  1.00  0.00    -0.014 A 
BRANCH  49  50
ATOM     50  C   UNL     1      -6.940  -5.003  14.938  1.00  0.00     0.031 A 
ATOM     51  C   UNL     1      -6.968  -6.167  15.891  1.00  0.00     0.074 A 
ATOM     52  C   UNL     1      -7.780  -4.972  13.886  1.00  0.00     0.049 A 
ATOM     53  N   UNL     1      -7.731  -7.229  15.874  1.00  0.00    -0.248 NA
ATOM     54  C   UNL     1      -5.992  -6.143  16.992  1.00  0.00     0.031 C 
ATOM     55  C   UNL     1      -7.831  -3.914  12.874  1.00  0.00     0.029 A 
ATOM     56  N   UNL     1      -8.753  -5.856  13.492  1.00  0.00    -0.354 N 
ATOM     57  C   UNL     1      -7.317  -8.008  16.949  1.00  0.00     0.074 A 
ATOM     58  C   UNL     1      -6.202  -7.320  17.563  1.00  0.00     0.031 C 
ATOM     59  C   UNL     1      -8.808  -4.194  11.996  1.00  0.00     0.029 A 
ATOM     60  C   UNL     1      -9.425  -5.467  12.358  1.00  0.00     0.049 A 
ATOM     61  H   UNL     1      -8.951  -6.690  13.977  1.00  0.00     0.167 HD
ATOM     62  C   UNL     1      -7.828  -9.181  17.396  1.00  0.00     0.031 A 
ATOM     63  C   UNL     1     -10.426  -6.066  11.685  1.00  0.00     0.031 A 
ATOM     64  C   UNL     1      -8.938  -9.861  16.784  1.00  0.00     0.049 A 
ATOM     65  C   UNL     1     -10.968  -7.374  12.187  1.00  0.00     0.074 A 
ATOM     66  C   UNL     1      -9.564 -11.027  17.188  1.00  0.00     0.029 A 
ATOM     67  N   UNL     1      -9.585  -9.438  15.632  1.00  0.00    -0.354 N 
ATOM     68  N   UNL     1     -10.600  -8.069  13.237  1.00  0.00    -0.248 NA
ATOM     69  C   UNL     1     -12.065  -7.975  11.417  1.00  0.00     0.031 C 
ATOM     70  C   UNL     1     -10.559 -11.334  16.252  1.00  0.00     0.029 A 
ATOM     71  C   UNL     1     -10.588 -10.332  15.295  1.00  0.00     0.049 A 
ATOM     72  H   UNL     1      -9.364  -8.622  15.127  1.00  0.00     0.167 HD
ATOM     73  C   UNL     1     -11.439  -9.178  13.269  1.00  0.00     0.074 A 
ATOM     74  C   UNL     1     -12.337  -9.055  12.138  1.00  0.00     0.031 C 
ATOM     75  C   UNL     1     -11.466 -10.201  14.159  1.00  0.00     0.031 A 
BRANCH  62  76
ATOM     76  C   UNL     1      -7.165  -9.803  18.598  1.00  0.00    -0.014 A 
ATOM     77  C   UNL     1      -7.257  -9.207  19.870  1.00  0.00     0.010 A 
ATOM     78  C   UNL     1      -6.425 -10.990  18.452  1.00  0.00     0.010 A 
ATOM     79  C   UNL     1      -6.565  -9.747  20.957  1.00  0.00     0.020 A 
ATOM     80  C   UNL     1      -5.756 -11.551  19.544  1.00  0.00     0.020 A 
ATOM     81  C   UNL     1      -5.807 -10.909  20.784  1.00  0.00     0.054 A 
BRANCH  81  82
ATOM     82  S   UNL     1      -4.893 -11.573  22.202  1.00  0.00     0.124 S 
ATOM     83  O   UNL     1      -3.764 -10.650  22.289  1.00  0.00    -0.237 OA
ATOM     84  O   UNL     1      -5.865 -11.478  23.287  1.00  0.00    -0.237 OA
ATOM     85  O   UNL     1      -4.555 -12.934  21.789  1.00  0.00    -0.744 OA
ENDBRANCH  81  82
ENDBRANCH  62  76
BRANCH  63  86
ATOM     86  C   UNL     1     -11.004  -5.401  10.487  1.00  0.00    -0.014 A 
ATOM     87  C   UNL     1     -12.267  -4.790  10.560  1.00  0.00     0.010 A 
ATOM     88  C   UNL     1     -10.275  -5.328   9.286  1.00  0.00     0.010 A 
ATOM     89  C   UNL     1     -12.793  -4.115   9.455  1.00  0.00     0.020 A 
ATOM     90  C   UNL     1     -10.787  -4.634   8.186  1.00  0.00     0.020 A 
ATOM     91  C   UNL     1     -12.045  -4.035   8.277  1.00  0.00     0.054 A 
BRANCH  91  92
ATOM     92  S   UNL     1     -12.710  -3.079   6.884  1.00  0.00     0.124 S 
ATOM     93  O   UNL     1     -13.765  -3.958   6.389  1.00  0.00    -0.237 OA
ATOM     94  O   UNL     1     -13.160  -1.850   7.532  1.00  0.00    -0.237 OA
ATOM     95  O   UNL     1     -11.558  -2.921   5.999  1.00  0.00    -0.744 OA
ENDBRANCH  91  92
ENDBRANCH  63  86
BRANCH  75  96
ATOM     96  C   UNL     1     -12.516 -11.261  13.960  1.00  0.00    -0.014 A 
ATOM     97  C   UNL     1     -12.411 -12.205  12.924  1.00  0.00     0.010 A 
ATOM     98  C   UNL     1     -13.598 -11.342  14.856  1.00  0.00     0.010 A 
ATOM     99  C   UNL     1     -13.384 -13.196  12.771  1.00  0.00     0.020 A 
ATOM    100  C   UNL     1     -14.559 -12.347  14.722  1.00  0.00     0.020 A 
ATOM    101  C   UNL     1     -14.453 -13.260  13.671  1.00  0.00     0.054 A 
BRANCH 101 102
ATOM    102  S   UNL     1     -15.679 -14.583  13.479  1.00  0.00     0.124 S 
ATOM    103  O   UNL     1     -16.450 -14.118  12.329  1.00  0.00    -0.237 OA
ATOM    104  O   UNL     1     -14.847 -15.761  13.245  1.00  0.00    -0.237 OA
ATOM    105  O   UNL     1     -16.395 -14.578  14.753  1.00  0.00    -0.744 OA
ENDBRANCH 101 102
ENDBRANCH  75  96
ENDBRANCH  49  50
ENDBRANCH  41  44
ENDBRANCH  39  40
ENDBRANCH  38  39
ENDBRANCH  37  38
ENDBRANCH   1  37
TORSDOF 21
