REMARK SMILES O=C(COc1ccccc1[C@@H]1[NH2+]CCc2cc(O)c(O)cc21)NCCCCCCNC(=O)c1ccc(-c2c3nc(c(-c4ccc(S(=O)(=O)[O-])cc4)c4ccc([nH]4)c(-c4ccc(S(=O)(=O)[O-])cc4)c4nc(c(-c5ccc(S(=O)(=O)[O-])cc5)c5ccc2[nH]5)C=C4)C=C3)cc1
REMARK SMILES IDX 26 1 25 2 24 3 23 4 1 5 2 6 3 8 4 9 5 10 6 11 10 12 7 13
REMARK SMILES IDX 9 14 8 15 11 16 12 17 22 18 13 19 15 22 21 23 14 24 16 25
REMARK SMILES IDX 19 26 17 27 20 28 18 30 27 32 28 33 29 34 30 35 31 36 32 38
REMARK SMILES IDX 33 39 34 40 92 41 35 42 91 43 36 44 37 45 38 46 85 47 39 48
REMARK SMILES IDX 90 49 84 50 86 51 40 52 89 53 83 54 82 55 41 57 71 58 52 59
REMARK SMILES IDX 70 60 53 61 56 62 69 63 87 64 54 65 55 66 68 68 88 69 57 70
REMARK SMILES IDX 42 71 43 72 51 73 44 74 50 75 45 76 46 77 47 78 48 79 49 80
REMARK SMILES IDX 72 81 73 82 81 83 74 84 80 85 75 86 76 87 77 88 78 89 79 90
REMARK SMILES IDX 58 91 59 92 67 93 60 94 66 95 61 96 62 97 63 98 64 99 65 100
REMARK H PARENT 23 7 12 20 12 21 20 29 18 31 30 37 86 56 56 67
REMARK Flexibility Score: inf
ROOT
ATOM      1  C   UNL     1       4.424  -2.120  -3.212  1.00  0.00     0.002 C 
ENDROOT
BRANCH   1   2
ATOM      2  C   UNL     1       2.947  -1.738  -3.103  1.00  0.00     0.021 C 
BRANCH   2   3
ATOM      3  C   UNL     1       2.430  -1.724  -1.671  1.00  0.00     0.116 C 
BRANCH   3   4
ATOM      4  N   UNL     1       3.208  -0.880  -0.790  1.00  0.00    -0.353 N 
ATOM      5  O   UNL     1       2.451   1.093  -1.675  1.00  0.00    -0.271 OA
ATOM      6  C   UNL     1       3.067   0.491  -0.797  1.00  0.00     0.257 C 
ATOM      7  H   UNL     1       3.853  -1.294  -0.172  1.00  0.00     0.163 HD
BRANCH   6   8
ATOM      8  C   UNL     1       3.738   1.215   0.376  1.00  0.00     0.329 C 
BRANCH   8   9
ATOM      9  O   UNL     1       4.114   0.554   1.562  1.00  0.00    -0.483 OA
BRANCH   9  10
ATOM     10  C   UNL     1       3.335  -0.144   2.436  1.00  0.00     0.129 A 
ATOM     11  C   UNL     1       4.135  -0.512   3.541  1.00  0.00     0.047 A 
ATOM     12  C   UNL     1       1.993  -0.585   2.389  1.00  0.00     0.056 A 
ATOM     13  C   UNL     1       3.693  -1.391   4.523  1.00  0.00     0.004 A 
ATOM     14  C   UNL     1       1.608  -1.562   3.346  1.00  0.00     0.014 A 
ATOM     15  C   UNL     1       2.441  -1.961   4.394  1.00  0.00     0.001 A 
BRANCH  12  16
ATOM     16  C   UNL     1       0.932  -0.117   1.393  1.00  0.00     0.249 C 
ATOM     17  N   UNL     1       0.980   1.335   1.155  1.00  0.00    -0.336 N 
ATOM     18  C   UNL     1      -0.543  -0.457   1.642  1.00  0.00     0.021 A 
ATOM     19  C   UNL     1       0.508   2.131   2.297  1.00  0.00     0.266 C 
ATOM     20  H   UNL     1       0.396   1.550   0.347  1.00  0.00     0.347 HD
ATOM     21  H   UNL     1       1.958   1.582   1.000  1.00  0.00     0.347 HD
ATOM     22  C   UNL     1      -1.266   0.389   2.514  1.00  0.00    -0.029 A 
ATOM     23  C   UNL     1      -1.217  -1.437   0.894  1.00  0.00     0.060 A 
ATOM     24  C   UNL     1      -0.480   1.439   3.251  1.00  0.00     0.097 C 
ATOM     25  C   UNL     1      -2.653   0.285   2.611  1.00  0.00     0.054 A 
ATOM     26  C   UNL     1      -2.602  -1.509   0.981  1.00  0.00     0.157 A 
ATOM     27  C   UNL     1      -3.309  -0.644   1.817  1.00  0.00     0.157 A 
BRANCH  26  28
ATOM     28  O   UNL     1      -3.332  -2.383   0.223  1.00  0.00    -0.504 OA
ATOM     29  H   UNL     1      -4.265  -2.408   0.303  1.00  0.00     0.293 HD
ENDBRANCH  26  28
BRANCH  27  30
ATOM     30  O   UNL     1      -4.675  -0.675   1.826  1.00  0.00    -0.504 OA
ATOM     31  H   UNL     1      -5.153  -0.096   2.386  1.00  0.00     0.293 HD
ENDBRANCH  27  30
ENDBRANCH  12  16
ENDBRANCH   9  10
ENDBRANCH   8   9
ENDBRANCH   6   8
ENDBRANCH   3   4
ENDBRANCH   2   3
ENDBRANCH   1   2
BRANCH   1  32
ATOM     32  C   UNL     1       4.779  -3.471  -2.586  1.00  0.00     0.002 C 
BRANCH  32  33
ATOM     33  C   UNL     1       4.010  -4.663  -3.156  1.00  0.00     0.021 C 
BRANCH  33  34
ATOM     34  C   UNL     1       4.115  -4.817  -4.668  1.00  0.00     0.116 C 
BRANCH  34  35
ATOM     35  N   UNL     1       5.490  -4.996  -5.107  1.00  0.00    -0.352 N 
ATOM     36  C   UNL     1       6.006  -5.948  -5.953  1.00  0.00     0.251 C 
ATOM     37  H   UNL     1       6.138  -4.347  -4.750  1.00  0.00     0.163 HD
ATOM     38  O   UNL     1       7.215  -6.077  -6.080  1.00  0.00    -0.269 OA
BRANCH  36  39
ATOM     39  C   UNL     1       5.074  -6.830  -6.688  1.00  0.00     0.039 A 
ATOM     40  C   UNL     1       5.297  -8.208  -6.685  1.00  0.00     0.014 A 
ATOM     41  C   UNL     1       3.969  -6.291  -7.351  1.00  0.00     0.014 A 
ATOM     42  C   UNL     1       4.373  -9.054  -7.301  1.00  0.00     0.010 A 
ATOM     43  C   UNL     1       3.013  -7.140  -7.897  1.00  0.00     0.010 A 
ATOM     44  C   UNL     1       3.207  -8.530  -7.883  1.00  0.00    -0.014 A 
BRANCH  44  45
ATOM     45  C   UNL     1       2.181  -9.408  -8.500  1.00  0.00     0.031 A 
ATOM     46  C   UNL     1       1.881  -9.283  -9.971  1.00  0.00     0.074 A 
ATOM     47  C   UNL     1       1.469 -10.256  -7.731  1.00  0.00     0.049 A 
ATOM     48  N   UNL     1       0.951  -9.875 -10.674  1.00  0.00    -0.248 NA
ATOM     49  C   UNL     1       2.717  -8.351 -10.747  1.00  0.00     0.031 C 
ATOM     50  C   UNL     1       1.644 -10.447  -6.288  1.00  0.00     0.029 A 
ATOM     51  N   UNL     1       0.441 -11.109  -8.052  1.00  0.00    -0.354 N 
ATOM     52  C   UNL     1       1.072  -9.367 -11.963  1.00  0.00     0.074 A 
ATOM     53  C   UNL     1       2.137  -8.391 -11.938  1.00  0.00     0.031 C 
ATOM     54  C   UNL     1       0.769 -11.370  -5.856  1.00  0.00     0.029 A 
ATOM     55  C   UNL     1      -0.062 -11.801  -6.975  1.00  0.00     0.049 A 
ATOM     56  H   UNL     1       0.097 -11.214  -8.968  1.00  0.00     0.167 HD
ATOM     57  C   UNL     1       0.368  -9.697 -13.071  1.00  0.00     0.031 A 
ATOM     58  C   UNL     1      -1.089 -12.671  -6.894  1.00  0.00     0.031 A 
ATOM     59  C   UNL     1      -0.670 -10.692 -13.097  1.00  0.00     0.049 A 
ATOM     60  C   UNL     1      -1.862 -13.009  -8.143  1.00  0.00     0.074 A 
ATOM     61  C   UNL     1      -1.393 -11.146 -14.187  1.00  0.00     0.029 A 
ATOM     62  N   UNL     1      -1.132 -11.386 -11.991  1.00  0.00    -0.354 N 
ATOM     63  N   UNL     1      -1.684 -12.570  -9.366  1.00  0.00    -0.248 NA
ATOM     64  C   UNL     1      -2.967 -13.969  -8.003  1.00  0.00     0.031 C 
ATOM     65  C   UNL     1      -2.334 -12.071 -13.729  1.00  0.00     0.029 A 
ATOM     66  C   UNL     1      -2.149 -12.245 -12.367  1.00  0.00     0.049 A 
ATOM     67  H   UNL     1      -0.789 -11.282 -11.074  1.00  0.00     0.167 HD
ATOM     68  C   UNL     1      -2.626 -13.233 -10.146  1.00  0.00     0.074 A 
ATOM     69  C   UNL     1      -3.365 -14.107  -9.260  1.00  0.00     0.031 C 
ATOM     70  C   UNL     1      -2.857 -13.129 -11.477  1.00  0.00     0.031 A 
BRANCH  57  71
ATOM     71  C   UNL     1       0.689  -8.980 -14.356  1.00  0.00    -0.014 A 
ATOM     72  C   UNL     1       1.887  -9.228 -15.049  1.00  0.00     0.010 A 
ATOM     73  C   UNL     1      -0.266  -8.117 -14.924  1.00  0.00     0.010 A 
ATOM     74  C   UNL     1       2.131  -8.613 -16.279  1.00  0.00     0.020 A 
ATOM     75  C   UNL     1      -0.038  -7.522 -16.168  1.00  0.00     0.020 A 
ATOM     76  C   UNL     1       1.163  -7.769 -16.834  1.00  0.00     0.054 A 
BRANCH  76  77
ATOM     77  S   UNL     1       1.479  -7.043 -18.466  1.00  0.00     0.124 S 
ATOM     78  O   UNL     1       2.529  -6.073 -18.166  1.00  0.00    -0.237 OA
ATOM     79  O   UNL     1       1.899  -8.199 -19.253  1.00  0.00    -0.237 OA
ATOM     80  O   UNL     1       0.191  -6.468 -18.846  1.00  0.00    -0.744 OA
ENDBRANCH  76  77
ENDBRANCH  57  71
BRANCH  58  81
ATOM     81  C   UNL     1      -1.463 -13.282  -5.587  1.00  0.00    -0.014 A 
ATOM     82  C   UNL     1      -1.307 -14.664  -5.370  1.00  0.00     0.010 A 
ATOM     83  C   UNL     1      -2.015 -12.491  -4.563  1.00  0.00     0.010 A 
ATOM     84  C   UNL     1      -1.738 -15.248  -4.175  1.00  0.00     0.020 A 
ATOM     85  C   UNL     1      -2.416 -13.066  -3.354  1.00  0.00     0.020 A 
ATOM     86  C   UNL     1      -2.296 -14.445  -3.176  1.00  0.00     0.054 A 
BRANCH  86  87
ATOM     87  S   UNL     1      -2.848 -15.223  -1.633  1.00  0.00     0.124 S 
ATOM     88  O   UNL     1      -4.061 -15.913  -2.060  1.00  0.00    -0.237 OA
ATOM     89  O   UNL     1      -1.718 -16.081  -1.290  1.00  0.00    -0.237 OA
ATOM     90  O   UNL     1      -3.055 -14.089  -0.735  1.00  0.00    -0.744 OA
ENDBRANCH  86  87
ENDBRANCH  58  81
BRANCH  70  91
ATOM     91  C   UNL     1      -3.903 -14.027 -12.082  1.00  0.00    -0.014 A 
ATOM     92  C   UNL     1      -5.274 -13.816 -11.855  1.00  0.00     0.010 A 
ATOM     93  C   UNL     1      -3.502 -15.051 -12.961  1.00  0.00     0.010 A 
ATOM     94  C   UNL     1      -6.224 -14.628 -12.481  1.00  0.00     0.020 A 
ATOM     95  C   UNL     1      -4.449 -15.844 -13.612  1.00  0.00     0.020 A 
ATOM     96  C   UNL     1      -5.806 -15.634 -13.359  1.00  0.00     0.054 A 
BRANCH  96  97
ATOM     97  S   UNL     1      -7.062 -16.630 -14.207  1.00  0.00     0.124 S 
ATOM     98  O   UNL     1      -7.569 -17.467 -13.124  1.00  0.00    -0.237 OA
ATOM     99  O   UNL     1      -7.989 -15.617 -14.707  1.00  0.00    -0.237 OA
ATOM    100  O   UNL     1      -6.306 -17.337 -15.239  1.00  0.00    -0.744 OA
ENDBRANCH  96  97
ENDBRANCH  70  91
ENDBRANCH  44  45
ENDBRANCH  36  39
ENDBRANCH  34  35
ENDBRANCH  33  34
ENDBRANCH  32  33
ENDBRANCH   1  32
TORSDOF 21
