REMARK SMILES COC(=O)[C@H]1CN(C(=O)[C@@H]2CC=CC[C@@H]2C(=O)NCCCCCCNC(=O)c2ccc(-c3c4nc(c(-c5ccc(S(=O)(=O)[O-])cc5)c5ccc([nH]5)c(-c5ccc(S(=O)(=O)[O-])cc5)c5nc(c(-c6ccc(S(=O)(=O)[O-])cc6)c6ccc3[nH]6)C=C5)C=C4)cc2)C[C@H]1C
REMARK SMILES IDX 21 1 20 2 19 3 18 4 16 5 17 6 15 8 10 9 11 10 12 11 14 12
REMARK SMILES IDX 13 13 8 14 9 15 7 16 5 17 6 18 89 19 88 20 90 21 3 22 4 23
REMARK SMILES IDX 2 24 1 25 22 26 23 27 24 28 25 29 26 30 27 32 28 33 29 34
REMARK SMILES IDX 87 35 30 36 86 37 31 38 32 39 33 40 80 41 34 42 85 43 79 44
REMARK SMILES IDX 81 45 35 46 84 47 78 48 77 49 36 51 66 52 47 53 65 54 48 55
REMARK SMILES IDX 51 56 64 57 82 58 49 59 50 60 63 62 83 63 52 64 37 65 38 66
REMARK SMILES IDX 46 67 39 68 45 69 40 70 41 71 42 72 43 73 44 74 67 75 68 76
REMARK SMILES IDX 76 77 69 78 75 79 70 80 71 81 72 82 73 83 74 84 53 85 54 86
REMARK SMILES IDX 62 87 55 88 61 89 56 90 57 91 58 92 59 93 60 94
REMARK H PARENT 18 7 25 31 81 50 51 61
REMARK Flexibility Score: inf
ROOT
ATOM      1  C   UNL     1      -2.865  -2.829  12.094  1.00  0.00     0.002 C 
ENDROOT
BRANCH   1   2
ATOM      2  C   UNL     1      -2.728  -3.348  10.656  1.00  0.00     0.021 C 
BRANCH   2   3
ATOM      3  C   UNL     1      -3.114  -2.349   9.568  1.00  0.00     0.116 C 
BRANCH   3   4
ATOM      4  N   UNL     1      -2.411  -1.081   9.705  1.00  0.00    -0.356 N 
ATOM      5  C   UNL     1      -1.285  -0.586   9.120  1.00  0.00     0.224 C 
ATOM      6  O   UNL     1      -0.879   0.507   9.524  1.00  0.00    -0.275 OA
ATOM      7  H   UNL     1      -2.831  -0.462  10.344  1.00  0.00     0.163 HD
BRANCH   5   8
ATOM      8  C   UNL     1      -0.585  -1.336   7.999  1.00  0.00     0.095 C 
ATOM      9  C   UNL     1       0.708  -2.103   8.358  1.00  0.00     0.095 C 
ATOM     10  C   UNL     1       2.035  -1.327   8.344  1.00  0.00     0.041 C 
ATOM     11  C   UNL     1       2.037  -0.083   7.518  1.00  0.00    -0.030 C 
ATOM     12  C   UNL     1      -0.357  -0.336   6.838  1.00  0.00     0.041 C 
ATOM     13  C   UNL     1       0.973   0.358   6.839  1.00  0.00    -0.030 C 
BRANCH   9  14
ATOM     14  C   UNL     1       0.656  -3.085   9.532  1.00  0.00     0.226 C 
ATOM     15  O   UNL     1       0.510  -4.287   9.278  1.00  0.00    -0.275 OA
BRANCH  14  16
ATOM     16  N   UNL     1       0.819  -2.670  10.838  1.00  0.00    -0.341 N 
ATOM     17  C   UNL     1       1.284  -2.873  13.180  1.00  0.00     0.123 C 
ATOM     18  C   UNL     1       0.898  -3.647  11.915  1.00  0.00     0.135 C 
ATOM     19  C   UNL     1       1.207  -1.376  12.795  1.00  0.00     0.021 C 
ATOM     20  C   UNL     1       0.632  -1.349  11.385  1.00  0.00     0.123 C 
ATOM     21  C   UNL     1       0.388  -0.447  13.691  1.00  0.00     0.010 C 
BRANCH  17  22
ATOM     22  C   UNL     1       0.461  -3.291  14.382  1.00  0.00     0.310 C 
ATOM     23  O   UNL     1      -0.471  -4.084  14.372  1.00  0.00    -0.252 OA
BRANCH  22  24
ATOM     24  O   UNL     1       0.914  -2.652  15.498  1.00  0.00    -0.469 OA
ATOM     25  C   UNL     1       0.093  -2.826  16.655  1.00  0.00     0.282 C 
ENDBRANCH  22  24
ENDBRANCH  17  22
ENDBRANCH  14  16
ENDBRANCH   9  14
ENDBRANCH   5   8
ENDBRANCH   3   4
ENDBRANCH   2   3
ENDBRANCH   1   2
BRANCH   1  26
ATOM     26  C   UNL     1      -4.289  -2.789  12.643  1.00  0.00     0.002 C 
BRANCH  26  27
ATOM     27  C   UNL     1      -5.005  -4.140  12.661  1.00  0.00     0.021 C 
BRANCH  27  28
ATOM     28  C   UNL     1      -4.255  -5.253  13.389  1.00  0.00     0.116 C 
BRANCH  28  29
ATOM     29  N   UNL     1      -4.237  -5.050  14.830  1.00  0.00    -0.352 N 
ATOM     30  C   UNL     1      -4.814  -5.822  15.811  1.00  0.00     0.251 C 
ATOM     31  H   UNL     1      -3.748  -4.256  15.144  1.00  0.00     0.163 HD
ATOM     32  O   UNL     1      -4.901  -5.410  16.963  1.00  0.00    -0.269 OA
BRANCH  30  33
ATOM     33  C   UNL     1      -5.344  -7.156  15.451  1.00  0.00     0.039 A 
ATOM     34  C   UNL     1      -6.641  -7.507  15.831  1.00  0.00     0.014 A 
ATOM     35  C   UNL     1      -4.563  -8.041  14.702  1.00  0.00     0.014 A 
ATOM     36  C   UNL     1      -7.178  -8.724  15.400  1.00  0.00     0.010 A 
ATOM     37  C   UNL     1      -5.128  -9.212  14.207  1.00  0.00     0.010 A 
ATOM     38  C   UNL     1      -6.440  -9.569  14.553  1.00  0.00    -0.014 A 
BRANCH  38  39
ATOM     39  C   UNL     1      -7.021 -10.830  14.019  1.00  0.00     0.031 A 
ATOM     40  C   UNL     1      -6.405 -12.157  14.376  1.00  0.00     0.074 A 
ATOM     41  C   UNL     1      -8.066 -10.780  13.168  1.00  0.00     0.049 A 
ATOM     42  N   UNL     1      -6.745 -13.357  13.980  1.00  0.00    -0.248 NA
ATOM     43  C   UNL     1      -5.242 -12.129  15.277  1.00  0.00     0.031 C 
ATOM     44  C   UNL     1      -8.735  -9.558  12.716  1.00  0.00     0.029 A 
ATOM     45  N   UNL     1      -8.749 -11.785  12.529  1.00  0.00    -0.354 N 
ATOM     46  C   UNL     1      -5.833 -14.223  14.573  1.00  0.00     0.074 A 
ATOM     47  C   UNL     1      -4.891 -13.406  15.305  1.00  0.00     0.031 C 
ATOM     48  C   UNL     1      -9.756  -9.887  11.908  1.00  0.00     0.029 A 
ATOM     49  C   UNL     1      -9.786 -11.337  11.744  1.00  0.00     0.049 A 
ATOM     50  H   UNL     1      -8.519 -12.738  12.624  1.00  0.00     0.167 HD
ATOM     51  C   UNL     1      -5.794 -15.577  14.534  1.00  0.00     0.031 A 
ATOM     52  C   UNL     1     -10.662 -12.015  10.976  1.00  0.00     0.031 A 
ATOM     53  C   UNL     1      -6.729 -16.388  13.799  1.00  0.00     0.049 A 
ATOM     54  C   UNL     1     -10.572 -13.516  10.910  1.00  0.00     0.074 A 
ATOM     55  C   UNL     1      -6.801 -17.769  13.729  1.00  0.00     0.029 A 
ATOM     56  N   UNL     1      -7.750 -15.894  13.001  1.00  0.00    -0.354 N 
ATOM     57  N   UNL     1      -9.742 -14.321  11.530  1.00  0.00    -0.248 NA
ATOM     58  C   UNL     1     -11.544 -14.200  10.046  1.00  0.00     0.031 C 
ATOM     59  C   UNL     1      -7.826 -18.107  12.839  1.00  0.00     0.029 A 
ATOM     60  C   UNL     1      -8.439 -16.941  12.411  1.00  0.00     0.049 A 
ATOM     61  H   UNL     1      -7.955 -14.940  12.873  1.00  0.00     0.167 HD
ATOM     62  C   UNL     1     -10.115 -15.608  11.159  1.00  0.00     0.074 A 
ATOM     63  C   UNL     1     -11.251 -15.474  10.270  1.00  0.00     0.031 C 
ATOM     64  C   UNL     1      -9.569 -16.794  11.525  1.00  0.00     0.031 A 
BRANCH  51  65
ATOM     65  C   UNL     1      -4.690 -16.261  15.301  1.00  0.00    -0.014 A 
ATOM     66  C   UNL     1      -4.649 -16.224  16.708  1.00  0.00     0.010 A 
ATOM     67  C   UNL     1      -3.687 -16.964  14.610  1.00  0.00     0.010 A 
ATOM     68  C   UNL     1      -3.596 -16.824  17.404  1.00  0.00     0.020 A 
ATOM     69  C   UNL     1      -2.650 -17.596  15.304  1.00  0.00     0.020 A 
ATOM     70  C   UNL     1      -2.600 -17.502  16.696  1.00  0.00     0.054 A 
BRANCH  70  71
ATOM     71  S   UNL     1      -1.245 -18.270  17.625  1.00  0.00     0.124 S 
ATOM     72  O   UNL     1      -0.486 -17.103  18.070  1.00  0.00    -0.237 OA
ATOM     73  O   UNL     1      -1.951 -18.997  18.677  1.00  0.00    -0.237 OA
ATOM     74  O   UNL     1      -0.574 -19.108  16.635  1.00  0.00    -0.744 OA
ENDBRANCH  70  71
ENDBRANCH  51  65
BRANCH  52  75
ATOM     75  C   UNL     1     -11.721 -11.281  10.227  1.00  0.00    -0.014 A 
ATOM     76  C   UNL     1     -13.071 -11.404  10.604  1.00  0.00     0.010 A 
ATOM     77  C   UNL     1     -11.389 -10.449   9.143  1.00  0.00     0.010 A 
ATOM     78  C   UNL     1     -14.069 -10.723   9.901  1.00  0.00     0.020 A 
ATOM     79  C   UNL     1     -12.381  -9.742   8.457  1.00  0.00     0.020 A 
ATOM     80  C   UNL     1     -13.716  -9.892   8.834  1.00  0.00     0.054 A 
BRANCH  80  81
ATOM     81  S   UNL     1     -15.025  -8.976   7.973  1.00  0.00     0.124 S 
ATOM     82  O   UNL     1     -15.712 -10.038   7.245  1.00  0.00    -0.237 OA
ATOM     83  O   UNL     1     -15.770  -8.379   9.078  1.00  0.00    -0.237 OA
ATOM     84  O   UNL     1     -14.287  -8.025   7.144  1.00  0.00    -0.744 OA
ENDBRANCH  80  81
ENDBRANCH  52  75
BRANCH  64  85
ATOM     85  C   UNL     1     -10.215 -18.050  11.000  1.00  0.00    -0.014 A 
ATOM     86  C   UNL     1     -10.115 -18.416   9.646  1.00  0.00     0.010 A 
ATOM     87  C   UNL     1     -10.887 -18.907  11.892  1.00  0.00     0.010 A 
ATOM     88  C   UNL     1     -10.702 -19.600   9.189  1.00  0.00     0.020 A 
ATOM     89  C   UNL     1     -11.447 -20.106  11.445  1.00  0.00     0.020 A 
ATOM     90  C   UNL     1     -11.363 -20.438  10.092  1.00  0.00     0.054 A 
BRANCH  90  91
ATOM     91  S   UNL     1     -12.074 -21.991   9.481  1.00  0.00     0.124 S 
ATOM     92  O   UNL     1     -13.222 -21.518   8.712  1.00  0.00    -0.237 OA
ATOM     93  O   UNL     1     -10.980 -22.556   8.695  1.00  0.00    -0.237 OA
ATOM     94  O   UNL     1     -12.402 -22.727  10.701  1.00  0.00    -0.744 OA
ENDBRANCH  90  91
ENDBRANCH  64  85
ENDBRANCH  38  39
ENDBRANCH  30  33
ENDBRANCH  28  29
ENDBRANCH  27  28
ENDBRANCH  26  27
ENDBRANCH   1  26
TORSDOF 20
