REMARK SMILES O=C(NCCCCCCNC(=O)[C@H]1CS[C@H](c2nc3ccccc3s2)[NH2+]1)c1ccc(-c2c3nc(c(-c4ccc(S(=O)(=O)[O-])cc4)c4ccc([nH]4)c(-c4ccc(S(=O)(=O)[O-])cc4)c4nc(c(-c5ccc(S(=O)(=O)[O-])cc5)c5ccc2[nH]5)C=C4)C=C3)cc1
REMARK SMILES IDX 5 1 4 2 3 3 1 4 2 5 27 7 28 8 86 9 29 10 85 11 30 12 31 13
REMARK SMILES IDX 32 14 79 15 33 16 84 17 78 18 80 19 34 20 83 21 77 22 76 23
REMARK SMILES IDX 35 25 65 26 46 27 64 28 47 29 50 30 63 31 81 32 48 33 49 34
REMARK SMILES IDX 62 36 82 37 51 38 36 39 37 40 45 41 38 42 44 43 39 44 40 45
REMARK SMILES IDX 41 46 42 47 43 48 66 49 67 50 75 51 68 52 74 53 69 54 70 55
REMARK SMILES IDX 71 56 72 57 73 58 52 59 53 60 61 61 54 62 60 63 55 64 56 65
REMARK SMILES IDX 57 66 58 67 59 68 6 69 7 70 8 71 9 72 10 73 11 74 12 76
REMARK SMILES IDX 13 77 14 78 26 79 15 80 16 81 17 84 18 85 25 86 19 87 24 88
REMARK SMILES IDX 20 89 23 90 21 91 22 92
REMARK H PARENT 3 6 80 24 50 35 10 75 26 82 26 83
REMARK Flexibility Score: inf
ROOT
ATOM      1  C   UNL     1       4.516   0.629  -2.690  1.00  0.00     0.021 C 
ENDROOT
BRANCH   1   2
ATOM      2  C   UNL     1       4.313   0.668  -1.183  1.00  0.00     0.116 C 
BRANCH   2   3
ATOM      3  N   UNL     1       2.916   0.677  -0.790  1.00  0.00    -0.352 N 
ATOM      4  O   UNL     1       1.074  -0.028   0.307  1.00  0.00    -0.269 OA
ATOM      5  C   UNL     1       2.291  -0.077   0.179  1.00  0.00     0.251 C 
ATOM      6  H   UNL     1       2.338   1.305  -1.281  1.00  0.00     0.163 HD
BRANCH   5   7
ATOM      7  C   UNL     1       3.099  -0.972   1.040  1.00  0.00     0.039 A 
ATOM      8  C   UNL     1       4.293  -0.526   1.610  1.00  0.00     0.014 A 
ATOM      9  C   UNL     1       2.661  -2.280   1.269  1.00  0.00     0.014 A 
ATOM     10  C   UNL     1       5.115  -1.423   2.281  1.00  0.00     0.010 A 
ATOM     11  C   UNL     1       3.448  -3.158   2.023  1.00  0.00     0.010 A 
ATOM     12  C   UNL     1       4.696  -2.745   2.512  1.00  0.00    -0.014 A 
BRANCH  12  13
ATOM     13  C   UNL     1       5.557  -3.630   3.339  1.00  0.00     0.031 A 
ATOM     14  C   UNL     1       6.215  -4.855   2.765  1.00  0.00     0.074 A 
ATOM     15  C   UNL     1       5.794  -3.271   4.617  1.00  0.00     0.049 A 
ATOM     16  N   UNL     1       7.061  -5.674   3.339  1.00  0.00    -0.248 NA
ATOM     17  C   UNL     1       5.881  -5.216   1.379  1.00  0.00     0.031 C 
ATOM     18  C   UNL     1       5.191  -2.115   5.290  1.00  0.00     0.029 A 
ATOM     19  N   UNL     1       6.625  -3.808   5.564  1.00  0.00    -0.354 N 
ATOM     20  C   UNL     1       7.353  -6.650   2.393  1.00  0.00     0.074 A 
ATOM     21  C   UNL     1       6.574  -6.336   1.214  1.00  0.00     0.031 C 
ATOM     22  C   UNL     1       5.722  -1.993   6.515  1.00  0.00     0.029 A 
ATOM     23  C   UNL     1       6.655  -3.091   6.736  1.00  0.00     0.049 A 
ATOM     24  H   UNL     1       7.149  -4.629   5.420  1.00  0.00     0.167 HD
ATOM     25  C   UNL     1       8.197  -7.705   2.497  1.00  0.00     0.031 A 
ATOM     26  C   UNL     1       7.351  -3.291   7.870  1.00  0.00     0.031 A 
ATOM     27  C   UNL     1       8.967  -8.017   3.675  1.00  0.00     0.049 A 
ATOM     28  C   UNL     1       8.286  -4.460   7.952  1.00  0.00     0.074 A 
ATOM     29  C   UNL     1       9.850  -9.065   3.877  1.00  0.00     0.029 A 
ATOM     30  N   UNL     1       8.951  -7.280   4.851  1.00  0.00    -0.354 N 
ATOM     31  N   UNL     1       8.554  -5.362   7.039  1.00  0.00    -0.248 NA
ATOM     32  C   UNL     1       9.011  -4.638   9.216  1.00  0.00     0.031 C 
ATOM     33  C   UNL     1      10.340  -8.982   5.185  1.00  0.00     0.029 A 
ATOM     34  C   UNL     1       9.799  -7.856   5.783  1.00  0.00     0.049 A 
ATOM     35  H   UNL     1       8.416  -6.468   5.000  1.00  0.00     0.167 HD
ATOM     36  C   UNL     1       9.478  -6.220   7.620  1.00  0.00     0.074 A 
ATOM     37  C   UNL     1       9.751  -5.705   8.947  1.00  0.00     0.031 C 
ATOM     38  C   UNL     1      10.041  -7.342   7.106  1.00  0.00     0.031 A 
BRANCH  25  39
ATOM     39  C   UNL     1       8.330  -8.617   1.305  1.00  0.00    -0.014 A 
ATOM     40  C   UNL     1       9.051  -8.217   0.166  1.00  0.00     0.010 A 
ATOM     41  C   UNL     1       7.786  -9.914   1.349  1.00  0.00     0.010 A 
ATOM     42  C   UNL     1       9.204  -9.087  -0.918  1.00  0.00     0.020 A 
ATOM     43  C   UNL     1       7.954 -10.795   0.275  1.00  0.00     0.020 A 
ATOM     44  C   UNL     1       8.652 -10.370  -0.857  1.00  0.00     0.054 A 
BRANCH  44  45
ATOM     45  S   UNL     1       8.896 -11.491  -2.264  1.00  0.00     0.124 S 
ATOM     46  O   UNL     1       7.974 -10.936  -3.252  1.00  0.00    -0.237 OA
ATOM     47  O   UNL     1      10.315 -11.324  -2.566  1.00  0.00    -0.237 OA
ATOM     48  O   UNL     1       8.525 -12.800  -1.732  1.00  0.00    -0.744 OA
ENDBRANCH  44  45
ENDBRANCH  25  39
BRANCH  26  49
ATOM     49  C   UNL     1       7.166  -2.367   9.020  1.00  0.00    -0.014 A 
ATOM     50  C   UNL     1       8.183  -1.476   9.402  1.00  0.00     0.010 A 
ATOM     51  C   UNL     1       5.947  -2.360   9.724  1.00  0.00     0.010 A 
ATOM     52  C   UNL     1       7.991  -0.606  10.479  1.00  0.00     0.020 A 
ATOM     53  C   UNL     1       5.741  -1.472  10.781  1.00  0.00     0.020 A 
ATOM     54  C   UNL     1       6.770  -0.610  11.161  1.00  0.00     0.054 A 
BRANCH  54  55
ATOM     55  S   UNL     1       6.513   0.564  12.521  1.00  0.00     0.124 S 
ATOM     56  O   UNL     1       7.203  -0.097  13.623  1.00  0.00    -0.237 OA
ATOM     57  O   UNL     1       7.145   1.781  12.017  1.00  0.00    -0.237 OA
ATOM     58  O   UNL     1       5.059   0.631  12.639  1.00  0.00    -0.744 OA
ENDBRANCH  54  55
ENDBRANCH  26  49
BRANCH  38  59
ATOM     59  C   UNL     1      11.006  -8.078   7.994  1.00  0.00    -0.014 A 
ATOM     60  C   UNL     1      10.548  -8.822   9.096  1.00  0.00     0.010 A 
ATOM     61  C   UNL     1      12.385  -8.025   7.723  1.00  0.00     0.010 A 
ATOM     62  C   UNL     1      11.456  -9.461   9.942  1.00  0.00     0.020 A 
ATOM     63  C   UNL     1      13.295  -8.684   8.554  1.00  0.00     0.020 A 
ATOM     64  C   UNL     1      12.825  -9.380   9.671  1.00  0.00     0.054 A 
BRANCH  64  65
ATOM     65  S   UNL     1      13.989 -10.219  10.779  1.00  0.00     0.124 S 
ATOM     66  O   UNL     1      14.044  -9.300  11.912  1.00  0.00    -0.237 OA
ATOM     67  O   UNL     1      13.328 -11.496  11.037  1.00  0.00    -0.237 OA
ATOM     68  O   UNL     1      15.214 -10.309   9.988  1.00  0.00    -0.744 OA
ENDBRANCH  64  65
ENDBRANCH  38  59
ENDBRANCH  12  13
ENDBRANCH   5   7
ENDBRANCH   2   3
ENDBRANCH   1   2
BRANCH   1  69
ATOM     69  C   UNL     1       4.020   1.854  -3.457  1.00  0.00     0.002 C 
BRANCH  69  70
ATOM     70  C   UNL     1       4.524   3.213  -2.964  1.00  0.00     0.002 C 
BRANCH  70  71
ATOM     71  C   UNL     1       6.038   3.352  -2.778  1.00  0.00     0.021 C 
BRANCH  71  72
ATOM     72  C   UNL     1       6.893   2.940  -3.970  1.00  0.00     0.116 C 
BRANCH  72  73
ATOM     73  N   UNL     1       6.646   3.745  -5.150  1.00  0.00    -0.351 N 
ATOM     74  C   UNL     1       7.482   4.346  -6.041  1.00  0.00     0.279 C 
ATOM     75  H   UNL     1       5.691   3.884  -5.345  1.00  0.00     0.163 HD
ATOM     76  O   UNL     1       6.951   4.964  -6.971  1.00  0.00    -0.268 OA
BRANCH  74  77
ATOM     77  C   UNL     1       9.015   4.347  -5.893  1.00  0.00     0.284 C 
ATOM     78  C   UNL     1       9.465   5.377  -4.863  1.00  0.00     0.151 C 
ATOM     79  N   UNL     1       9.576   2.991  -5.687  1.00  0.00    -0.319 N 
ATOM     80  S   UNL     1      10.262   4.439  -3.556  1.00  0.00    -0.085 SA
ATOM     81  C   UNL     1      10.617   3.026  -4.646  1.00  0.00     0.303 C 
ATOM     82  H   UNL     1       9.984   2.658  -6.560  1.00  0.00     0.348 HD
ATOM     83  H   UNL     1       8.829   2.362  -5.391  1.00  0.00     0.348 HD
BRANCH  81  84
ATOM     84  C   UNL     1      12.046   3.077  -5.163  1.00  0.00     0.163 A 
ATOM     85  N   UNL     1      13.096   3.274  -4.387  1.00  0.00    -0.234 NA
ATOM     86  S   UNL     1      12.425   2.795  -6.822  1.00  0.00    -0.112 S 
ATOM     87  C   UNL     1      14.262   3.238  -5.125  1.00  0.00     0.082 A 
ATOM     88  C   UNL     1      14.098   2.987  -6.486  1.00  0.00     0.055 A 
ATOM     89  C   UNL     1      15.563   3.428  -4.620  1.00  0.00     0.030 A 
ATOM     90  C   UNL     1      15.191   2.917  -7.365  1.00  0.00     0.021 A 
ATOM     91  C   UNL     1      16.660   3.365  -5.486  1.00  0.00     0.002 A 
ATOM     92  C   UNL     1      16.473   3.112  -6.841  1.00  0.00     0.002 A 
ENDBRANCH  81  84
ENDBRANCH  74  77
ENDBRANCH  72  73
ENDBRANCH  71  72
ENDBRANCH  70  71
ENDBRANCH  69  70
ENDBRANCH   1  69
TORSDOF 17
