REMARK SMILES Cc1nn(-c2nc3ccccc3o2)c2c1[C@H](c1ccc(C(=O)NCCCCCCNC(=O)c3ccc(-c4c5nc(c(-c6ccc(S(=O)(=O)[O-])cc6)c6ccc([nH]6)c(-c6ccc(S(=O)(=O)[O-])cc6)c6nc(c(-c7ccc(S(=O)(=O)[O-])cc7)c7ccc4[nH]7)C=C6)C=C5)cc3)cc1)CC(=O)N2
REMARK SMILES IDX 27 1 26 2 25 3 24 4 23 5 21 6 22 7 20 9 17 10 18 11 94 12
REMARK SMILES IDX 19 13 93 14 16 15 1 16 2 17 3 18 15 19 4 20 14 21 98 22
REMARK SMILES IDX 95 23 96 24 97 26 5 27 6 28 13 29 7 30 12 31 8 32 11 33 9 34
REMARK SMILES IDX 10 35 28 36 29 37 30 38 31 39 32 41 33 42 34 43 92 44 35 45
REMARK SMILES IDX 91 46 36 47 37 48 38 49 85 50 39 51 90 52 84 53 86 54 40 55
REMARK SMILES IDX 89 56 83 57 82 58 41 60 71 61 52 62 70 63 53 64 56 65 69 66
REMARK SMILES IDX 87 67 54 68 55 69 68 71 88 72 57 73 42 74 43 75 51 76 44 77
REMARK SMILES IDX 50 78 45 79 46 80 47 81 48 82 49 83 72 84 73 85 81 86 74 87
REMARK SMILES IDX 80 88 75 89 76 90 77 91 78 92 79 93 58 94 59 95 67 96 60 97
REMARK SMILES IDX 66 98 61 99 62 100 63 101 64 102 65 103
REMARK H PARENT 23 8 98 25 30 40 86 59 56 70
REMARK Flexibility Score: inf
ROOT
ATOM      1  C   UNL     1       2.079   1.887  10.411  1.00  0.00     0.002 C 
ENDROOT
BRANCH   1   2
ATOM      2  C   UNL     1       0.880   1.681   9.472  1.00  0.00     0.002 C 
BRANCH   2   3
ATOM      3  C   UNL     1       1.032   2.266   8.062  1.00  0.00     0.021 C 
BRANCH   3   4
ATOM      4  C   UNL     1       2.259   1.748   7.309  1.00  0.00     0.116 C 
BRANCH   4   5
ATOM      5  N   UNL     1       2.031   0.401   6.821  1.00  0.00    -0.352 N 
ATOM      6  C   UNL     1       1.872  -0.091   5.551  1.00  0.00     0.251 C 
ATOM      7  O   UNL     1       1.788  -1.309   5.402  1.00  0.00    -0.269 OA
ATOM      8  H   UNL     1       1.983  -0.283   7.528  1.00  0.00     0.163 HD
BRANCH   6   9
ATOM      9  C   UNL     1       1.876   0.790   4.354  1.00  0.00     0.039 A 
ATOM     10  C   UNL     1       2.033   2.394   2.018  1.00  0.00    -0.040 A 
ATOM     11  C   UNL     1       2.565   1.094   2.043  1.00  0.00     0.005 A 
ATOM     12  C   UNL     1       1.379   2.849   3.176  1.00  0.00     0.005 A 
ATOM     13  C   UNL     1       2.466   0.294   3.187  1.00  0.00     0.014 A 
ATOM     14  C   UNL     1       1.295   2.056   4.326  1.00  0.00     0.014 A 
BRANCH  10  15
ATOM     15  C   UNL     1       2.164   3.242   0.759  1.00  0.00     0.064 C 
ATOM     16  C   UNL     1       0.491   0.458  -0.405  1.00  0.00     0.069 C 
ATOM     17  C   UNL     1       0.222   1.910  -0.563  1.00  0.00     0.066 A 
ATOM     18  N   UNL     1      -0.786   2.277  -1.368  1.00  0.00    -0.167 NA
ATOM     19  C   UNL     1       0.924   3.041  -0.048  1.00  0.00     0.026 A 
ATOM     20  N   UNL     1      -0.813   3.628  -1.281  1.00  0.00    -0.166 N 
ATOM     21  C   UNL     1       0.307   4.110  -0.655  1.00  0.00     0.145 A 
ATOM     22  N   UNL     1       0.782   5.400  -0.689  1.00  0.00    -0.310 N 
ATOM     23  C   UNL     1       2.407   4.744   1.048  1.00  0.00     0.113 C 
ATOM     24  C   UNL     1       1.955   5.701  -0.045  1.00  0.00     0.226 C 
ATOM     25  H   UNL     1       0.285   6.100  -1.171  1.00  0.00     0.171 HD
ATOM     26  O   UNL     1       2.543   6.759  -0.261  1.00  0.00    -0.275 OA
BRANCH  20  27
ATOM     27  C   UNL     1      -1.829   4.329  -1.912  1.00  0.00     0.325 A 
ATOM     28  N   UNL     1      -2.861   4.790  -1.225  1.00  0.00    -0.191 NA
ATOM     29  O   UNL     1      -1.837   4.676  -3.245  1.00  0.00    -0.422 OA
ATOM     30  C   UNL     1      -3.673   5.339  -2.176  1.00  0.00     0.111 A 
ATOM     31  C   UNL     1      -3.036   5.307  -3.406  1.00  0.00     0.156 A 
ATOM     32  C   UNL     1      -4.962   5.872  -2.087  1.00  0.00     0.032 A 
ATOM     33  C   UNL     1      -3.568   5.809  -4.586  1.00  0.00     0.049 A 
ATOM     34  C   UNL     1      -5.558   6.339  -3.268  1.00  0.00     0.003 A 
ATOM     35  C   UNL     1      -4.870   6.317  -4.489  1.00  0.00     0.004 A 
ENDBRANCH  20  27
ENDBRANCH  10  15
ENDBRANCH   6   9
ENDBRANCH   4   5
ENDBRANCH   3   4
ENDBRANCH   2   3
ENDBRANCH   1   2
BRANCH   1  36
ATOM     36  C   UNL     1       2.607   3.324  10.538  1.00  0.00     0.021 C 
BRANCH  36  37
ATOM     37  C   UNL     1       1.646   4.269  11.243  1.00  0.00     0.116 C 
BRANCH  37  38
ATOM     38  N   UNL     1       1.459   3.913  12.652  1.00  0.00    -0.352 N 
ATOM     39  C   UNL     1       0.578   4.443  13.580  1.00  0.00     0.251 C 
ATOM     40  H   UNL     1       2.043   3.194  12.987  1.00  0.00     0.163 HD
ATOM     41  O   UNL     1       0.788   4.327  14.775  1.00  0.00    -0.269 OA
BRANCH  39  42
ATOM     42  C   UNL     1      -0.625   5.139  13.089  1.00  0.00     0.039 A 
ATOM     43  C   UNL     1      -1.147   6.268  13.730  1.00  0.00     0.014 A 
ATOM     44  C   UNL     1      -1.223   4.638  11.940  1.00  0.00     0.014 A 
ATOM     45  C   UNL     1      -2.236   6.921  13.154  1.00  0.00     0.010 A 
ATOM     46  C   UNL     1      -2.139   5.395  11.269  1.00  0.00     0.010 A 
ATOM     47  C   UNL     1      -2.717   6.479  11.913  1.00  0.00    -0.014 A 
BRANCH  47  48
ATOM     48  C   UNL     1      -3.776   7.174  11.196  1.00  0.00     0.031 A 
ATOM     49  C   UNL     1      -3.466   8.590  10.874  1.00  0.00     0.074 A 
ATOM     50  C   UNL     1      -4.810   6.512  10.629  1.00  0.00     0.049 A 
ATOM     51  N   UNL     1      -4.006   9.648  11.379  1.00  0.00    -0.248 NA
ATOM     52  C   UNL     1      -2.306   8.867  10.009  1.00  0.00     0.031 C 
ATOM     53  C   UNL     1      -5.042   5.060  10.582  1.00  0.00     0.029 A 
ATOM     54  N   UNL     1      -5.806   6.988   9.839  1.00  0.00    -0.354 N 
ATOM     55  C   UNL     1      -3.427  10.720  10.709  1.00  0.00     0.074 A 
ATOM     56  C   UNL     1      -2.247  10.199  10.066  1.00  0.00     0.031 C 
ATOM     57  C   UNL     1      -5.934   4.773   9.608  1.00  0.00     0.029 A 
ATOM     58  C   UNL     1      -6.468   6.018   9.091  1.00  0.00     0.049 A 
ATOM     59  H   UNL     1      -6.041   7.944   9.798  1.00  0.00     0.167 HD
ATOM     60  C   UNL     1      -4.114  11.877  10.493  1.00  0.00     0.031 A 
ATOM     61  C   UNL     1      -7.364   6.228   8.093  1.00  0.00     0.031 A 
ATOM     62  C   UNL     1      -5.326  11.924  11.273  1.00  0.00     0.049 A 
ATOM     63  C   UNL     1      -7.866   7.615   8.256  1.00  0.00     0.074 A 
ATOM     64  C   UNL     1      -5.619  11.856  12.621  1.00  0.00     0.029 A 
ATOM     65  N   UNL     1      -6.498  11.627  10.614  1.00  0.00    -0.354 N 
ATOM     66  N   UNL     1      -8.568   8.005   9.284  1.00  0.00    -0.248 NA
ATOM     67  C   UNL     1      -7.187   8.676   7.529  1.00  0.00     0.031 C 
ATOM     68  C   UNL     1      -6.798  11.059  12.699  1.00  0.00     0.029 A 
ATOM     69  C   UNL     1      -7.211  10.759  11.399  1.00  0.00     0.049 A 
ATOM     70  H   UNL     1      -6.774  11.976   9.735  1.00  0.00     0.167 HD
ATOM     71  C   UNL     1      -8.069   9.261   9.598  1.00  0.00     0.074 A 
ATOM     72  C   UNL     1      -7.295   9.663   8.424  1.00  0.00     0.031 C 
ATOM     73  C   UNL     1      -8.089   9.728  10.883  1.00  0.00     0.031 A 
BRANCH  60  74
ATOM     74  C   UNL     1      -3.925  12.753   9.277  1.00  0.00    -0.014 A 
ATOM     75  C   UNL     1      -4.651  13.958   9.191  1.00  0.00     0.010 A 
ATOM     76  C   UNL     1      -3.280  12.312   8.103  1.00  0.00     0.010 A 
ATOM     77  C   UNL     1      -4.785  14.643   7.976  1.00  0.00     0.020 A 
ATOM     78  C   UNL     1      -3.368  13.011   6.898  1.00  0.00     0.020 A 
ATOM     79  C   UNL     1      -4.151  14.154   6.834  1.00  0.00     0.054 A 
BRANCH  79  80
ATOM     80  S   UNL     1      -4.411  14.985   5.249  1.00  0.00     0.124 S 
ATOM     81  O   UNL     1      -5.830  14.739   5.012  1.00  0.00    -0.237 OA
ATOM     82  O   UNL     1      -4.049  16.365   5.562  1.00  0.00    -0.237 OA
ATOM     83  O   UNL     1      -3.494  14.293   4.346  1.00  0.00    -0.744 OA
ENDBRANCH  79  80
ENDBRANCH  60  74
BRANCH  61  84
ATOM     84  C   UNL     1      -7.579   5.436   6.854  1.00  0.00    -0.014 A 
ATOM     85  C   UNL     1      -8.708   5.652   6.040  1.00  0.00     0.010 A 
ATOM     86  C   UNL     1      -6.525   4.669   6.314  1.00  0.00     0.010 A 
ATOM     87  C   UNL     1      -8.750   5.183   4.714  1.00  0.00     0.020 A 
ATOM     88  C   UNL     1      -6.562   4.193   4.996  1.00  0.00     0.020 A 
ATOM     89  C   UNL     1      -7.663   4.477   4.192  1.00  0.00     0.054 A 
BRANCH  89  90
ATOM     90  S   UNL     1      -7.640   4.043   2.425  1.00  0.00     0.124 S 
ATOM     91  O   UNL     1      -8.675   3.017   2.342  1.00  0.00    -0.237 OA
ATOM     92  O   UNL     1      -7.956   5.314   1.778  1.00  0.00    -0.237 OA
ATOM     93  O   UNL     1      -6.274   3.568   2.210  1.00  0.00    -0.744 OA
ENDBRANCH  89  90
ENDBRANCH  61  84
BRANCH  73  94
ATOM     94  C   UNL     1      -8.922   8.987  11.907  1.00  0.00    -0.014 A 
ATOM     95  C   UNL     1      -8.702   7.649  12.290  1.00  0.00     0.010 A 
ATOM     96  C   UNL     1      -9.870   9.739  12.623  1.00  0.00     0.010 A 
ATOM     97  C   UNL     1      -9.433   7.074  13.344  1.00  0.00     0.020 A 
ATOM     98  C   UNL     1     -10.586   9.180  13.684  1.00  0.00     0.020 A 
ATOM     99  C   UNL     1     -10.372   7.847  14.034  1.00  0.00     0.054 A 
BRANCH  99 100
ATOM    100  S   UNL     1     -11.290   7.118  15.421  1.00  0.00     0.124 S 
ATOM    101  O   UNL     1     -12.148   6.141  14.755  1.00  0.00    -0.237 OA
ATOM    102  O   UNL     1     -10.230   6.560  16.256  1.00  0.00    -0.237 OA
ATOM    103  O   UNL     1     -11.994   8.258  16.009  1.00  0.00    -0.744 OA
ENDBRANCH  99 100
ENDBRANCH  73  94
ENDBRANCH  47  48
ENDBRANCH  39  42
ENDBRANCH  37  38
ENDBRANCH  36  37
ENDBRANCH   1  36
TORSDOF 18
