REMARK SMILES O=C(NCCCCCCNC(=O)[C@@H]1C[NH2+]CCN1C(=O)N[C@@H]1CCOC1)c1ccc(-c2c3nc(c(-c4ccc(S(=O)(=O)[O-])cc4)c4ccc([nH]4)c(-c4ccc(S(=O)(=O)[O-])cc4)c4nc(c(-c5ccc(S(=O)(=O)[O-])cc5)c5ccc2[nH]5)C=C4)C=C3)cc1
REMARK SMILES IDX 6 1 5 2 4 3 3 4 1 5 2 6 27 8 28 9 86 10 29 11 85 12 30 13
REMARK SMILES IDX 31 14 32 15 79 16 33 17 84 18 78 19 80 20 34 21 83 22 77 23
REMARK SMILES IDX 76 24 35 26 65 27 46 28 64 29 47 30 50 31 63 32 81 33 48 34
REMARK SMILES IDX 49 35 62 37 82 38 51 39 36 40 37 41 45 42 38 43 44 44 39 45
REMARK SMILES IDX 40 46 41 47 42 48 43 49 66 50 67 51 75 52 68 53 74 54 69 55
REMARK SMILES IDX 70 56 71 57 72 58 73 59 52 60 53 61 61 62 54 63 60 64 55 65
REMARK SMILES IDX 56 66 57 67 58 68 59 69 7 70 8 71 9 72 10 73 11 74 12 76
REMARK SMILES IDX 13 77 14 78 18 79 15 80 17 81 16 82 19 85 20 86 21 87 22 89
REMARK SMILES IDX 23 90 26 91 24 92 25 93
REMARK H PARENT 3 7 80 25 50 36 10 75 15 83 15 84 21 88
REMARK Flexibility Score: inf
ROOT
ATOM      1  C   UNL     1       4.500  -0.455  -3.767  1.00  0.00     0.002 C 
ENDROOT
BRANCH   1   2
ATOM      2  C   UNL     1       4.735  -1.072  -2.390  1.00  0.00     0.021 C 
BRANCH   2   3
ATOM      3  C   UNL     1       4.450  -0.146  -1.219  1.00  0.00     0.116 C 
BRANCH   3   4
ATOM      4  N   UNL     1       3.034   0.088  -1.019  1.00  0.00    -0.352 N 
ATOM      5  O   UNL     1       1.096   0.072   0.144  1.00  0.00    -0.269 OA
ATOM      6  C   UNL     1       2.321  -0.024   0.150  1.00  0.00     0.251 C 
ATOM      7  H   UNL     1       2.522   0.359  -1.815  1.00  0.00     0.163 HD
BRANCH   6   8
ATOM      8  C   UNL     1       3.047  -0.300   1.410  1.00  0.00     0.039 A 
ATOM      9  C   UNL     1       4.199   0.421   1.737  1.00  0.00     0.014 A 
ATOM     10  C   UNL     1       2.598  -1.324   2.247  1.00  0.00     0.014 A 
ATOM     11  C   UNL     1       4.977   0.024   2.817  1.00  0.00     0.010 A 
ATOM     12  C   UNL     1       3.332  -1.657   3.389  1.00  0.00     0.010 A 
ATOM     13  C   UNL     1       4.543  -1.005   3.670  1.00  0.00    -0.014 A 
BRANCH  13  14
ATOM     14  C   UNL     1       5.336  -1.319   4.887  1.00  0.00     0.031 A 
ATOM     15  C   UNL     1       5.983  -2.664   5.080  1.00  0.00     0.074 A 
ATOM     16  C   UNL     1       5.495  -0.352   5.813  1.00  0.00     0.049 A 
ATOM     17  N   UNL     1       6.723  -3.082   6.077  1.00  0.00    -0.248 NA
ATOM     18  C   UNL     1       5.774  -3.672   4.028  1.00  0.00     0.031 C 
ATOM     19  C   UNL     1       4.909   0.990   5.739  1.00  0.00     0.029 A 
ATOM     20  N   UNL     1       6.211  -0.335   6.981  1.00  0.00    -0.354 N 
ATOM     21  C   UNL     1       7.059  -4.398   5.781  1.00  0.00     0.074 A 
ATOM     22  C   UNL     1       6.417  -4.721   4.525  1.00  0.00     0.031 C 
ATOM     23  C   UNL     1       5.330   1.714   6.785  1.00  0.00     0.029 A 
ATOM     24  C   UNL     1       6.155   0.871   7.640  1.00  0.00     0.049 A 
ATOM     25  H   UNL     1       6.716  -1.110   7.317  1.00  0.00     0.167 HD
ATOM     26  C   UNL     1       7.839  -5.254   6.487  1.00  0.00     0.031 A 
ATOM     27  C   UNL     1       6.688   1.256   8.814  1.00  0.00     0.031 A 
ATOM     28  C   UNL     1       8.466  -4.929   7.744  1.00  0.00     0.049 A 
ATOM     29  C   UNL     1       7.512   0.274   9.594  1.00  0.00     0.074 A 
ATOM     30  C   UNL     1       9.276  -5.727   8.534  1.00  0.00     0.029 A 
ATOM     31  N   UNL     1       8.355  -3.709   8.395  1.00  0.00    -0.354 N 
ATOM     32  N   UNL     1       7.831  -0.960   9.285  1.00  0.00    -0.248 NA
ATOM     33  C   UNL     1       8.050   0.737  10.879  1.00  0.00     0.031 C 
ATOM     34  C   UNL     1       9.617  -5.006   9.684  1.00  0.00     0.029 A 
ATOM     35  C   UNL     1       9.068  -3.738   9.583  1.00  0.00     0.049 A 
ATOM     36  H   UNL     1       7.845  -2.936   8.062  1.00  0.00     0.167 HD
ATOM     37  C   UNL     1       8.622  -1.416  10.332  1.00  0.00     0.074 A 
ATOM     38  C   UNL     1       8.754  -0.317  11.267  1.00  0.00     0.031 C 
ATOM     39  C   UNL     1       9.185  -2.637  10.506  1.00  0.00     0.031 A 
BRANCH  26  40
ATOM     40  C   UNL     1       8.050  -6.637   5.925  1.00  0.00    -0.014 A 
ATOM     41  C   UNL     1       8.861  -6.843   4.795  1.00  0.00     0.010 A 
ATOM     42  C   UNL     1       7.480  -7.752   6.568  1.00  0.00     0.010 A 
ATOM     43  C   UNL     1       9.071  -8.133   4.298  1.00  0.00     0.020 A 
ATOM     44  C   UNL     1       7.708  -9.046   6.090  1.00  0.00     0.020 A 
ATOM     45  C   UNL     1       8.490  -9.227   4.947  1.00  0.00     0.054 A 
BRANCH  45  46
ATOM     46  S   UNL     1       8.800 -10.890   4.293  1.00  0.00     0.124 S 
ATOM     47  O   UNL     1       7.993 -10.889   3.075  1.00  0.00    -0.237 OA
ATOM     48  O   UNL     1      10.246 -10.889   4.086  1.00  0.00    -0.237 OA
ATOM     49  O   UNL     1       8.325 -11.775   5.353  1.00  0.00    -0.744 OA
ENDBRANCH  45  46
ENDBRANCH  26  40
BRANCH  27  50
ATOM     50  C   UNL     1       6.429   2.627   9.330  1.00  0.00    -0.014 A 
ATOM     51  C   UNL     1       7.465   3.572   9.416  1.00  0.00     0.010 A 
ATOM     52  C   UNL     1       5.131   2.996   9.730  1.00  0.00     0.010 A 
ATOM     53  C   UNL     1       7.213   4.852   9.918  1.00  0.00     0.020 A 
ATOM     54  C   UNL     1       4.868   4.284  10.200  1.00  0.00     0.020 A 
ATOM     55  C   UNL     1       5.916   5.199  10.308  1.00  0.00     0.054 A 
BRANCH  55  56
ATOM     56  S   UNL     1       5.603   6.875  10.927  1.00  0.00     0.124 S 
ATOM     57  O   UNL     1       6.163   6.808  12.273  1.00  0.00    -0.237 OA
ATOM     58  O   UNL     1       6.335   7.706   9.975  1.00  0.00    -0.237 OA
ATOM     59  O   UNL     1       4.148   6.997  10.858  1.00  0.00    -0.744 OA
ENDBRANCH  55  56
ENDBRANCH  27  50
BRANCH  39  60
ATOM     60  C   UNL     1      10.021  -2.834  11.742  1.00  0.00    -0.014 A 
ATOM     61  C   UNL     1       9.430  -2.925  13.014  1.00  0.00     0.010 A 
ATOM     62  C   UNL     1      11.417  -2.952  11.623  1.00  0.00     0.010 A 
ATOM     63  C   UNL     1      10.225  -3.090  14.151  1.00  0.00     0.020 A 
ATOM     64  C   UNL     1      12.213  -3.146  12.754  1.00  0.00     0.020 A 
ATOM     65  C   UNL     1      11.612  -3.196  14.014  1.00  0.00     0.054 A 
BRANCH  65  66
ATOM     66  S   UNL     1      12.621  -3.438  15.501  1.00  0.00     0.124 S 
ATOM     67  O   UNL     1      12.600  -2.107  16.102  1.00  0.00    -0.237 OA
ATOM     68  O   UNL     1      11.882  -4.468  16.227  1.00  0.00    -0.237 OA
ATOM     69  O   UNL     1      13.916  -3.864  14.975  1.00  0.00    -0.744 OA
ENDBRANCH  65  66
ENDBRANCH  39  60
ENDBRANCH  13  14
ENDBRANCH   6   8
ENDBRANCH   3   4
ENDBRANCH   2   3
ENDBRANCH   1   2
BRANCH   1  70
ATOM     70  C   UNL     1       5.175   0.900  -4.004  1.00  0.00     0.002 C 
BRANCH  70  71
ATOM     71  C   UNL     1       6.641   0.985  -3.577  1.00  0.00     0.021 C 
BRANCH  71  72
ATOM     72  C   UNL     1       7.526  -0.074  -4.215  1.00  0.00     0.116 C 
BRANCH  72  73
ATOM     73  N   UNL     1       7.545  -0.029  -5.654  1.00  0.00    -0.354 N 
ATOM     74  C   UNL     1       8.277   0.986  -6.246  1.00  0.00     0.248 C 
ATOM     75  H   UNL     1       7.058  -0.692  -6.194  1.00  0.00     0.163 HD
ATOM     76  O   UNL     1       8.145   2.168  -5.942  1.00  0.00    -0.272 OA
BRANCH  74  77
ATOM     77  C   UNL     1       9.504   0.463  -6.957  1.00  0.00     0.231 C 
ATOM     78  C   UNL     1      10.360   1.538  -7.654  1.00  0.00     0.296 C 
ATOM     79  N   UNL     1       9.561  -0.825  -7.658  1.00  0.00    -0.302 N 
ATOM     80  N   UNL     1      11.785   1.116  -7.761  1.00  0.00    -0.343 N 
ATOM     81  C   UNL     1      10.970  -1.292  -7.689  1.00  0.00     0.183 C 
ATOM     82  C   UNL     1      11.876  -0.230  -8.365  1.00  0.00     0.282 C 
ATOM     83  H   UNL     1      12.202   1.097  -6.830  1.00  0.00     0.346 HD
ATOM     84  H   UNL     1      12.285   1.780  -8.353  1.00  0.00     0.346 HD
BRANCH  79  85
ATOM     85  C   UNL     1       8.764  -1.369  -8.594  1.00  0.00     0.318 C 
ATOM     86  O   UNL     1       9.177  -2.312  -9.290  1.00  0.00    -0.249 OA
ATOM     87  N   UNL     1       7.516  -1.101  -8.913  1.00  0.00    -0.333 N 
ATOM     88  H   UNL     1       7.409  -1.602  -9.754  1.00  0.00     0.165 HD
BRANCH  87  89
ATOM     89  C   UNL     1       6.174  -0.487  -8.748  1.00  0.00     0.112 C 
ATOM     90  C   UNL     1       5.600  -0.397 -10.171  1.00  0.00     0.056 C 
ATOM     91  C   UNL     1       5.904   0.956  -8.344  1.00  0.00     0.185 C 
ATOM     92  C   UNL     1       6.139   0.946 -10.634  1.00  0.00     0.162 C 
ATOM     93  O   UNL     1       6.154   1.790  -9.481  1.00  0.00    -0.379 OA
ENDBRANCH  87  89
ENDBRANCH  79  85
ENDBRANCH  74  77
ENDBRANCH  72  73
ENDBRANCH  71  72
ENDBRANCH  70  71
ENDBRANCH   1  70
TORSDOF 18
