REMARK SMILES C[C@@H](C(=O)NCCCCCCNC(=O)c1ccc(-c2c3nc(c(-c4ccc(S(=O)(=O)[O-])cc4)c4ccc([nH]4)c(-c4ccc(S(=O)(=O)[O-])cc4)c4nc(c(-c5ccc(S(=O)(=O)[O-])cc5)c5ccc2[nH]5)C=C4)C=C3)cc1)c1cccn(C(F)F)c1=O
REMARK SMILES IDX 9 1 8 2 7 3 6 4 5 5 3 6 4 7 2 9 1 10 75 11 76 12 83 13 77 14
REMARK SMILES IDX 79 15 84 16 78 17 80 18 81 19 82 20 10 21 11 22 12 23 13 24
REMARK SMILES IDX 14 26 15 27 16 28 74 29 17 30 73 31 18 32 19 33 20 34 67 35
REMARK SMILES IDX 21 36 72 37 66 38 68 39 22 40 71 41 65 42 64 43 23 45 53 46
REMARK SMILES IDX 34 47 52 48 35 49 38 50 51 51 69 52 36 53 37 54 50 56 70 57
REMARK SMILES IDX 39 58 24 59 25 60 33 61 26 62 32 63 27 64 28 65 29 66 30 67
REMARK SMILES IDX 31 68 54 69 55 70 63 71 56 72 62 73 57 74 58 75 59 76 60 77
REMARK SMILES IDX 61 78 40 79 41 80 49 81 42 82 48 83 43 84 44 85 45 86 46 87
REMARK SMILES IDX 47 88
REMARK H PARENT 5 8 12 25 68 44 38 55
REMARK Flexibility Score: inf
ROOT
ATOM      1  C   UNL     1       5.817  -0.695  -3.208  1.00  0.00     0.002 C 
ENDROOT
BRANCH   1   2
ATOM      2  C   UNL     1       4.866  -1.506  -2.322  1.00  0.00     0.002 C 
BRANCH   2   3
ATOM      3  C   UNL     1       4.122  -0.697  -1.249  1.00  0.00     0.021 C 
BRANCH   3   4
ATOM      4  C   UNL     1       3.275   0.452  -1.802  1.00  0.00     0.116 C 
BRANCH   4   5
ATOM      5  N   UNL     1       2.176  -0.059  -2.598  1.00  0.00    -0.356 N 
ATOM      6  C   UNL     1       0.850  -0.171  -2.303  1.00  0.00     0.227 C 
ATOM      7  O   UNL     1       0.148  -0.758  -3.131  1.00  0.00    -0.274 OA
ATOM      8  H   UNL     1       2.429  -0.375  -3.495  1.00  0.00     0.163 HD
BRANCH   6   9
ATOM      9  C   UNL     1       0.291   0.436  -1.003  1.00  0.00     0.111 C 
ATOM     10  C   UNL     1       0.753  -0.307   0.254  1.00  0.00     0.023 C 
BRANCH   9  11
ATOM     11  C   UNL     1      -1.227   0.468  -1.059  1.00  0.00     0.030 A 
ATOM     12  C   UNL     1      -2.008  -0.628  -1.000  1.00  0.00     0.012 A 
ATOM     13  C   UNL     1      -1.893   1.812  -1.157  1.00  0.00     0.258 A 
ATOM     14  C   UNL     1      -3.442  -0.541  -1.027  1.00  0.00     0.019 A 
ATOM     15  N   UNL     1      -3.279   1.812  -1.155  1.00  0.00    -0.258 N 
ATOM     16  O   UNL     1      -1.219   2.838  -1.216  1.00  0.00    -0.269 OA
ATOM     17  C   UNL     1      -4.031   0.655  -1.095  1.00  0.00     0.095 A 
BRANCH  15  18
ATOM     18  C   UNL     1      -3.950   3.085  -1.212  1.00  0.00     0.451 C 
ATOM     19  F   UNL     1      -4.803   3.106  -2.272  1.00  0.00    -0.185 F 
ATOM     20  F   UNL     1      -4.728   3.236  -0.105  1.00  0.00    -0.185 F 
ENDBRANCH  15  18
ENDBRANCH   9  11
ENDBRANCH   6   9
ENDBRANCH   4   5
ENDBRANCH   3   4
ENDBRANCH   2   3
ENDBRANCH   1   2
BRANCH   1  21
ATOM     21  C   UNL     1       6.870   0.120  -2.454  1.00  0.00     0.021 C 
BRANCH  21  22
ATOM     22  C   UNL     1       7.803  -0.702  -1.570  1.00  0.00     0.116 C 
BRANCH  22  23
ATOM     23  N   UNL     1       8.622  -1.619  -2.344  1.00  0.00    -0.352 N 
ATOM     24  C   UNL     1       9.976  -1.827  -2.292  1.00  0.00     0.251 C 
ATOM     25  H   UNL     1       8.136  -2.170  -2.999  1.00  0.00     0.163 HD
ATOM     26  O   UNL     1      10.521  -2.509  -3.162  1.00  0.00    -0.269 OA
BRANCH  24  27
ATOM     27  C   UNL     1      10.786  -1.229  -1.208  1.00  0.00     0.039 A 
ATOM     28  C   UNL     1      12.031  -0.676  -1.522  1.00  0.00     0.014 A 
ATOM     29  C   UNL     1      10.341  -1.242   0.118  1.00  0.00     0.014 A 
ATOM     30  C   UNL     1      12.813  -0.110  -0.513  1.00  0.00     0.010 A 
ATOM     31  C   UNL     1      11.090  -0.614   1.110  1.00  0.00     0.010 A 
ATOM     32  C   UNL     1      12.343  -0.059   0.809  1.00  0.00    -0.014 A 
BRANCH  32  33
ATOM     33  C   UNL     1      13.166   0.538   1.893  1.00  0.00     0.031 A 
ATOM     34  C   UNL     1      13.679  -0.327   3.014  1.00  0.00     0.074 A 
ATOM     35  C   UNL     1      13.418   1.862   1.892  1.00  0.00     0.049 A 
ATOM     36  N   UNL     1      14.398   0.011   4.055  1.00  0.00    -0.248 NA
ATOM     37  C   UNL     1      13.317  -1.753   2.975  1.00  0.00     0.031 C 
ATOM     38  C   UNL     1      12.947   2.814   0.883  1.00  0.00     0.029 A 
ATOM     39  N   UNL     1      14.136   2.636   2.768  1.00  0.00    -0.354 N 
ATOM     40  C   UNL     1      14.551  -1.151   4.803  1.00  0.00     0.074 A 
ATOM     41  C   UNL     1      13.813  -2.191   4.123  1.00  0.00     0.031 C 
ATOM     42  C   UNL     1      13.419   4.036   1.179  1.00  0.00     0.029 A 
ATOM     43  C   UNL     1      14.196   3.963   2.412  1.00  0.00     0.049 A 
ATOM     44  H   UNL     1      14.569   2.275   3.576  1.00  0.00     0.167 HD
ATOM     45  C   UNL     1      15.258  -1.340   5.944  1.00  0.00     0.031 A 
ATOM     46  C   UNL     1      14.812   5.002   3.008  1.00  0.00     0.031 A 
ATOM     47  C   UNL     1      16.011  -0.309   6.606  1.00  0.00     0.049 A 
ATOM     48  C   UNL     1      15.601   4.764   4.267  1.00  0.00     0.074 A 
ATOM     49  C   UNL     1      16.816  -0.415   7.727  1.00  0.00     0.029 A 
ATOM     50  N   UNL     1      16.052   1.019   6.207  1.00  0.00    -0.354 N 
ATOM     51  N   UNL     1      15.792   3.643   4.921  1.00  0.00    -0.248 NA
ATOM     52  C   UNL     1      16.271   5.931   4.857  1.00  0.00     0.031 C 
ATOM     53  C   UNL     1      17.306   0.859   8.034  1.00  0.00     0.029 A 
ATOM     54  C   UNL     1      16.852   1.747   7.072  1.00  0.00     0.049 A 
ATOM     55  H   UNL     1      15.583   1.389   5.425  1.00  0.00     0.167 HD
ATOM     56  C   UNL     1      16.633   3.963   5.981  1.00  0.00     0.074 A 
ATOM     57  C   UNL     1      16.921   5.379   5.874  1.00  0.00     0.031 C 
ATOM     58  C   UNL     1      17.129   3.156   6.952  1.00  0.00     0.031 A 
BRANCH  45  59
ATOM     59  C   UNL     1      15.236  -2.718   6.554  1.00  0.00    -0.014 A 
ATOM     60  C   UNL     1      15.883  -3.803   5.933  1.00  0.00     0.010 A 
ATOM     61  C   UNL     1      14.580  -2.927   7.780  1.00  0.00     0.010 A 
ATOM     62  C   UNL     1      15.829  -5.079   6.499  1.00  0.00     0.020 A 
ATOM     63  C   UNL     1      14.549  -4.196   8.366  1.00  0.00     0.020 A 
ATOM     64  C   UNL     1      15.156  -5.269   7.710  1.00  0.00     0.054 A 
BRANCH  64  65
ATOM     65  S   UNL     1      15.107  -6.934   8.428  1.00  0.00     0.124 S 
ATOM     66  O   UNL     1      14.140  -7.605   7.562  1.00  0.00    -0.237 OA
ATOM     67  O   UNL     1      16.489  -7.384   8.292  1.00  0.00    -0.237 OA
ATOM     68  O   UNL     1      14.661  -6.707   9.800  1.00  0.00    -0.744 OA
ENDBRANCH  64  65
ENDBRANCH  45  59
BRANCH  46  69
ATOM     69  C   UNL     1      14.742   6.357   2.397  1.00  0.00    -0.014 A 
ATOM     70  C   UNL     1      15.878   6.919   1.787  1.00  0.00     0.010 A 
ATOM     71  C   UNL     1      13.541   7.088   2.411  1.00  0.00     0.010 A 
ATOM     72  C   UNL     1      15.819   8.194   1.218  1.00  0.00     0.020 A 
ATOM     73  C   UNL     1      13.471   8.353   1.820  1.00  0.00     0.020 A 
ATOM     74  C   UNL     1      14.615   8.903   1.237  1.00  0.00     0.054 A 
BRANCH  74  75
ATOM     75  S   UNL     1      14.548  10.536   0.448  1.00  0.00     0.124 S 
ATOM     76  O   UNL     1      15.270  11.366   1.406  1.00  0.00    -0.237 OA
ATOM     77  O   UNL     1      15.227  10.299  -0.824  1.00  0.00    -0.237 OA
ATOM     78  O   UNL     1      13.116  10.803   0.339  1.00  0.00    -0.744 OA
ENDBRANCH  74  75
ENDBRANCH  46  69
BRANCH  58  79
ATOM     79  C   UNL     1      18.069   3.775   7.952  1.00  0.00    -0.014 A 
ATOM     80  C   UNL     1      17.607   4.660   8.942  1.00  0.00     0.010 A 
ATOM     81  C   UNL     1      19.432   3.430   7.923  1.00  0.00     0.010 A 
ATOM     82  C   UNL     1      18.499   5.220   9.860  1.00  0.00     0.020 A 
ATOM     83  C   UNL     1      20.323   3.965   8.856  1.00  0.00     0.020 A 
ATOM     84  C   UNL     1      19.853   4.871   9.809  1.00  0.00     0.054 A 
BRANCH  84  85
ATOM     85  S   UNL     1      20.988   5.586  11.030  1.00  0.00     0.124 S 
ATOM     86  O   UNL     1      21.149   6.949  10.531  1.00  0.00    -0.237 OA
ATOM     87  O   UNL     1      20.240   5.457  12.278  1.00  0.00    -0.237 OA
ATOM     88  O   UNL     1      22.177   4.742  10.933  1.00  0.00    -0.744 OA
ENDBRANCH  84  85
ENDBRANCH  58  79
ENDBRANCH  32  33
ENDBRANCH  24  27
ENDBRANCH  22  23
ENDBRANCH  21  22
ENDBRANCH   1  21
TORSDOF 18
