REMARK SMILES O=C(NCCCCCCNC(=O)[C@@H]1CCc2[nH]ncc2C1)c1ccc(-c2c3nc(c(-c4ccc(S(=O)(=O)[O-])cc4)c4ccc([nH]4)c(-c4ccc(S(=O)(=O)[O-])cc4)c4nc(c(-c5ccc(S(=O)(=O)[O-])cc5)c5ccc2[nH]5)C=C4)C=C3)cc1
REMARK SMILES IDX 5 1 4 2 3 3 1 4 2 5 22 7 23 8 81 9 24 10 80 11 25 12 26 13
REMARK SMILES IDX 27 14 74 15 28 16 79 17 73 18 75 19 29 20 78 21 72 22 71 23
REMARK SMILES IDX 30 25 60 26 41 27 59 28 42 29 45 30 58 31 76 32 43 33 44 34
REMARK SMILES IDX 57 36 77 37 46 38 31 39 32 40 40 41 33 42 39 43 34 44 35 45
REMARK SMILES IDX 36 46 37 47 38 48 61 49 62 50 70 51 63 52 69 53 64 54 65 55
REMARK SMILES IDX 66 56 67 57 68 58 47 59 48 60 56 61 49 62 55 63 50 64 51 65
REMARK SMILES IDX 52 66 53 67 54 68 6 69 7 70 8 71 9 72 10 73 11 74 12 76
REMARK SMILES IDX 13 77 14 78 21 79 15 80 20 81 16 82 19 83 17 84 18 85
REMARK H PARENT 3 6 75 24 45 35 10 75 17 86
REMARK Flexibility Score: inf
ROOT
ATOM      1  C   UNL     1       4.535   2.396  -1.278  1.00  0.00     0.021 C 
ENDROOT
BRANCH   1   2
ATOM      2  C   UNL     1       4.284   1.396  -0.157  1.00  0.00     0.116 C 
BRANCH   2   3
ATOM      3  N   UNL     1       2.874   1.152   0.082  1.00  0.00    -0.352 N 
ATOM      4  O   UNL     1       0.966  -0.041   0.179  1.00  0.00    -0.269 OA
ATOM      5  C   UNL     1       2.186  -0.040   0.095  1.00  0.00     0.251 C 
ATOM      6  H   UNL     1       2.332   1.954   0.261  1.00  0.00     0.163 HD
BRANCH   5   7
ATOM      7  C   UNL     1       2.927  -1.318  -0.018  1.00  0.00     0.039 A 
ATOM      8  C   UNL     1       4.082  -1.548   0.735  1.00  0.00     0.014 A 
ATOM      9  C   UNL     1       2.446  -2.308  -0.881  1.00  0.00     0.014 A 
ATOM     10  C   UNL     1       4.822  -2.708   0.531  1.00  0.00     0.010 A 
ATOM     11  C   UNL     1       3.147  -3.509  -1.022  1.00  0.00     0.010 A 
ATOM     12  C   UNL     1       4.353  -3.711  -0.333  1.00  0.00    -0.014 A 
BRANCH  12  13
ATOM     13  C   UNL     1       5.095  -4.994  -0.433  1.00  0.00     0.031 A 
ATOM     14  C   UNL     1       5.746  -5.426  -1.718  1.00  0.00     0.074 A 
ATOM     15  C   UNL     1       5.186  -5.769   0.667  1.00  0.00     0.049 A 
ATOM     16  N   UNL     1       6.435  -6.511  -1.964  1.00  0.00    -0.248 NA
ATOM     17  C   UNL     1       5.605  -4.531  -2.878  1.00  0.00     0.031 C 
ATOM     18  C   UNL     1       4.585  -5.458   1.968  1.00  0.00     0.029 A 
ATOM     19  N   UNL     1       5.825  -6.964   0.876  1.00  0.00    -0.354 N 
ATOM     20  C   UNL     1       6.794  -6.443  -3.305  1.00  0.00     0.074 A 
ATOM     21  C   UNL     1       6.229  -5.217  -3.828  1.00  0.00     0.031 C 
ATOM     22  C   UNL     1       4.921  -6.413   2.848  1.00  0.00     0.029 A 
ATOM     23  C   UNL     1       5.702  -7.435   2.162  1.00  0.00     0.049 A 
ATOM     24  H   UNL     1       6.324  -7.439   0.173  1.00  0.00     0.167 HD
ATOM     25  C   UNL     1       7.528  -7.321  -4.031  1.00  0.00     0.031 A 
ATOM     26  C   UNL     1       6.147  -8.572   2.727  1.00  0.00     0.031 A 
ATOM     27  C   UNL     1       8.085  -8.540  -3.502  1.00  0.00     0.049 A 
ATOM     28  C   UNL     1       6.933  -9.540   1.891  1.00  0.00     0.074 A 
ATOM     29  C   UNL     1       8.870  -9.479  -4.151  1.00  0.00     0.029 A 
ATOM     30  N   UNL     1       7.915  -8.994  -2.202  1.00  0.00    -0.354 N 
ATOM     31  N   UNL     1       7.291  -9.437   0.634  1.00  0.00    -0.248 NA
ATOM     32  C   UNL     1       7.377 -10.775   2.550  1.00  0.00     0.031 C 
ATOM     33  C   UNL     1       9.129 -10.525  -3.259  1.00  0.00     0.029 A 
ATOM     34  C   UNL     1       8.558 -10.210  -2.037  1.00  0.00     0.049 A 
ATOM     35  H   UNL     1       7.412  -8.522  -1.501  1.00  0.00     0.167 HD
ATOM     36  C   UNL     1       8.019 -10.587   0.355  1.00  0.00     0.074 A 
ATOM     37  C   UNL     1       8.067 -11.359   1.580  1.00  0.00     0.031 C 
ATOM     38  C   UNL     1       8.594 -10.968  -0.812  1.00  0.00     0.031 A 
BRANCH  25  39
ATOM     39  C   UNL     1       7.758  -7.014  -5.488  1.00  0.00    -0.014 A 
ATOM     40  C   UNL     1       8.638  -5.992  -5.888  1.00  0.00     0.010 A 
ATOM     41  C   UNL     1       7.139  -7.807  -6.473  1.00  0.00     0.010 A 
ATOM     42  C   UNL     1       8.872  -5.751  -7.246  1.00  0.00     0.020 A 
ATOM     43  C   UNL     1       7.389  -7.585  -7.831  1.00  0.00     0.020 A 
ATOM     44  C   UNL     1       8.244  -6.548  -8.209  1.00  0.00     0.054 A 
BRANCH  44  45
ATOM     45  S   UNL     1       8.593  -6.233  -9.962  1.00  0.00     0.124 S 
ATOM     46  O   UNL     1       7.868  -4.986 -10.193  1.00  0.00    -0.237 OA
ATOM     47  O   UNL     1      10.050  -6.125  -9.984  1.00  0.00    -0.237 OA
ATOM     48  O   UNL     1       8.047  -7.406 -10.641  1.00  0.00    -0.744 OA
ENDBRANCH  44  45
ENDBRANCH  25  39
BRANCH  26  49
ATOM     49  C   UNL     1       5.838  -8.859   4.154  1.00  0.00    -0.014 A 
ATOM     50  C   UNL     1       6.853  -8.850   5.125  1.00  0.00     0.010 A 
ATOM     51  C   UNL     1       4.514  -9.125   4.550  1.00  0.00     0.010 A 
ATOM     52  C   UNL     1       6.553  -9.121   6.463  1.00  0.00     0.020 A 
ATOM     53  C   UNL     1       4.205  -9.366   5.890  1.00  0.00     0.020 A 
ATOM     54  C   UNL     1       5.230  -9.377   6.837  1.00  0.00     0.054 A 
BRANCH  54  55
ATOM     55  S   UNL     1       4.856  -9.683   8.585  1.00  0.00     0.124 S 
ATOM     56  O   UNL     1       5.346 -11.046   8.765  1.00  0.00    -0.237 OA
ATOM     57  O   UNL     1       5.622  -8.639   9.261  1.00  0.00    -0.237 OA
ATOM     58  O   UNL     1       3.405  -9.523   8.656  1.00  0.00    -0.744 OA
ENDBRANCH  54  55
ENDBRANCH  26  49
BRANCH  38  59
ATOM     59  C   UNL     1       9.354 -12.267  -0.809  1.00  0.00    -0.014 A 
ATOM     60  C   UNL     1       8.685 -13.503  -0.754  1.00  0.00     0.010 A 
ATOM     61  C   UNL     1      10.757 -12.248  -0.904  1.00  0.00     0.010 A 
ATOM     62  C   UNL     1       9.410 -14.697  -0.760  1.00  0.00     0.020 A 
ATOM     63  C   UNL     1      11.483 -13.441  -0.939  1.00  0.00     0.020 A 
ATOM     64  C   UNL     1      10.805 -14.658  -0.852  1.00  0.00     0.054 A 
BRANCH  64  65
ATOM     65  S   UNL     1      11.721 -16.223  -0.898  1.00  0.00     0.124 S 
ATOM     66  O   UNL     1      11.643 -16.662   0.492  1.00  0.00    -0.237 OA
ATOM     67  O   UNL     1      10.952 -17.017  -1.853  1.00  0.00    -0.237 OA
ATOM     68  O   UNL     1      13.053 -15.831  -1.354  1.00  0.00    -0.744 OA
ENDBRANCH  64  65
ENDBRANCH  38  59
ENDBRANCH  12  13
ENDBRANCH   5   7
ENDBRANCH   2   3
ENDBRANCH   1   2
BRANCH   1  69
ATOM     69  C   UNL     1       4.010   3.812  -1.040  1.00  0.00     0.002 C 
BRANCH  69  70
ATOM     70  C   UNL     1       4.409   4.479   0.278  1.00  0.00     0.002 C 
BRANCH  70  71
ATOM     71  C   UNL     1       5.894   4.466   0.647  1.00  0.00     0.021 C 
BRANCH  71  72
ATOM     72  C   UNL     1       6.876   4.984  -0.397  1.00  0.00     0.116 C 
BRANCH  72  73
ATOM     73  N   UNL     1       6.629   6.346  -0.818  1.00  0.00    -0.356 N 
ATOM     74  C   UNL     1       7.514   7.320  -1.175  1.00  0.00     0.223 C 
ATOM     75  H   UNL     1       5.681   6.608  -0.853  1.00  0.00     0.163 HD
ATOM     76  O   UNL     1       7.043   8.366  -1.628  1.00  0.00    -0.275 OA
BRANCH  74  77
ATOM     77  C   UNL     1       9.013   7.147  -0.931  1.00  0.00     0.083 C 
ATOM     78  C   UNL     1       9.762   8.475  -1.277  1.00  0.00     0.020 C 
ATOM     79  C   UNL     1       9.651   5.988  -1.739  1.00  0.00     0.052 C 
ATOM     80  C   UNL     1      11.265   8.457  -0.927  1.00  0.00     0.057 C 
ATOM     81  C   UNL     1      11.117   5.971  -1.488  1.00  0.00    -0.006 A 
ATOM     82  C   UNL     1      11.820   7.102  -1.145  1.00  0.00     0.038 A 
ATOM     83  C   UNL     1      12.072   4.940  -1.457  1.00  0.00     0.138 A 
ATOM     84  N   UNL     1      13.113   6.716  -0.969  1.00  0.00    -0.282 N 
ATOM     85  N   UNL     1      13.290   5.394  -1.142  1.00  0.00    -0.184 NA
ATOM     86  H   UNL     1      13.841   7.338  -0.739  1.00  0.00     0.190 HD
ENDBRANCH  74  77
ENDBRANCH  72  73
ENDBRANCH  71  72
ENDBRANCH  70  71
ENDBRANCH  69  70
ENDBRANCH   1  69
TORSDOF 16
