REMARK SMILES Cc1nn(C)c(=O)c(C(=O)N2CCCC[C@H]2C(=O)NCCCCCCNC(=O)c2ccc(-c3c4nc(c(-c5ccc(S(=O)(=O)[O-])cc5)c5ccc([nH]5)c(-c5ccc(S(=O)(=O)[O-])cc5)c5nc(c(-c6ccc(S(=O)(=O)[O-])cc6)c6ccc3[nH]6)C=C5)C=C4)cc2)c1C
REMARK SMILES IDX 23 1 22 2 21 3 20 4 19 5 17 6 18 7 16 9 11 10 12 11 13 12
REMARK SMILES IDX 15 13 14 14 9 15 10 16 8 17 1 18 2 19 3 20 89 21 4 22 90 23
REMARK SMILES IDX 5 24 6 25 7 26 24 27 25 28 26 29 27 30 28 32 29 33 30 34
REMARK SMILES IDX 88 35 31 36 87 37 32 38 33 39 34 40 81 41 35 42 86 43 80 44
REMARK SMILES IDX 82 45 36 46 85 47 79 48 78 49 37 51 67 52 48 53 66 54 49 55
REMARK SMILES IDX 52 56 65 57 83 58 50 59 51 60 64 62 84 63 53 64 38 65 39 66
REMARK SMILES IDX 47 67 40 68 46 69 41 70 42 71 43 72 44 73 45 74 68 75 69 76
REMARK SMILES IDX 77 77 70 78 76 79 71 80 72 81 73 82 74 83 75 84 54 85 55 86
REMARK SMILES IDX 63 87 56 88 62 89 57 90 58 91 59 92 60 93 61 94
REMARK H PARENT 19 8 26 31 82 50 52 61
REMARK Flexibility Score: inf
ROOT
ATOM      1  C   UNL     1      -2.764   4.837   4.256  1.00  0.00     0.002 C 
ENDROOT
BRANCH   1   2
ATOM      2  C   UNL     1      -2.787   3.423   4.832  1.00  0.00     0.002 C 
BRANCH   2   3
ATOM      3  C   UNL     1      -4.140   2.701   4.751  1.00  0.00     0.021 C 
BRANCH   3   4
ATOM      4  C   UNL     1      -4.684   2.483   3.336  1.00  0.00     0.116 C 
BRANCH   4   5
ATOM      5  N   UNL     1      -3.860   1.659   2.467  1.00  0.00    -0.354 N 
ATOM      6  C   UNL     1      -3.261   0.527   2.964  1.00  0.00     0.242 C 
ATOM      7  O   UNL     1      -2.373   0.627   3.809  1.00  0.00    -0.273 OA
ATOM      8  H   UNL     1      -3.731   1.911   1.524  1.00  0.00     0.163 HD
BRANCH   6   9
ATOM      9  C   UNL     1      -3.669  -0.830   2.329  1.00  0.00     0.174 C 
ATOM     10  N   UNL     1      -2.934  -1.938   2.979  1.00  0.00    -0.326 N 
ATOM     11  C   UNL     1      -3.275  -2.146   4.404  1.00  0.00     0.120 C 
ATOM     12  C   UNL     1      -4.775  -2.261   4.660  1.00  0.00     0.022 C 
ATOM     13  C   UNL     1      -5.187  -1.038   2.506  1.00  0.00     0.035 C 
ATOM     14  C   UNL     1      -5.571  -1.154   3.982  1.00  0.00     0.004 C 
BRANCH  10  15
ATOM     15  C   UNL     1      -2.095  -2.885   2.405  1.00  0.00     0.260 C 
ATOM     16  O   UNL     1      -2.102  -4.014   2.916  1.00  0.00    -0.269 OA
BRANCH  15  17
ATOM     17  C   UNL     1      -1.058  -2.646   1.296  1.00  0.00     0.111 A 
ATOM     18  C   UNL     1       1.524  -0.341  -0.359  1.00  0.00     0.069 C 
ATOM     19  C   UNL     1       0.807  -1.596   0.106  1.00  0.00     0.062 A 
ATOM     20  N   UNL     1       1.372  -2.700  -0.242  1.00  0.00    -0.175 NA
ATOM     21  C   UNL     1      -0.431  -1.494   0.952  1.00  0.00    -0.010 A 
ATOM     22  N   UNL     1       0.759  -3.857   0.101  1.00  0.00    -0.232 N 
ATOM     23  C   UNL     1      -0.730  -0.126   1.448  1.00  0.00     0.047 C 
ATOM     24  C   UNL     1       1.463  -5.059  -0.312  1.00  0.00     0.178 C 
ATOM     25  C   UNL     1      -0.503  -3.925   0.676  1.00  0.00     0.279 A 
ATOM     26  O   UNL     1      -1.145  -4.976   0.674  1.00  0.00    -0.267 OA
ENDBRANCH  15  17
ENDBRANCH  10  15
ENDBRANCH   6   9
ENDBRANCH   4   5
ENDBRANCH   3   4
ENDBRANCH   2   3
ENDBRANCH   1   2
BRANCH   1  27
ATOM     27  C   UNL     1      -3.865   5.750   4.784  1.00  0.00     0.021 C 
BRANCH  27  28
ATOM     28  C   UNL     1      -3.923   5.836   6.303  1.00  0.00     0.116 C 
BRANCH  28  29
ATOM     29  N   UNL     1      -2.789   6.557   6.855  1.00  0.00    -0.352 N 
ATOM     30  C   UNL     1      -2.780   7.761   7.521  1.00  0.00     0.251 C 
ATOM     31  H   UNL     1      -1.911   6.127   6.738  1.00  0.00     0.163 HD
ATOM     32  O   UNL     1      -1.728   8.336   7.753  1.00  0.00    -0.269 OA
BRANCH  30  33
ATOM     33  C   UNL     1      -4.072   8.363   7.918  1.00  0.00     0.039 A 
ATOM     34  C   UNL     1      -4.323   9.697   7.595  1.00  0.00     0.014 A 
ATOM     35  C   UNL     1      -5.044   7.595   8.565  1.00  0.00     0.014 A 
ATOM     36  C   UNL     1      -5.577  10.243   7.872  1.00  0.00     0.010 A 
ATOM     37  C   UNL     1      -6.321   8.113   8.753  1.00  0.00     0.010 A 
ATOM     38  C   UNL     1      -6.596   9.447   8.424  1.00  0.00    -0.014 A 
BRANCH  38  39
ATOM     39  C   UNL     1      -7.940  10.021   8.692  1.00  0.00     0.031 A 
ATOM     40  C   UNL     1      -8.439  10.134  10.107  1.00  0.00     0.074 A 
ATOM     41  C   UNL     1      -8.708  10.438   7.665  1.00  0.00     0.049 A 
ATOM     42  N   UNL     1      -9.552  10.664  10.543  1.00  0.00    -0.248 NA
ATOM     43  C   UNL     1      -7.590   9.566  11.168  1.00  0.00     0.031 C 
ATOM     44  C   UNL     1      -8.353  10.340   6.247  1.00  0.00     0.029 A 
ATOM     45  N   UNL     1      -9.939  11.046   7.656  1.00  0.00    -0.354 N 
ATOM     46  C   UNL     1      -9.532  10.499  11.923  1.00  0.00     0.074 A 
ATOM     47  C   UNL     1      -8.337   9.754  12.246  1.00  0.00     0.031 C 
ATOM     48  C   UNL     1      -9.316  10.920   5.512  1.00  0.00     0.029 A 
ATOM     49  C   UNL     1     -10.372  11.399   6.399  1.00  0.00     0.049 A 
ATOM     50  H   UNL     1     -10.463  11.213   8.473  1.00  0.00     0.167 HD
ATOM     51  C   UNL     1     -10.407  10.961  12.845  1.00  0.00     0.031 A 
ATOM     52  C   UNL     1     -11.487  12.048   6.005  1.00  0.00     0.031 A 
ATOM     53  C   UNL     1     -11.588  11.713  12.524  1.00  0.00     0.049 A 
ATOM     54  C   UNL     1     -12.470  12.513   7.045  1.00  0.00     0.074 A 
ATOM     55  C   UNL     1     -12.511  12.270  13.389  1.00  0.00     0.029 A 
ATOM     56  N   UNL     1     -12.009  12.011  11.237  1.00  0.00    -0.354 N 
ATOM     57  N   UNL     1     -12.387  12.424   8.351  1.00  0.00    -0.248 NA
ATOM     58  C   UNL     1     -13.695  13.166   6.562  1.00  0.00     0.031 C 
ATOM     59  C   UNL     1     -13.524  12.853  12.624  1.00  0.00     0.029 A 
ATOM     60  C   UNL     1     -13.202  12.710  11.284  1.00  0.00     0.049 A 
ATOM     61  H   UNL     1     -11.531  11.762  10.414  1.00  0.00     0.167 HD
ATOM     62  C   UNL     1     -13.542  13.019   8.846  1.00  0.00     0.074 A 
ATOM     63  C   UNL     1     -14.297  13.484   7.701  1.00  0.00     0.031 C 
ATOM     64  C   UNL     1     -13.942  13.161  10.133  1.00  0.00     0.031 A 
BRANCH  51  65
ATOM     65  C   UNL     1     -10.108  10.682  14.293  1.00  0.00    -0.014 A 
ATOM     66  C   UNL     1      -9.035  11.322  14.941  1.00  0.00     0.010 A 
ATOM     67  C   UNL     1     -10.934   9.814  15.030  1.00  0.00     0.010 A 
ATOM     68  C   UNL     1      -8.772  11.072  16.290  1.00  0.00     0.020 A 
ATOM     69  C   UNL     1     -10.691   9.583  16.387  1.00  0.00     0.020 A 
ATOM     70  C   UNL     1      -9.603  10.204  17.004  1.00  0.00     0.054 A 
BRANCH  70  71
ATOM     71  S   UNL     1      -9.251   9.924  18.761  1.00  0.00     0.124 S 
ATOM     72  O   UNL     1      -8.004   9.165  18.701  1.00  0.00    -0.237 OA
ATOM     73  O   UNL     1      -9.134  11.284  19.282  1.00  0.00    -0.237 OA
ATOM     74  O   UNL     1     -10.412   9.175  19.234  1.00  0.00    -0.744 OA
ENDBRANCH  70  71
ENDBRANCH  51  65
BRANCH  52  75
ATOM     75  C   UNL     1     -11.716  12.320   4.558  1.00  0.00    -0.014 A 
ATOM     76  C   UNL     1     -11.635  13.632   4.059  1.00  0.00     0.010 A 
ATOM     77  C   UNL     1     -11.991  11.266   3.667  1.00  0.00     0.010 A 
ATOM     78  C   UNL     1     -11.830  13.886   2.697  1.00  0.00     0.020 A 
ATOM     79  C   UNL     1     -12.161  11.513   2.301  1.00  0.00     0.020 A 
ATOM     80  C   UNL     1     -12.086  12.823   1.826  1.00  0.00     0.054 A 
BRANCH  80  81
ATOM     81  S   UNL     1     -12.275  13.172   0.055  1.00  0.00     0.124 S 
ATOM     82  O   UNL     1     -13.548  13.884   0.019  1.00  0.00    -0.237 OA
ATOM     83  O   UNL     1     -11.090  13.976  -0.233  1.00  0.00    -0.237 OA
ATOM     84  O   UNL     1     -12.283  11.845  -0.557  1.00  0.00    -0.744 OA
ENDBRANCH  80  81
ENDBRANCH  52  75
BRANCH  64  85
ATOM     85  C   UNL     1     -15.264  13.832  10.392  1.00  0.00    -0.014 A 
ATOM     86  C   UNL     1     -16.468  13.146  10.160  1.00  0.00     0.010 A 
ATOM     87  C   UNL     1     -15.299  15.100  11.002  1.00  0.00     0.010 A 
ATOM     88  C   UNL     1     -17.686  13.712  10.543  1.00  0.00     0.020 A 
ATOM     89  C   UNL     1     -16.513  15.658  11.409  1.00  0.00     0.020 A 
ATOM     90  C   UNL     1     -17.699  14.958  11.178  1.00  0.00     0.054 A 
BRANCH  90  91
ATOM     91  S   UNL     1     -19.287  15.615  11.760  1.00  0.00     0.124 S 
ATOM     92  O   UNL     1     -19.972  15.915  10.506  1.00  0.00    -0.237 OA
ATOM     93  O   UNL     1     -19.833  14.494  12.522  1.00  0.00    -0.237 OA
ATOM     94  O   UNL     1     -18.910  16.779  12.558  1.00  0.00    -0.744 OA
ENDBRANCH  90  91
ENDBRANCH  64  85
ENDBRANCH  38  39
ENDBRANCH  30  33
ENDBRANCH  28  29
ENDBRANCH  27  28
ENDBRANCH   1  27
TORSDOF 18
