REMARK SMILES CNc1nccc(-c2cc(C(=O)NCCCCCCNC(=O)c3ccc(-c4c5nc(c(-c6ccc(S(=O)(=O)[O-])cc6)c6ccc([nH]6)c(-c6ccc(S(=O)(=O)[O-])cc6)c6nc(c(-c7ccc(S(=O)(=O)[O-])cc7)c7ccc4[nH]7)C=C6)C=C5)cc3)ccn2)n1
REMARK SMILES IDX 17 1 16 2 15 3 14 4 13 5 11 6 12 7 10 9 8 10 9 11 85 12
REMARK SMILES IDX 84 13 83 14 7 15 3 16 4 17 86 18 5 19 6 20 2 21 1 22 18 24
REMARK SMILES IDX 19 25 20 26 21 27 22 29 23 30 24 31 82 32 25 33 81 34 26 35
REMARK SMILES IDX 27 36 28 37 75 38 29 39 80 40 74 41 76 42 30 43 79 44 73 45
REMARK SMILES IDX 72 46 31 48 61 49 42 50 60 51 43 52 46 53 59 54 77 55 44 56
REMARK SMILES IDX 45 57 58 59 78 60 47 61 32 62 33 63 41 64 34 65 40 66 35 67
REMARK SMILES IDX 36 68 37 69 38 70 39 71 62 72 63 73 71 74 64 75 70 76 65 77
REMARK SMILES IDX 66 78 67 79 68 80 69 81 48 82 49 83 57 84 50 85 56 86 51 87
REMARK SMILES IDX 52 88 53 89 54 90 55 91
REMARK H PARENT 13 8 2 23 20 28 76 47 46 58
REMARK Flexibility Score: inf
ROOT
ATOM      1  C   UNL     1      -0.594   9.319   1.656  1.00  0.00     0.002 C 
ENDROOT
BRANCH   1   2
ATOM      2  C   UNL     1      -0.845   8.464   0.407  1.00  0.00     0.002 C 
BRANCH   2   3
ATOM      3  C   UNL     1      -1.151   6.986   0.689  1.00  0.00     0.021 C 
BRANCH   3   4
ATOM      4  C   UNL     1      -2.470   6.782   1.439  1.00  0.00     0.116 C 
BRANCH   4   5
ATOM      5  N   UNL     1      -3.582   6.836   0.508  1.00  0.00    -0.352 N 
ATOM      6  C   UNL     1      -4.360   5.877  -0.086  1.00  0.00     0.251 C 
ATOM      7  O   UNL     1      -5.234   6.258  -0.866  1.00  0.00    -0.269 OA
ATOM      8  H   UNL     1      -3.829   7.753   0.248  1.00  0.00     0.163 HD
BRANCH   6   9
ATOM      9  C   UNL     1      -4.265   4.425   0.225  1.00  0.00     0.043 A 
ATOM     10  C   UNL     1      -3.224   2.464   1.127  1.00  0.00     0.090 A 
ATOM     11  C   UNL     1      -3.121   3.781   0.685  1.00  0.00     0.044 A 
ATOM     12  N   UNL     1      -4.369   1.745   1.016  1.00  0.00    -0.255 NA
ATOM     13  C   UNL     1      -5.430   2.349   0.446  1.00  0.00     0.112 A 
ATOM     14  C   UNL     1      -5.434   3.676   0.064  1.00  0.00     0.034 A 
BRANCH  10  15
ATOM     15  C   UNL     1      -2.146   1.859   1.918  1.00  0.00     0.094 A 
ATOM     16  C   UNL     1      -0.228   0.605   1.986  1.00  0.00     0.222 A 
ATOM     17  N   UNL     1      -0.105   0.761   3.311  1.00  0.00    -0.222 NA
ATOM     18  N   UNL     1      -1.214   1.143   1.254  1.00  0.00    -0.211 NA
ATOM     19  C   UNL     1      -1.030   1.506   3.934  1.00  0.00     0.117 A 
ATOM     20  C   UNL     1      -2.084   2.084   3.281  1.00  0.00     0.051 A 
BRANCH  16  21
ATOM     21  N   UNL     1       0.772  -0.110   1.393  1.00  0.00    -0.357 N 
ATOM     22  C   UNL     1       0.953  -0.113  -0.027  1.00  0.00     0.143 C 
ATOM     23  H   UNL     1       1.384  -0.638   1.956  1.00  0.00     0.163 HD
ENDBRANCH  16  21
ENDBRANCH  10  15
ENDBRANCH   6   9
ENDBRANCH   4   5
ENDBRANCH   3   4
ENDBRANCH   2   3
ENDBRANCH   1   2
BRANCH   1  24
ATOM     24  C   UNL     1       0.522   8.814   2.576  1.00  0.00     0.021 C 
BRANCH  24  25
ATOM     25  C   UNL     1       1.899   8.741   1.922  1.00  0.00     0.116 C 
BRANCH  25  26
ATOM     26  N   UNL     1       2.378  10.057   1.531  1.00  0.00    -0.352 N 
ATOM     27  C   UNL     1       3.539  10.703   1.877  1.00  0.00     0.251 C 
ATOM     28  H   UNL     1       1.782  10.559   0.930  1.00  0.00     0.163 HD
ATOM     29  O   UNL     1       3.662  11.901   1.639  1.00  0.00    -0.269 OA
BRANCH  27  30
ATOM     30  C   UNL     1       4.633   9.963   2.542  1.00  0.00     0.039 A 
ATOM     31  C   UNL     1       5.307  10.569   3.606  1.00  0.00     0.014 A 
ATOM     32  C   UNL     1       5.020   8.694   2.100  1.00  0.00     0.014 A 
ATOM     33  C   UNL     1       6.333   9.882   4.258  1.00  0.00     0.010 A 
ATOM     34  C   UNL     1       6.000   7.984   2.792  1.00  0.00     0.010 A 
ATOM     35  C   UNL     1       6.671   8.573   3.874  1.00  0.00    -0.014 A 
BRANCH  35  36
ATOM     36  C   UNL     1       7.715   7.810   4.604  1.00  0.00     0.031 A 
ATOM     37  C   UNL     1       8.996   7.419   3.918  1.00  0.00     0.074 A 
ATOM     38  C   UNL     1       7.487   7.430   5.877  1.00  0.00     0.049 A 
ATOM     39  N   UNL     1      10.011   6.744   4.395  1.00  0.00    -0.248 NA
ATOM     40  C   UNL     1       9.149   7.819   2.510  1.00  0.00     0.031 C 
ATOM     41  C   UNL     1       6.265   7.707   6.636  1.00  0.00     0.029 A 
ATOM     42  N   UNL     1       8.272   6.728   6.756  1.00  0.00    -0.354 N 
ATOM     43  C   UNL     1      10.916   6.628   3.345  1.00  0.00     0.074 A 
ATOM     44  C   UNL     1      10.309   7.260   2.194  1.00  0.00     0.031 C 
ATOM     45  C   UNL     1       6.395   7.206   7.875  1.00  0.00     0.029 A 
ATOM     46  C   UNL     1       7.691   6.545   7.989  1.00  0.00     0.049 A 
ATOM     47  H   UNL     1       9.166   6.387   6.526  1.00  0.00     0.167 HD
ATOM     48  C   UNL     1      12.147   6.062   3.344  1.00  0.00     0.031 A 
ATOM     49  C   UNL     1       8.149   5.916   9.088  1.00  0.00     0.031 A 
ATOM     50  C   UNL     1      12.752   5.440   4.493  1.00  0.00     0.049 A 
ATOM     51  C   UNL     1       9.520   5.300   9.064  1.00  0.00     0.074 A 
ATOM     52  C   UNL     1      14.017   4.891   4.608  1.00  0.00     0.029 A 
ATOM     53  N   UNL     1      12.135   5.282   5.724  1.00  0.00    -0.354 N 
ATOM     54  N   UNL     1      10.388   5.262   8.081  1.00  0.00    -0.248 NA
ATOM     55  C   UNL     1       9.977   4.654  10.301  1.00  0.00     0.031 C 
ATOM     56  C   UNL     1      14.147   4.357   5.895  1.00  0.00     0.029 A 
ATOM     57  C   UNL     1      12.983   4.623   6.598  1.00  0.00     0.049 A 
ATOM     58  H   UNL     1      11.227   5.593   5.945  1.00  0.00     0.167 HD
ATOM     59  C   UNL     1      11.503   4.606   8.588  1.00  0.00     0.074 A 
ATOM     60  C   UNL     1      11.207   4.284   9.970  1.00  0.00     0.031 C 
ATOM     61  C   UNL     1      12.669   4.298   7.967  1.00  0.00     0.031 A 
BRANCH  48  62
ATOM     62  C   UNL     1      12.923   6.088   2.052  1.00  0.00    -0.014 A 
ATOM     63  C   UNL     1      13.448   7.291   1.546  1.00  0.00     0.010 A 
ATOM     64  C   UNL     1      13.162   4.891   1.354  1.00  0.00     0.010 A 
ATOM     65  C   UNL     1      14.161   7.302   0.343  1.00  0.00     0.020 A 
ATOM     66  C   UNL     1      13.898   4.893   0.165  1.00  0.00     0.020 A 
ATOM     67  C   UNL     1      14.377   6.103  -0.342  1.00  0.00     0.054 A 
BRANCH  67  68
ATOM     68  S   UNL     1      15.320   6.144  -1.891  1.00  0.00     0.124 S 
ATOM     69  O   UNL     1      14.354   6.733  -2.815  1.00  0.00    -0.237 OA
ATOM     70  O   UNL     1      16.460   6.991  -1.551  1.00  0.00    -0.237 OA
ATOM     71  O   UNL     1      15.642   4.741  -2.138  1.00  0.00    -0.744 OA
ENDBRANCH  67  68
ENDBRANCH  48  62
BRANCH  49  72
ATOM     72  C   UNL     1       7.306   5.859  10.313  1.00  0.00    -0.014 A 
ATOM     73  C   UNL     1       7.639   6.622  11.445  1.00  0.00     0.010 A 
ATOM     74  C   UNL     1       6.152   5.055  10.345  1.00  0.00     0.010 A 
ATOM     75  C   UNL     1       6.843   6.572  12.593  1.00  0.00     0.020 A 
ATOM     76  C   UNL     1       5.339   5.022  11.482  1.00  0.00     0.020 A 
ATOM     77  C   UNL     1       5.696   5.773  12.603  1.00  0.00     0.054 A 
BRANCH  77  78
ATOM     78  S   UNL     1       4.644   5.768  14.081  1.00  0.00     0.124 S 
ATOM     79  O   UNL     1       5.420   4.947  15.004  1.00  0.00    -0.237 OA
ATOM     80  O   UNL     1       4.558   7.188  14.414  1.00  0.00    -0.237 OA
ATOM     81  O   UNL     1       3.396   5.173  13.608  1.00  0.00    -0.744 OA
ENDBRANCH  77  78
ENDBRANCH  49  72
BRANCH  61  82
ATOM     82  C   UNL     1      13.717   3.593   8.785  1.00  0.00    -0.014 A 
ATOM     83  C   UNL     1      13.565   2.245   9.156  1.00  0.00     0.010 A 
ATOM     84  C   UNL     1      14.886   4.280   9.160  1.00  0.00     0.010 A 
ATOM     85  C   UNL     1      14.545   1.609   9.923  1.00  0.00     0.020 A 
ATOM     86  C   UNL     1      15.880   3.640   9.903  1.00  0.00     0.020 A 
ATOM     87  C   UNL     1      15.694   2.312  10.296  1.00  0.00     0.054 A 
BRANCH  87  88
ATOM     88  S   UNL     1      16.964   1.459  11.270  1.00  0.00     0.124 S 
ATOM     89  O   UNL     1      16.355   1.424  12.597  1.00  0.00    -0.237 OA
ATOM     90  O   UNL     1      17.075   0.168  10.595  1.00  0.00    -0.237 OA
ATOM     91  O   UNL     1      18.136   2.323  11.144  1.00  0.00    -0.744 OA
ENDBRANCH  87  88
ENDBRANCH  61  82
ENDBRANCH  35  36
ENDBRANCH  27  30
ENDBRANCH  25  26
ENDBRANCH  24  25
ENDBRANCH   1  24
TORSDOF 18
