REMARK SMILES O=C(COc1ccccc1/C=C1/SC(=O)N(c2ccc(F)cc2)C1=O)NCCCCCCNC(=O)c1ccc(-c2c3nc(c(-c4ccc(S(=O)(=O)[O-])cc4)c4ccc([nH]4)c(-c4ccc(S(=O)(=O)[O-])cc4)c4nc(c(-c5ccc(S(=O)(=O)[O-])cc5)c5ccc2[nH]5)C=C4)C=C3)cc1
REMARK SMILES IDX 29 1 28 2 27 3 26 4 1 5 2 6 3 8 4 9 5 10 6 11 10 12 7 13
REMARK SMILES IDX 9 14 8 15 11 16 12 17 13 18 24 19 14 20 16 21 25 22 15 23
REMARK SMILES IDX 17 24 18 25 23 26 19 27 22 28 20 29 21 30 30 31 31 32 32 33
REMARK SMILES IDX 33 34 34 35 35 37 36 38 37 39 95 40 38 41 94 42 39 43 40 44
REMARK SMILES IDX 41 45 88 46 42 47 93 48 87 49 89 50 43 51 92 52 86 53 85 54
REMARK SMILES IDX 44 56 74 57 55 58 73 59 56 60 59 61 72 62 90 63 57 64 58 65
REMARK SMILES IDX 71 67 91 68 60 69 45 70 46 71 54 72 47 73 53 74 48 75 49 76
REMARK SMILES IDX 50 77 51 78 52 79 75 80 76 81 84 82 77 83 83 84 78 85 79 86
REMARK SMILES IDX 80 87 81 88 82 89 61 90 62 91 70 92 63 93 69 94 64 95 65 96
REMARK SMILES IDX 66 97 67 98 68 99
REMARK H PARENT 26 7 33 36 89 55 59 66
REMARK Flexibility Score: inf
ROOT
ATOM      1  C   UNL     1       4.424   1.444   4.164  1.00  0.00     0.002 C 
ENDROOT
BRANCH   1   2
ATOM      2  C   UNL     1       3.029   1.299   3.531  1.00  0.00     0.021 C 
BRANCH   2   3
ATOM      3  C   UNL     1       2.848   1.672   1.854  1.00  0.00     0.116 C 
BRANCH   3   4
ATOM      4  N   UNL     1       3.241   0.466   0.183  1.00  0.00    -0.353 N 
ATOM      5  O   UNL     1       2.246  -1.712  -0.465  1.00  0.00    -0.271 OA
ATOM      6  C   UNL     1       2.937  -0.722  -0.680  1.00  0.00     0.257 C 
ATOM      7  H   UNL     1       4.013   0.895  -0.253  1.00  0.00     0.163 HD
BRANCH   6   8
ATOM      8  C   UNL     1       3.618  -0.601  -2.031  1.00  0.00     0.329 C 
BRANCH   8   9
ATOM      9  O   UNL     1       4.010   0.738  -2.258  1.00  0.00    -0.483 OA
BRANCH   9  10
ATOM     10  C   UNL     1       3.094   1.509  -2.937  1.00  0.00     0.127 A 
ATOM     11  C   UNL     1       3.636   2.009  -4.127  1.00  0.00     0.047 A 
ATOM     12  C   UNL     1       1.847   1.981  -2.437  1.00  0.00     0.018 A 
ATOM     13  C   UNL     1       2.983   3.012  -4.825  1.00  0.00     0.004 A 
ATOM     14  C   UNL     1       1.224   3.014  -3.151  1.00  0.00     0.012 A 
ATOM     15  C   UNL     1       1.794   3.532  -4.324  1.00  0.00     0.001 A 
BRANCH  12  16
ATOM     16  C   UNL     1       1.164   1.520  -1.196  1.00  0.00     0.033 C 
ATOM     17  C   UNL     1       1.734   1.683   0.021  1.00  0.00     0.084 C 
ATOM     18  S   UNL     1       1.576  -0.077   1.466  1.00  0.00    -0.022 SA
ATOM     19  C   UNL     1       3.541   2.428   0.022  1.00  0.00     0.272 C 
ATOM     20  C   UNL     1       3.905  -0.089   1.814  1.00  0.00     0.298 C 
ATOM     21  N   UNL     1       4.631   1.381   1.021  1.00  0.00    -0.236 N 
ATOM     22  O   UNL     1       3.817   3.487  -0.528  1.00  0.00    -0.268 OA
ATOM     23  O   UNL     1       4.433  -1.066   2.337  1.00  0.00    -0.260 OA
BRANCH  21  24
ATOM     24  C   UNL     1       6.019   1.748   1.127  1.00  0.00     0.053 A 
ATOM     25  C   UNL     1       6.453   3.014   0.686  1.00  0.00     0.030 A 
ATOM     26  C   UNL     1       6.960   0.918   1.740  1.00  0.00     0.030 A 
ATOM     27  C   UNL     1       7.763   3.457   0.879  1.00  0.00     0.041 A 
ATOM     28  C   UNL     1       8.277   1.362   1.939  1.00  0.00     0.041 A 
ATOM     29  C   UNL     1       8.665   2.626   1.512  1.00  0.00     0.123 A 
ATOM     30  F   UNL     1       9.918   3.050   1.720  1.00  0.00    -0.207 F 
ENDBRANCH  21  24
ENDBRANCH  12  16
ENDBRANCH   9  10
ENDBRANCH   8   9
ENDBRANCH   6   8
ENDBRANCH   3   4
ENDBRANCH   2   3
ENDBRANCH   1   2
BRANCH   1  31
ATOM     31  C   UNL     1       5.011   2.852   4.117  1.00  0.00     0.002 C 
BRANCH  31  32
ATOM     32  C   UNL     1       4.348   3.826   5.077  1.00  0.00     0.021 C 
BRANCH  32  33
ATOM     33  C   UNL     1       4.338   3.333   6.513  1.00  0.00     0.116 C 
BRANCH  33  34
ATOM     34  N   UNL     1       5.676   2.958   6.962  1.00  0.00    -0.352 N 
ATOM     35  C   UNL     1       6.324   3.387   8.091  1.00  0.00     0.251 C 
ATOM     36  H   UNL     1       6.168   2.326   6.389  1.00  0.00     0.163 HD
ATOM     37  O   UNL     1       7.526   3.225   8.247  1.00  0.00    -0.269 OA
BRANCH  35  38
ATOM     38  C   UNL     1       5.496   4.047   9.108  1.00  0.00     0.039 A 
ATOM     39  C   UNL     1       5.828   5.324   9.551  1.00  0.00     0.014 A 
ATOM     40  C   UNL     1       4.311   3.417   9.502  1.00  0.00     0.014 A 
ATOM     41  C   UNL     1       4.936   5.991  10.386  1.00  0.00     0.010 A 
ATOM     42  C   UNL     1       3.381   4.127  10.237  1.00  0.00     0.010 A 
ATOM     43  C   UNL     1       3.701   5.403  10.716  1.00  0.00    -0.014 A 
BRANCH  43  44
ATOM     44  C   UNL     1       2.746   6.089  11.610  1.00  0.00     0.031 A 
ATOM     45  C   UNL     1       2.409   5.469  12.938  1.00  0.00     0.074 A 
ATOM     46  C   UNL     1       2.162   7.232  11.204  1.00  0.00     0.049 A 
ATOM     47  N   UNL     1       1.623   5.918  13.880  1.00  0.00    -0.248 NA
ATOM     48  C   UNL     1       3.003   4.152  13.233  1.00  0.00     0.031 C 
ATOM     49  C   UNL     1       2.373   7.879   9.906  1.00  0.00     0.029 A 
ATOM     50  N   UNL     1       1.284   8.061  11.850  1.00  0.00    -0.354 N 
ATOM     51  C   UNL     1       1.613   4.933  14.860  1.00  0.00     0.074 A 
ATOM     52  C   UNL     1       2.409   3.833  14.371  1.00  0.00     0.031 C 
ATOM     53  C   UNL     1       1.694   9.037   9.878  1.00  0.00     0.029 A 
ATOM     54  C   UNL     1       0.976   9.195  11.137  1.00  0.00     0.049 A 
ATOM     55  H   UNL     1       0.909   7.863  12.738  1.00  0.00     0.167 HD
ATOM     56  C   UNL     1       1.017   4.956  16.074  1.00  0.00     0.031 A 
ATOM     57  C   UNL     1       0.217  10.253  11.479  1.00  0.00     0.031 A 
ATOM     58  C   UNL     1       0.246   6.070  16.552  1.00  0.00     0.049 A 
ATOM     59  C   UNL     1      -0.416  10.268  12.843  1.00  0.00     0.074 A 
ATOM     60  C   UNL     1      -0.341   6.245  17.791  1.00  0.00     0.029 A 
ATOM     61  N   UNL     1      -0.047   7.201  15.803  1.00  0.00    -0.354 N 
ATOM     62  N   UNL     1      -0.341   9.370  13.798  1.00  0.00    -0.248 NA
ATOM     63  C   UNL     1      -1.221  11.448  13.181  1.00  0.00     0.031 C 
ATOM     64  C   UNL     1      -1.041   7.457  17.770  1.00  0.00     0.029 A 
ATOM     65  C   UNL     1      -0.835   8.066  16.541  1.00  0.00     0.049 A 
ATOM     66  H   UNL     1       0.260   7.364  14.882  1.00  0.00     0.167 HD
ATOM     67  C   UNL     1      -1.072   9.887  14.861  1.00  0.00     0.074 A 
ATOM     68  C   UNL     1      -1.558  11.186  14.436  1.00  0.00     0.031 C 
ATOM     69  C   UNL     1      -1.320   9.343  16.080  1.00  0.00     0.031 A 
BRANCH  56  70
ATOM     70  C   UNL     1       1.169   3.736  16.945  1.00  0.00    -0.014 A 
ATOM     71  C   UNL     1       2.420   3.361  17.474  1.00  0.00     0.010 A 
ATOM     72  C   UNL     1       0.044   2.945  17.237  1.00  0.00     0.010 A 
ATOM     73  C   UNL     1       2.551   2.191  18.226  1.00  0.00     0.020 A 
ATOM     74  C   UNL     1       0.164   1.792  18.018  1.00  0.00     0.020 A 
ATOM     75  C   UNL     1       1.422   1.410  18.489  1.00  0.00     0.054 A 
BRANCH  75  76
ATOM     76  S   UNL     1       1.619  -0.101  19.473  1.00  0.00     0.124 S 
ATOM     77  O   UNL     1       2.294  -0.989  18.529  1.00  0.00    -0.237 OA
ATOM     78  O   UNL     1       2.432   0.354  20.598  1.00  0.00    -0.237 OA
ATOM     79  O   UNL     1       0.248  -0.476  19.810  1.00  0.00    -0.744 OA
ENDBRANCH  75  76
ENDBRANCH  56  70
BRANCH  57  80
ATOM     80  C   UNL     1       0.071  11.399  10.541  1.00  0.00    -0.014 A 
ATOM     81  C   UNL     1       0.688  12.631  10.826  1.00  0.00     0.010 A 
ATOM     82  C   UNL     1      -0.654  11.260   9.345  1.00  0.00     0.010 A 
ATOM     83  C   UNL     1       0.570  13.706   9.940  1.00  0.00     0.020 A 
ATOM     84  C   UNL     1      -0.751  12.324   8.442  1.00  0.00     0.020 A 
ATOM     85  C   UNL     1      -0.145  13.543   8.750  1.00  0.00     0.054 A 
BRANCH  85  86
ATOM     86  S   UNL     1      -0.232  14.934   7.587  1.00  0.00     0.124 S 
ATOM     87  O   UNL     1      -1.131  15.853   8.277  1.00  0.00    -0.237 OA
ATOM     88  O   UNL     1       1.164  15.357   7.499  1.00  0.00    -0.237 OA
ATOM     89  O   UNL     1      -0.768  14.328   6.370  1.00  0.00    -0.744 OA
ENDBRANCH  85  86
ENDBRANCH  57  80
BRANCH  69  90
ATOM     90  C   UNL     1      -2.140  10.165  17.036  1.00  0.00    -0.014 A 
ATOM     91  C   UNL     1      -3.511  10.387  16.815  1.00  0.00     0.010 A 
ATOM     92  C   UNL     1      -1.532  10.705  18.184  1.00  0.00     0.010 A 
ATOM     93  C   UNL     1      -4.247  11.181  17.697  1.00  0.00     0.020 A 
ATOM     94  C   UNL     1      -2.273  11.469  19.087  1.00  0.00     0.020 A 
ATOM     95  C   UNL     1      -3.621  11.722  18.825  1.00  0.00     0.054 A 
BRANCH  95  96
ATOM     96  S   UNL     1      -4.599  12.742  19.959  1.00  0.00     0.124 S 
ATOM     97  O   UNL     1      -4.744  13.982  19.200  1.00  0.00    -0.237 OA
ATOM     98  O   UNL     1      -5.821  11.959  20.123  1.00  0.00    -0.237 OA
ATOM     99  O   UNL     1      -3.760  12.835  21.151  1.00  0.00    -0.744 OA
ENDBRANCH  95  96
ENDBRANCH  69  90
ENDBRANCH  43  44
ENDBRANCH  35  38
ENDBRANCH  33  34
ENDBRANCH  32  33
ENDBRANCH  31  32
ENDBRANCH   1  31
TORSDOF 20
