REMARK SMILES CC[C@@](O)(C(=O)NCCCCCCNC(=O)c1ccc(-c2c3nc(c(-c4ccc(S(=O)(=O)[O-])cc4)c4ccc([nH]4)c(-c4ccc(S(=O)(=O)[O-])cc4)c4nc(c(-c5ccc(S(=O)(=O)[O-])cc5)c5ccc2[nH]5)C=C4)C=C3)cc1)[C@@H]1CCOc2ccccc21
REMARK SMILES IDX 11 1 10 2 9 3 8 4 7 5 5 6 6 7 3 9 2 10 1 11 4 12 77 14 78 15
REMARK SMILES IDX 86 16 79 17 81 18 85 19 80 20 82 21 84 22 83 23 12 24 13 25
REMARK SMILES IDX 14 26 15 27 16 29 17 30 18 31 76 32 19 33 75 34 20 35 21 36
REMARK SMILES IDX 22 37 69 38 23 39 74 40 68 41 70 42 24 43 73 44 67 45 66 46
REMARK SMILES IDX 25 48 55 49 36 50 54 51 37 52 40 53 53 54 71 55 38 56 39 57
REMARK SMILES IDX 52 59 72 60 41 61 26 62 27 63 35 64 28 65 34 66 29 67 30 68
REMARK SMILES IDX 31 69 32 70 33 71 56 72 57 73 65 74 58 75 64 76 59 77 60 78
REMARK SMILES IDX 61 79 62 80 63 81 42 82 43 83 51 84 44 85 50 86 45 87 46 88
REMARK SMILES IDX 47 89 48 90 49 91
REMARK H PARENT 7 8 4 13 14 28 70 47 40 58
REMARK Flexibility Score: inf
ROOT
ATOM      1  C   UNL     1       1.963   6.349   7.282  1.00  0.00     0.002 C 
ENDROOT
BRANCH   1   2
ATOM      2  C   UNL     1       1.547   6.235   5.813  1.00  0.00     0.002 C 
BRANCH   2   3
ATOM      3  C   UNL     1       2.639   5.685   4.887  1.00  0.00     0.021 C 
BRANCH   3   4
ATOM      4  C   UNL     1       3.133   4.292   5.291  1.00  0.00     0.116 C 
BRANCH   4   5
ATOM      5  N   UNL     1       2.107   3.316   4.994  1.00  0.00    -0.354 N 
ATOM      6  C   UNL     1       1.983   2.440   3.959  1.00  0.00     0.252 C 
ATOM      7  O   UNL     1       0.892   1.862   3.894  1.00  0.00    -0.272 OA
ATOM      8  H   UNL     1       1.375   3.280   5.652  1.00  0.00     0.163 HD
BRANCH   6   9
ATOM      9  C   UNL     1       3.151   2.167   2.938  1.00  0.00     0.149 C 
BRANCH   9  10
ATOM     10  C   UNL     1       3.535   3.451   2.161  1.00  0.00     0.043 C 
ATOM     11  C   UNL     1       4.875   3.397   1.426  1.00  0.00     0.007 C 
ENDBRANCH   9  10
BRANCH   9  12
ATOM     12  O   UNL     1       4.291   1.834   3.764  1.00  0.00    -0.379 OA
ATOM     13  H   UNL     1       4.549   2.610   4.287  1.00  0.00     0.212 HD
ENDBRANCH   9  12
BRANCH   9  14
ATOM     14  C   UNL     1       2.702   0.897   2.059  1.00  0.00     0.068 C 
ATOM     15  C   UNL     1       3.251  -0.399   2.703  1.00  0.00     0.053 C 
ATOM     16  C   UNL     1       2.950   0.861   0.554  1.00  0.00     0.001 A 
ATOM     17  C   UNL     1       2.979  -1.581   1.800  1.00  0.00     0.230 C 
ATOM     18  C   UNL     1       3.520  -0.265  -0.055  1.00  0.00     0.122 A 
ATOM     19  C   UNL     1       2.525   1.897  -0.293  1.00  0.00     0.008 A 
ATOM     20  O   UNL     1       3.749  -1.447   0.601  1.00  0.00    -0.493 OA
ATOM     21  C   UNL     1       3.872  -0.249  -1.406  1.00  0.00     0.047 A 
ATOM     22  C   UNL     1       2.886   1.928  -1.641  1.00  0.00     0.001 A 
ATOM     23  C   UNL     1       3.592   0.866  -2.191  1.00  0.00     0.004 A 
ENDBRANCH   9  14
ENDBRANCH   6   9
ENDBRANCH   4   5
ENDBRANCH   3   4
ENDBRANCH   2   3
ENDBRANCH   1   2
BRANCH   1  24
ATOM     24  C   UNL     1       3.257   7.133   7.513  1.00  0.00     0.021 C 
BRANCH  24  25
ATOM     25  C   UNL     1       3.201   8.573   7.018  1.00  0.00     0.116 C 
BRANCH  25  26
ATOM     26  N   UNL     1       2.210   9.347   7.749  1.00  0.00    -0.352 N 
ATOM     27  C   UNL     1       2.385  10.494   8.479  1.00  0.00     0.251 C 
ATOM     28  H   UNL     1       1.289   9.001   7.715  1.00  0.00     0.163 HD
ATOM     29  O   UNL     1       1.502  10.880   9.243  1.00  0.00    -0.269 OA
BRANCH  27  30
ATOM     30  C   UNL     1       3.643  11.253   8.347  1.00  0.00     0.039 A 
ATOM     31  C   UNL     1       4.281  11.721   9.497  1.00  0.00     0.014 A 
ATOM     32  C   UNL     1       4.194  11.496   7.085  1.00  0.00     0.014 A 
ATOM     33  C   UNL     1       5.501  12.389   9.383  1.00  0.00     0.010 A 
ATOM     34  C   UNL     1       5.445  12.093   6.979  1.00  0.00     0.010 A 
ATOM     35  C   UNL     1       6.108  12.553   8.127  1.00  0.00    -0.014 A 
BRANCH  35  36
ATOM     36  C   UNL     1       7.435  13.204   7.991  1.00  0.00     0.031 A 
ATOM     37  C   UNL     1       7.570  14.492   7.224  1.00  0.00     0.074 A 
ATOM     38  C   UNL     1       8.526  12.608   8.512  1.00  0.00     0.049 A 
ATOM     39  N   UNL     1       8.649  15.181   6.955  1.00  0.00    -0.248 NA
ATOM     40  C   UNL     1       6.335  15.069   6.667  1.00  0.00     0.031 C 
ATOM     41  C   UNL     1       8.529  11.342   9.250  1.00  0.00     0.029 A 
ATOM     42  N   UNL     1       9.845  12.986   8.501  1.00  0.00    -0.354 N 
ATOM     43  C   UNL     1       8.226  16.263   6.192  1.00  0.00     0.074 A 
ATOM     44  C   UNL     1       6.802  16.109   5.992  1.00  0.00     0.031 C 
ATOM     45  C   UNL     1       9.781  11.068   9.649  1.00  0.00     0.029 A 
ATOM     46  C   UNL     1      10.677  12.110   9.156  1.00  0.00     0.049 A 
ATOM     47  H   UNL     1      10.165  13.808   8.064  1.00  0.00     0.167 HD
ATOM     48  C   UNL     1       8.952  17.304   5.720  1.00  0.00     0.031 A 
ATOM     49  C   UNL     1      12.012  12.136   9.337  1.00  0.00     0.031 A 
ATOM     50  C   UNL     1      10.369  17.454   5.924  1.00  0.00     0.049 A 
ATOM     51  C   UNL     1      12.802  13.286   8.773  1.00  0.00     0.074 A 
ATOM     52  C   UNL     1      11.190  18.493   5.522  1.00  0.00     0.029 A 
ATOM     53  N   UNL     1      11.175  16.540   6.585  1.00  0.00    -0.354 N 
ATOM     54  N   UNL     1      12.375  14.329   8.101  1.00  0.00    -0.248 NA
ATOM     55  C   UNL     1      14.253  13.267   9.002  1.00  0.00     0.031 C 
ATOM     56  C   UNL     1      12.502  18.178   5.888  1.00  0.00     0.029 A 
ATOM     57  C   UNL     1      12.489  16.978   6.579  1.00  0.00     0.049 A 
ATOM     58  H   UNL     1      10.861  15.703   6.998  1.00  0.00     0.167 HD
ATOM     59  C   UNL     1      13.502  15.106   7.854  1.00  0.00     0.074 A 
ATOM     60  C   UNL     1      14.624  14.420   8.461  1.00  0.00     0.031 C 
ATOM     61  C   UNL     1      13.597  16.283   7.187  1.00  0.00     0.031 A 
BRANCH  48  62
ATOM     62  C   UNL     1       8.225  18.361   4.929  1.00  0.00    -0.014 A 
ATOM     63  C   UNL     1       7.299  19.223   5.548  1.00  0.00     0.010 A 
ATOM     64  C   UNL     1       8.500  18.526   3.560  1.00  0.00     0.010 A 
ATOM     65  C   UNL     1       6.633  20.199   4.803  1.00  0.00     0.020 A 
ATOM     66  C   UNL     1       7.859  19.523   2.818  1.00  0.00     0.020 A 
ATOM     67  C   UNL     1       6.917  20.343   3.442  1.00  0.00     0.054 A 
BRANCH  67  68
ATOM     68  S   UNL     1       6.055  21.637   2.508  1.00  0.00     0.124 S 
ATOM     69  O   UNL     1       4.698  21.102   2.435  1.00  0.00    -0.237 OA
ATOM     70  O   UNL     1       6.222  22.811   3.361  1.00  0.00    -0.237 OA
ATOM     71  O   UNL     1       6.774  21.686   1.237  1.00  0.00    -0.744 OA
ENDBRANCH  67  68
ENDBRANCH  48  62
BRANCH  49  72
ATOM     72  C   UNL     1      12.682  11.047  10.099  1.00  0.00    -0.014 A 
ATOM     73  C   UNL     1      13.241  11.302  11.364  1.00  0.00     0.010 A 
ATOM     74  C   UNL     1      12.755   9.745   9.570  1.00  0.00     0.010 A 
ATOM     75  C   UNL     1      13.877  10.281  12.077  1.00  0.00     0.020 A 
ATOM     76  C   UNL     1      13.362   8.715  10.293  1.00  0.00     0.020 A 
ATOM     77  C   UNL     1      13.930   8.992  11.538  1.00  0.00     0.054 A 
BRANCH  77  78
ATOM     78  S   UNL     1      14.716   7.673  12.503  1.00  0.00     0.124 S 
ATOM     79  O   UNL     1      16.128   8.031  12.414  1.00  0.00    -0.237 OA
ATOM     80  O   UNL     1      14.102   7.838  13.819  1.00  0.00    -0.237 OA
ATOM     81  O   UNL     1      14.333   6.455  11.793  1.00  0.00    -0.744 OA
ENDBRANCH  77  78
ENDBRANCH  49  72
BRANCH  61  82
ATOM     82  C   UNL     1      14.955  16.929   7.109  1.00  0.00    -0.014 A 
ATOM     83  C   UNL     1      15.978  16.391   6.309  1.00  0.00     0.010 A 
ATOM     84  C   UNL     1      15.191  18.130   7.805  1.00  0.00     0.010 A 
ATOM     85  C   UNL     1      17.221  17.024   6.231  1.00  0.00     0.020 A 
ATOM     86  C   UNL     1      16.421  18.784   7.704  1.00  0.00     0.020 A 
ATOM     87  C   UNL     1      17.434  18.218   6.927  1.00  0.00     0.054 A 
BRANCH  87  88
ATOM     88  S   UNL     1      19.040  19.045   6.770  1.00  0.00     0.124 S 
ATOM     89  O   UNL     1      19.913  18.163   7.540  1.00  0.00    -0.237 OA
ATOM     90  O   UNL     1      19.261  19.042   5.326  1.00  0.00    -0.237 OA
ATOM     91  O   UNL     1      18.812  20.363   7.357  1.00  0.00    -0.744 OA
ENDBRANCH  87  88
ENDBRANCH  61  82
ENDBRANCH  35  36
ENDBRANCH  27  30
ENDBRANCH  25  26
ENDBRANCH  24  25
ENDBRANCH   1  24
TORSDOF 19
