REMARK SMILES CC(C)(C)[C@H](CCC(=O)NCCCCCCNC(=O)c1ccc(-c2c3nc(c(-c4ccc(S(=O)(=O)[O-])cc4)c4ccc([nH]4)c(-c4ccc(S(=O)(=O)[O-])cc4)c4nc(c(-c5ccc(S(=O)(=O)[O-])cc5)c5ccc2[nH]5)C=C4)C=C3)cc1)CC[NH+]1CCOCC1
REMARK SMILES IDX 12 1 11 2 10 3 8 4 9 5 7 7 6 8 5 9 2 10 1 11 3 12 4 13 80 14
REMARK SMILES IDX 81 15 82 16 83 17 87 18 84 20 86 21 85 22 13 23 14 24 15 25
REMARK SMILES IDX 16 26 17 27 18 28 19 30 20 31 21 32 79 33 22 34 78 35 23 36
REMARK SMILES IDX 24 37 25 38 72 39 26 40 77 41 71 42 73 43 27 44 76 45 70 46
REMARK SMILES IDX 69 47 28 49 58 50 39 51 57 52 40 53 43 54 56 55 74 56 41 57
REMARK SMILES IDX 42 58 55 60 75 61 44 62 29 63 30 64 38 65 31 66 37 67 32 68
REMARK SMILES IDX 33 69 34 70 35 71 36 72 59 73 60 74 68 75 61 76 67 77 62 78
REMARK SMILES IDX 63 79 64 80 65 81 66 82 45 83 46 84 54 85 47 86 53 87 48 88
REMARK SMILES IDX 49 89 50 90 51 91 52 92
REMARK H PARENT 10 6 82 19 17 29 73 48 43 59
REMARK Flexibility Score: inf
ROOT
ATOM      1  C   UNL     1      -1.442  -2.068  -4.405  1.00  0.00     0.021 C 
ENDROOT
BRANCH   1   2
ATOM      2  C   UNL     1      -1.555  -0.535  -4.060  1.00  0.00     0.116 C 
BRANCH   2   3
ATOM      3  N   UNL     1      -2.228  -0.255  -2.701  1.00  0.00    -0.356 N 
ATOM      4  C   UNL     1      -2.058  -0.051  -1.350  1.00  0.00     0.220 C 
ATOM      5  O   UNL     1      -3.156  -0.110  -0.755  1.00  0.00    -0.275 OA
ATOM      6  H   UNL     1      -3.196  -0.196  -2.874  1.00  0.00     0.163 HD
BRANCH   4   7
ATOM      7  C   UNL     1      -0.821   0.402  -0.437  1.00  0.00     0.100 C 
BRANCH   7   8
ATOM      8  C   UNL     1       0.386  -0.337   0.335  1.00  0.00     0.014 C 
BRANCH   8   9
ATOM      9  C   UNL     1       1.370  -1.427  -0.273  1.00  0.00     0.000 C 
BRANCH   9  10
ATOM     10  C   UNL     1       1.280  -1.423  -1.806  1.00  0.00    -0.035 C 
ATOM     11  C   UNL     1       1.288   0.065  -2.299  1.00  0.00     0.011 C 
ATOM     12  C   UNL     1       0.033  -2.316  -1.920  1.00  0.00     0.011 C 
ATOM     13  C   UNL     1       2.360  -1.991  -2.741  1.00  0.00     0.011 C 
ENDBRANCH   9  10
BRANCH   9  14
ATOM     14  C   UNL     1       2.775  -1.629   0.304  1.00  0.00     0.065 C 
BRANCH  14  15
ATOM     15  C   UNL     1       3.318  -3.113   0.528  1.00  0.00     0.262 C 
BRANCH  15  16
ATOM     16  N   UNL     1       2.620  -4.403   0.775  1.00  0.00    -0.331 N 
ATOM     17  C   UNL     1       3.590  -5.548   0.656  1.00  0.00     0.291 C 
ATOM     18  C   UNL     1       1.426  -4.834   0.029  1.00  0.00     0.291 C 
ATOM     19  H   UNL     1       2.249  -4.175   1.698  1.00  0.00     0.348 HD
ATOM     20  C   UNL     1       3.814  -6.066  -0.788  1.00  0.00     0.221 C 
ATOM     21  C   UNL     1       1.695  -5.323  -1.395  1.00  0.00     0.221 C 
ATOM     22  O   UNL     1       2.574  -6.444  -1.403  1.00  0.00    -0.370 OA
ENDBRANCH  15  16
ENDBRANCH  14  15
ENDBRANCH   9  14
ENDBRANCH   8   9
ENDBRANCH   7   8
ENDBRANCH   4   7
ENDBRANCH   2   3
ENDBRANCH   1   2
BRANCH   1  23
ATOM     23  C   UNL     1      -1.685  -2.656  -5.795  1.00  0.00     0.002 C 
BRANCH  23  24
ATOM     24  C   UNL     1      -0.544  -2.543  -6.816  1.00  0.00     0.002 C 
BRANCH  24  25
ATOM     25  C   UNL     1       0.825  -3.188  -6.502  1.00  0.00     0.021 C 
BRANCH  25  26
ATOM     26  C   UNL     1       0.876  -4.675  -6.128  1.00  0.00     0.116 C 
BRANCH  26  27
ATOM     27  N   UNL     1       0.247  -5.534  -7.115  1.00  0.00    -0.352 N 
ATOM     28  C   UNL     1       0.773  -6.378  -8.063  1.00  0.00     0.251 C 
ATOM     29  H   UNL     1      -0.737  -5.507  -7.103  1.00  0.00     0.163 HD
ATOM     30  O   UNL     1       0.020  -6.834  -8.924  1.00  0.00    -0.269 OA
BRANCH  28  31
ATOM     31  C   UNL     1       2.208  -6.756  -8.091  1.00  0.00     0.039 A 
ATOM     32  C   UNL     1       2.849  -6.839  -9.334  1.00  0.00     0.014 A 
ATOM     33  C   UNL     1       2.896  -7.150  -6.941  1.00  0.00     0.014 A 
ATOM     34  C   UNL     1       4.178  -7.274  -9.421  1.00  0.00     0.010 A 
ATOM     35  C   UNL     1       4.240  -7.539  -7.023  1.00  0.00     0.010 A 
ATOM     36  C   UNL     1       4.894  -7.615  -8.263  1.00  0.00    -0.014 A 
BRANCH  36  37
ATOM     37  C   UNL     1       6.311  -8.075  -8.347  1.00  0.00     0.031 A 
ATOM     38  C   UNL     1       6.679  -9.490  -7.976  1.00  0.00     0.074 A 
ATOM     39  C   UNL     1       7.276  -7.215  -8.730  1.00  0.00     0.049 A 
ATOM     40  N   UNL     1       7.859 -10.057  -7.945  1.00  0.00    -0.248 NA
ATOM     41  C   UNL     1       5.578 -10.379  -7.571  1.00  0.00     0.031 C 
ATOM     42  C   UNL     1       7.065  -5.812  -9.092  1.00  0.00     0.029 A 
ATOM     43  N   UNL     1       8.632  -7.392  -8.875  1.00  0.00    -0.354 N 
ATOM     44  C   UNL     1       7.645 -11.362  -7.513  1.00  0.00     0.074 A 
ATOM     45  C   UNL     1       6.229 -11.487  -7.243  1.00  0.00     0.031 C 
ATOM     46  C   UNL     1       8.243  -5.261  -9.430  1.00  0.00     0.029 A 
ATOM     47  C   UNL     1       9.298  -6.259  -9.281  1.00  0.00     0.049 A 
ATOM     48  H   UNL     1       9.083  -8.250  -8.705  1.00  0.00     0.167 HD
ATOM     49  C   UNL     1       8.538 -12.374  -7.372  1.00  0.00     0.031 A 
ATOM     50  C   UNL     1      10.610  -6.043  -9.503  1.00  0.00     0.031 A 
ATOM     51  C   UNL     1       9.947 -12.255  -7.642  1.00  0.00     0.049 A 
ATOM     52  C   UNL     1      11.584  -7.179  -9.335  1.00  0.00     0.074 A 
ATOM     53  C   UNL     1      10.930 -13.226  -7.545  1.00  0.00     0.029 A 
ATOM     54  N   UNL     1      10.575 -11.096  -8.073  1.00  0.00    -0.354 N 
ATOM     55  N   UNL     1      11.352  -8.414  -8.957  1.00  0.00    -0.248 NA
ATOM     56  C   UNL     1      12.993  -6.897  -9.643  1.00  0.00     0.031 C 
ATOM     57  C   UNL     1      12.157 -12.645  -7.884  1.00  0.00     0.029 A 
ATOM     58  C   UNL     1      11.930 -11.327  -8.244  1.00  0.00     0.049 A 
ATOM     59  H   UNL     1      10.124 -10.236  -8.234  1.00  0.00     0.167 HD
ATOM     60  C   UNL     1      12.580  -9.064  -9.015  1.00  0.00     0.074 A 
ATOM     61  C   UNL     1      13.548  -8.090  -9.478  1.00  0.00     0.031 C 
ATOM     62  C   UNL     1      12.880 -10.351  -8.714  1.00  0.00     0.031 A 
BRANCH  49  63
ATOM     63  C   UNL     1       8.009 -13.709  -6.912  1.00  0.00    -0.014 A 
ATOM     64  C   UNL     1       7.207 -14.496  -7.758  1.00  0.00     0.010 A 
ATOM     65  C   UNL     1       8.349 -14.204  -5.640  1.00  0.00     0.010 A 
ATOM     66  C   UNL     1       6.719 -15.732  -7.326  1.00  0.00     0.020 A 
ATOM     67  C   UNL     1       7.887 -15.454  -5.214  1.00  0.00     0.020 A 
ATOM     68  C   UNL     1       7.059 -16.202  -6.055  1.00  0.00     0.054 A 
BRANCH  68  69
ATOM     69  S   UNL     1       6.434 -17.820  -5.521  1.00  0.00     0.124 S 
ATOM     70  O   UNL     1       5.018 -17.527  -5.277  1.00  0.00    -0.237 OA
ATOM     71  O   UNL     1       6.696 -18.664  -6.695  1.00  0.00    -0.237 OA
ATOM     72  O   UNL     1       7.218 -18.132  -4.347  1.00  0.00    -0.744 OA
ENDBRANCH  68  69
ENDBRANCH  49  63
BRANCH  50  73
ATOM     73  C   UNL     1      11.086  -4.694  -9.920  1.00  0.00    -0.014 A 
ATOM     74  C   UNL     1      11.576  -4.474 -11.220  1.00  0.00     0.010 A 
ATOM     75  C   UNL     1      11.066  -3.622  -9.009  1.00  0.00     0.010 A 
ATOM     76  C   UNL     1      12.067  -3.218 -11.591  1.00  0.00     0.020 A 
ATOM     77  C   UNL     1      11.528  -2.357  -9.385  1.00  0.00     0.020 A 
ATOM     78  C   UNL     1      12.043  -2.168 -10.669  1.00  0.00     0.054 A 
BRANCH  78  79
ATOM     79  S   UNL     1      12.658  -0.538 -11.177  1.00  0.00     0.124 S 
ATOM     80  O   UNL     1      14.103  -0.738 -11.149  1.00  0.00    -0.237 OA
ATOM     81  O   UNL     1      12.065  -0.374 -12.502  1.00  0.00    -0.237 OA
ATOM     82  O   UNL     1      12.129   0.359 -10.151  1.00  0.00    -0.744 OA
ENDBRANCH  78  79
ENDBRANCH  50  73
BRANCH  62  83
ATOM     83  C   UNL     1      14.303 -10.798  -8.926  1.00  0.00    -0.014 A 
ATOM     84  C   UNL     1      15.340 -10.370  -8.078  1.00  0.00     0.010 A 
ATOM     85  C   UNL     1      14.598 -11.689  -9.974  1.00  0.00     0.010 A 
ATOM     86  C   UNL     1      16.654 -10.793  -8.301  1.00  0.00     0.020 A 
ATOM     87  C   UNL     1      15.905 -12.135 -10.183  1.00  0.00     0.020 A 
ATOM     88  C   UNL     1      16.928 -11.670  -9.355  1.00  0.00     0.054 A 
BRANCH  88  89
ATOM     89  S   UNL     1      18.636 -12.225  -9.610  1.00  0.00     0.124 S 
ATOM     90  O   UNL     1      19.253 -11.045 -10.210  1.00  0.00    -0.237 OA
ATOM     91  O   UNL     1      19.077 -12.544  -8.254  1.00  0.00    -0.237 OA
ATOM     92  O   UNL     1      18.497 -13.376 -10.499  1.00  0.00    -0.744 OA
ENDBRANCH  88  89
ENDBRANCH  62  83
ENDBRANCH  36  37
ENDBRANCH  28  31
ENDBRANCH  26  27
ENDBRANCH  25  26
ENDBRANCH  24  25
ENDBRANCH  23  24
ENDBRANCH   1  23
TORSDOF 22
