REMARK SMILES O=C(N[C@@H]1C=C[C@@H](C(=O)NCCCCCCNC(=O)c2ccc(-c3c4nc(c(-c5ccc(S(=O)(=O)[O-])cc5)c5ccc([nH]5)c(-c5ccc(S(=O)(=O)[O-])cc5)c5nc(c(-c6ccc(S(=O)(=O)[O-])cc6)c6ccc3[nH]6)C=C5)C=C4)cc2)C1)Oc1ccccc1
REMARK SMILES IDX 13 1 12 2 11 3 10 4 8 5 9 6 7 8 4 9 5 10 80 11 6 12 3 13
REMARK SMILES IDX 1 14 2 15 81 17 82 18 83 19 87 20 84 21 86 22 85 23 14 24
REMARK SMILES IDX 15 25 16 26 17 27 18 28 19 30 20 31 21 32 79 33 22 34 78 35
REMARK SMILES IDX 23 36 24 37 25 38 72 39 26 40 77 41 71 42 73 43 27 44 76 45
REMARK SMILES IDX 70 46 69 47 28 49 58 50 39 51 57 52 40 53 43 54 56 55 74 56
REMARK SMILES IDX 41 57 42 58 55 60 75 61 44 62 29 63 30 64 38 65 31 66 37 67
REMARK SMILES IDX 32 68 33 69 34 70 35 71 36 72 59 73 60 74 68 75 61 76 67 77
REMARK SMILES IDX 62 78 63 79 64 80 65 81 66 82 45 83 46 84 54 85 47 86 53 87
REMARK SMILES IDX 48 88 49 89 50 90 51 91 52 92
REMARK H PARENT 10 7 3 16 17 29 73 48 43 59
REMARK Flexibility Score: inf
ROOT
ATOM      1  C   UNL     1       2.146   2.733   3.720  1.00  0.00     0.002 C 
ENDROOT
BRANCH   1   2
ATOM      2  C   UNL     1       2.278   2.124   2.317  1.00  0.00     0.021 C 
BRANCH   2   3
ATOM      3  C   UNL     1       3.168   2.939   1.379  1.00  0.00     0.116 C 
BRANCH   3   4
ATOM      4  N   UNL     1       4.488   3.011   1.942  1.00  0.00    -0.356 N 
ATOM      5  C   UNL     1       5.527   2.188   1.685  1.00  0.00     0.227 C 
ATOM      6  O   UNL     1       6.389   2.067   2.559  1.00  0.00    -0.274 OA
ATOM      7  H   UNL     1       4.652   3.739   2.585  1.00  0.00     0.163 HD
BRANCH   5   8
ATOM      8  C   UNL     1       5.637   1.465   0.351  1.00  0.00     0.103 C 
ATOM      9  C   UNL     1       4.489   0.247  -1.423  1.00  0.00     0.109 C 
ATOM     10  C   UNL     1       4.946   1.586  -1.887  1.00  0.00    -0.006 C 
ATOM     11  C   UNL     1       4.743   0.252   0.093  1.00  0.00     0.047 C 
ATOM     12  C   UNL     1       5.510   2.289  -0.896  1.00  0.00    -0.016 C 
BRANCH   9  13
ATOM     13  N   UNL     1       5.064  -0.869  -2.148  1.00  0.00    -0.315 N 
ATOM     14  O   UNL     1       6.543  -2.374  -2.922  1.00  0.00    -0.224 OA
ATOM     15  C   UNL     1       6.343  -1.270  -2.425  1.00  0.00     0.413 C 
ATOM     16  H   UNL     1       4.384  -1.472  -2.526  1.00  0.00     0.167 HD
BRANCH  15  17
ATOM     17  O   UNL     1       7.351  -0.335  -2.271  1.00  0.00    -0.410 OA
BRANCH  17  18
ATOM     18  C   UNL     1       8.102  -0.233  -1.078  1.00  0.00     0.132 A 
ATOM     19  C   UNL     1       8.885   0.925  -0.999  1.00  0.00     0.047 A 
ATOM     20  C   UNL     1       7.938  -1.066   0.031  1.00  0.00     0.047 A 
ATOM     21  C   UNL     1       9.408   1.323   0.231  1.00  0.00     0.004 A 
ATOM     22  C   UNL     1       8.459  -0.654   1.264  1.00  0.00     0.004 A 
ATOM     23  C   UNL     1       9.169   0.548   1.367  1.00  0.00     0.000 A 
ENDBRANCH  17  18
ENDBRANCH  15  17
ENDBRANCH   9  13
ENDBRANCH   5   8
ENDBRANCH   3   4
ENDBRANCH   2   3
ENDBRANCH   1   2
BRANCH   1  24
ATOM     24  C   UNL     1       1.792   4.223   3.734  1.00  0.00     0.002 C 
BRANCH  24  25
ATOM     25  C   UNL     1       0.608   4.598   2.843  1.00  0.00     0.021 C 
BRANCH  25  26
ATOM     26  C   UNL     1      -0.642   3.784   3.125  1.00  0.00     0.116 C 
BRANCH  26  27
ATOM     27  N   UNL     1      -1.161   4.071   4.448  1.00  0.00    -0.352 N 
ATOM     28  C   UNL     1      -2.393   4.581   4.768  1.00  0.00     0.251 C 
ATOM     29  H   UNL     1      -0.560   3.878   5.204  1.00  0.00     0.163 HD
ATOM     30  O   UNL     1      -2.610   5.045   5.879  1.00  0.00    -0.269 OA
BRANCH  28  31
ATOM     31  C   UNL     1      -3.443   4.568   3.730  1.00  0.00     0.039 A 
ATOM     32  C   UNL     1      -4.184   5.725   3.497  1.00  0.00     0.014 A 
ATOM     33  C   UNL     1      -3.653   3.416   2.963  1.00  0.00     0.014 A 
ATOM     34  C   UNL     1      -5.124   5.735   2.467  1.00  0.00     0.010 A 
ATOM     35  C   UNL     1      -4.520   3.460   1.881  1.00  0.00     0.010 A 
ATOM     36  C   UNL     1      -5.284   4.610   1.639  1.00  0.00    -0.014 A 
BRANCH  36  37
ATOM     37  C   UNL     1      -6.271   4.609   0.533  1.00  0.00     0.031 A 
ATOM     38  C   UNL     1      -7.422   3.641   0.558  1.00  0.00     0.074 A 
ATOM     39  C   UNL     1      -6.098   5.436  -0.516  1.00  0.00     0.049 A 
ATOM     40  N   UNL     1      -8.370   3.466  -0.325  1.00  0.00    -0.248 NA
ATOM     41  C   UNL     1      -7.500   2.728   1.711  1.00  0.00     0.031 C 
ATOM     42  C   UNL     1      -4.986   6.376  -0.679  1.00  0.00     0.029 A 
ATOM     43  N   UNL     1      -6.851   5.612  -1.649  1.00  0.00    -0.354 N 
ATOM     44  C   UNL     1      -9.139   2.411   0.152  1.00  0.00     0.074 A 
ATOM     45  C   UNL     1      -8.516   1.949   1.372  1.00  0.00     0.031 C 
ATOM     46  C   UNL     1      -5.145   7.046  -1.831  1.00  0.00     0.029 A 
ATOM     47  C   UNL     1      -6.343   6.557  -2.507  1.00  0.00     0.049 A 
ATOM     48  H   UNL     1      -7.678   5.108  -1.829  1.00  0.00     0.167 HD
ATOM     49  C   UNL     1     -10.273   1.885  -0.369  1.00  0.00     0.031 A 
ATOM     50  C   UNL     1      -6.785   6.978  -3.708  1.00  0.00     0.031 A 
ATOM     51  C   UNL     1     -10.891   2.360  -1.578  1.00  0.00     0.049 A 
ATOM     52  C   UNL     1      -8.055   6.394  -4.261  1.00  0.00     0.074 A 
ATOM     53  C   UNL     1     -12.082   1.954  -2.152  1.00  0.00     0.029 A 
ATOM     54  N   UNL     1     -10.360   3.339  -2.406  1.00  0.00    -0.354 N 
ATOM     55  N   UNL     1      -8.823   5.462  -3.749  1.00  0.00    -0.248 NA
ATOM     56  C   UNL     1      -8.527   6.930  -5.544  1.00  0.00     0.031 C 
ATOM     57  C   UNL     1     -12.237   2.638  -3.362  1.00  0.00     0.029 A 
ATOM     58  C   UNL     1     -11.180   3.523  -3.506  1.00  0.00     0.049 A 
ATOM     59  H   UNL     1      -9.523   3.829  -2.237  1.00  0.00     0.167 HD
ATOM     60  C   UNL     1      -9.882   5.312  -4.638  1.00  0.00     0.074 A 
ATOM     61  C   UNL     1      -9.663   6.264  -5.709  1.00  0.00     0.031 C 
ATOM     62  C   UNL     1     -10.940   4.466  -4.572  1.00  0.00     0.031 A 
BRANCH  49  63
ATOM     63  C   UNL     1     -10.898   0.721   0.356  1.00  0.00    -0.014 A 
ATOM     64  C   UNL     1     -11.469   0.869   1.634  1.00  0.00     0.010 A 
ATOM     65  C   UNL     1     -10.925  -0.544  -0.259  1.00  0.00     0.010 A 
ATOM     66  C   UNL     1     -12.001  -0.235   2.306  1.00  0.00     0.020 A 
ATOM     67  C   UNL     1     -11.487  -1.645   0.395  1.00  0.00     0.020 A 
ATOM     68  C   UNL     1     -12.000  -1.487   1.684  1.00  0.00     0.054 A 
BRANCH  68  69
ATOM     69  S   UNL     1     -12.695  -2.903   2.578  1.00  0.00     0.124 S 
ATOM     70  O   UNL     1     -11.678  -3.140   3.600  1.00  0.00    -0.237 OA
ATOM     71  O   UNL     1     -13.967  -2.379   3.069  1.00  0.00    -0.237 OA
ATOM     72  O   UNL     1     -12.804  -3.941   1.556  1.00  0.00    -0.744 OA
ENDBRANCH  68  69
ENDBRANCH  49  63
BRANCH  50  73
ATOM     73  C   UNL     1      -6.013   8.011  -4.450  1.00  0.00    -0.014 A 
ATOM     74  C   UNL     1      -6.500   9.323  -4.576  1.00  0.00     0.010 A 
ATOM     75  C   UNL     1      -4.752   7.695  -4.989  1.00  0.00     0.010 A 
ATOM     76  C   UNL     1      -5.741  10.300  -5.227  1.00  0.00     0.020 A 
ATOM     77  C   UNL     1      -3.978   8.675  -5.615  1.00  0.00     0.020 A 
ATOM     78  C   UNL     1      -4.480   9.972  -5.734  1.00  0.00     0.054 A 
BRANCH  78  79
ATOM     79  S   UNL     1      -3.475  11.276  -6.498  1.00  0.00     0.124 S 
ATOM     80  O   UNL     1      -4.177  11.502  -7.757  1.00  0.00    -0.237 OA
ATOM     81  O   UNL     1      -3.567  12.356  -5.518  1.00  0.00    -0.237 OA
ATOM     82  O   UNL     1      -2.154  10.664  -6.617  1.00  0.00    -0.744 OA
ENDBRANCH  78  79
ENDBRANCH  50  73
BRANCH  62  83
ATOM     83  C   UNL     1     -11.959   4.542  -5.677  1.00  0.00    -0.014 A 
ATOM     84  C   UNL     1     -11.668   4.083  -6.974  1.00  0.00     0.010 A 
ATOM     85  C   UNL     1     -13.251   5.025  -5.395  1.00  0.00     0.010 A 
ATOM     86  C   UNL     1     -12.640   4.135  -7.976  1.00  0.00     0.020 A 
ATOM     87  C   UNL     1     -14.235   5.049  -6.386  1.00  0.00     0.020 A 
ATOM     88  C   UNL     1     -13.918   4.617  -7.675  1.00  0.00     0.054 A 
BRANCH  88  89
ATOM     89  S   UNL     1     -15.175   4.632  -8.982  1.00  0.00     0.124 S 
ATOM     90  O   UNL     1     -14.711   5.722  -9.836  1.00  0.00    -0.237 OA
ATOM     91  O   UNL     1     -15.059   3.293  -9.553  1.00  0.00    -0.237 OA
ATOM     92  O   UNL     1     -16.421   4.891  -8.263  1.00  0.00    -0.744 OA
ENDBRANCH  88  89
ENDBRANCH  62  83
ENDBRANCH  36  37
ENDBRANCH  28  31
ENDBRANCH  26  27
ENDBRANCH  25  26
ENDBRANCH  24  25
ENDBRANCH   1  24
TORSDOF 19
