REMARK SMILES CC1=C(C)C[C@@H](C(=O)NCCCCCCNC(=O)c2ccc(-c3c4nc(c(-c5ccc(S(=O)(=O)[O-])cc5)c5ccc([nH]5)c(-c5ccc(S(=O)(=O)[O-])cc5)c5nc(c(-c6ccc(S(=O)(=O)[O-])cc6)c6ccc3[nH]6)C=C5)C=C4)cc2)[C@@H](C(=O)NCC[NH+]2CCOCC2)C1
REMARK SMILES IDX 12 1 11 2 10 3 9 4 7 5 8 6 6 8 1 9 2 10 3 11 91 12 4 13 5 14
REMARK SMILES IDX 79 15 80 16 81 17 82 18 83 20 84 21 85 22 86 23 90 24 87 26
REMARK SMILES IDX 89 27 88 28 13 29 14 30 15 31 16 32 17 33 18 35 19 36 20 37
REMARK SMILES IDX 78 38 21 39 77 40 22 41 23 42 24 43 71 44 25 45 76 46 70 47
REMARK SMILES IDX 72 48 26 49 75 50 69 51 68 52 27 54 57 55 38 56 56 57 39 58
REMARK SMILES IDX 42 59 55 60 73 61 40 62 41 63 54 65 74 66 43 67 28 68 29 69
REMARK SMILES IDX 37 70 30 71 36 72 31 73 32 74 33 75 34 76 35 77 58 78 59 79
REMARK SMILES IDX 67 80 60 81 66 82 61 83 62 84 63 85 64 86 65 87 44 88 45 89
REMARK SMILES IDX 53 90 46 91 52 92 47 93 48 94 49 95 50 96 51 97
REMARK H PARENT 9 7 82 19 85 25 16 34 72 53 42 64
REMARK Flexibility Score: inf
ROOT
ATOM      1  C   UNL     1       5.095   1.505   3.326  1.00  0.00     0.002 C 
ENDROOT
BRANCH   1   2
ATOM      2  C   UNL     1       3.822   1.431   2.486  1.00  0.00     0.021 C 
BRANCH   2   3
ATOM      3  C   UNL     1       2.647   0.761   3.197  1.00  0.00     0.116 C 
BRANCH   3   4
ATOM      4  N   UNL     1       2.118   1.495   4.323  1.00  0.00    -0.356 N 
ATOM      5  C   UNL     1       0.966   2.197   4.486  1.00  0.00     0.224 C 
ATOM      6  O   UNL     1       0.774   2.710   5.598  1.00  0.00    -0.275 OA
ATOM      7  H   UNL     1       2.698   1.484   5.119  1.00  0.00     0.163 HD
BRANCH   5   8
ATOM      8  C   UNL     1      -0.115   2.352   3.401  1.00  0.00     0.095 C 
ATOM      9  C   UNL     1       0.616   0.149  -0.364  1.00  0.00     0.039 C 
ATOM     10  C   UNL     1       0.116   0.870   0.868  1.00  0.00    -0.074 C 
ATOM     11  C   UNL     1      -0.479   0.265   1.920  1.00  0.00    -0.074 C 
ATOM     12  C   UNL     1       0.470   2.349   0.867  1.00  0.00     0.045 C 
ATOM     13  C   UNL     1      -0.742  -1.217   2.053  1.00  0.00     0.039 C 
ATOM     14  C   UNL     1      -0.856   1.035   3.161  1.00  0.00     0.045 C 
ATOM     15  C   UNL     1       0.181   3.183   2.135  1.00  0.00     0.095 C 
BRANCH  15  16
ATOM     16  C   UNL     1       1.325   4.169   2.341  1.00  0.00     0.224 C 
ATOM     17  O   UNL     1       2.252   3.984   3.126  1.00  0.00    -0.275 OA
ATOM     18  N   UNL     1       1.489   5.267   1.583  1.00  0.00    -0.350 N 
ATOM     19  H   UNL     1       2.426   5.430   1.331  1.00  0.00     0.163 HD
BRANCH  18  20
ATOM     20  C   UNL     1       0.579   6.255   1.061  1.00  0.00     0.177 C 
BRANCH  20  21
ATOM     21  C   UNL     1       0.580   7.527   1.952  1.00  0.00     0.283 C 
BRANCH  21  22
ATOM     22  N   UNL     1       1.834   8.086   2.461  1.00  0.00    -0.330 N 
ATOM     23  C   UNL     1       3.089   8.072   1.714  1.00  0.00     0.291 C 
ATOM     24  C   UNL     1       2.030   8.121   3.911  1.00  0.00     0.291 C 
ATOM     25  H   UNL     1       1.499   8.993   2.138  1.00  0.00     0.348 HD
ATOM     26  C   UNL     1       4.231   7.217   2.333  1.00  0.00     0.221 C 
ATOM     27  C   UNL     1       3.051   7.083   4.380  1.00  0.00     0.221 C 
ATOM     28  O   UNL     1       4.318   7.332   3.758  1.00  0.00    -0.370 OA
ENDBRANCH  21  22
ENDBRANCH  20  21
ENDBRANCH  18  20
ENDBRANCH  15  16
ENDBRANCH   5   8
ENDBRANCH   3   4
ENDBRANCH   2   3
ENDBRANCH   1   2
BRANCH   1  29
ATOM     29  C   UNL     1       5.626   0.136   3.759  1.00  0.00     0.002 C 
BRANCH  29  30
ATOM     30  C   UNL     1       5.806  -0.866   2.613  1.00  0.00     0.021 C 
BRANCH  30  31
ATOM     31  C   UNL     1       6.726  -0.379   1.499  1.00  0.00     0.116 C 
BRANCH  31  32
ATOM     32  N   UNL     1       8.081  -0.177   1.987  1.00  0.00    -0.352 N 
ATOM     33  C   UNL     1       9.233  -0.797   1.583  1.00  0.00     0.251 C 
ATOM     34  H   UNL     1       8.184   0.492   2.702  1.00  0.00     0.163 HD
ATOM     35  O   UNL     1      10.251  -0.731   2.273  1.00  0.00    -0.269 OA
BRANCH  33  36
ATOM     36  C   UNL     1       9.241  -1.550   0.314  1.00  0.00     0.039 A 
ATOM     37  C   UNL     1       9.814  -2.822   0.275  1.00  0.00     0.014 A 
ATOM     38  C   UNL     1       8.677  -0.991  -0.838  1.00  0.00     0.014 A 
ATOM     39  C   UNL     1       9.780  -3.556  -0.912  1.00  0.00     0.010 A 
ATOM     40  C   UNL     1       8.582  -1.751  -1.998  1.00  0.00     0.010 A 
ATOM     41  C   UNL     1       9.140  -3.038  -2.050  1.00  0.00    -0.014 A 
BRANCH  41  42
ATOM     42  C   UNL     1       9.045  -3.821  -3.308  1.00  0.00     0.031 A 
ATOM     43  C   UNL     1       9.713  -3.315  -4.559  1.00  0.00     0.074 A 
ATOM     44  C   UNL     1       8.297  -4.942  -3.342  1.00  0.00     0.049 A 
ATOM     45  N   UNL     1       9.670  -3.807  -5.770  1.00  0.00    -0.248 NA
ATOM     46  C   UNL     1      10.509  -2.082  -4.440  1.00  0.00     0.031 C 
ATOM     47  C   UNL     1       7.569  -5.510  -2.204  1.00  0.00     0.029 A 
ATOM     48  N   UNL     1       8.010  -5.797  -4.377  1.00  0.00    -0.354 N 
ATOM     49  C   UNL     1      10.409  -2.932  -6.559  1.00  0.00     0.074 A 
ATOM     50  C   UNL     1      10.857  -1.859  -5.700  1.00  0.00     0.031 C 
ATOM     51  C   UNL     1       6.931  -6.623  -2.601  1.00  0.00     0.029 A 
ATOM     52  C   UNL     1       7.164  -6.824  -4.027  1.00  0.00     0.049 A 
ATOM     53  H   UNL     1       8.376  -5.685  -5.284  1.00  0.00     0.167 HD
ATOM     54  C   UNL     1      10.697  -3.023  -7.879  1.00  0.00     0.031 A 
ATOM     55  C   UNL     1       6.620  -7.805  -4.773  1.00  0.00     0.031 A 
ATOM     56  C   UNL     1      10.265  -4.106  -8.723  1.00  0.00     0.049 A 
ATOM     57  C   UNL     1       6.958  -7.883  -6.238  1.00  0.00     0.074 A 
ATOM     58  C   UNL     1      10.570  -4.327 -10.054  1.00  0.00     0.029 A 
ATOM     59  N   UNL     1       9.437  -5.142  -8.322  1.00  0.00    -0.354 N 
ATOM     60  N   UNL     1       7.725  -7.091  -6.949  1.00  0.00    -0.248 NA
ATOM     61  C   UNL     1       6.369  -8.993  -7.001  1.00  0.00     0.031 C 
ATOM     62  C   UNL     1       9.872  -5.461 -10.477  1.00  0.00     0.029 A 
ATOM     63  C   UNL     1       9.194  -5.989  -9.390  1.00  0.00     0.049 A 
ATOM     64  H   UNL     1       9.076  -5.259  -7.414  1.00  0.00     0.167 HD
ATOM     65  C   UNL     1       7.738  -7.627  -8.232  1.00  0.00     0.074 A 
ATOM     66  C   UNL     1       6.911  -8.815  -8.198  1.00  0.00     0.031 C 
ATOM     67  C   UNL     1       8.379  -7.176  -9.338  1.00  0.00     0.031 A 
BRANCH  54  68
ATOM     68  C   UNL     1      11.507  -1.918  -8.505  1.00  0.00    -0.014 A 
ATOM     69  C   UNL     1      12.871  -1.752  -8.210  1.00  0.00     0.010 A 
ATOM     70  C   UNL     1      10.908  -1.081  -9.466  1.00  0.00     0.010 A 
ATOM     71  C   UNL     1      13.616  -0.754  -8.845  1.00  0.00     0.020 A 
ATOM     72  C   UNL     1      11.656  -0.102 -10.124  1.00  0.00     0.020 A 
ATOM     73  C   UNL     1      13.004   0.063  -9.801  1.00  0.00     0.054 A 
BRANCH  73  74
ATOM     74  S   UNL     1      14.009   1.314 -10.646  1.00  0.00     0.124 S 
ATOM     75  O   UNL     1      14.235   2.288  -9.581  1.00  0.00    -0.237 OA
ATOM     76  O   UNL     1      15.184   0.552 -11.060  1.00  0.00    -0.237 OA
ATOM     77  O   UNL     1      13.150   1.772 -11.736  1.00  0.00    -0.744 OA
ENDBRANCH  73  74
ENDBRANCH  54  68
BRANCH  55  78
ATOM     78  C   UNL     1       5.687  -8.786  -4.151  1.00  0.00    -0.014 A 
ATOM     79  C   UNL     1       6.051 -10.136  -4.005  1.00  0.00     0.010 A 
ATOM     80  C   UNL     1       4.419  -8.369  -3.704  1.00  0.00     0.010 A 
ATOM     81  C   UNL     1       5.153 -11.056  -3.454  1.00  0.00     0.020 A 
ATOM     82  C   UNL     1       3.532  -9.279  -3.122  1.00  0.00     0.020 A 
ATOM     83  C   UNL     1       3.899 -10.621  -3.016  1.00  0.00     0.054 A 
BRANCH  83  84
ATOM     84  S   UNL     1       2.761 -11.826  -2.279  1.00  0.00     0.124 S 
ATOM     85  O   UNL     1       2.337 -12.595  -3.444  1.00  0.00    -0.237 OA
ATOM     86  O   UNL     1       3.620 -12.532  -1.331  1.00  0.00    -0.237 OA
ATOM     87  O   UNL     1       1.728 -10.991  -1.669  1.00  0.00    -0.744 OA
ENDBRANCH  83  84
ENDBRANCH  55  78
BRANCH  67  88
ATOM     88  C   UNL     1       8.265  -7.993 -10.598  1.00  0.00    -0.014 A 
ATOM     89  C   UNL     1       7.073  -8.034 -11.341  1.00  0.00     0.010 A 
ATOM     90  C   UNL     1       9.403  -8.661 -11.088  1.00  0.00     0.010 A 
ATOM     91  C   UNL     1       7.016  -8.745 -12.542  1.00  0.00     0.020 A 
ATOM     92  C   UNL     1       9.358  -9.347 -12.303  1.00  0.00     0.020 A 
ATOM     93  C   UNL     1       8.161  -9.393 -13.019  1.00  0.00     0.054 A 
BRANCH  93  94
ATOM     94  S   UNL     1       8.078 -10.251 -14.614  1.00  0.00     0.124 S 
ATOM     95  O   UNL     1       7.266 -11.420 -14.289  1.00  0.00    -0.237 OA
ATOM     96  O   UNL     1       7.437  -9.261 -15.476  1.00  0.00    -0.237 OA
ATOM     97  O   UNL     1       9.476 -10.532 -14.931  1.00  0.00    -0.744 OA
ENDBRANCH  93  94
ENDBRANCH  67  88
ENDBRANCH  41  42
ENDBRANCH  33  36
ENDBRANCH  31  32
ENDBRANCH  30  31
ENDBRANCH  29  30
ENDBRANCH   1  29
TORSDOF 20
