REMARK SMILES CCOc1ccc(OCC(=O)N2CCC[C@H](C(=O)NCCCCCCNC(=O)c3ccc(-c4c5nc(c(-c6ccc(S(=O)(=O)[O-])cc6)c6ccc([nH]6)c(-c6ccc(S(=O)(=O)[O-])cc6)c6nc(c(-c7ccc(S(=O)(=O)[O-])cc7)c7ccc4[nH]7)C=C6)C=C5)cc3)C2)cc1
REMARK SMILES IDX 21 1 20 2 19 3 17 4 18 5 16 7 12 8 13 9 89 10 14 11 15 12
REMARK SMILES IDX 10 13 11 14 9 15 8 16 7 17 4 18 5 19 91 20 6 21 90 22 3 23
REMARK SMILES IDX 2 24 1 25 22 26 23 27 24 28 25 29 26 30 27 31 28 33 29 34
REMARK SMILES IDX 30 35 88 36 31 37 87 38 32 39 33 40 34 41 81 42 35 43 86 44
REMARK SMILES IDX 80 45 82 46 36 47 85 48 79 49 78 50 37 52 67 53 48 54 66 55
REMARK SMILES IDX 49 56 52 57 65 58 83 59 50 60 51 61 64 63 84 64 53 65 38 66
REMARK SMILES IDX 39 67 47 68 40 69 46 70 41 71 42 72 43 73 44 74 45 75 68 76
REMARK SMILES IDX 69 77 77 78 70 79 76 80 71 81 72 82 73 83 74 84 75 85 54 86
REMARK SMILES IDX 55 87 63 88 56 89 62 90 57 91 58 92 59 93 60 94 61 95
REMARK H PARENT 19 6 26 32 82 51 52 62
REMARK Flexibility Score: inf
ROOT
ATOM      1  C   UNL     1       5.582   2.508  -1.851  1.00  0.00     0.021 C 
ENDROOT
BRANCH   1   2
ATOM      2  C   UNL     1       5.658   0.986  -1.762  1.00  0.00     0.116 C 
BRANCH   2   3
ATOM      3  N   UNL     1       4.789   0.311  -2.699  1.00  0.00    -0.356 N 
ATOM      4  C   UNL     1       5.030  -0.627  -3.648  1.00  0.00     0.224 C 
ATOM      5  O   UNL     1       4.026  -1.120  -4.183  1.00  0.00    -0.275 OA
ATOM      6  H   UNL     1       3.845   0.583  -2.636  1.00  0.00     0.163 HD
BRANCH   4   7
ATOM      7  C   UNL     1       6.419  -1.089  -4.115  1.00  0.00     0.098 C 
ATOM      8  N   UNL     1       8.003  -1.248  -2.207  1.00  0.00    -0.339 N 
ATOM      9  C   UNL     1       8.957  -0.319  -2.821  1.00  0.00     0.119 C 
ATOM     10  C   UNL     1       7.181  -1.994  -3.146  1.00  0.00     0.133 C 
ATOM     11  C   UNL     1       8.336   0.628  -3.850  1.00  0.00     0.022 C 
ATOM     12  C   UNL     1       7.299  -0.020  -4.764  1.00  0.00     0.017 C 
BRANCH   8  13
ATOM     13  C   UNL     1       7.922  -1.334  -0.821  1.00  0.00     0.260 C 
ATOM     14  O   UNL     1       8.326  -0.408  -0.107  1.00  0.00    -0.271 OA
BRANCH  13  15
ATOM     15  C   UNL     1       7.460  -2.649  -0.138  1.00  0.00     0.329 C 
BRANCH  15  16
ATOM     16  O   UNL     1       6.414  -3.463  -0.615  1.00  0.00    -0.484 OA
BRANCH  16  17
ATOM     17  C   UNL     1       5.124  -3.042  -0.469  1.00  0.00     0.120 A 
ATOM     18  C   UNL     1       2.414  -2.372  -0.424  1.00  0.00     0.119 A 
ATOM     19  C   UNL     1       2.838  -3.456  -1.183  1.00  0.00     0.050 A 
ATOM     20  C   UNL     1       3.326  -1.651   0.344  1.00  0.00     0.050 A 
ATOM     21  C   UNL     1       4.192  -3.788  -1.202  1.00  0.00     0.050 A 
ATOM     22  C   UNL     1       4.686  -1.978   0.313  1.00  0.00     0.050 A 
BRANCH  18  23
ATOM     23  O   UNL     1       1.076  -2.104  -0.356  1.00  0.00    -0.494 OA
BRANCH  23  24
ATOM     24  C   UNL     1       0.707  -0.964  -1.141  1.00  0.00     0.226 C 
ATOM     25  C   UNL     1       0.655   0.288  -0.281  1.00  0.00     0.049 C 
ENDBRANCH  23  24
ENDBRANCH  18  23
ENDBRANCH  16  17
ENDBRANCH  15  16
ENDBRANCH  13  15
ENDBRANCH   8  13
ENDBRANCH   4   7
ENDBRANCH   2   3
ENDBRANCH   1   2
BRANCH   1  26
ATOM     26  C   UNL     1       4.678   3.153  -0.798  1.00  0.00     0.002 C 
BRANCH  26  27
ATOM     27  C   UNL     1       5.043   2.857   0.664  1.00  0.00     0.002 C 
BRANCH  27  28
ATOM     28  C   UNL     1       6.494   3.143   1.067  1.00  0.00     0.021 C 
BRANCH  28  29
ATOM     29  C   UNL     1       6.965   4.579   0.843  1.00  0.00     0.116 C 
BRANCH  29  30
ATOM     30  N   UNL     1       6.119   5.548   1.522  1.00  0.00    -0.352 N 
ATOM     31  C   UNL     1       6.443   6.512   2.443  1.00  0.00     0.251 C 
ATOM     32  H   UNL     1       5.165   5.505   1.284  1.00  0.00     0.163 HD
ATOM     33  O   UNL     1       5.549   7.096   3.048  1.00  0.00    -0.269 OA
BRANCH  31  34
ATOM     34  C   UNL     1       7.858   6.845   2.716  1.00  0.00     0.039 A 
ATOM     35  C   UNL     1       8.260   7.045   4.040  1.00  0.00     0.014 A 
ATOM     36  C   UNL     1       8.777   7.004   1.674  1.00  0.00     0.014 A 
ATOM     37  C   UNL     1       9.593   7.353   4.323  1.00  0.00     0.010 A 
ATOM     38  C   UNL     1      10.118   7.250   1.962  1.00  0.00     0.010 A 
ATOM     39  C   UNL     1      10.539   7.432   3.288  1.00  0.00    -0.014 A 
BRANCH  39  40
ATOM     40  C   UNL     1      11.970   7.708   3.574  1.00  0.00     0.031 A 
ATOM     41  C   UNL     1      12.609   8.978   3.081  1.00  0.00     0.074 A 
ATOM     42  C   UNL     1      12.708   6.788   4.226  1.00  0.00     0.049 A 
ATOM     43  N   UNL     1      13.857   9.361   3.169  1.00  0.00    -0.248 NA
ATOM     44  C   UNL     1      11.736   9.933   2.378  1.00  0.00     0.031 C 
ATOM     45  C   UNL     1      12.213   5.500   4.719  1.00  0.00     0.029 A 
ATOM     46  N   UNL     1      14.034   6.790   4.577  1.00  0.00    -0.354 N 
ATOM     47  C   UNL     1      13.922  10.593   2.528  1.00  0.00     0.074 A 
ATOM     48  C   UNL     1      12.600  10.869   2.011  1.00  0.00     0.031 C 
ATOM     49  C   UNL     1      13.219   4.844   5.319  1.00  0.00     0.029 A 
ATOM     50  C   UNL     1      14.436   5.644   5.222  1.00  0.00     0.049 A 
ATOM     51  H   UNL     1      14.642   7.541   4.385  1.00  0.00     0.167 HD
ATOM     52  C   UNL     1      14.980  11.429   2.400  1.00  0.00     0.031 A 
ATOM     53  C   UNL     1      15.649   5.271   5.673  1.00  0.00     0.031 A 
ATOM     54  C   UNL     1      16.294  11.153   2.919  1.00  0.00     0.049 A 
ATOM     55  C   UNL     1      16.812   6.212   5.513  1.00  0.00     0.074 A 
ATOM     56  C   UNL     1      17.425  11.950   2.868  1.00  0.00     0.029 A 
ATOM     57  N   UNL     1      16.653   9.992   3.588  1.00  0.00    -0.354 N 
ATOM     58  N   UNL     1      16.841   7.395   4.945  1.00  0.00    -0.248 NA
ATOM     59  C   UNL     1      18.101   5.777   6.066  1.00  0.00     0.031 C 
ATOM     60  C   UNL     1      18.478  11.252   3.470  1.00  0.00     0.029 A 
ATOM     61  C   UNL     1      17.989  10.046   3.944  1.00  0.00     0.049 A 
ATOM     62  H   UNL     1      16.046   9.242   3.781  1.00  0.00     0.167 HD
ATOM     63  C   UNL     1      18.145   7.854   5.095  1.00  0.00     0.074 A 
ATOM     64  C   UNL     1      18.868   6.830   5.821  1.00  0.00     0.031 C 
ATOM     65  C   UNL     1      18.694   9.018   4.669  1.00  0.00     0.031 A 
BRANCH  52  66
ATOM     66  C   UNL     1      14.755  12.729   1.672  1.00  0.00    -0.014 A 
ATOM     67  C   UNL     1      13.978  13.752   2.247  1.00  0.00     0.010 A 
ATOM     68  C   UNL     1      15.355  12.948   0.419  1.00  0.00     0.010 A 
ATOM     69  C   UNL     1      13.771  14.953   1.564  1.00  0.00     0.020 A 
ATOM     70  C   UNL     1      15.173  14.160  -0.255  1.00  0.00     0.020 A 
ATOM     71  C   UNL     1      14.367  15.148   0.315  1.00  0.00     0.054 A 
BRANCH  71  72
ATOM     72  S   UNL     1      14.098  16.726  -0.538  1.00  0.00     0.124 S 
ATOM     73  O   UNL     1      12.712  16.595  -0.982  1.00  0.00    -0.237 OA
ATOM     74  O   UNL     1      14.328  17.707   0.519  1.00  0.00    -0.237 OA
ATOM     75  O   UNL     1      15.096  16.719  -1.605  1.00  0.00    -0.744 OA
ENDBRANCH  71  72
ENDBRANCH  52  66
BRANCH  53  76
ATOM     76  C   UNL     1      15.825   3.942   6.322  1.00  0.00    -0.014 A 
ATOM     77  C   UNL     1      16.066   3.844   7.703  1.00  0.00     0.010 A 
ATOM     78  C   UNL     1      15.743   2.765   5.556  1.00  0.00     0.010 A 
ATOM     79  C   UNL     1      16.246   2.594   8.303  1.00  0.00     0.020 A 
ATOM     80  C   UNL     1      15.895   1.512   6.157  1.00  0.00     0.020 A 
ATOM     81  C   UNL     1      16.160   1.435   7.526  1.00  0.00     0.054 A 
BRANCH  81  82
ATOM     82  S   UNL     1      16.357  -0.179   8.331  1.00  0.00     0.124 S 
ATOM     83  O   UNL     1      17.798  -0.231   8.556  1.00  0.00    -0.237 OA
ATOM     84  O   UNL     1      15.533  -0.037   9.529  1.00  0.00    -0.237 OA
ATOM     85  O   UNL     1      15.842  -1.120   7.338  1.00  0.00    -0.744 OA
ENDBRANCH  81  82
ENDBRANCH  53  76
BRANCH  65  86
ATOM     86  C   UNL     1      20.140   9.265   5.006  1.00  0.00    -0.014 A 
ATOM     87  C   UNL     1      21.170   8.569   4.351  1.00  0.00     0.010 A 
ATOM     88  C   UNL     1      20.471  10.249   5.956  1.00  0.00     0.010 A 
ATOM     89  C   UNL     1      22.507   8.831   4.662  1.00  0.00     0.020 A 
ATOM     90  C   UNL     1      21.807  10.532   6.250  1.00  0.00     0.020 A 
ATOM     91  C   UNL     1      22.817   9.810   5.610  1.00  0.00     0.054 A 
BRANCH  91  92
ATOM     92  S   UNL     1      24.561  10.163   5.963  1.00  0.00     0.124 S 
ATOM     93  O   UNL     1      24.949   9.006   6.764  1.00  0.00    -0.237 OA
ATOM     94  O   UNL     1      25.152  10.231   4.629  1.00  0.00    -0.237 OA
ATOM     95  O   UNL     1      24.518  11.434   6.684  1.00  0.00    -0.744 OA
ENDBRANCH  91  92
ENDBRANCH  65  86
ENDBRANCH  39  40
ENDBRANCH  31  34
ENDBRANCH  29  30
ENDBRANCH  28  29
ENDBRANCH  27  28
ENDBRANCH  26  27
ENDBRANCH   1  26
TORSDOF 22
