REMARK SMILES CCN(CCC(=O)NCCCCCCNC(=O)c1ccc(-c2c3nc(c(-c4ccc(S(=O)(=O)[O-])cc4)c4ccc([nH]4)c(-c4ccc(S(=O)(=O)[O-])cc4)c4nc(c(-c5ccc(S(=O)(=O)[O-])cc5)c5ccc2[nH]5)C=C4)C=C3)cc1)C(=O)c1cc(Cl)ccc1F
REMARK SMILES IDX 11 1 10 2 9 3 8 4 6 5 7 6 5 8 4 9 3 10 2 11 1 12 78 13 79 14
REMARK SMILES IDX 80 15 81 16 86 17 82 18 85 19 87 20 83 21 84 22 12 23 13 24
REMARK SMILES IDX 14 25 15 26 16 27 17 29 18 30 19 31 77 32 20 33 76 34 21 35
REMARK SMILES IDX 22 36 23 37 70 38 24 39 75 40 69 41 71 42 25 43 74 44 68 45
REMARK SMILES IDX 67 46 26 48 56 49 37 50 55 51 38 52 41 53 54 54 72 55 39 56
REMARK SMILES IDX 40 57 53 59 73 60 42 61 27 62 28 63 36 64 29 65 35 66 30 67
REMARK SMILES IDX 31 68 32 69 33 70 34 71 57 72 58 73 66 74 59 75 65 76 60 77
REMARK SMILES IDX 61 78 62 79 63 80 64 81 43 82 44 83 52 84 45 85 51 86 46 87
REMARK SMILES IDX 47 88 48 89 49 90 50 91
REMARK H PARENT 8 7 15 28 71 47 41 58
REMARK Flexibility Score: inf
ROOT
ATOM      1  C   UNL     1       4.947  -1.132   3.103  1.00  0.00     0.002 C 
ENDROOT
BRANCH   1   2
ATOM      2  C   UNL     1       3.457  -1.284   2.781  1.00  0.00     0.021 C 
BRANCH   2   3
ATOM      3  C   UNL     1       2.714  -2.218   3.728  1.00  0.00     0.116 C 
BRANCH   3   4
ATOM      4  N   UNL     1       2.364  -1.542   4.964  1.00  0.00    -0.356 N 
ATOM      5  C   UNL     1       1.198  -0.934   5.318  1.00  0.00     0.221 C 
ATOM      6  O   UNL     1       1.135  -0.383   6.419  1.00  0.00    -0.275 OA
ATOM      7  H   UNL     1       3.073  -1.520   5.646  1.00  0.00     0.163 HD
BRANCH   5   8
ATOM      8  C   UNL     1       0.011  -0.949   4.386  1.00  0.00     0.121 C 
BRANCH   8   9
ATOM      9  C   UNL     1      -0.285   0.428   3.806  1.00  0.00     0.129 C 
BRANCH   9  10
ATOM     10  N   UNL     1       0.550   0.854   2.672  1.00  0.00    -0.338 N 
BRANCH  10  11
ATOM     11  C   UNL     1       0.259   0.147   1.408  1.00  0.00     0.116 C 
ATOM     12  C   UNL     1       0.912   0.607   0.114  1.00  0.00     0.027 C 
ENDBRANCH  10  11
BRANCH  10  13
ATOM     13  C   UNL     1       1.362   2.003   2.702  1.00  0.00     0.256 C 
ATOM     14  O   UNL     1       1.542   2.730   1.726  1.00  0.00    -0.269 OA
BRANCH  13  15
ATOM     15  C   UNL     1       2.289   2.245   3.841  1.00  0.00     0.077 A 
ATOM     16  C   UNL     1       3.659   2.282   3.513  1.00  0.00     0.037 A 
ATOM     17  C   UNL     1       1.923   2.486   5.161  1.00  0.00     0.136 A 
ATOM     18  C   UNL     1       4.626   2.445   4.505  1.00  0.00     0.042 A 
ATOM     19  C   UNL     1       2.892   2.604   6.162  1.00  0.00     0.041 A 
ATOM     20  F   UNL     1       0.649   2.682   5.517  1.00  0.00    -0.206 F 
ATOM     21  Cl  UNL     1       6.293   2.482   4.084  1.00  0.00    -0.084 Cl
ATOM     22  C   UNL     1       4.248   2.571   5.838  1.00  0.00     0.023 A 
ENDBRANCH  13  15
ENDBRANCH  10  13
ENDBRANCH   9  10
ENDBRANCH   8   9
ENDBRANCH   5   8
ENDBRANCH   3   4
ENDBRANCH   2   3
ENDBRANCH   1   2
BRANCH   1  23
ATOM     23  C   UNL     1       5.809  -2.346   2.739  1.00  0.00     0.002 C 
BRANCH  23  24
ATOM     24  C   UNL     1       5.630  -2.868   1.309  1.00  0.00     0.021 C 
BRANCH  24  25
ATOM     25  C   UNL     1       5.820  -1.814   0.219  1.00  0.00     0.116 C 
BRANCH  25  26
ATOM     26  N   UNL     1       7.220  -1.458   0.053  1.00  0.00    -0.352 N 
ATOM     27  C   UNL     1       8.092  -1.836  -0.940  1.00  0.00     0.251 C 
ATOM     28  H   UNL     1       7.593  -0.866   0.745  1.00  0.00     0.163 HD
ATOM     29  O   UNL     1       9.297  -1.647  -0.812  1.00  0.00    -0.269 OA
BRANCH  27  30
ATOM     30  C   UNL     1       7.569  -2.494  -2.158  1.00  0.00     0.039 A 
ATOM     31  C   UNL     1       8.144  -3.692  -2.588  1.00  0.00     0.014 A 
ATOM     32  C   UNL     1       6.511  -1.924  -2.872  1.00  0.00     0.014 A 
ATOM     33  C   UNL     1       7.611  -4.358  -3.697  1.00  0.00     0.010 A 
ATOM     34  C   UNL     1       5.946  -2.616  -3.940  1.00  0.00     0.010 A 
ATOM     35  C   UNL     1       6.487  -3.842  -4.361  1.00  0.00    -0.014 A 
BRANCH  35  36
ATOM     36  C   UNL     1       5.847  -4.557  -5.496  1.00  0.00     0.031 A 
ATOM     37  C   UNL     1       5.833  -3.927  -6.864  1.00  0.00     0.074 A 
ATOM     38  C   UNL     1       5.185  -5.711  -5.278  1.00  0.00     0.049 A 
ATOM     39  N   UNL     1       5.182  -4.300  -7.935  1.00  0.00    -0.248 NA
ATOM     40  C   UNL     1       6.633  -2.704  -7.040  1.00  0.00     0.031 C 
ATOM     41  C   UNL     1       5.093  -6.410  -3.993  1.00  0.00     0.029 A 
ATOM     42  N   UNL     1       4.435  -6.486  -6.129  1.00  0.00    -0.354 N 
ATOM     43  C   UNL     1       5.456  -3.336  -8.898  1.00  0.00     0.074 A 
ATOM     44  C   UNL     1       6.323  -2.355  -8.282  1.00  0.00     0.031 C 
ATOM     45  C   UNL     1       4.328  -7.505  -4.141  1.00  0.00     0.029 A 
ATOM     46  C   UNL     1       3.842  -7.565  -5.516  1.00  0.00     0.049 A 
ATOM     47  H   UNL     1       4.332  -6.287  -7.088  1.00  0.00     0.167 HD
ATOM     48  C   UNL     1       5.027  -3.275 -10.181  1.00  0.00     0.031 A 
ATOM     49  C   UNL     1       2.982  -8.485  -5.997  1.00  0.00     0.031 A 
ATOM     50  C   UNL     1       4.205  -4.274 -10.808  1.00  0.00     0.049 A 
ATOM     51  C   UNL     1       2.543  -8.408  -7.434  1.00  0.00     0.074 A 
ATOM     52  C   UNL     1       3.791  -4.340 -12.127  1.00  0.00     0.029 A 
ATOM     53  N   UNL     1       3.675  -5.381 -10.165  1.00  0.00    -0.354 N 
ATOM     54  N   UNL     1       2.866  -7.522  -8.346  1.00  0.00    -0.248 NA
ATOM     55  C   UNL     1       1.627  -9.455  -7.909  1.00  0.00     0.031 C 
ATOM     56  C   UNL     1       2.981  -5.469 -12.275  1.00  0.00     0.029 A 
ATOM     57  C   UNL     1       2.924  -6.126 -11.057  1.00  0.00     0.049 A 
ATOM     58  H   UNL     1       3.812  -5.604  -9.216  1.00  0.00     0.167 HD
ATOM     59  C   UNL     1       2.216  -7.923  -9.508  1.00  0.00     0.074 A 
ATOM     60  C   UNL     1       1.487  -9.132  -9.188  1.00  0.00     0.031 C 
ATOM     61  C   UNL     1       2.224  -7.341 -10.730  1.00  0.00     0.031 A 
BRANCH  48  62
ATOM     62  C   UNL     1       5.433  -2.084 -11.004  1.00  0.00    -0.014 A 
ATOM     63  C   UNL     1       6.738  -1.962 -11.510  1.00  0.00     0.010 A 
ATOM     64  C   UNL     1       4.469  -1.117 -11.343  1.00  0.00     0.010 A 
ATOM     65  C   UNL     1       7.079  -0.880 -12.326  1.00  0.00     0.020 A 
ATOM     66  C   UNL     1       4.801  -0.044 -12.175  1.00  0.00     0.020 A 
ATOM     67  C   UNL     1       6.108   0.073 -12.652  1.00  0.00     0.054 A 
BRANCH  67  68
ATOM     68  S   UNL     1       6.562   1.438 -13.757  1.00  0.00     0.124 S 
ATOM     69  O   UNL     1       7.326   2.306 -12.864  1.00  0.00    -0.237 OA
ATOM     70  O   UNL     1       7.339   0.768 -14.796  1.00  0.00    -0.237 OA
ATOM     71  O   UNL     1       5.275   1.972 -14.195  1.00  0.00    -0.744 OA
ENDBRANCH  67  68
ENDBRANCH  48  62
BRANCH  49  72
ATOM     72  C   UNL     1       2.455  -9.555  -5.109  1.00  0.00    -0.014 A 
ATOM     73  C   UNL     1       2.881 -10.886  -5.265  1.00  0.00     0.010 A 
ATOM     74  C   UNL     1       1.505  -9.251  -4.117  1.00  0.00     0.010 A 
ATOM     75  C   UNL     1       2.342 -11.900  -4.468  1.00  0.00     0.020 A 
ATOM     76  C   UNL     1       0.982 -10.258  -3.302  1.00  0.00     0.020 A 
ATOM     77  C   UNL     1       1.391 -11.580  -3.495  1.00  0.00     0.054 A 
BRANCH  77  78
ATOM     78  S   UNL     1       0.717 -12.902  -2.450  1.00  0.00     0.124 S 
ATOM     79  O   UNL     1      -0.288 -13.495  -3.327  1.00  0.00    -0.237 OA
ATOM     80  O   UNL     1       1.891 -13.728  -2.181  1.00  0.00    -0.237 OA
ATOM     81  O   UNL     1       0.194 -12.181  -1.291  1.00  0.00    -0.744 OA
ENDBRANCH  77  78
ENDBRANCH  49  72
BRANCH  61  82
ATOM     82  C   UNL     1       1.466  -8.022 -11.835  1.00  0.00    -0.014 A 
ATOM     83  C   UNL     1       0.067  -7.928 -11.919  1.00  0.00     0.010 A 
ATOM     84  C   UNL     1       2.175  -8.692 -12.848  1.00  0.00     0.010 A 
ATOM     85  C   UNL     1      -0.613  -8.503 -12.996  1.00  0.00     0.020 A 
ATOM     86  C   UNL     1       1.501  -9.251 -13.936  1.00  0.00     0.020 A 
ATOM     87  C   UNL     1       0.109  -9.159 -13.999  1.00  0.00     0.054 A 
BRANCH  87  88
ATOM     88  S   UNL     1      -0.786  -9.834 -15.425  1.00  0.00     0.124 S 
ATOM     89  O   UNL     1      -1.353 -11.062 -14.875  1.00  0.00    -0.237 OA
ATOM     90  O   UNL     1      -1.750  -8.779 -15.731  1.00  0.00    -0.237 OA
ATOM     91  O   UNL     1       0.258 -10.024 -16.430  1.00  0.00    -0.744 OA
ENDBRANCH  87  88
ENDBRANCH  61  82
ENDBRANCH  35  36
ENDBRANCH  27  30
ENDBRANCH  25  26
ENDBRANCH  24  25
ENDBRANCH  23  24
ENDBRANCH   1  23
TORSDOF 21
