REMARK SMILES CC(C)(C)OC(=O)N[C@H](Cc1ccc(O)c(Cl)c1)C(=O)NCCCCCCNC(=O)c1ccc(-c2c3nc(c(-c4ccc(S(=O)(=O)[O-])cc4)c4ccc([nH]4)c(-c4ccc(S(=O)(=O)[O-])cc4)c4nc(c(-c5ccc(S(=O)(=O)[O-])cc5)c5ccc2[nH]5)C=C4)C=C3)cc1
REMARK SMILES IDX 24 1 23 2 22 3 21 4 19 5 20 6 9 8 8 9 6 10 7 11 5 13 2 14
REMARK SMILES IDX 1 15 3 16 4 17 10 18 11 19 12 20 18 21 13 22 16 23 14 24
REMARK SMILES IDX 17 25 15 26 25 28 26 29 27 30 28 31 29 32 30 34 31 35 32 36
REMARK SMILES IDX 90 37 33 38 89 39 34 40 35 41 36 42 83 43 37 44 88 45 82 46
REMARK SMILES IDX 84 47 38 48 87 49 81 50 80 51 39 53 69 54 50 55 68 56 51 57
REMARK SMILES IDX 54 58 67 59 85 60 52 61 53 62 66 64 86 65 55 66 40 67 41 68
REMARK SMILES IDX 49 69 42 70 48 71 43 72 44 73 45 74 46 75 47 76 70 77 71 78
REMARK SMILES IDX 79 79 72 80 78 81 73 82 74 83 75 84 76 85 77 86 56 87 57 88
REMARK SMILES IDX 65 89 58 90 64 91 59 92 60 93 61 94 62 95 63 96
REMARK H PARENT 21 7 8 12 15 27 28 33 84 52 54 63
REMARK Flexibility Score: inf
ROOT
ATOM      1  C   UNL     1      -0.802  -9.180   2.148  1.00  0.00     0.002 C 
ENDROOT
BRANCH   1   2
ATOM      2  C   UNL     1      -0.168  -7.907   2.718  1.00  0.00     0.021 C 
BRANCH   2   3
ATOM      3  C   UNL     1       1.085  -7.477   1.969  1.00  0.00     0.116 C 
BRANCH   3   4
ATOM      4  N   UNL     1       0.741  -6.984   0.648  1.00  0.00    -0.354 N 
ATOM      5  C   UNL     1       1.196  -5.879  -0.008  1.00  0.00     0.243 C 
ATOM      6  O   UNL     1       0.700  -5.613  -1.107  1.00  0.00    -0.273 OA
ATOM      7  H   UNL     1       0.084  -7.526   0.155  1.00  0.00     0.163 HD
BRANCH   5   8
ATOM      8  C   UNL     1       2.174  -4.902   0.676  1.00  0.00     0.179 C 
BRANCH   8   9
ATOM      9  N   UNL     1       3.391  -5.513   1.233  1.00  0.00    -0.309 N 
ATOM     10  C   UNL     1       4.149  -6.516   0.701  1.00  0.00     0.408 C 
ATOM     11  O   UNL     1       5.301  -6.693   1.092  1.00  0.00    -0.225 OA
ATOM     12  H   UNL     1       3.696  -5.153   2.097  1.00  0.00     0.167 HD
BRANCH  10  13
ATOM     13  O   UNL     1       3.487  -7.298  -0.170  1.00  0.00    -0.444 OA
BRANCH  13  14
ATOM     14  C   UNL     1       4.015  -8.577  -0.614  1.00  0.00     0.106 C 
ATOM     15  C   UNL     1       2.886  -9.194  -1.458  1.00  0.00     0.056 C 
ATOM     16  C   UNL     1       4.303  -9.524   0.560  1.00  0.00     0.056 C 
ATOM     17  C   UNL     1       5.249  -8.388  -1.496  1.00  0.00     0.056 C 
ENDBRANCH  13  14
ENDBRANCH  10  13
ENDBRANCH   8   9
BRANCH   8  18
ATOM     18  C   UNL     1       1.313  -4.142   1.728  1.00  0.00     0.070 C 
BRANCH  18  19
ATOM     19  C   UNL     1       1.982  -3.113   2.607  1.00  0.00    -0.044 A 
ATOM     20  C   UNL     1       2.866  -3.492   3.630  1.00  0.00     0.008 A 
ATOM     21  C   UNL     1       1.628  -1.761   2.492  1.00  0.00     0.028 A 
ATOM     22  C   UNL     1       3.435  -2.537   4.476  1.00  0.00     0.048 A 
ATOM     23  C   UNL     1       2.172  -0.807   3.357  1.00  0.00     0.083 A 
ATOM     24  C   UNL     1       3.087  -1.195   4.338  1.00  0.00     0.134 A 
ATOM     25  Cl  UNL     1       1.664   0.834   3.196  1.00  0.00    -0.080 Cl
BRANCH  24  26
ATOM     26  O   UNL     1       3.635  -0.262   5.174  1.00  0.00    -0.506 OA
ATOM     27  H   UNL     1       4.249  -0.525   5.831  1.00  0.00     0.293 HD
ENDBRANCH  24  26
ENDBRANCH  18  19
ENDBRANCH   8  18
ENDBRANCH   5   8
ENDBRANCH   3   4
ENDBRANCH   2   3
ENDBRANCH   1   2
BRANCH   1  28
ATOM     28  C   UNL     1       0.122 -10.403   2.141  1.00  0.00     0.002 C 
BRANCH  28  29
ATOM     29  C   UNL     1       0.733 -10.750   3.500  1.00  0.00     0.021 C 
BRANCH  29  30
ATOM     30  C   UNL     1      -0.292 -10.970   4.607  1.00  0.00     0.116 C 
BRANCH  30  31
ATOM     31  N   UNL     1      -1.201 -12.059   4.292  1.00  0.00    -0.352 N 
ATOM     32  C   UNL     1      -1.560 -13.132   5.067  1.00  0.00     0.251 C 
ATOM     33  H   UNL     1      -1.616 -12.023   3.399  1.00  0.00     0.163 HD
ATOM     34  O   UNL     1      -2.175 -14.072   4.574  1.00  0.00    -0.269 OA
BRANCH  32  35
ATOM     35  C   UNL     1      -1.184 -13.149   6.495  1.00  0.00     0.039 A 
ATOM     36  C   UNL     1      -0.629 -14.310   7.035  1.00  0.00     0.014 A 
ATOM     37  C   UNL     1      -1.371 -12.015   7.292  1.00  0.00     0.014 A 
ATOM     38  C   UNL     1      -0.215 -14.318   8.367  1.00  0.00     0.010 A 
ATOM     39  C   UNL     1      -0.889 -12.001   8.596  1.00  0.00     0.010 A 
ATOM     40  C   UNL     1      -0.314 -13.155   9.150  1.00  0.00    -0.014 A 
BRANCH  40  41
ATOM     41  C   UNL     1       0.176 -13.128  10.550  1.00  0.00     0.031 A 
ATOM     42  C   UNL     1      -0.789 -12.902  11.683  1.00  0.00     0.074 A 
ATOM     43  C   UNL     1       1.495 -13.250  10.796  1.00  0.00     0.049 A 
ATOM     44  N   UNL     1      -0.545 -12.799  12.964  1.00  0.00    -0.248 NA
ATOM     45  C   UNL     1      -2.209 -12.747  11.328  1.00  0.00     0.031 C 
ATOM     46  C   UNL     1       2.533 -13.434   9.778  1.00  0.00     0.029 A 
ATOM     47  N   UNL     1       2.190 -13.234  11.979  1.00  0.00    -0.354 N 
ATOM     48  C   UNL     1      -1.774 -12.553  13.564  1.00  0.00     0.074 A 
ATOM     49  C   UNL     1      -2.753 -12.469  12.504  1.00  0.00     0.031 C 
ATOM     50  C   UNL     1       3.727 -13.543  10.383  1.00  0.00     0.029 A 
ATOM     51  C   UNL     1       3.547 -13.393  11.823  1.00  0.00     0.049 A 
ATOM     52  H   UNL     1       1.758 -13.118  12.856  1.00  0.00     0.167 HD
ATOM     53  C   UNL     1      -2.065 -12.429  14.881  1.00  0.00     0.031 A 
ATOM     54  C   UNL     1       4.537 -13.411  12.737  1.00  0.00     0.031 A 
ATOM     55  C   UNL     1      -1.086 -12.521  15.933  1.00  0.00     0.049 A 
ATOM     56  C   UNL     1       4.191 -13.256  14.193  1.00  0.00     0.074 A 
ATOM     57  C   UNL     1      -1.287 -12.463  17.301  1.00  0.00     0.029 A 
ATOM     58  N   UNL     1       0.276 -12.688  15.734  1.00  0.00    -0.354 N 
ATOM     59  N   UNL     1       3.014 -13.090  14.746  1.00  0.00    -0.248 NA
ATOM     60  C   UNL     1       5.307 -13.302  15.148  1.00  0.00     0.031 C 
ATOM     61  C   UNL     1      -0.039 -12.536  17.927  1.00  0.00     0.029 A 
ATOM     62  C   UNL     1       0.932 -12.707  16.953  1.00  0.00     0.049 A 
ATOM     63  H   UNL     1       0.712 -12.779  14.857  1.00  0.00     0.167 HD
ATOM     64  C   UNL     1       3.244 -13.041  16.117  1.00  0.00     0.074 A 
ATOM     65  C   UNL     1       4.670 -13.210  16.307  1.00  0.00     0.031 C 
ATOM     66  C   UNL     1       2.354 -12.874  17.127  1.00  0.00     0.031 A 
BRANCH  53  67
ATOM     67  C   UNL     1      -3.501 -12.171  15.257  1.00  0.00    -0.014 A 
ATOM     68  C   UNL     1      -4.487 -13.160  15.086  1.00  0.00     0.010 A 
ATOM     69  C   UNL     1      -3.864 -10.937  15.826  1.00  0.00     0.010 A 
ATOM     70  C   UNL     1      -5.816 -12.904  15.434  1.00  0.00     0.020 A 
ATOM     71  C   UNL     1      -5.187 -10.688  16.205  1.00  0.00     0.020 A 
ATOM     72  C   UNL     1      -6.157 -11.668  15.990  1.00  0.00     0.054 A 
BRANCH  72  73
ATOM     73  S   UNL     1      -7.886 -11.371  16.452  1.00  0.00     0.124 S 
ATOM     74  O   UNL     1      -8.527 -11.236  15.146  1.00  0.00    -0.237 OA
ATOM     75  O   UNL     1      -8.229 -12.579  17.197  1.00  0.00    -0.237 OA
ATOM     76  O   UNL     1      -7.829 -10.147  17.247  1.00  0.00    -0.744 OA
ENDBRANCH  72  73
ENDBRANCH  53  67
BRANCH  54  77
ATOM     77  C   UNL     1       5.948 -13.597  12.300  1.00  0.00    -0.014 A 
ATOM     78  C   UNL     1       6.636 -14.788  12.591  1.00  0.00     0.010 A 
ATOM     79  C   UNL     1       6.608 -12.586  11.576  1.00  0.00     0.010 A 
ATOM     80  C   UNL     1       7.963 -14.957  12.184  1.00  0.00     0.020 A 
ATOM     81  C   UNL     1       7.924 -12.764  11.142  1.00  0.00     0.020 A 
ATOM     82  C   UNL     1       8.598 -13.945  11.459  1.00  0.00     0.054 A 
BRANCH  82  83
ATOM     83  S   UNL     1      10.303 -14.207  10.898  1.00  0.00     0.124 S 
ATOM     84  O   UNL     1      11.053 -14.093  12.144  1.00  0.00    -0.237 OA
ATOM     85  O   UNL     1      10.240 -15.546  10.316  1.00  0.00    -0.237 OA
ATOM     86  O   UNL     1      10.516 -13.128   9.936  1.00  0.00    -0.744 OA
ENDBRANCH  82  83
ENDBRANCH  54  77
BRANCH  66  87
ATOM     87  C   UNL     1       2.889 -12.901  18.534  1.00  0.00    -0.014 A 
ATOM     88  C   UNL     1       3.661 -11.842  19.043  1.00  0.00     0.010 A 
ATOM     89  C   UNL     1       2.564 -13.980  19.377  1.00  0.00     0.010 A 
ATOM     90  C   UNL     1       4.125 -11.877  20.361  1.00  0.00     0.020 A 
ATOM     91  C   UNL     1       3.001 -14.004  20.703  1.00  0.00     0.020 A 
ATOM     92  C   UNL     1       3.791 -12.958  21.183  1.00  0.00     0.054 A 
BRANCH  92  93
ATOM     93  S   UNL     1       4.369 -12.958  22.902  1.00  0.00     0.124 S 
ATOM     94  O   UNL     1       5.793 -13.235  22.744  1.00  0.00    -0.237 OA
ATOM     95  O   UNL     1       4.036 -11.608  23.351  1.00  0.00    -0.237 OA
ATOM     96  O   UNL     1       3.592 -14.025  23.529  1.00  0.00    -0.744 OA
ENDBRANCH  92  93
ENDBRANCH  66  87
ENDBRANCH  40  41
ENDBRANCH  32  35
ENDBRANCH  30  31
ENDBRANCH  29  30
ENDBRANCH  28  29
ENDBRANCH   1  28
TORSDOF 22
