REMARK SMILES O=C(NCCCCCCNC(=O)c1cccc(S(=O)(=O)Cc2cccc(O)c2)c1)c1ccc(-c2c3nc(c(-c4ccc(S(=O)(=O)[O-])cc4)c4ccc([nH]4)c(-c4ccc(S(=O)(=O)[O-])cc4)c4nc(c(-c5ccc(S(=O)(=O)[O-])cc5)c5ccc2[nH]5)C=C4)C=C3)cc1
REMARK SMILES IDX 7 1 6 2 5 3 4 4 3 5 1 6 2 7 30 9 31 10 89 11 32 12 88 13
REMARK SMILES IDX 33 14 34 15 35 16 82 17 36 18 87 19 81 20 83 21 37 22 86 23
REMARK SMILES IDX 80 24 79 25 38 27 68 28 49 29 67 30 50 31 53 32 66 33 84 34
REMARK SMILES IDX 51 35 52 36 65 38 85 39 54 40 39 41 40 42 48 43 41 44 47 45
REMARK SMILES IDX 42 46 43 47 44 48 45 49 46 50 69 51 70 52 78 53 71 54 77 55
REMARK SMILES IDX 72 56 73 57 74 58 75 59 76 60 55 61 56 62 64 63 57 64 63 65
REMARK SMILES IDX 58 66 59 67 60 68 61 69 62 70 8 71 9 72 10 73 11 74 12 76
REMARK SMILES IDX 13 77 14 78 29 79 15 80 17 81 16 82 18 83 19 84 20 85 21 86
REMARK SMILES IDX 22 87 23 88 28 89 24 90 26 91 25 92 27 93
REMARK H PARENT 3 8 83 26 53 37 10 75 27 94
REMARK Flexibility Score: inf
ROOT
ATOM      1  C   UNL     1       4.417  -3.241   3.314  1.00  0.00     0.002 C 
ENDROOT
BRANCH   1   2
ATOM      2  C   UNL     1       3.896  -1.828   3.595  1.00  0.00     0.002 C 
BRANCH   2   3
ATOM      3  C   UNL     1       4.444  -0.713   2.699  1.00  0.00     0.021 C 
BRANCH   3   4
ATOM      4  C   UNL     1       4.292  -0.927   1.194  1.00  0.00     0.116 C 
BRANCH   4   5
ATOM      5  N   UNL     1       2.901  -0.988   0.786  1.00  0.00    -0.352 N 
ATOM      6  O   UNL     1       0.978  -0.308  -0.149  1.00  0.00    -0.269 OA
ATOM      7  C   UNL     1       2.201  -0.200  -0.092  1.00  0.00     0.251 C 
ATOM      8  H   UNL     1       2.377  -1.708   1.206  1.00  0.00     0.163 HD
BRANCH   7   9
ATOM      9  C   UNL     1       2.890   0.786  -0.958  1.00  0.00     0.039 A 
ATOM     10  C   UNL     1       4.050   0.461  -1.669  1.00  0.00     0.014 A 
ATOM     11  C   UNL     1       2.304   2.045  -1.124  1.00  0.00     0.014 A 
ATOM     12  C   UNL     1       4.665   1.417  -2.482  1.00  0.00     0.010 A 
ATOM     13  C   UNL     1       2.895   2.986  -1.972  1.00  0.00     0.010 A 
ATOM     14  C   UNL     1       4.088   2.686  -2.647  1.00  0.00    -0.014 A 
BRANCH  14  15
ATOM     15  C   UNL     1       4.691   3.688  -3.562  1.00  0.00     0.031 A 
ATOM     16  C   UNL     1       5.303   4.950  -3.022  1.00  0.00     0.074 A 
ATOM     17  C   UNL     1       4.633   3.490  -4.893  1.00  0.00     0.049 A 
ATOM     18  N   UNL     1       5.796   5.972  -3.673  1.00  0.00    -0.248 NA
ATOM     19  C   UNL     1       5.359   5.083  -1.558  1.00  0.00     0.031 C 
ATOM     20  C   UNL     1       4.055   2.315  -5.546  1.00  0.00     0.029 A 
ATOM     21  N   UNL     1       5.046   4.284  -5.935  1.00  0.00    -0.354 N 
ATOM     22  C   UNL     1       6.200   6.881  -2.704  1.00  0.00     0.074 A 
ATOM     23  C   UNL     1       5.879   6.294  -1.419  1.00  0.00     0.031 C 
ATOM     24  C   UNL     1       4.147   2.465  -6.877  1.00  0.00     0.029 A 
ATOM     25  C   UNL     1       4.748   3.764  -7.171  1.00  0.00     0.049 A 
ATOM     26  H   UNL     1       5.512   5.142  -5.808  1.00  0.00     0.167 HD
ATOM     27  C   UNL     1       6.783   8.094  -2.867  1.00  0.00     0.031 A 
ATOM     28  C   UNL     1       4.908   4.279  -8.405  1.00  0.00     0.031 A 
ATOM     29  C   UNL     1       7.091   8.683  -4.143  1.00  0.00     0.049 A 
ATOM     30  C   UNL     1       5.533   5.635  -8.567  1.00  0.00     0.074 A 
ATOM     31  C   UNL     1       7.715   9.890  -4.406  1.00  0.00     0.029 A 
ATOM     32  N   UNL     1       6.785   8.115  -5.371  1.00  0.00    -0.354 N 
ATOM     33  N   UNL     1       5.954   6.459  -7.638  1.00  0.00    -0.248 NA
ATOM     34  C   UNL     1       5.709   6.129  -9.940  1.00  0.00     0.031 C 
ATOM     35  C   UNL     1       7.748  10.072  -5.793  1.00  0.00     0.029 A 
ATOM     36  C   UNL     1       7.187   8.957  -6.395  1.00  0.00     0.049 A 
ATOM     37  H   UNL     1       6.346   7.243  -5.496  1.00  0.00     0.167 HD
ATOM     38  C   UNL     1       6.465   7.561  -8.314  1.00  0.00     0.074 A 
ATOM     39  C   UNL     1       6.303   7.298  -9.729  1.00  0.00     0.031 C 
ATOM     40  C   UNL     1       7.023   8.685  -7.801  1.00  0.00     0.031 A 
BRANCH  27  41
ATOM     41  C   UNL     1       7.090   8.879  -1.620  1.00  0.00    -0.014 A 
ATOM     42  C   UNL     1       8.140   8.505  -0.763  1.00  0.00     0.010 A 
ATOM     43  C   UNL     1       6.312  10.007  -1.300  1.00  0.00     0.010 A 
ATOM     44  C   UNL     1       8.367   9.206   0.424  1.00  0.00     0.020 A 
ATOM     45  C   UNL     1       6.551  10.725  -0.125  1.00  0.00     0.020 A 
ATOM     46  C   UNL     1       7.559  10.302   0.744  1.00  0.00     0.054 A 
BRANCH  46  47
ATOM     47  S   UNL     1       7.846  11.172   2.309  1.00  0.00     0.124 S 
ATOM     48  O   UNL     1       7.222  10.266   3.271  1.00  0.00    -0.237 OA
ATOM     49  O   UNL     1       9.303  11.249   2.377  1.00  0.00    -0.237 OA
ATOM     50  O   UNL     1       7.165  12.451   2.124  1.00  0.00    -0.744 OA
ENDBRANCH  46  47
ENDBRANCH  27  41
BRANCH  28  51
ATOM     51  C   UNL     1       4.452   3.489  -9.579  1.00  0.00    -0.014 A 
ATOM     52  C   UNL     1       5.381   2.809 -10.384  1.00  0.00     0.010 A 
ATOM     53  C   UNL     1       3.077   3.341  -9.838  1.00  0.00     0.010 A 
ATOM     54  C   UNL     1       4.941   1.982 -11.421  1.00  0.00     0.020 A 
ATOM     55  C   UNL     1       2.634   2.499 -10.861  1.00  0.00     0.020 A 
ATOM     56  C   UNL     1       3.570   1.823 -11.646  1.00  0.00     0.054 A 
BRANCH  56  57
ATOM     57  S   UNL     1       3.019   0.655 -12.922  1.00  0.00     0.124 S 
ATOM     58  O   UNL     1       3.255   1.411 -14.148  1.00  0.00    -0.237 OA
ATOM     59  O   UNL     1       3.901  -0.490 -12.705  1.00  0.00    -0.237 OA
ATOM     60  O   UNL     1       1.617   0.421 -12.587  1.00  0.00    -0.744 OA
ENDBRANCH  56  57
ENDBRANCH  28  51
BRANCH  40  61
ATOM     61  C   UNL     1       7.536   9.715  -8.770  1.00  0.00    -0.014 A 
ATOM     62  C   UNL     1       6.659  10.593  -9.428  1.00  0.00     0.010 A 
ATOM     63  C   UNL     1       8.924   9.867  -8.946  1.00  0.00     0.010 A 
ATOM     64  C   UNL     1       7.161  11.605 -10.252  1.00  0.00     0.020 A 
ATOM     65  C   UNL     1       9.430  10.888  -9.754  1.00  0.00     0.020 A 
ATOM     66  C   UNL     1       8.544  11.749 -10.406  1.00  0.00     0.054 A 
BRANCH  66  67
ATOM     67  S   UNL     1       9.177  13.122 -11.410  1.00  0.00     0.124 S 
ATOM     68  O   UNL     1       8.947  12.637 -12.768  1.00  0.00    -0.237 OA
ATOM     69  O   UNL     1       8.338  14.242 -10.992  1.00  0.00    -0.237 OA
ATOM     70  O   UNL     1      10.580  13.222 -11.013  1.00  0.00    -0.744 OA
ENDBRANCH  66  67
ENDBRANCH  40  61
ENDBRANCH  14  15
ENDBRANCH   7   9
ENDBRANCH   4   5
ENDBRANCH   3   4
ENDBRANCH   2   3
ENDBRANCH   1   2
BRANCH   1  71
ATOM     71  C   UNL     1       5.939  -3.399   3.243  1.00  0.00     0.021 C 
BRANCH  71  72
ATOM     72  C   UNL     1       6.710  -2.961   4.485  1.00  0.00     0.116 C 
BRANCH  72  73
ATOM     73  N   UNL     1       6.452  -3.813   5.633  1.00  0.00    -0.352 N 
ATOM     74  C   UNL     1       7.348  -4.467   6.441  1.00  0.00     0.251 C 
ATOM     75  H   UNL     1       5.503  -3.939   5.863  1.00  0.00     0.163 HD
ATOM     76  O   UNL     1       6.962  -5.275   7.280  1.00  0.00    -0.269 OA
BRANCH  74  77
ATOM     77  C   UNL     1       8.797  -4.218   6.289  1.00  0.00     0.041 A 
ATOM     78  C   UNL     1       9.637  -5.315   6.065  1.00  0.00     0.014 A 
ATOM     79  C   UNL     1       9.322  -2.923   6.397  1.00  0.00     0.034 A 
ATOM     80  C   UNL     1      11.008  -5.121   5.902  1.00  0.00     0.002 A 
ATOM     81  C   UNL     1      10.693  -2.738   6.213  1.00  0.00     0.068 A 
ATOM     82  C   UNL     1      11.535  -3.832   5.965  1.00  0.00     0.020 A 
BRANCH  81  83
ATOM     83  S   UNL     1      11.437  -1.119   6.228  1.00  0.00     0.182 S 
ATOM     84  O   UNL     1      11.780  -0.881   7.617  1.00  0.00    -0.223 OA
ATOM     85  O   UNL     1      12.478  -1.141   5.213  1.00  0.00    -0.223 OA
BRANCH  83  86
ATOM     86  C   UNL     1      10.226   0.088   5.760  1.00  0.00     0.177 C 
BRANCH  86  87
ATOM     87  C   UNL     1       9.602  -0.021   4.385  1.00  0.00    -0.029 A 
ATOM     88  C   UNL     1       8.736   1.032   4.018  1.00  0.00     0.005 A 
ATOM     89  C   UNL     1       9.781  -1.063   3.466  1.00  0.00     0.051 A 
ATOM     90  C   UNL     1       8.067   1.036   2.792  1.00  0.00     0.004 A 
ATOM     91  C   UNL     1       9.079  -1.068   2.257  1.00  0.00     0.115 A 
ATOM     92  C   UNL     1       8.230  -0.027   1.912  1.00  0.00     0.046 A 
BRANCH  91  93
ATOM     93  O   UNL     1       9.182  -2.111   1.385  1.00  0.00    -0.508 OA
ATOM     94  H   UNL     1       8.705  -2.098   0.579  1.00  0.00     0.293 HD
ENDBRANCH  91  93
ENDBRANCH  86  87
ENDBRANCH  83  86
ENDBRANCH  81  83
ENDBRANCH  74  77
ENDBRANCH  72  73
ENDBRANCH  71  72
ENDBRANCH   1  71
TORSDOF 20
