REMARK SMILES CCc1ccc(-c2cc(Cl)cc3c2O[C@H](C(F)(F)F)C(C(=O)NCCCCCCNC(=O)c2ccc(-c4c5nc(c(-c6ccc(S(=O)(=O)[O-])cc6)c6ccc([nH]6)c(-c6ccc(S(=O)(=O)[O-])cc6)c6nc(c(-c7ccc(S(=O)(=O)[O-])cc7)c7ccc4[nH]7)C=C6)C=C5)cc2)=C3)cc1
REMARK SMILES IDX 27 1 26 2 25 3 24 4 23 5 21 6 22 7 20 9 7 10 8 11 13 12 9 13
REMARK SMILES IDX 12 14 14 15 10 16 11 17 93 18 15 19 6 20 3 21 4 22 95 23
REMARK SMILES IDX 5 24 94 25 2 26 1 27 16 28 17 29 18 30 19 31 28 32 29 33
REMARK SMILES IDX 30 34 31 35 32 37 33 38 34 39 92 40 35 41 91 42 36 43 37 44
REMARK SMILES IDX 38 45 85 46 39 47 90 48 84 49 86 50 40 51 89 52 83 53 82 54
REMARK SMILES IDX 41 56 71 57 52 58 70 59 53 60 56 61 69 62 87 63 54 64 55 65
REMARK SMILES IDX 68 67 88 68 57 69 42 70 43 71 51 72 44 73 50 74 45 75 46 76
REMARK SMILES IDX 47 77 48 78 49 79 72 80 73 81 81 82 74 83 80 84 75 85 76 86
REMARK SMILES IDX 77 87 78 88 79 89 58 90 59 91 67 92 60 93 66 94 61 95 62 96
REMARK SMILES IDX 63 97 64 98 65 99
REMARK H PARENT 23 8 30 36 86 55 56 66
REMARK Flexibility Score: inf
ROOT
ATOM      1  C   UNL     1       2.670   1.921  16.183  1.00  0.00     0.002 C 
ENDROOT
BRANCH   1   2
ATOM      2  C   UNL     1       1.919   0.726  15.592  1.00  0.00     0.002 C 
BRANCH   2   3
ATOM      3  C   UNL     1       0.710   1.092  14.714  1.00  0.00     0.021 C 
BRANCH   3   4
ATOM      4  C   UNL     1       1.023   2.053  13.557  1.00  0.00     0.116 C 
BRANCH   4   5
ATOM      5  N   UNL     1       2.025   1.464  12.691  1.00  0.00    -0.352 N 
ATOM      6  C   UNL     1       1.843   1.143  11.386  1.00  0.00     0.251 C 
ATOM      7  O   UNL     1       2.164   0.034  10.976  1.00  0.00    -0.270 OA
ATOM      8  H   UNL     1       2.910   1.282  13.082  1.00  0.00     0.163 HD
BRANCH   6   9
ATOM      9  C   UNL     1       1.416   2.254  10.487  1.00  0.00     0.067 C 
ATOM     10  C   UNL     1       1.708   0.321   6.925  1.00  0.00     0.026 A 
ATOM     11  C   UNL     1       2.945  -0.379   6.951  1.00  0.00     0.033 A 
ATOM     12  C   UNL     1       1.525   1.291   7.927  1.00  0.00     0.135 A 
ATOM     13  C   UNL     1       3.996  -0.024   7.792  1.00  0.00     0.042 A 
ATOM     14  C   UNL     1       2.647   1.719   8.683  1.00  0.00     0.019 A 
ATOM     15  O   UNL     1       0.284   1.816   8.270  1.00  0.00    -0.475 OA
ATOM     16  Cl  UNL     1       5.446  -0.947   7.786  1.00  0.00    -0.084 Cl
ATOM     17  C   UNL     1       3.881   1.081   8.610  1.00  0.00     0.032 A 
ATOM     18  C   UNL     1       2.426   2.734   9.736  1.00  0.00     0.025 C 
ATOM     19  C   UNL     1       0.109   2.024   9.744  1.00  0.00     0.314 C 
BRANCH  10  20
ATOM     20  C   UNL     1       0.887   0.067   5.708  1.00  0.00    -0.015 A 
ATOM     21  C   UNL     1       0.446  -0.506   2.935  1.00  0.00    -0.048 A 
ATOM     22  C   UNL     1       0.480  -1.531   3.889  1.00  0.00     0.004 A 
ATOM     23  C   UNL     1       0.485   0.812   3.403  1.00  0.00     0.004 A 
ATOM     24  C   UNL     1       0.678  -1.250   5.251  1.00  0.00     0.009 A 
ATOM     25  C   UNL     1       0.700   1.095   4.769  1.00  0.00     0.009 A 
BRANCH  21  26
ATOM     26  C   UNL     1       0.337  -0.877   1.470  1.00  0.00     0.032 C 
ATOM     27  C   UNL     1       0.977   0.073   0.459  1.00  0.00     0.009 C 
ENDBRANCH  21  26
ENDBRANCH  10  20
BRANCH  19  28
ATOM     28  C   UNL     1      -0.826   3.214  10.062  1.00  0.00     0.429 C 
ATOM     29  F   UNL     1      -0.999   4.037   9.005  1.00  0.00    -0.167 F 
ATOM     30  F   UNL     1      -2.048   2.787  10.459  1.00  0.00    -0.167 F 
ATOM     31  F   UNL     1      -0.352   3.987  11.077  1.00  0.00    -0.167 F 
ENDBRANCH  19  28
ENDBRANCH   6   9
ENDBRANCH   4   5
ENDBRANCH   3   4
ENDBRANCH   2   3
ENDBRANCH   1   2
BRANCH   1  32
ATOM     32  C   UNL     1       1.816   2.831  17.066  1.00  0.00     0.021 C 
BRANCH  32  33
ATOM     33  C   UNL     1       1.113   2.120  18.216  1.00  0.00     0.116 C 
BRANCH  33  34
ATOM     34  N   UNL     1       2.050   1.478  19.125  1.00  0.00    -0.352 N 
ATOM     35  C   UNL     1       2.103   1.537  20.494  1.00  0.00     0.251 C 
ATOM     36  H   UNL     1       2.742   0.923  18.697  1.00  0.00     0.163 HD
ATOM     37  O   UNL     1       3.073   1.072  21.091  1.00  0.00    -0.269 OA
BRANCH  35  38
ATOM     38  C   UNL     1       1.007   2.184  21.244  1.00  0.00     0.039 A 
ATOM     39  C   UNL     1       1.328   3.068  22.275  1.00  0.00     0.014 A 
ATOM     40  C   UNL     1      -0.330   1.928  20.925  1.00  0.00     0.014 A 
ATOM     41  C   UNL     1       0.307   3.739  22.950  1.00  0.00     0.010 A 
ATOM     42  C   UNL     1      -1.342   2.657  21.545  1.00  0.00     0.010 A 
ATOM     43  C   UNL     1      -1.035   3.565  22.567  1.00  0.00    -0.014 A 
BRANCH  43  44
ATOM     44  C   UNL     1      -2.117   4.346  23.220  1.00  0.00     0.031 A 
ATOM     45  C   UNL     1      -3.197   3.652  24.005  1.00  0.00     0.074 A 
ATOM     46  C   UNL     1      -2.154   5.684  23.059  1.00  0.00     0.049 A 
ATOM     47  N   UNL     1      -4.215   4.172  24.642  1.00  0.00    -0.248 NA
ATOM     48  C   UNL     1      -3.142   2.183  24.060  1.00  0.00     0.031 C 
ATOM     49  C   UNL     1      -1.202   6.467  22.267  1.00  0.00     0.029 A 
ATOM     50  N   UNL     1      -3.029   6.622  23.547  1.00  0.00    -0.354 N 
ATOM     51  C   UNL     1      -4.929   3.097  25.158  1.00  0.00     0.074 A 
ATOM     52  C   UNL     1      -4.257   1.895  24.716  1.00  0.00     0.031 C 
ATOM     53  C   UNL     1      -1.526   7.766  22.348  1.00  0.00     0.029 A 
ATOM     54  C   UNL     1      -2.731   7.907  23.161  1.00  0.00     0.049 A 
ATOM     55  H   UNL     1      -3.796   6.396  24.120  1.00  0.00     0.167 HD
ATOM     56  C   UNL     1      -6.035   3.110  25.941  1.00  0.00     0.031 A 
ATOM     57  C   UNL     1      -3.357   9.071  23.422  1.00  0.00     0.031 A 
ATOM     58  C   UNL     1      -6.699   4.312  26.376  1.00  0.00     0.049 A 
ATOM     59  C   UNL     1      -4.575   9.064  24.303  1.00  0.00     0.074 A 
ATOM     60  C   UNL     1      -7.780   4.435  27.232  1.00  0.00     0.029 A 
ATOM     61  N   UNL     1      -6.358   5.596  25.977  1.00  0.00    -0.354 N 
ATOM     62  N   UNL     1      -5.178   8.043  24.865  1.00  0.00    -0.248 NA
ATOM     63  C   UNL     1      -5.186  10.366  24.598  1.00  0.00     0.031 C 
ATOM     64  C   UNL     1      -8.135   5.787  27.295  1.00  0.00     0.029 A 
ATOM     65  C   UNL     1      -7.231   6.515  26.537  1.00  0.00     0.049 A 
ATOM     66  H   UNL     1      -5.606   5.821  25.383  1.00  0.00     0.167 HD
ATOM     67  C   UNL     1      -6.232   8.581  25.595  1.00  0.00     0.074 A 
ATOM     68  C   UNL     1      -6.165  10.019  25.423  1.00  0.00     0.031 C 
ATOM     69  C   UNL     1      -7.169   7.942  26.340  1.00  0.00     0.031 A 
BRANCH  56  70
ATOM     70  C   UNL     1      -6.609   1.778  26.356  1.00  0.00    -0.014 A 
ATOM     71  C   UNL     1      -5.918   0.919  27.230  1.00  0.00     0.010 A 
ATOM     72  C   UNL     1      -7.875   1.389  25.881  1.00  0.00     0.010 A 
ATOM     73  C   UNL     1      -6.454  -0.325  27.575  1.00  0.00     0.020 A 
ATOM     74  C   UNL     1      -8.431   0.160  26.250  1.00  0.00     0.020 A 
ATOM     75  C   UNL     1      -7.705  -0.699  27.077  1.00  0.00     0.054 A 
BRANCH  75  76
ATOM     76  S   UNL     1      -8.377  -2.318  27.541  1.00  0.00     0.124 S 
ATOM     77  O   UNL     1      -7.524  -3.227  26.779  1.00  0.00    -0.237 OA
ATOM     78  O   UNL     1      -8.184  -2.342  28.989  1.00  0.00    -0.237 OA
ATOM     79  O   UNL     1      -9.769  -2.256  27.102  1.00  0.00    -0.744 OA
ENDBRANCH  75  76
ENDBRANCH  56  70
BRANCH  57  80
ATOM     80  C   UNL     1      -2.829  10.335  22.839  1.00  0.00    -0.014 A 
ATOM     81  C   UNL     1      -2.205  11.299  23.649  1.00  0.00     0.010 A 
ATOM     82  C   UNL     1      -2.911  10.558  21.451  1.00  0.00     0.010 A 
ATOM     83  C   UNL     1      -1.679  12.465  23.085  1.00  0.00     0.020 A 
ATOM     84  C   UNL     1      -2.359  11.707  20.880  1.00  0.00     0.020 A 
ATOM     85  C   UNL     1      -1.752  12.658  21.702  1.00  0.00     0.054 A 
BRANCH  85  86
ATOM     86  S   UNL     1      -0.991  14.139  20.982  1.00  0.00     0.124 S 
ATOM     87  O   UNL     1      -1.909  15.190  21.408  1.00  0.00    -0.237 OA
ATOM     88  O   UNL     1       0.327  14.154  21.613  1.00  0.00    -0.237 OA
ATOM     89  O   UNL     1      -0.982  13.857  19.548  1.00  0.00    -0.744 OA
ENDBRANCH  85  86
ENDBRANCH  57  80
BRANCH  69  90
ATOM     90  C   UNL     1      -8.195   8.798  27.037  1.00  0.00    -0.014 A 
ATOM     91  C   UNL     1      -9.187   9.486  26.315  1.00  0.00     0.010 A 
ATOM     92  C   UNL     1      -8.187   8.888  28.441  1.00  0.00     0.010 A 
ATOM     93  C   UNL     1     -10.121  10.284  26.980  1.00  0.00     0.020 A 
ATOM     94  C   UNL     1      -9.140   9.657  29.113  1.00  0.00     0.020 A 
ATOM     95  C   UNL     1     -10.090  10.366  28.376  1.00  0.00     0.054 A 
BRANCH  95  96
ATOM     96  S   UNL     1     -11.327  11.392  29.217  1.00  0.00     0.124 S 
ATOM     97  O   UNL     1     -10.871  12.742  28.898  1.00  0.00    -0.237 OA
ATOM     98  O   UNL     1     -12.574  10.981  28.575  1.00  0.00    -0.237 OA
ATOM     99  O   UNL     1     -11.200  11.007  30.621  1.00  0.00    -0.744 OA
ENDBRANCH  95  96
ENDBRANCH  69  90
ENDBRANCH  43  44
ENDBRANCH  35  38
ENDBRANCH  33  34
ENDBRANCH  32  33
ENDBRANCH   1  32
TORSDOF 19
