REMARK SMILES O=C(NCCCCCCNC(=O)c1ccc(-c2c3nc(c(-c4ccc(S(=O)(=O)[O-])cc4)c4ccc([nH]4)c(-c4ccc(S(=O)(=O)[O-])cc4)c4nc(c(-c5ccc(S(=O)(=O)[O-])cc5)c5ccc2[nH]5)C=C4)C=C3)cc1)c1ccc(NC(=O)[C@@H]2CC=CC[C@@H]2C(=O)Nc2ccc(Br)cc2)cc1
REMARK SMILES IDX 6 1 5 2 4 3 3 4 1 5 2 6 73 8 74 9 97 10 75 11 96 12 76 13
REMARK SMILES IDX 77 14 78 15 79 17 80 18 81 19 85 20 82 21 84 22 83 23 86 24
REMARK SMILES IDX 87 25 88 26 89 28 90 29 95 30 91 31 94 32 92 33 93 34 7 35
REMARK SMILES IDX 8 36 9 37 10 38 11 39 12 41 13 42 14 43 72 44 15 45 71 46
REMARK SMILES IDX 16 47 17 48 18 49 65 50 19 51 70 52 64 53 66 54 20 55 69 56
REMARK SMILES IDX 63 57 62 58 21 60 51 61 32 62 50 63 33 64 36 65 49 66 67 67
REMARK SMILES IDX 34 68 35 69 48 71 68 72 37 73 22 74 23 75 31 76 24 77 30 78
REMARK SMILES IDX 25 79 26 80 27 81 28 82 29 83 52 84 53 85 61 86 54 87 60 88
REMARK SMILES IDX 55 89 56 90 57 91 58 92 59 93 38 94 39 95 47 96 40 97 46 98
REMARK SMILES IDX 41 99 42 100 43 101 44 102 45 103
REMARK H PARENT 3 7 77 16 88 27 10 40 66 59 36 70
REMARK Flexibility Score: inf
ROOT
ATOM      1  C   UNL     1       1.645   3.015  10.432  1.00  0.00     0.002 C 
ENDROOT
BRANCH   1   2
ATOM      2  C   UNL     1       2.854   3.232   9.521  1.00  0.00     0.021 C 
BRANCH   2   3
ATOM      3  C   UNL     1       2.511   3.658   8.098  1.00  0.00     0.116 C 
BRANCH   3   4
ATOM      4  N   UNL     1       1.915   4.986   8.048  1.00  0.00    -0.352 N 
ATOM      5  O   UNL     1       1.820   7.174   7.423  1.00  0.00    -0.269 OA
ATOM      6  C   UNL     1       2.345   6.071   7.324  1.00  0.00     0.251 C 
ATOM      7  H   UNL     1       1.110   5.122   8.599  1.00  0.00     0.163 HD
BRANCH   6   8
ATOM      8  C   UNL     1       3.482   5.864   6.416  1.00  0.00     0.039 A 
ATOM      9  C   UNL     1       3.308   5.051   5.296  1.00  0.00     0.016 A 
ATOM     10  C   UNL     1       4.742   6.353   6.766  1.00  0.00     0.016 A 
ATOM     11  C   UNL     1       4.422   4.660   4.564  1.00  0.00     0.027 A 
ATOM     12  C   UNL     1       5.858   5.948   6.031  1.00  0.00     0.027 A 
ATOM     13  C   UNL     1       5.705   5.075   4.947  1.00  0.00     0.041 A 
BRANCH  13  14
ATOM     14  N   UNL     1       6.858   4.645   4.255  1.00  0.00    -0.326 N 
ATOM     15  C   UNL     1       6.772   4.072   3.008  1.00  0.00     0.228 C 
ATOM     16  H   UNL     1       7.742   4.758   4.674  1.00  0.00     0.169 HD
ATOM     17  O   UNL     1       6.662   4.789   2.016  1.00  0.00    -0.274 OA
BRANCH  15  18
ATOM     18  C   UNL     1       6.626   2.547   2.984  1.00  0.00     0.095 C 
ATOM     19  C   UNL     1       7.647   1.794   3.853  1.00  0.00     0.041 C 
ATOM     20  C   UNL     1       6.409   1.980   1.569  1.00  0.00     0.095 C 
ATOM     21  C   UNL     1       7.862   0.358   3.468  1.00  0.00    -0.030 C 
ATOM     22  C   UNL     1       6.234   0.454   1.583  1.00  0.00     0.041 C 
ATOM     23  C   UNL     1       7.223  -0.246   2.459  1.00  0.00    -0.030 C 
BRANCH  20  24
ATOM     24  C   UNL     1       7.123   2.436   0.283  1.00  0.00     0.228 C 
ATOM     25  O   UNL     1       6.586   2.160  -0.804  1.00  0.00    -0.274 OA
ATOM     26  N   UNL     1       8.206   3.244   0.199  1.00  0.00    -0.326 N 
ATOM     27  H   UNL     1       8.254   3.739  -0.651  1.00  0.00     0.169 HD
BRANCH  26  28
ATOM     28  C   UNL     1       9.265   3.527   1.055  1.00  0.00     0.041 A 
ATOM     29  C   UNL     1       9.707   4.853   1.121  1.00  0.00     0.027 A 
ATOM     30  C   UNL     1       9.942   2.539   1.759  1.00  0.00     0.027 A 
ATOM     31  C   UNL     1      10.744   5.211   1.983  1.00  0.00     0.018 A 
ATOM     32  C   UNL     1      11.000   2.889   2.606  1.00  0.00     0.018 A 
ATOM     33  C   UNL     1      11.378   4.225   2.733  1.00  0.00     0.018 A 
ATOM     34  Br  UNL     1      12.753   4.707   3.936  1.00  0.00    -0.051 Br
ENDBRANCH  26  28
ENDBRANCH  20  24
ENDBRANCH  15  18
ENDBRANCH  13  14
ENDBRANCH   6   8
ENDBRANCH   3   4
ENDBRANCH   2   3
ENDBRANCH   1   2
BRANCH   1  35
ATOM     35  C   UNL     1       0.601   2.022   9.914  1.00  0.00     0.002 C 
BRANCH  35  36
ATOM     36  C   UNL     1       1.131   0.634   9.541  1.00  0.00     0.021 C 
BRANCH  36  37
ATOM     37  C   UNL     1       1.897  -0.095  10.642  1.00  0.00     0.116 C 
BRANCH  37  38
ATOM     38  N   UNL     1       1.097  -0.306  11.835  1.00  0.00    -0.352 N 
ATOM     39  C   UNL     1       0.913  -1.448  12.575  1.00  0.00     0.251 C 
ATOM     40  H   UNL     1       0.614   0.487  12.162  1.00  0.00     0.163 HD
ATOM     41  O   UNL     1       0.079  -1.461  13.475  1.00  0.00    -0.269 OA
BRANCH  39  42
ATOM     42  C   UNL     1       1.697  -2.668  12.276  1.00  0.00     0.039 A 
ATOM     43  C   UNL     1       1.033  -3.898  12.236  1.00  0.00     0.014 A 
ATOM     44  C   UNL     1       3.076  -2.611  12.057  1.00  0.00     0.014 A 
ATOM     45  C   UNL     1       1.739  -5.061  11.919  1.00  0.00     0.010 A 
ATOM     46  C   UNL     1       3.769  -3.763  11.685  1.00  0.00     0.010 A 
ATOM     47  C   UNL     1       3.108  -4.998  11.612  1.00  0.00    -0.014 A 
BRANCH  47  48
ATOM     48  C   UNL     1       3.860  -6.213  11.206  1.00  0.00     0.031 A 
ATOM     49  C   UNL     1       4.953  -6.759  12.084  1.00  0.00     0.074 A 
ATOM     50  C   UNL     1       3.602  -6.790  10.016  1.00  0.00     0.049 A 
ATOM     51  N   UNL     1       5.760  -7.766  11.865  1.00  0.00    -0.248 NA
ATOM     52  C   UNL     1       5.183  -6.071  13.364  1.00  0.00     0.031 C 
ATOM     53  C   UNL     1       2.592  -6.338   9.056  1.00  0.00     0.029 A 
ATOM     54  N   UNL     1       4.176  -7.877   9.406  1.00  0.00    -0.354 N 
ATOM     55  C   UNL     1       6.605  -7.820  12.967  1.00  0.00     0.074 A 
ATOM     56  C   UNL     1       6.236  -6.723  13.836  1.00  0.00     0.031 C 
ATOM     57  C   UNL     1       2.605  -7.153   7.988  1.00  0.00     0.029 A 
ATOM     58  C   UNL     1       3.644  -8.162   8.171  1.00  0.00     0.049 A 
ATOM     59  H   UNL     1       4.900  -8.404   9.815  1.00  0.00     0.167 HD
ATOM     60  C   UNL     1       7.590  -8.710  13.239  1.00  0.00     0.031 A 
ATOM     61  C   UNL     1       3.958  -9.123   7.281  1.00  0.00     0.031 A 
ATOM     62  C   UNL     1       7.947  -9.811  12.384  1.00  0.00     0.049 A 
ATOM     63  C   UNL     1       5.049 -10.104   7.608  1.00  0.00     0.074 A 
ATOM     64  C   UNL     1       8.894 -10.797  12.601  1.00  0.00     0.029 A 
ATOM     65  N   UNL     1       7.370 -10.076  11.152  1.00  0.00    -0.354 N 
ATOM     66  N   UNL     1       5.803 -10.168   8.679  1.00  0.00    -0.248 NA
ATOM     67  C   UNL     1       5.325 -11.146   6.610  1.00  0.00     0.031 C 
ATOM     68  C   UNL     1       8.916 -11.637  11.482  1.00  0.00     0.029 A 
ATOM     69  C   UNL     1       7.951 -11.199  10.588  1.00  0.00     0.049 A 
ATOM     70  H   UNL     1       6.652  -9.543  10.738  1.00  0.00     0.167 HD
ATOM     71  C   UNL     1       6.627 -11.272   8.494  1.00  0.00     0.074 A 
ATOM     72  C   UNL     1       6.273 -11.851   7.215  1.00  0.00     0.031 C 
ATOM     73  C   UNL     1       7.589 -11.763   9.313  1.00  0.00     0.031 A 
BRANCH  60  74
ATOM     74  C   UNL     1       8.360  -8.519  14.518  1.00  0.00    -0.014 A 
ATOM     75  C   UNL     1       7.773  -8.799  15.765  1.00  0.00     0.010 A 
ATOM     76  C   UNL     1       9.695  -8.081  14.472  1.00  0.00     0.010 A 
ATOM     77  C   UNL     1       8.492  -8.600  16.946  1.00  0.00     0.020 A 
ATOM     78  C   UNL     1      10.427  -7.903  15.650  1.00  0.00     0.020 A 
ATOM     79  C   UNL     1       9.813  -8.145  16.881  1.00  0.00     0.054 A 
BRANCH  79  80
ATOM     80  S   UNL     1      10.729  -7.900  18.427  1.00  0.00     0.124 S 
ATOM     81  O   UNL     1      10.168  -6.641  18.911  1.00  0.00    -0.237 OA
ATOM     82  O   UNL     1      10.375  -9.085  19.204  1.00  0.00    -0.237 OA
ATOM     83  O   UNL     1      12.123  -7.837  17.996  1.00  0.00    -0.744 OA
ENDBRANCH  79  80
ENDBRANCH  60  74
BRANCH  61  84
ATOM     84  C   UNL     1       3.211  -9.216   5.999  1.00  0.00    -0.014 A 
ATOM     85  C   UNL     1       2.269 -10.239   5.799  1.00  0.00     0.010 A 
ATOM     86  C   UNL     1       3.425  -8.270   4.980  1.00  0.00     0.010 A 
ATOM     87  C   UNL     1       1.561 -10.324   4.597  1.00  0.00     0.020 A 
ATOM     88  C   UNL     1       2.703  -8.338   3.786  1.00  0.00     0.020 A 
ATOM     89  C   UNL     1       1.782  -9.372   3.598  1.00  0.00     0.054 A 
BRANCH  89  90
ATOM     90  S   UNL     1       0.810  -9.461   2.068  1.00  0.00     0.124 S 
ATOM     91  O   UNL     1       1.482 -10.536   1.346  1.00  0.00    -0.237 OA
ATOM     92  O   UNL     1      -0.530  -9.770   2.561  1.00  0.00    -0.237 OA
ATOM     93  O   UNL     1       0.961  -8.127   1.493  1.00  0.00    -0.744 OA
ENDBRANCH  89  90
ENDBRANCH  61  84
BRANCH  73  94
ATOM     94  C   UNL     1       8.310 -13.004   8.865  1.00  0.00    -0.014 A 
ATOM     95  C   UNL     1       9.285 -12.951   7.854  1.00  0.00     0.010 A 
ATOM     96  C   UNL     1       8.043 -14.230   9.500  1.00  0.00     0.010 A 
ATOM     97  C   UNL     1       9.963 -14.110   7.467  1.00  0.00     0.020 A 
ATOM     98  C   UNL     1       8.734 -15.386   9.131  1.00  0.00     0.020 A 
ATOM     99  C   UNL     1       9.681 -15.322   8.107  1.00  0.00     0.054 A 
BRANCH  99 100
ATOM    100  S   UNL     1      10.606 -16.805   7.622  1.00  0.00     0.124 S 
ATOM    101  O   UNL     1       9.950 -17.176   6.372  1.00  0.00    -0.237 OA
ATOM    102  O   UNL     1      11.973 -16.305   7.490  1.00  0.00    -0.237 OA
ATOM    103  O   UNL     1      10.392 -17.725   8.737  1.00  0.00    -0.744 OA
ENDBRANCH  99 100
ENDBRANCH  73  94
ENDBRANCH  47  48
ENDBRANCH  39  42
ENDBRANCH  37  38
ENDBRANCH  36  37
ENDBRANCH  35  36
ENDBRANCH   1  35
TORSDOF 20
