REMARK SMILES CS(=O)(=O)c1ccc(C2=NN(c3ccc(C(=O)NCCCCCCNC(=O)c4ccc(-c5c6nc(c(-c7ccc(S(=O)(=O)[O-])cc7)c7ccc([nH]7)c(-c7ccc(S(=O)(=O)[O-])cc7)c7nc(c(-c8ccc(S(=O)(=O)[O-])cc8)c8ccc5[nH]8)C=C7)C=C6)cc4)cc3)[C@H](c3ccccc3)C2)cc1
REMARK SMILES IDX 21 1 20 2 19 3 18 4 16 5 17 6 15 8 12 9 13 10 89 11 14 12
REMARK SMILES IDX 88 13 11 14 9 15 10 16 97 17 90 18 8 19 5 20 6 21 99 22 7 23
REMARK SMILES IDX 98 24 2 25 1 26 3 27 4 28 91 29 92 30 96 31 93 32 95 33
REMARK SMILES IDX 94 34 22 35 23 36 24 37 25 38 26 39 27 41 28 42 29 43 87 44
REMARK SMILES IDX 30 45 86 46 31 47 32 48 33 49 80 50 34 51 85 52 79 53 81 54
REMARK SMILES IDX 35 55 84 56 78 57 77 58 36 60 66 61 47 62 65 63 48 64 51 65
REMARK SMILES IDX 64 66 82 67 49 68 50 69 63 71 83 72 52 73 37 74 38 75 46 76
REMARK SMILES IDX 39 77 45 78 40 79 41 80 42 81 43 82 44 83 67 84 68 85 76 86
REMARK SMILES IDX 69 87 75 88 70 89 71 90 72 91 73 92 74 93 53 94 54 95 62 96
REMARK SMILES IDX 55 97 61 98 56 99 57 100 58 101 59 102 60 103
REMARK H PARENT 18 7 25 40 81 59 51 70
REMARK Flexibility Score: inf
ROOT
ATOM      1  C   UNL     1       3.159 -15.956  -2.379  1.00  0.00     0.002 C 
ENDROOT
BRANCH   1   2
ATOM      2  C   UNL     1       2.801 -14.708  -1.561  1.00  0.00     0.021 C 
BRANCH   2   3
ATOM      3  C   UNL     1       3.930 -14.255  -0.633  1.00  0.00     0.116 C 
BRANCH   3   4
ATOM      4  N   UNL     1       4.949 -13.557  -1.397  1.00  0.00    -0.352 N 
ATOM      5  C   UNL     1       5.257 -12.226  -1.506  1.00  0.00     0.251 C 
ATOM      6  O   UNL     1       6.199 -11.902  -2.229  1.00  0.00    -0.269 OA
ATOM      7  H   UNL     1       5.524 -14.149  -1.935  1.00  0.00     0.163 HD
BRANCH   5   8
ATOM      8  C   UNL     1       4.547 -11.180  -0.724  1.00  0.00     0.039 A 
ATOM      9  C   UNL     1       3.393  -9.220   0.939  1.00  0.00     0.060 A 
ATOM     10  C   UNL     1       4.729  -9.113   0.542  1.00  0.00     0.029 A 
ATOM     11  C   UNL     1       2.623 -10.265   0.422  1.00  0.00     0.029 A 
ATOM     12  C   UNL     1       5.304 -10.086  -0.281  1.00  0.00     0.016 A 
ATOM     13  C   UNL     1       3.185 -11.223  -0.423  1.00  0.00     0.016 A 
BRANCH   9  14
ATOM     14  N   UNL     1       2.812  -8.323   1.824  1.00  0.00    -0.257 N 
ATOM     15  C   UNL     1       2.414  -6.310   2.371  1.00  0.00     0.071 C 
ATOM     16  N   UNL     1       2.451  -7.107   1.352  1.00  0.00    -0.176 NA
ATOM     17  C   UNL     1       2.856  -6.895   3.683  1.00  0.00     0.091 C 
ATOM     18  C   UNL     1       3.069  -8.364   3.271  1.00  0.00     0.144 C 
BRANCH  15  19
ATOM     19  C   UNL     1       1.962  -4.917   2.240  1.00  0.00    -0.002 A 
ATOM     20  C   UNL     1       1.063  -2.316   1.873  1.00  0.00     0.067 A 
ATOM     21  C   UNL     1       0.370  -3.371   1.275  1.00  0.00     0.021 A 
ATOM     22  C   UNL     1       2.195  -2.554   2.664  1.00  0.00     0.021 A 
ATOM     23  C   UNL     1       0.834  -4.673   1.447  1.00  0.00     0.011 A 
ATOM     24  C   UNL     1       2.645  -3.864   2.852  1.00  0.00     0.011 A 
BRANCH  20  25
ATOM     25  S   UNL     1       0.459  -0.656   1.667  1.00  0.00     0.175 S 
ATOM     26  C   UNL     1       1.120  -0.164   0.098  1.00  0.00     0.163 C 
ATOM     27  O   UNL     1       1.073   0.164   2.689  1.00  0.00    -0.224 OA
ATOM     28  O   UNL     1      -0.987  -0.734   1.544  1.00  0.00    -0.224 OA
ENDBRANCH  20  25
ENDBRANCH  15  19
BRANCH  18  29
ATOM     29  C   UNL     1       2.213  -9.436   3.941  1.00  0.00    -0.023 A 
ATOM     30  C   UNL     1       1.036  -9.175   4.659  1.00  0.00     0.006 A 
ATOM     31  C   UNL     1       2.605 -10.786   3.807  1.00  0.00     0.006 A 
ATOM     32  C   UNL     1       0.289 -10.217   5.223  1.00  0.00     0.000 A 
ATOM     33  C   UNL     1       1.844 -11.827   4.345  1.00  0.00     0.000 A 
ATOM     34  C   UNL     1       0.687 -11.541   5.059  1.00  0.00     0.000 A 
ENDBRANCH  18  29
ENDBRANCH   9  14
ENDBRANCH   5   8
ENDBRANCH   3   4
ENDBRANCH   2   3
ENDBRANCH   1   2
BRANCH   1  35
ATOM     35  C   UNL     1       3.424 -17.214  -1.543  1.00  0.00     0.002 C 
BRANCH  35  36
ATOM     36  C   UNL     1       2.284 -17.608  -0.599  1.00  0.00     0.021 C 
BRANCH  36  37
ATOM     37  C   UNL     1       0.971 -17.924  -1.306  1.00  0.00     0.116 C 
BRANCH  37  38
ATOM     38  N   UNL     1       1.095 -19.093  -2.165  1.00  0.00    -0.352 N 
ATOM     39  C   UNL     1       0.382 -20.265  -2.140  1.00  0.00     0.251 C 
ATOM     40  H   UNL     1       1.788 -19.034  -2.862  1.00  0.00     0.163 HD
ATOM     41  O   UNL     1       0.780 -21.240  -2.771  1.00  0.00    -0.269 OA
BRANCH  39  42
ATOM     42  C   UNL     1      -0.859 -20.349  -1.343  1.00  0.00     0.039 A 
ATOM     43  C   UNL     1      -1.089 -21.483  -0.561  1.00  0.00     0.014 A 
ATOM     44  C   UNL     1      -1.797 -19.313  -1.374  1.00  0.00     0.014 A 
ATOM     45  C   UNL     1      -2.237 -21.553   0.232  1.00  0.00     0.010 A 
ATOM     46  C   UNL     1      -2.899 -19.350  -0.527  1.00  0.00     0.010 A 
ATOM     47  C   UNL     1      -3.135 -20.473   0.279  1.00  0.00    -0.014 A 
BRANCH  47  48
ATOM     48  C   UNL     1      -4.327 -20.502   1.165  1.00  0.00     0.031 A 
ATOM     49  C   UNL     1      -5.711 -20.460   0.574  1.00  0.00     0.074 A 
ATOM     50  C   UNL     1      -4.162 -20.506   2.503  1.00  0.00     0.049 A 
ATOM     51  N   UNL     1      -6.867 -20.427   1.186  1.00  0.00    -0.248 NA
ATOM     52  C   UNL     1      -5.809 -20.427  -0.895  1.00  0.00     0.031 C 
ATOM     53  C   UNL     1      -2.871 -20.508   3.197  1.00  0.00     0.029 A 
ATOM     54  N   UNL     1      -5.083 -20.505   3.519  1.00  0.00    -0.354 N 
ATOM     55  C   UNL     1      -7.825 -20.355   0.181  1.00  0.00     0.074 A 
ATOM     56  C   UNL     1      -7.114 -20.295  -1.077  1.00  0.00     0.031 C 
ATOM     57  C   UNL     1      -3.085 -20.538   4.522  1.00  0.00     0.029 A 
ATOM     58  C   UNL     1      -4.522 -20.510   4.775  1.00  0.00     0.049 A 
ATOM     59  H   UNL     1      -6.056 -20.500   3.365  1.00  0.00     0.167 HD
ATOM     60  C   UNL     1      -9.175 -20.358   0.294  1.00  0.00     0.031 A 
ATOM     61  C   UNL     1      -5.096 -20.487   5.993  1.00  0.00     0.031 A 
ATOM     62  C   UNL     1      -9.877 -20.422   1.549  1.00  0.00     0.049 A 
ATOM     63  C   UNL     1      -6.598 -20.470   6.093  1.00  0.00     0.074 A 
ATOM     64  C   UNL     1     -11.242 -20.484   1.768  1.00  0.00     0.029 A 
ATOM     65  N   UNL     1      -9.271 -20.429   2.797  1.00  0.00    -0.354 N 
ATOM     66  N   UNL     1      -7.487 -20.470   5.129  1.00  0.00    -0.248 NA
ATOM     67  C   UNL     1      -7.172 -20.462   7.445  1.00  0.00     0.031 C 
ATOM     68  C   UNL     1     -11.464 -20.466   3.148  1.00  0.00     0.029 A 
ATOM     69  C   UNL     1     -10.236 -20.464   3.790  1.00  0.00     0.049 A 
ATOM     70  H   UNL     1      -8.299 -20.411   2.953  1.00  0.00     0.167 HD
ATOM     71  C   UNL     1      -8.727 -20.492   5.759  1.00  0.00     0.074 A 
ATOM     72  C   UNL     1      -8.471 -20.521   7.184  1.00  0.00     0.031 C 
ATOM     73  C   UNL     1      -9.966 -20.491   5.206  1.00  0.00     0.031 A 
BRANCH  60  74
ATOM     74  C   UNL     1      -9.983 -20.280  -0.976  1.00  0.00    -0.014 A 
ATOM     75  C   UNL     1     -10.008 -21.349  -1.891  1.00  0.00     0.010 A 
ATOM     76  C   UNL     1     -10.763 -19.139  -1.240  1.00  0.00     0.010 A 
ATOM     77  C   UNL     1     -10.762 -21.261  -3.064  1.00  0.00     0.020 A 
ATOM     78  C   UNL     1     -11.544 -19.060  -2.396  1.00  0.00     0.020 A 
ATOM     79  C   UNL     1     -11.525 -20.115  -3.309  1.00  0.00     0.054 A 
BRANCH  79  80
ATOM     80  S   UNL     1     -12.514 -20.040  -4.828  1.00  0.00     0.124 S 
ATOM     81  O   UNL     1     -11.483 -19.885  -5.851  1.00  0.00    -0.237 OA
ATOM     82  O   UNL     1     -13.205 -21.327  -4.824  1.00  0.00    -0.237 OA
ATOM     83  O   UNL     1     -13.372 -18.875  -4.628  1.00  0.00    -0.744 OA
ENDBRANCH  79  80
ENDBRANCH  60  74
BRANCH  61  84
ATOM     84  C   UNL     1      -4.247 -20.488   7.216  1.00  0.00    -0.014 A 
ATOM     85  C   UNL     1      -4.212 -21.610   8.063  1.00  0.00     0.010 A 
ATOM     86  C   UNL     1      -3.458 -19.367   7.536  1.00  0.00     0.010 A 
ATOM     87  C   UNL     1      -3.420 -21.605   9.215  1.00  0.00     0.020 A 
ATOM     88  C   UNL     1      -2.641 -19.370   8.669  1.00  0.00     0.020 A 
ATOM     89  C   UNL     1      -2.637 -20.485   9.509  1.00  0.00     0.054 A 
BRANCH  89  90
ATOM     90  S   UNL     1      -1.580 -20.518  10.984  1.00  0.00     0.124 S 
ATOM     91  O   UNL     1      -2.558 -20.410  12.061  1.00  0.00    -0.237 OA
ATOM     92  O   UNL     1      -0.911 -21.811  10.861  1.00  0.00    -0.237 OA
ATOM     93  O   UNL     1      -0.711 -19.357  10.807  1.00  0.00    -0.744 OA
ENDBRANCH  89  90
ENDBRANCH  61  84
BRANCH  73  94
ATOM     94  C   UNL     1     -11.144 -20.560   6.142  1.00  0.00    -0.014 A 
ATOM     95  C   UNL     1     -11.500 -19.468   6.954  1.00  0.00     0.010 A 
ATOM     96  C   UNL     1     -11.941 -21.720   6.166  1.00  0.00     0.010 A 
ATOM     97  C   UNL     1     -12.613 -19.549   7.796  1.00  0.00     0.020 A 
ATOM     98  C   UNL     1     -13.071 -21.792   6.983  1.00  0.00     0.020 A 
ATOM     99  C   UNL     1     -13.392 -20.710   7.804  1.00  0.00     0.054 A 
BRANCH  99 100
ATOM    100  S   UNL     1     -14.855 -20.770   8.874  1.00  0.00     0.124 S 
ATOM    101  O   UNL     1     -14.257 -20.882  10.201  1.00  0.00    -0.237 OA
ATOM    102  O   UNL     1     -15.514 -19.499   8.586  1.00  0.00    -0.237 OA
ATOM    103  O   UNL     1     -15.573 -21.956   8.412  1.00  0.00    -0.744 OA
ENDBRANCH  99 100
ENDBRANCH  73  94
ENDBRANCH  47  48
ENDBRANCH  39  42
ENDBRANCH  37  38
ENDBRANCH  36  37
ENDBRANCH  35  36
ENDBRANCH   1  35
TORSDOF 20
