REMARK SMILES C[C@@H](CCCO)Nc1ccc(C(=O)NCCCCCCNC(=O)c2ccc(-c3c4nc(c(-c5ccc(S(=O)(=O)[O-])cc5)c5ccc([nH]5)c(-c5ccc(S(=O)(=O)[O-])cc5)c5nc(c(-c6ccc(S(=O)(=O)[O-])cc6)c6ccc3[nH]6)C=C5)C=C4)cc2)o1
REMARK SMILES IDX 16 1 15 2 14 3 12 4 13 5 11 7 8 8 9 9 84 10 10 11 7 12 2 14
REMARK SMILES IDX 1 15 3 16 4 17 5 18 6 19 17 21 18 22 19 23 20 24 21 25 22 26
REMARK SMILES IDX 23 28 24 29 25 30 83 31 26 32 82 33 27 34 28 35 29 36 76 37
REMARK SMILES IDX 30 38 81 39 75 40 77 41 31 42 80 43 74 44 73 45 32 47 62 48
REMARK SMILES IDX 43 49 61 50 44 51 47 52 60 53 78 54 45 55 46 56 59 58 79 59
REMARK SMILES IDX 48 60 33 61 34 62 42 63 35 64 41 65 36 66 37 67 38 68 39 69
REMARK SMILES IDX 40 70 63 71 64 72 72 73 65 74 71 75 66 76 67 77 68 78 69 79
REMARK SMILES IDX 70 80 49 81 50 82 58 83 51 84 57 85 52 86 53 87 54 88 55 89
REMARK SMILES IDX 56 90
REMARK H PARENT 14 6 7 13 6 20 21 27 77 46 47 57
REMARK Flexibility Score: inf
ROOT
ATOM      1  C   UNL     1      -5.170   7.024   0.581  1.00  0.00     0.021 C 
ENDROOT
BRANCH   1   2
ATOM      2  C   UNL     1      -4.210   6.281   1.508  1.00  0.00     0.116 C 
BRANCH   2   3
ATOM      3  N   UNL     1      -4.706   4.951   1.780  1.00  0.00    -0.349 N 
ATOM      4  C   UNL     1      -4.309   3.717   1.330  1.00  0.00     0.287 C 
ATOM      5  O   UNL     1      -4.963   2.764   1.765  1.00  0.00    -0.266 OA
ATOM      6  H   UNL     1      -5.469   4.926   2.401  1.00  0.00     0.163 HD
BRANCH   4   7
ATOM      7  C   UNL     1      -3.170   3.550   0.446  1.00  0.00     0.194 A 
ATOM      8  C   UNL     1      -1.550   2.305  -0.393  1.00  0.00     0.194 A 
ATOM      9  C   UNL     1      -1.334   3.572  -0.869  1.00  0.00     0.070 A 
ATOM     10  O   UNL     1      -2.668   2.273   0.364  1.00  0.00    -0.436 OA
ATOM     11  C   UNL     1      -2.406   4.361  -0.377  1.00  0.00     0.058 A 
BRANCH   8  12
ATOM     12  N   UNL     1      -0.908   1.134  -0.497  1.00  0.00    -0.354 N 
ATOM     13  H   UNL     1      -1.425   0.300  -0.423  1.00  0.00     0.163 HD
BRANCH  12  14
ATOM     14  C   UNL     1       0.525   1.053  -0.714  1.00  0.00     0.079 C 
ATOM     15  C   UNL     1       1.079  -0.119   0.096  1.00  0.00     0.031 C 
BRANCH  14  16
ATOM     16  C   UNL     1       0.877   0.972  -2.207  1.00  0.00     0.027 C 
BRANCH  16  17
ATOM     17  C   UNL     1       0.418  -0.275  -2.975  1.00  0.00     0.030 C 
BRANCH  17  18
ATOM     18  C   UNL     1      -1.086  -0.421  -3.176  1.00  0.00     0.156 C 
BRANCH  18  19
ATOM     19  O   UNL     1      -1.645   0.761  -3.728  1.00  0.00    -0.396 OA
ATOM     20  H   UNL     1      -1.494   1.503  -3.122  1.00  0.00     0.210 HD
ENDBRANCH  18  19
ENDBRANCH  17  18
ENDBRANCH  16  17
ENDBRANCH  14  16
ENDBRANCH  12  14
ENDBRANCH   8  12
ENDBRANCH   4   7
ENDBRANCH   2   3
ENDBRANCH   1   2
BRANCH   1  21
ATOM     21  C   UNL     1      -6.379   7.611   1.321  1.00  0.00     0.002 C 
BRANCH  21  22
ATOM     22  C   UNL     1      -6.028   8.613   2.430  1.00  0.00     0.002 C 
BRANCH  22  23
ATOM     23  C   UNL     1      -5.104   9.752   1.994  1.00  0.00     0.021 C 
BRANCH  23  24
ATOM     24  C   UNL     1      -5.686  10.631   0.895  1.00  0.00     0.116 C 
BRANCH  24  25
ATOM     25  N   UNL     1      -6.870  11.342   1.354  1.00  0.00    -0.352 N 
ATOM     26  C   UNL     1      -7.108  12.695   1.371  1.00  0.00     0.251 C 
ATOM     27  H   UNL     1      -7.599  10.777   1.699  1.00  0.00     0.163 HD
ATOM     28  O   UNL     1      -8.047  13.152   2.009  1.00  0.00    -0.269 OA
BRANCH  26  29
ATOM     29  C   UNL     1      -6.205  13.589   0.617  1.00  0.00     0.039 A 
ATOM     30  C   UNL     1      -5.725  14.750   1.226  1.00  0.00     0.014 A 
ATOM     31  C   UNL     1      -5.827  13.265  -0.689  1.00  0.00     0.014 A 
ATOM     32  C   UNL     1      -4.817  15.561   0.541  1.00  0.00     0.010 A 
ATOM     33  C   UNL     1      -4.864  14.029  -1.336  1.00  0.00     0.010 A 
ATOM     34  C   UNL     1      -4.357  15.190  -0.733  1.00  0.00    -0.014 A 
BRANCH  34  35
ATOM     35  C   UNL     1      -3.363  16.006  -1.474  1.00  0.00     0.031 A 
ATOM     36  C   UNL     1      -3.745  16.628  -2.790  1.00  0.00     0.074 A 
ATOM     37  C   UNL     1      -2.103  16.119  -1.008  1.00  0.00     0.049 A 
ATOM     38  N   UNL     1      -2.996  17.272  -3.646  1.00  0.00    -0.248 NA
ATOM     39  C   UNL     1      -5.149  16.482  -3.211  1.00  0.00     0.031 C 
ATOM     40  C   UNL     1      -1.604  15.541   0.242  1.00  0.00     0.029 A 
ATOM     41  N   UNL     1      -1.006  16.748  -1.543  1.00  0.00    -0.354 N 
ATOM     42  C   UNL     1      -3.829  17.586  -4.714  1.00  0.00     0.074 A 
ATOM     43  C   UNL     1      -5.126  17.018  -4.422  1.00  0.00     0.031 C 
ATOM     44  C   UNL     1      -0.307  15.860   0.387  1.00  0.00     0.029 A 
ATOM     45  C   UNL     1       0.132  16.618  -0.780  1.00  0.00     0.049 A 
ATOM     46  H   UNL     1      -1.031  17.246  -2.392  1.00  0.00     0.167 HD
ATOM     47  C   UNL     1      -3.545  18.299  -5.829  1.00  0.00     0.031 A 
ATOM     48  C   UNL     1       1.390  17.046  -1.004  1.00  0.00     0.031 A 
ATOM     49  C   UNL     1      -2.255  18.872  -6.107  1.00  0.00     0.049 A 
ATOM     50  C   UNL     1       1.689  17.813  -2.265  1.00  0.00     0.074 A 
ATOM     51  C   UNL     1      -1.877  19.653  -7.184  1.00  0.00     0.029 A 
ATOM     52  N   UNL     1      -1.134  18.727  -5.303  1.00  0.00    -0.354 N 
ATOM     53  N   UNL     1       0.875  18.145  -3.239  1.00  0.00    -0.248 NA
ATOM     54  C   UNL     1       3.073  18.272  -2.453  1.00  0.00     0.031 C 
ATOM     55  C   UNL     1      -0.513  19.931  -7.063  1.00  0.00     0.029 A 
ATOM     56  C   UNL     1      -0.058  19.385  -5.872  1.00  0.00     0.049 A 
ATOM     57  H   UNL     1      -1.108  18.231  -4.454  1.00  0.00     0.167 HD
ATOM     58  C   UNL     1       1.639  18.886  -4.135  1.00  0.00     0.074 A 
ATOM     59  C   UNL     1       2.977  18.956  -3.585  1.00  0.00     0.031 C 
ATOM     60  C   UNL     1       1.264  19.460  -5.304  1.00  0.00     0.031 A 
BRANCH  47  61
ATOM     61  C   UNL     1      -4.648  18.494  -6.836  1.00  0.00    -0.014 A 
ATOM     62  C   UNL     1      -5.765  19.299  -6.547  1.00  0.00     0.010 A 
ATOM     63  C   UNL     1      -4.544  17.901  -8.108  1.00  0.00     0.010 A 
ATOM     64  C   UNL     1      -6.776  19.474  -7.495  1.00  0.00     0.020 A 
ATOM     65  C   UNL     1      -5.538  18.100  -9.071  1.00  0.00     0.020 A 
ATOM     66  C   UNL     1      -6.656  18.873  -8.752  1.00  0.00     0.054 A 
BRANCH  66  67
ATOM     67  S   UNL     1      -7.971  19.142  -9.971  1.00  0.00     0.124 S 
ATOM     68  O   UNL     1      -9.067  18.357  -9.409  1.00  0.00    -0.237 OA
ATOM     69  O   UNL     1      -8.152  20.591  -9.930  1.00  0.00    -0.237 OA
ATOM     70  O   UNL     1      -7.406  18.622 -11.213  1.00  0.00    -0.744 OA
ENDBRANCH  66  67
ENDBRANCH  47  61
BRANCH  48  71
ATOM     71  C   UNL     1       2.463  16.764  -0.009  1.00  0.00    -0.014 A 
ATOM     72  C   UNL     1       3.035  17.806   0.741  1.00  0.00     0.010 A 
ATOM     73  C   UNL     1       2.917  15.447   0.195  1.00  0.00     0.010 A 
ATOM     74  C   UNL     1       4.056  17.542   1.658  1.00  0.00     0.020 A 
ATOM     75  C   UNL     1       3.916  15.175   1.135  1.00  0.00     0.020 A 
ATOM     76  C   UNL     1       4.489  16.227   1.851  1.00  0.00     0.054 A 
BRANCH  76  77
ATOM     77  S   UNL     1       5.788  15.904   3.075  1.00  0.00     0.124 S 
ATOM     78  O   UNL     1       6.969  16.456   2.418  1.00  0.00    -0.237 OA
ATOM     79  O   UNL     1       5.310  16.640   4.242  1.00  0.00    -0.237 OA
ATOM     80  O   UNL     1       5.772  14.450   3.215  1.00  0.00    -0.744 OA
ENDBRANCH  76  77
ENDBRANCH  48  71
BRANCH  60  81
ATOM     81  C   UNL     1       2.290  20.272  -6.050  1.00  0.00    -0.014 A 
ATOM     82  C   UNL     1       3.357  19.662  -6.731  1.00  0.00     0.010 A 
ATOM     83  C   UNL     1       2.124  21.667  -6.142  1.00  0.00     0.010 A 
ATOM     84  C   UNL     1       4.249  20.436  -7.480  1.00  0.00     0.020 A 
ATOM     85  C   UNL     1       2.995  22.439  -6.913  1.00  0.00     0.020 A 
ATOM     86  C   UNL     1       4.058  21.819  -7.572  1.00  0.00     0.054 A 
BRANCH  86  87
ATOM     87  S   UNL     1       5.185  22.788  -8.611  1.00  0.00     0.124 S 
ATOM     88  O   UNL     1       6.417  22.765  -7.827  1.00  0.00    -0.237 OA
ATOM     89  O   UNL     1       5.215  22.018  -9.852  1.00  0.00    -0.237 OA
ATOM     90  O   UNL     1       4.534  24.092  -8.708  1.00  0.00    -0.744 OA
ENDBRANCH  86  87
ENDBRANCH  60  81
ENDBRANCH  34  35
ENDBRANCH  26  29
ENDBRANCH  24  25
ENDBRANCH  23  24
ENDBRANCH  22  23
ENDBRANCH  21  22
ENDBRANCH   1  21
TORSDOF 22
