REMARK SMILES COC(=O)C[C@H](c1ccc(C(=O)NCCCCCCNC(=O)c2ccc(-c3c4nc(c(-c5ccc(S(=O)(=O)[O-])cc5)c5ccc([nH]5)c(-c5ccc(S(=O)(=O)[O-])cc5)c5nc(c(-c6ccc(S(=O)(=O)[O-])cc6)c6ccc3[nH]6)C=C5)C=C4)cc2)cc1)c1c(O)n[nH]c1C
REMARK SMILES IDX 16 1 15 2 14 3 13 4 11 5 12 6 10 8 7 9 8 10 84 11 9 12 83 13
REMARK SMILES IDX 6 14 5 15 3 16 4 17 2 18 1 19 85 20 86 21 90 22 88 23 89 24
REMARK SMILES IDX 91 25 87 27 17 29 18 30 19 31 20 32 21 33 22 35 23 36 24 37
REMARK SMILES IDX 82 38 25 39 81 40 26 41 27 42 28 43 75 44 29 45 80 46 74 47
REMARK SMILES IDX 76 48 30 49 79 50 73 51 72 52 31 54 61 55 42 56 60 57 43 58
REMARK SMILES IDX 46 59 59 60 77 61 44 62 45 63 58 65 78 66 47 67 32 68 33 69
REMARK SMILES IDX 41 70 34 71 40 72 35 73 36 74 37 75 38 76 39 77 62 78 63 79
REMARK SMILES IDX 71 80 64 81 70 82 65 83 66 84 67 85 68 86 69 87 48 88 49 89
REMARK SMILES IDX 57 90 50 91 56 92 51 93 52 94 53 95 54 96 55 97
REMARK H PARENT 13 7 89 26 87 28 20 34 76 53 46 64
REMARK Flexibility Score: inf
ROOT
ATOM      1  C   UNL     1       1.348   8.003   2.710  1.00  0.00     0.002 C 
ENDROOT
BRANCH   1   2
ATOM      2  C   UNL     1       1.661   6.913   1.675  1.00  0.00     0.021 C 
BRANCH   2   3
ATOM      3  C   UNL     1       0.971   5.591   2.012  1.00  0.00     0.116 C 
BRANCH   3   4
ATOM      4  N   UNL     1      -0.414   5.659   1.609  1.00  0.00    -0.352 N 
ATOM      5  C   UNL     1      -1.038   5.504   0.402  1.00  0.00     0.251 C 
ATOM      6  O   UNL     1      -2.216   5.866   0.352  1.00  0.00    -0.269 OA
ATOM      7  H   UNL     1      -1.032   5.856   2.350  1.00  0.00     0.163 HD
BRANCH   5   8
ATOM      8  C   UNL     1      -0.423   4.864  -0.802  1.00  0.00     0.039 A 
ATOM      9  C   UNL     1       0.377   3.263  -2.999  1.00  0.00    -0.040 A 
ATOM     10  C   UNL     1      -0.917   3.801  -2.933  1.00  0.00     0.005 A 
ATOM     11  C   UNL     1       1.297   3.640  -2.018  1.00  0.00     0.005 A 
ATOM     12  C   UNL     1      -1.314   4.569  -1.842  1.00  0.00     0.014 A 
ATOM     13  C   UNL     1       0.908   4.466  -0.957  1.00  0.00     0.014 A 
BRANCH   9  14
ATOM     14  C   UNL     1       0.779   2.261  -4.074  1.00  0.00     0.068 C 
BRANCH  14  15
ATOM     15  C   UNL     1       0.195   0.860  -3.814  1.00  0.00     0.136 C 
BRANCH  15  16
ATOM     16  C   UNL     1      -1.258   0.847  -3.396  1.00  0.00     0.306 C 
ATOM     17  O   UNL     1      -2.216   0.905  -4.163  1.00  0.00    -0.252 OA
BRANCH  16  18
ATOM     18  O   UNL     1      -1.352   0.841  -2.035  1.00  0.00    -0.469 OA
ATOM     19  C   UNL     1      -2.635   1.177  -1.496  1.00  0.00     0.282 C 
ENDBRANCH  16  18
ENDBRANCH  15  16
ENDBRANCH  14  15
BRANCH  14  20
ATOM     20  C   UNL     1       0.505   2.927  -5.398  1.00  0.00     0.044 A 
ATOM     21  C   UNL     1      -0.059   2.387  -6.564  1.00  0.00     0.234 A 
ATOM     22  C   UNL     1       0.815   4.228  -5.801  1.00  0.00     0.040 A 
ATOM     23  N   UNL     1      -0.174   3.225  -7.581  1.00  0.00    -0.137 NA
ATOM     24  N   UNL     1       0.347   4.357  -7.082  1.00  0.00    -0.279 N 
ATOM     25  C   UNL     1       1.475   5.364  -5.106  1.00  0.00     0.066 C 
ATOM     26  H   UNL     1       0.388   5.200  -7.589  1.00  0.00     0.190 HD
BRANCH  21  27
ATOM     27  O   UNL     1      -0.477   1.153  -6.821  1.00  0.00    -0.492 OA
ATOM     28  H   UNL     1      -0.431   0.495  -6.155  1.00  0.00     0.295 HD
ENDBRANCH  21  27
ENDBRANCH  14  20
ENDBRANCH   9  14
ENDBRANCH   5   8
ENDBRANCH   3   4
ENDBRANCH   2   3
ENDBRANCH   1   2
BRANCH   1  29
ATOM     29  C   UNL     1       1.827   7.674   4.130  1.00  0.00     0.002 C 
BRANCH  29  30
ATOM     30  C   UNL     1       3.308   7.297   4.224  1.00  0.00     0.021 C 
BRANCH  30  31
ATOM     31  C   UNL     1       4.245   8.413   3.779  1.00  0.00     0.116 C 
BRANCH  31  32
ATOM     32  N   UNL     1       4.149   9.557   4.671  1.00  0.00    -0.352 N 
ATOM     33  C   UNL     1       5.137  10.139   5.420  1.00  0.00     0.251 C 
ATOM     34  H   UNL     1       3.256   9.967   4.748  1.00  0.00     0.163 HD
ATOM     35  O   UNL     1       4.850  10.899   6.343  1.00  0.00    -0.269 OA
BRANCH  33  36
ATOM     36  C   UNL     1       6.547   9.844   5.104  1.00  0.00     0.039 A 
ATOM     37  C   UNL     1       7.438   9.566   6.142  1.00  0.00     0.014 A 
ATOM     38  C   UNL     1       6.983   9.850   3.775  1.00  0.00     0.014 A 
ATOM     39  C   UNL     1       8.765   9.257   5.842  1.00  0.00     0.010 A 
ATOM     40  C   UNL     1       8.285   9.471   3.474  1.00  0.00     0.010 A 
ATOM     41  C   UNL     1       9.192   9.187   4.506  1.00  0.00    -0.014 A 
BRANCH  41  42
ATOM     42  C   UNL     1      10.591   8.839   4.162  1.00  0.00     0.031 A 
ATOM     43  C   UNL     1      11.471   9.851   3.482  1.00  0.00     0.074 A 
ATOM     44  C   UNL     1      11.047   7.595   4.405  1.00  0.00     0.049 A 
ATOM     45  N   UNL     1      12.701   9.722   3.057  1.00  0.00    -0.248 NA
ATOM     46  C   UNL     1      10.881  11.175   3.221  1.00  0.00     0.031 C 
ATOM     47  C   UNL     1      10.275   6.516   5.026  1.00  0.00     0.029 A 
ATOM     48  N   UNL     1      12.270   7.027   4.154  1.00  0.00    -0.354 N 
ATOM     49  C   UNL     1      13.025  10.937   2.464  1.00  0.00     0.074 A 
ATOM     50  C   UNL     1      11.844  11.770   2.535  1.00  0.00     0.031 C 
ATOM     51  C   UNL     1      11.054   5.428   5.137  1.00  0.00     0.029 A 
ATOM     52  C   UNL     1      12.363   5.718   4.560  1.00  0.00     0.049 A 
ATOM     53  H   UNL     1      13.011   7.512   3.724  1.00  0.00     0.167 HD
ATOM     54  C   UNL     1      14.204  11.332   1.926  1.00  0.00     0.031 A 
ATOM     55  C   UNL     1      13.387   4.848   4.477  1.00  0.00     0.031 A 
ATOM     56  C   UNL     1      15.375  10.499   1.863  1.00  0.00     0.049 A 
ATOM     57  C   UNL     1      14.683   5.301   3.866  1.00  0.00     0.074 A 
ATOM     58  C   UNL     1      16.634  10.817   1.388  1.00  0.00     0.029 A 
ATOM     59  N   UNL     1      15.428   9.178   2.286  1.00  0.00    -0.354 N 
ATOM     60  N   UNL     1      14.991   6.474   3.364  1.00  0.00    -0.248 NA
ATOM     61  C   UNL     1      15.773   4.317   3.819  1.00  0.00     0.031 C 
ATOM     62  C   UNL     1      17.435   9.673   1.475  1.00  0.00     0.029 A 
ATOM     63  C   UNL     1      16.692   8.659   2.060  1.00  0.00     0.049 A 
ATOM     64  H   UNL     1      14.678   8.683   2.688  1.00  0.00     0.167 HD
ATOM     65  C   UNL     1      16.320   6.378   2.966  1.00  0.00     0.074 A 
ATOM     66  C   UNL     1      16.758   5.035   3.296  1.00  0.00     0.031 C 
ATOM     67  C   UNL     1      17.107   7.317   2.386  1.00  0.00     0.031 A 
BRANCH  54  68
ATOM     68  C   UNL     1      14.267  12.723   1.351  1.00  0.00    -0.014 A 
ATOM     69  C   UNL     1      14.190  13.859   2.178  1.00  0.00     0.010 A 
ATOM     70  C   UNL     1      14.404  12.899  -0.038  1.00  0.00     0.010 A 
ATOM     71  C   UNL     1      14.182  15.141   1.624  1.00  0.00     0.020 A 
ATOM     72  C   UNL     1      14.429  14.182  -0.595  1.00  0.00     0.020 A 
ATOM     73  C   UNL     1      14.291  15.294   0.239  1.00  0.00     0.054 A 
BRANCH  73  74
ATOM     74  S   UNL     1      14.262  16.968  -0.458  1.00  0.00     0.124 S 
ATOM     75  O   UNL     1      12.851  17.321  -0.331  1.00  0.00    -0.237 OA
ATOM     76  O   UNL     1      15.173  17.698   0.421  1.00  0.00    -0.237 OA
ATOM     77  O   UNL     1      14.737  16.783  -1.827  1.00  0.00    -0.744 OA
ENDBRANCH  73  74
ENDBRANCH  54  68
BRANCH  55  78
ATOM     78  C   UNL     1      13.229   3.473   5.021  1.00  0.00    -0.014 A 
ATOM     79  C   UNL     1      13.875   3.104   6.214  1.00  0.00     0.010 A 
ATOM     80  C   UNL     1      12.394   2.540   4.378  1.00  0.00     0.010 A 
ATOM     81  C   UNL     1      13.693   1.827   6.752  1.00  0.00     0.020 A 
ATOM     82  C   UNL     1      12.190   1.271   4.927  1.00  0.00     0.020 A 
ATOM     83  C   UNL     1      12.846   0.921   6.109  1.00  0.00     0.054 A 
BRANCH  83  84
ATOM     84  S   UNL     1      12.563  -0.703   6.869  1.00  0.00     0.124 S 
ATOM     85  O   UNL     1      13.829  -1.382   6.613  1.00  0.00    -0.237 OA
ATOM     86  O   UNL     1      12.300  -0.355   8.263  1.00  0.00    -0.237 OA
ATOM     87  O   UNL     1      11.411  -1.226   6.138  1.00  0.00    -0.744 OA
ENDBRANCH  83  84
ENDBRANCH  55  78
BRANCH  67  88
ATOM     88  C   UNL     1      18.534   6.938   2.093  1.00  0.00    -0.014 A 
ATOM     89  C   UNL     1      18.854   6.054   1.048  1.00  0.00     0.010 A 
ATOM     90  C   UNL     1      19.573   7.521   2.842  1.00  0.00     0.010 A 
ATOM     91  C   UNL     1      20.188   5.737   0.776  1.00  0.00     0.020 A 
ATOM     92  C   UNL     1      20.908   7.229   2.554  1.00  0.00     0.020 A 
ATOM     93  C   UNL     1      21.206   6.328   1.530  1.00  0.00     0.054 A 
BRANCH  93  94
ATOM     94  S   UNL     1      22.931   5.938   1.126  1.00  0.00     0.124 S 
ATOM     95  O   UNL     1      23.065   4.580   1.646  1.00  0.00    -0.237 OA
ATOM     96  O   UNL     1      22.953   6.059  -0.330  1.00  0.00    -0.237 OA
ATOM     97  O   UNL     1      23.694   6.959   1.841  1.00  0.00    -0.744 OA
ENDBRANCH  93  94
ENDBRANCH  67  88
ENDBRANCH  41  42
ENDBRANCH  33  36
ENDBRANCH  31  32
ENDBRANCH  30  31
ENDBRANCH  29  30
ENDBRANCH   1  29
TORSDOF 22
