REMARK SMILES O=C(CNC(=O)Nc1cccc2c1CCCC2)NCCCCCCNC(=O)c1ccc(-c2c3nc(c(-c4ccc(S(=O)(=O)[O-])cc4)c4ccc([nH]4)c(-c4ccc(S(=O)(=O)[O-])cc4)c4nc(c(-c5ccc(S(=O)(=O)[O-])cc5)c5ccc2[nH]5)C=C4)C=C3)cc1
REMARK SMILES IDX 22 1 21 2 20 3 19 4 18 5 1 6 2 7 3 9 4 10 5 11 6 13 7 14
REMARK SMILES IDX 8 16 9 17 13 18 10 19 12 20 14 21 11 22 17 23 15 24 16 25
REMARK SMILES IDX 23 26 24 27 25 28 26 29 27 31 28 32 29 33 87 34 30 35 86 36
REMARK SMILES IDX 31 37 32 38 33 39 80 40 34 41 85 42 79 43 81 44 35 45 84 46
REMARK SMILES IDX 78 47 77 48 36 50 66 51 47 52 65 53 48 54 51 55 64 56 82 57
REMARK SMILES IDX 49 58 50 59 63 61 83 62 52 63 37 64 38 65 46 66 39 67 45 68
REMARK SMILES IDX 40 69 41 70 42 71 43 72 44 73 67 74 68 75 76 76 69 77 75 78
REMARK SMILES IDX 70 79 71 80 72 81 73 82 74 83 53 84 54 85 62 86 55 87 61 88
REMARK SMILES IDX 56 89 57 90 58 91 59 92 60 93
REMARK H PARENT 18 8 4 12 7 15 25 30 81 49 51 60
REMARK Flexibility Score: inf
ROOT
ATOM      1  C   UNL     1       4.665  -2.410   3.465  1.00  0.00     0.002 C 
ENDROOT
BRANCH   1   2
ATOM      2  C   UNL     1       4.104  -2.901   2.127  1.00  0.00     0.002 C 
BRANCH   2   3
ATOM      3  C   UNL     1       2.580  -2.800   1.976  1.00  0.00     0.021 C 
BRANCH   3   4
ATOM      4  C   UNL     1       1.991  -1.430   2.323  1.00  0.00     0.116 C 
BRANCH   4   5
ATOM      5  N   UNL     1       2.552  -0.401   1.479  1.00  0.00    -0.355 N 
ATOM      6  O   UNL     1       0.587   0.136   0.418  1.00  0.00    -0.273 OA
ATOM      7  C   UNL     1       1.803   0.257   0.534  1.00  0.00     0.239 C 
ATOM      8  H   UNL     1       3.502  -0.164   1.585  1.00  0.00     0.163 HD
BRANCH   7   9
ATOM      9  C   UNL     1       2.648   0.908  -0.548  1.00  0.00     0.217 C 
BRANCH   9  10
ATOM     10  N   UNL     1       3.874   1.562  -0.109  1.00  0.00    -0.329 N 
ATOM     11  C   UNL     1       5.148   1.556  -0.535  1.00  0.00     0.319 C 
ATOM     12  H   UNL     1       3.738   2.139   0.677  1.00  0.00     0.165 HD
ATOM     13  O   UNL     1       5.945   2.273   0.080  1.00  0.00    -0.248 OA
ATOM     14  N   UNL     1       5.642   0.761  -1.507  1.00  0.00    -0.308 N 
ATOM     15  H   UNL     1       6.617   0.839  -1.623  1.00  0.00     0.171 HD
BRANCH  14  16
ATOM     16  C   UNL     1       5.044  -0.152  -2.383  1.00  0.00     0.046 A 
ATOM     17  C   UNL     1       5.527  -1.466  -2.314  1.00  0.00     0.026 A 
ATOM     18  C   UNL     1       3.996   0.173  -3.264  1.00  0.00    -0.021 A 
ATOM     19  C   UNL     1       4.872  -2.491  -2.989  1.00  0.00     0.002 A 
ATOM     20  C   UNL     1       3.275  -0.885  -3.858  1.00  0.00    -0.043 A 
ATOM     21  C   UNL     1       3.659   1.613  -3.595  1.00  0.00     0.038 C 
ATOM     22  C   UNL     1       3.727  -2.207  -3.726  1.00  0.00     0.004 A 
ATOM     23  C   UNL     1       1.988  -0.626  -4.602  1.00  0.00     0.036 C 
ATOM     24  C   UNL     1       2.365   1.823  -4.389  1.00  0.00     0.005 C 
ATOM     25  C   UNL     1       1.362   0.699  -4.179  1.00  0.00     0.005 C 
ENDBRANCH  14  16
ENDBRANCH   9  10
ENDBRANCH   7   9
ENDBRANCH   4   5
ENDBRANCH   3   4
ENDBRANCH   2   3
ENDBRANCH   1   2
BRANCH   1  26
ATOM     26  C   UNL     1       4.022  -3.026   4.709  1.00  0.00     0.021 C 
BRANCH  26  27
ATOM     27  C   UNL     1       4.118  -4.543   4.792  1.00  0.00     0.116 C 
BRANCH  27  28
ATOM     28  N   UNL     1       5.488  -4.996   4.948  1.00  0.00    -0.352 N 
ATOM     29  C   UNL     1       6.013  -5.854   5.884  1.00  0.00     0.251 C 
ATOM     30  H   UNL     1       6.130  -4.640   4.293  1.00  0.00     0.163 HD
ATOM     31  O   UNL     1       7.230  -5.979   5.981  1.00  0.00    -0.269 OA
BRANCH  29  32
ATOM     32  C   UNL     1       5.112  -6.609   6.784  1.00  0.00     0.039 A 
ATOM     33  C   UNL     1       5.444  -6.713   8.137  1.00  0.00     0.014 A 
ATOM     34  C   UNL     1       3.956  -7.226   6.298  1.00  0.00     0.014 A 
ATOM     35  C   UNL     1       4.596  -7.402   9.009  1.00  0.00     0.010 A 
ATOM     36  C   UNL     1       3.074  -7.846   7.181  1.00  0.00     0.010 A 
ATOM     37  C   UNL     1       3.393  -7.956   8.542  1.00  0.00    -0.014 A 
BRANCH  37  38
ATOM     38  C   UNL     1       2.479  -8.689   9.457  1.00  0.00     0.031 A 
ATOM     39  C   UNL     1       2.224 -10.159   9.245  1.00  0.00     0.074 A 
ATOM     40  C   UNL     1       1.852  -8.032  10.453  1.00  0.00     0.049 A 
ATOM     41  N   UNL     1       1.423 -10.961   9.899  1.00  0.00    -0.248 NA
ATOM     42  C   UNL     1       2.946 -10.808   8.137  1.00  0.00     0.031 C 
ATOM     43  C   UNL     1       1.983  -6.602  10.742  1.00  0.00     0.029 A 
ATOM     44  N   UNL     1       0.972  -8.482  11.406  1.00  0.00    -0.354 N 
ATOM     45  C   UNL     1       1.543 -12.202   9.283  1.00  0.00     0.074 A 
ATOM     46  C   UNL     1       2.443 -12.033   8.164  1.00  0.00     0.031 C 
ATOM     47  C   UNL     1       1.229  -6.298  11.812  1.00  0.00     0.029 A 
ATOM     48  C   UNL     1       0.535  -7.499  12.264  1.00  0.00     0.049 A 
ATOM     49  H   UNL     1       0.682  -9.421  11.471  1.00  0.00     0.167 HD
ATOM     50  C   UNL     1       0.981 -13.383   9.633  1.00  0.00     0.031 A 
ATOM     51  C   UNL     1      -0.332  -7.558  13.294  1.00  0.00     0.031 A 
ATOM     52  C   UNL     1       0.092 -13.555  10.751  1.00  0.00     0.049 A 
ATOM     53  C   UNL     1      -0.949  -8.883  13.658  1.00  0.00     0.074 A 
ATOM     54  C   UNL     1      -0.519 -14.714  11.196  1.00  0.00     0.029 A 
ATOM     55  N   UNL     1      -0.301 -12.540  11.610  1.00  0.00    -0.354 N 
ATOM     56  N   UNL     1      -0.794 -10.052  13.083  1.00  0.00    -0.248 NA
ATOM     57  C   UNL     1      -1.841  -8.900  14.826  1.00  0.00     0.031 C 
ATOM     58  C   UNL     1      -1.309 -14.394  12.305  1.00  0.00     0.029 A 
ATOM     59  C   UNL     1      -1.146 -13.047  12.583  1.00  0.00     0.049 A 
ATOM     60  H   UNL     1      -0.022 -11.599  11.538  1.00  0.00     0.167 HD
ATOM     61  C   UNL     1      -1.537 -10.948  13.843  1.00  0.00     0.074 A 
ATOM     62  C   UNL     1      -2.129 -10.190  14.925  1.00  0.00     0.031 C 
ATOM     63  C   UNL     1      -1.713 -12.281  13.663  1.00  0.00     0.031 A 
BRANCH  50  64
ATOM     64  C   UNL     1       1.329 -14.591   8.803  1.00  0.00    -0.014 A 
ATOM     65  C   UNL     1       2.620 -15.150   8.855  1.00  0.00     0.010 A 
ATOM     66  C   UNL     1       0.351 -15.205   8.001  1.00  0.00     0.010 A 
ATOM     67  C   UNL     1       2.936 -16.278   8.094  1.00  0.00     0.020 A 
ATOM     68  C   UNL     1       0.654 -16.352   7.260  1.00  0.00     0.020 A 
ATOM     69  C   UNL     1       1.950 -16.872   7.301  1.00  0.00     0.054 A 
BRANCH  69  70
ATOM     70  S   UNL     1       2.380 -18.358   6.353  1.00  0.00     0.124 S 
ATOM     71  O   UNL     1       3.225 -17.806   5.297  1.00  0.00    -0.237 OA
ATOM     72  O   UNL     1       3.069 -19.181   7.343  1.00  0.00    -0.237 OA
ATOM     73  O   UNL     1       1.087 -18.873   5.909  1.00  0.00    -0.744 OA
ENDBRANCH  69  70
ENDBRANCH  50  64
BRANCH  51  74
ATOM     74  C   UNL     1      -0.667  -6.328  14.065  1.00  0.00    -0.014 A 
ATOM     75  C   UNL     1      -0.251  -6.180  15.400  1.00  0.00     0.010 A 
ATOM     76  C   UNL     1      -1.431  -5.307  13.471  1.00  0.00     0.010 A 
ATOM     77  C   UNL     1      -0.629  -5.055  16.140  1.00  0.00     0.020 A 
ATOM     78  C   UNL     1      -1.784  -4.166  14.197  1.00  0.00     0.020 A 
ATOM     79  C   UNL     1      -1.398  -4.058  15.534  1.00  0.00     0.054 A 
BRANCH  79  80
ATOM     80  S   UNL     1      -1.870  -2.601  16.508  1.00  0.00     0.124 S 
ATOM     81  O   UNL     1      -2.923  -3.137  17.364  1.00  0.00    -0.237 OA
ATOM     82  O   UNL     1      -0.622  -2.251  17.181  1.00  0.00    -0.237 OA
ATOM     83  O   UNL     1      -2.312  -1.644  15.495  1.00  0.00    -0.744 OA
ENDBRANCH  79  80
ENDBRANCH  51  74
BRANCH  63  84
ATOM     84  C   UNL     1      -2.527 -13.018  14.694  1.00  0.00    -0.014 A 
ATOM     85  C   UNL     1      -3.919 -12.850  14.791  1.00  0.00     0.010 A 
ATOM     86  C   UNL     1      -1.883 -13.922  15.559  1.00  0.00     0.010 A 
ATOM     87  C   UNL     1      -4.646 -13.539  15.765  1.00  0.00     0.020 A 
ATOM     88  C   UNL     1      -2.611 -14.635  16.514  1.00  0.00     0.020 A 
ATOM     89  C   UNL     1      -3.986 -14.425  16.624  1.00  0.00     0.054 A 
BRANCH  89  90
ATOM     90  S   UNL     1      -4.955 -15.325  17.865  1.00  0.00     0.124 S 
ATOM     91  O   UNL     1      -5.226 -14.284  18.852  1.00  0.00    -0.237 OA
ATOM     92  O   UNL     1      -6.112 -15.783  17.100  1.00  0.00    -0.237 OA
ATOM     93  O   UNL     1      -4.050 -16.384  18.308  1.00  0.00    -0.744 OA
ENDBRANCH  89  90
ENDBRANCH  63  84
ENDBRANCH  37  38
ENDBRANCH  29  32
ENDBRANCH  27  28
ENDBRANCH  26  27
ENDBRANCH   1  26
TORSDOF 18
