REMARK SMILES COc1ccc2c(c1)c(CC(=O)NCCCCCCNC(=O)c1ccc(-c3c4nc(c(-c5ccc(S(=O)(=O)[O-])cc5)c5ccc([nH]5)c(-c5ccc(S(=O)(=O)[O-])cc5)c5nc(c(-c6ccc(S(=O)(=O)[O-])cc6)c6ccc3[nH]6)C=C5)C=C4)cc1)c(C)n2C(=O)c1ccc(Cl)cc1
REMARK SMILES IDX 16 1 15 2 14 3 13 4 11 5 12 6 10 8 9 9 3 10 4 11 8 12 5 13
REMARK SMILES IDX 7 14 6 15 85 16 83 17 84 18 2 19 1 20 86 21 87 22 88 23
REMARK SMILES IDX 89 24 94 25 90 26 93 27 91 28 92 29 17 30 18 31 19 32 20 33
REMARK SMILES IDX 21 34 22 36 23 37 24 38 82 39 25 40 81 41 26 42 27 43 28 44
REMARK SMILES IDX 75 45 29 46 80 47 74 48 76 49 30 50 79 51 73 52 72 53 31 55
REMARK SMILES IDX 61 56 42 57 60 58 43 59 46 60 59 61 77 62 44 63 45 64 58 66
REMARK SMILES IDX 78 67 47 68 32 69 33 70 41 71 34 72 40 73 35 74 36 75 37 76
REMARK SMILES IDX 38 77 39 78 62 79 63 80 71 81 64 82 70 83 65 84 66 85 67 86
REMARK SMILES IDX 68 87 69 88 48 89 49 90 57 91 50 92 56 93 51 94 52 95 53 96
REMARK SMILES IDX 54 97 55 98
REMARK H PARENT 13 7 20 35 76 54 46 65
REMARK Flexibility Score: inf
ROOT
ATOM      1  C   UNL     1       0.569   2.725  -7.932  1.00  0.00     0.002 C 
ENDROOT
BRANCH   1   2
ATOM      2  C   UNL     1       0.579   3.732  -6.775  1.00  0.00     0.021 C 
BRANCH   2   3
ATOM      3  C   UNL     1      -0.763   4.433  -6.563  1.00  0.00     0.116 C 
BRANCH   3   4
ATOM      4  N   UNL     1      -1.717   3.556  -5.912  1.00  0.00    -0.356 N 
ATOM      5  C   UNL     1      -2.154   3.584  -4.619  1.00  0.00     0.224 C 
ATOM      6  O   UNL     1      -2.929   2.703  -4.238  1.00  0.00    -0.275 OA
ATOM      7  H   UNL     1      -2.101   2.848  -6.477  1.00  0.00     0.163 HD
BRANCH   5   8
ATOM      8  C   UNL     1      -1.732   4.717  -3.696  1.00  0.00     0.138 C 
BRANCH   8   9
ATOM      9  C   UNL     1      -0.277   4.687  -3.314  1.00  0.00    -0.009 A 
ATOM     10  C   UNL     1       0.874   1.482  -1.585  1.00  0.00     0.119 A 
ATOM     11  C   UNL     1       2.169   1.903  -1.333  1.00  0.00     0.048 A 
ATOM     12  C   UNL     1      -0.007   2.319  -2.271  1.00  0.00     0.057 A 
ATOM     13  C   UNL     1       2.601   3.169  -1.741  1.00  0.00     0.031 A 
ATOM     14  C   UNL     1       0.406   3.605  -2.692  1.00  0.00     0.008 A 
ATOM     15  C   UNL     1       1.725   4.010  -2.458  1.00  0.00     0.057 A 
ATOM     16  N   UNL     1       1.903   5.263  -3.069  1.00  0.00    -0.280 N 
ATOM     17  C   UNL     1       0.630   5.736  -3.418  1.00  0.00     0.028 A 
ATOM     18  C   UNL     1       0.344   7.137  -3.863  1.00  0.00     0.065 C 
BRANCH  10  19
ATOM     19  O   UNL     1       0.381   0.258  -1.223  1.00  0.00    -0.497 OA
ATOM     20  C   UNL     1       0.820  -0.192   0.055  1.00  0.00     0.278 C 
ENDBRANCH  10  19
BRANCH  16  21
ATOM     21  C   UNL     1       3.140   5.936  -3.298  1.00  0.00     0.262 C 
ATOM     22  O   UNL     1       3.140   7.016  -3.872  1.00  0.00    -0.268 OA
BRANCH  21  23
ATOM     23  C   UNL     1       4.464   5.429  -2.896  1.00  0.00     0.040 A 
ATOM     24  C   UNL     1       5.034   4.324  -3.537  1.00  0.00     0.015 A 
ATOM     25  C   UNL     1       5.123   6.064  -1.838  1.00  0.00     0.015 A 
ATOM     26  C   UNL     1       6.237   3.801  -3.056  1.00  0.00     0.021 A 
ATOM     27  C   UNL     1       6.329   5.543  -1.367  1.00  0.00     0.021 A 
ATOM     28  C   UNL     1       6.871   4.404  -1.966  1.00  0.00     0.041 A 
ATOM     29  Cl  UNL     1       8.320   3.722  -1.337  1.00  0.00    -0.084 Cl
ENDBRANCH  21  23
ENDBRANCH  16  21
ENDBRANCH   8   9
ENDBRANCH   5   8
ENDBRANCH   3   4
ENDBRANCH   2   3
ENDBRANCH   1   2
BRANCH   1  30
ATOM     30  C   UNL     1       0.315   3.333  -9.316  1.00  0.00     0.002 C 
BRANCH  30  31
ATOM     31  C   UNL     1       1.284   4.446  -9.734  1.00  0.00     0.021 C 
BRANCH  31  32
ATOM     32  C   UNL     1       2.759   4.040  -9.714  1.00  0.00     0.116 C 
BRANCH  32  33
ATOM     33  N   UNL     1       3.055   2.892 -10.546  1.00  0.00    -0.352 N 
ATOM     34  C   UNL     1       3.299   2.703 -11.879  1.00  0.00     0.251 C 
ATOM     35  H   UNL     1       3.089   2.052 -10.033  1.00  0.00     0.163 HD
ATOM     36  O   UNL     1       3.586   1.549 -12.212  1.00  0.00    -0.269 OA
BRANCH  34  37
ATOM     37  C   UNL     1       3.203   3.753 -12.933  1.00  0.00     0.039 A 
ATOM     38  C   UNL     1       2.967   5.110 -12.714  1.00  0.00     0.014 A 
ATOM     39  C   UNL     1       3.329   3.308 -14.264  1.00  0.00     0.014 A 
ATOM     40  C   UNL     1       2.777   5.980 -13.785  1.00  0.00     0.010 A 
ATOM     41  C   UNL     1       3.163   4.178 -15.340  1.00  0.00     0.010 A 
ATOM     42  C   UNL     1       2.844   5.511 -15.099  1.00  0.00    -0.014 A 
BRANCH  42  43
ATOM     43  C   UNL     1       2.611   6.477 -16.172  1.00  0.00     0.031 A 
ATOM     44  C   UNL     1       3.554   7.632 -16.250  1.00  0.00     0.074 A 
ATOM     45  C   UNL     1       1.663   6.333 -17.119  1.00  0.00     0.049 A 
ATOM     46  N   UNL     1       3.288   8.898 -16.178  1.00  0.00    -0.248 NA
ATOM     47  C   UNL     1       4.986   7.327 -16.377  1.00  0.00     0.031 C 
ATOM     48  C   UNL     1       0.845   5.157 -17.422  1.00  0.00     0.029 A 
ATOM     49  N   UNL     1       1.313   7.216 -18.096  1.00  0.00    -0.354 N 
ATOM     50  C   UNL     1       4.496   9.565 -16.376  1.00  0.00     0.074 A 
ATOM     51  C   UNL     1       5.520   8.548 -16.410  1.00  0.00     0.031 C 
ATOM     52  C   UNL     1       0.279   5.316 -18.640  1.00  0.00     0.029 A 
ATOM     53  C   UNL     1       0.567   6.657 -19.121  1.00  0.00     0.049 A 
ATOM     54  H   UNL     1       1.568   8.167 -18.076  1.00  0.00     0.167 HD
ATOM     55  C   UNL     1       4.584  10.905 -16.616  1.00  0.00     0.031 A 
ATOM     56  C   UNL     1       0.284   7.233 -20.314  1.00  0.00     0.031 A 
ATOM     57  C   UNL     1       3.378  11.605 -16.275  1.00  0.00     0.049 A 
ATOM     58  C   UNL     1       0.436   8.699 -20.153  1.00  0.00     0.074 A 
ATOM     59  C   UNL     1       2.687  11.818 -15.099  1.00  0.00     0.029 A 
ATOM     60  N   UNL     1       2.510  11.941 -17.285  1.00  0.00    -0.354 N 
ATOM     61  N   UNL     1      -0.343   9.437 -19.414  1.00  0.00    -0.248 NA
ATOM     62  C   UNL     1       1.700   9.311 -20.531  1.00  0.00     0.031 C 
ATOM     63  C   UNL     1       1.312  11.788 -15.470  1.00  0.00     0.029 A 
ATOM     64  C   UNL     1       1.251  11.601 -16.853  1.00  0.00     0.049 A 
ATOM     65  H   UNL     1       2.744  12.346 -18.151  1.00  0.00     0.167 HD
ATOM     66  C   UNL     1       0.483  10.422 -18.896  1.00  0.00     0.074 A 
ATOM     67  C   UNL     1       1.697  10.359 -19.706  1.00  0.00     0.031 C 
ATOM     68  C   UNL     1       0.223  11.015 -17.693  1.00  0.00     0.031 A 
BRANCH  55  69
ATOM     69  C   UNL     1       5.716  11.559 -17.362  1.00  0.00    -0.014 A 
ATOM     70  C   UNL     1       6.549  10.842 -18.244  1.00  0.00     0.010 A 
ATOM     71  C   UNL     1       5.843  12.964 -17.364  1.00  0.00     0.010 A 
ATOM     72  C   UNL     1       7.496  11.477 -19.052  1.00  0.00     0.020 A 
ATOM     73  C   UNL     1       6.761  13.616 -18.205  1.00  0.00     0.020 A 
ATOM     74  C   UNL     1       7.590  12.864 -19.036  1.00  0.00     0.054 A 
BRANCH  74  75
ATOM     75  S   UNL     1       8.751  13.655 -20.179  1.00  0.00     0.124 S 
ATOM     76  O   UNL     1      10.040  13.297 -19.593  1.00  0.00    -0.237 OA
ATOM     77  O   UNL     1       8.434  13.006 -21.448  1.00  0.00    -0.237 OA
ATOM     78  O   UNL     1       8.400  15.070 -20.100  1.00  0.00    -0.744 OA
ENDBRANCH  74  75
ENDBRANCH  55  69
BRANCH  56  79
ATOM     79  C   UNL     1       0.346   6.579 -21.646  1.00  0.00    -0.014 A 
ATOM     80  C   UNL     1       1.150   5.437 -21.834  1.00  0.00     0.010 A 
ATOM     81  C   UNL     1      -0.111   7.262 -22.790  1.00  0.00     0.010 A 
ATOM     82  C   UNL     1       1.567   5.047 -23.109  1.00  0.00     0.020 A 
ATOM     83  C   UNL     1       0.310   6.879 -24.073  1.00  0.00     0.020 A 
ATOM     84  C   UNL     1       1.182   5.799 -24.217  1.00  0.00     0.054 A 
BRANCH  84  85
ATOM     85  S   UNL     1       1.937   5.407 -25.820  1.00  0.00     0.124 S 
ATOM     86  O   UNL     1       3.335   5.758 -25.588  1.00  0.00    -0.237 OA
ATOM     87  O   UNL     1       1.663   3.978 -25.956  1.00  0.00    -0.237 OA
ATOM     88  O   UNL     1       1.223   6.267 -26.759  1.00  0.00    -0.744 OA
ENDBRANCH  84  85
ENDBRANCH  56  79
BRANCH  68  89
ATOM     89  C   UNL     1      -1.124  10.787 -17.033  1.00  0.00    -0.014 A 
ATOM     90  C   UNL     1      -1.814  11.909 -16.536  1.00  0.00     0.010 A 
ATOM     91  C   UNL     1      -1.617   9.507 -16.711  1.00  0.00     0.010 A 
ATOM     92  C   UNL     1      -2.934  11.761 -15.712  1.00  0.00     0.020 A 
ATOM     93  C   UNL     1      -2.757   9.351 -15.907  1.00  0.00     0.020 A 
ATOM     94  C   UNL     1      -3.391  10.481 -15.389  1.00  0.00     0.054 A 
BRANCH  94  95
ATOM     95  S   UNL     1      -4.801  10.329 -14.257  1.00  0.00     0.124 S 
ATOM     96  O   UNL     1      -4.211  10.715 -12.976  1.00  0.00    -0.237 OA
ATOM     97  O   UNL     1      -5.765  11.278 -14.809  1.00  0.00    -0.237 OA
ATOM     98  O   UNL     1      -5.190   8.924 -14.361  1.00  0.00    -0.744 OA
ENDBRANCH  94  95
ENDBRANCH  68  89
ENDBRANCH  42  43
ENDBRANCH  34  37
ENDBRANCH  32  33
ENDBRANCH  31  32
ENDBRANCH  30  31
ENDBRANCH   1  30
TORSDOF 20
