REMARK SMILES O=C(NCCCCCCNC(=O)c1ccc(-c2c3nc(c(-c4ccc(S(=O)(=O)[O-])cc4)c4ccc([nH]4)c(-c4ccc(S(=O)(=O)[O-])cc4)c4nc(c(-c5ccc(S(=O)(=O)[O-])cc5)c5ccc2[nH]5)C=C4)C=C3)cc1)C1=Cc2cc(Cl)c(Cl)c(Cl)c2O[C@@H]1C(F)(F)F
REMARK SMILES IDX 7 1 6 2 5 3 4 4 3 5 1 6 2 7 73 9 74 10 85 11 75 12 84 13
REMARK SMILES IDX 76 14 83 15 77 16 81 17 78 18 79 19 82 20 80 21 86 22 87 23
REMARK SMILES IDX 88 24 89 25 8 26 9 27 10 28 11 29 12 31 13 32 14 33 72 34
REMARK SMILES IDX 15 35 71 36 16 37 17 38 18 39 65 40 19 41 70 42 64 43 66 44
REMARK SMILES IDX 20 45 69 46 63 47 62 48 21 50 51 51 32 52 50 53 33 54 36 55
REMARK SMILES IDX 49 56 67 57 34 58 35 59 48 61 68 62 37 63 22 64 23 65 31 66
REMARK SMILES IDX 24 67 30 68 25 69 26 70 27 71 28 72 29 73 52 74 53 75 61 76
REMARK SMILES IDX 54 77 60 78 55 79 56 80 57 81 58 82 59 83 38 84 39 85 47 86
REMARK SMILES IDX 40 87 46 88 41 89 42 90 43 91 44 92 45 93
REMARK H PARENT 3 8 10 30 66 49 36 60
REMARK Flexibility Score: inf
ROOT
ATOM      1  C   UNL     1       4.264  -4.353  -2.090  1.00  0.00     0.002 C 
ENDROOT
BRANCH   1   2
ATOM      2  C   UNL     1       3.660  -4.459  -0.683  1.00  0.00     0.002 C 
BRANCH   2   3
ATOM      3  C   UNL     1       4.011  -3.346   0.307  1.00  0.00     0.021 C 
BRANCH   3   4
ATOM      4  C   UNL     1       3.678  -1.921  -0.139  1.00  0.00     0.116 C 
BRANCH   4   5
ATOM      5  N   UNL     1       2.460  -1.364   0.450  1.00  0.00    -0.352 N 
ATOM      6  O   UNL     1       1.008   0.273   1.054  1.00  0.00    -0.270 OA
ATOM      7  C   UNL     1       2.145  -0.053   0.742  1.00  0.00     0.251 C 
ATOM      8  H   UNL     1       1.761  -2.022   0.670  1.00  0.00     0.163 HD
BRANCH   7   9
ATOM      9  C   UNL     1       3.189   0.974   0.528  1.00  0.00     0.067 C 
ATOM     10  C   UNL     1       4.317   0.985   1.252  1.00  0.00     0.025 C 
ATOM     11  C   UNL     1       3.082   1.790  -0.723  1.00  0.00     0.314 C 
ATOM     12  C   UNL     1       5.509   0.957   0.377  1.00  0.00     0.020 A 
ATOM     13  O   UNL     1       4.202   1.551  -1.601  1.00  0.00    -0.474 OA
ATOM     14  C   UNL     1       6.667   0.358   0.886  1.00  0.00     0.034 A 
ATOM     15  C   UNL     1       5.372   1.109  -1.020  1.00  0.00     0.148 A 
ATOM     16  C   UNL     1       7.642  -0.146   0.017  1.00  0.00     0.062 A 
ATOM     17  C   UNL     1       6.374   0.640  -1.890  1.00  0.00     0.103 A 
ATOM     18  Cl  UNL     1       8.939  -1.037   0.738  1.00  0.00    -0.083 Cl
ATOM     19  C   UNL     1       7.502  -0.017  -1.374  1.00  0.00     0.082 A 
ATOM     20  Cl  UNL     1       6.110   0.761  -3.605  1.00  0.00    -0.079 Cl
ATOM     21  Cl  UNL     1       8.662  -0.747  -2.439  1.00  0.00    -0.081 Cl
BRANCH  11  22
ATOM     22  C   UNL     1       2.941   3.290  -0.402  1.00  0.00     0.429 C 
ATOM     23  F   UNL     1       2.694   4.011  -1.522  1.00  0.00    -0.167 F 
ATOM     24  F   UNL     1       1.917   3.530   0.452  1.00  0.00    -0.167 F 
ATOM     25  F   UNL     1       4.060   3.804   0.164  1.00  0.00    -0.167 F 
ENDBRANCH  11  22
ENDBRANCH   7   9
ENDBRANCH   4   5
ENDBRANCH   3   4
ENDBRANCH   2   3
ENDBRANCH   1   2
BRANCH   1  26
ATOM     26  C   UNL     1       5.770  -4.088  -2.188  1.00  0.00     0.021 C 
BRANCH  26  27
ATOM     27  C   UNL     1       6.686  -5.088  -1.484  1.00  0.00     0.116 C 
BRANCH  27  28
ATOM     28  N   UNL     1       6.516  -6.447  -1.966  1.00  0.00    -0.352 N 
ATOM     29  C   UNL     1       7.449  -7.372  -2.372  1.00  0.00     0.251 C 
ATOM     30  H   UNL     1       5.582  -6.756  -2.009  1.00  0.00     0.163 HD
ATOM     31  O   UNL     1       7.064  -8.423  -2.874  1.00  0.00    -0.269 OA
BRANCH  29  32
ATOM     32  C   UNL     1       8.903  -7.115  -2.229  1.00  0.00     0.039 A 
ATOM     33  C   UNL     1       9.753  -7.515  -3.267  1.00  0.00     0.014 A 
ATOM     34  C   UNL     1       9.446  -6.547  -1.073  1.00  0.00     0.014 A 
ATOM     35  C   UNL     1      11.132  -7.306  -3.166  1.00  0.00     0.010 A 
ATOM     36  C   UNL     1      10.816  -6.286  -0.998  1.00  0.00     0.010 A 
ATOM     37  C   UNL     1      11.675  -6.670  -2.039  1.00  0.00    -0.014 A 
BRANCH  37  38
ATOM     38  C   UNL     1      13.135  -6.404  -1.939  1.00  0.00     0.031 A 
ATOM     39  C   UNL     1      13.970  -7.101  -0.897  1.00  0.00     0.074 A 
ATOM     40  C   UNL     1      13.706  -5.499  -2.759  1.00  0.00     0.049 A 
ATOM     41  N   UNL     1      15.248  -6.975  -0.644  1.00  0.00    -0.248 NA
ATOM     42  C   UNL     1      13.274  -8.050  -0.013  1.00  0.00     0.031 C 
ATOM     43  C   UNL     1      13.007  -4.735  -3.794  1.00  0.00     0.029 A 
ATOM     44  N   UNL     1      15.007  -5.067  -2.850  1.00  0.00    -0.354 N 
ATOM     45  C   UNL     1      15.505  -7.808   0.439  1.00  0.00     0.074 A 
ATOM     46  C   UNL     1      14.244  -8.407   0.817  1.00  0.00     0.031 C 
ATOM     47  C   UNL     1      13.890  -3.951  -4.434  1.00  0.00     0.029 A 
ATOM     48  C   UNL     1      15.209  -4.126  -3.832  1.00  0.00     0.049 A 
ATOM     49  H   UNL     1      15.727  -5.400  -2.267  1.00  0.00     0.167 HD
ATOM     50  C   UNL     1      16.686  -8.060   1.056  1.00  0.00     0.031 A 
ATOM     51  C   UNL     1      16.326  -3.473  -4.206  1.00  0.00     0.031 A 
ATOM     52  C   UNL     1      17.943  -7.474   0.671  1.00  0.00     0.049 A 
ATOM     53  C   UNL     1      17.621  -3.761  -3.497  1.00  0.00     0.074 A 
ATOM     54  C   UNL     1      19.202  -7.721   1.192  1.00  0.00     0.029 A 
ATOM     55  N   UNL     1      18.102  -6.521  -0.323  1.00  0.00    -0.354 N 
ATOM     56  N   UNL     1      17.856  -4.604  -2.520  1.00  0.00    -0.248 NA
ATOM     57  C   UNL     1      18.804  -3.015  -3.949  1.00  0.00     0.031 C 
ATOM     58  C   UNL     1      20.114  -6.877   0.549  1.00  0.00     0.029 A 
ATOM     59  C   UNL     1      19.433  -6.146  -0.410  1.00  0.00     0.049 A 
ATOM     60  H   UNL     1      17.376  -6.162  -0.883  1.00  0.00     0.167 HD
ATOM     61  C   UNL     1      19.219  -4.509  -2.259  1.00  0.00     0.074 A 
ATOM     62  C   UNL     1      19.757  -3.535  -3.187  1.00  0.00     0.031 C 
ATOM     63  C   UNL     1      19.957  -5.173  -1.336  1.00  0.00     0.031 A 
BRANCH  50  64
ATOM     64  C   UNL     1      16.668  -9.002   2.233  1.00  0.00    -0.014 A 
ATOM     65  C   UNL     1      16.447 -10.381   2.062  1.00  0.00     0.010 A 
ATOM     66  C   UNL     1      16.911  -8.504   3.526  1.00  0.00     0.010 A 
ATOM     67  C   UNL     1      16.419 -11.235   3.168  1.00  0.00     0.020 A 
ATOM     68  C   UNL     1      16.912  -9.360   4.632  1.00  0.00     0.020 A 
ATOM     69  C   UNL     1      16.645 -10.718   4.447  1.00  0.00     0.054 A 
BRANCH  69  70
ATOM     70  S   UNL     1      16.609 -11.849   5.864  1.00  0.00     0.124 S 
ATOM     71  O   UNL     1      15.178 -12.103   6.009  1.00  0.00    -0.237 OA
ATOM     72  O   UNL     1      17.402 -12.981   5.393  1.00  0.00    -0.237 OA
ATOM     73  O   UNL     1      17.216 -11.073   6.944  1.00  0.00    -0.744 OA
ENDBRANCH  69  70
ENDBRANCH  50  64
BRANCH  51  74
ATOM     74  C   UNL     1      16.274  -2.498  -5.329  1.00  0.00    -0.014 A 
ATOM     75  C   UNL     1      16.861  -2.810  -6.567  1.00  0.00     0.010 A 
ATOM     76  C   UNL     1      15.621  -1.261  -5.173  1.00  0.00     0.010 A 
ATOM     77  C   UNL     1      16.808  -1.899  -7.626  1.00  0.00     0.020 A 
ATOM     78  C   UNL     1      15.544  -0.358  -6.238  1.00  0.00     0.020 A 
ATOM     79  C   UNL     1      16.147  -0.680  -7.455  1.00  0.00     0.054 A 
BRANCH  79  80
ATOM     80  S   UNL     1      16.041   0.462  -8.862  1.00  0.00     0.124 S 
ATOM     81  O   UNL     1      17.399   0.993  -8.925  1.00  0.00    -0.237 OA
ATOM     82  O   UNL     1      15.656  -0.423  -9.959  1.00  0.00    -0.237 OA
ATOM     83  O   UNL     1      15.013   1.415  -8.451  1.00  0.00    -0.744 OA
ENDBRANCH  79  80
ENDBRANCH  51  74
BRANCH  63  84
ATOM     84  C   UNL     1      21.437  -4.895  -1.300  1.00  0.00    -0.014 A 
ATOM     85  C   UNL     1      21.940  -3.686  -0.790  1.00  0.00     0.010 A 
ATOM     86  C   UNL     1      22.338  -5.883  -1.738  1.00  0.00     0.010 A 
ATOM     87  C   UNL     1      23.318  -3.458  -0.745  1.00  0.00     0.020 A 
ATOM     88  C   UNL     1      23.717  -5.669  -1.669  1.00  0.00     0.020 A 
ATOM     89  C   UNL     1      24.198  -4.451  -1.186  1.00  0.00     0.054 A 
BRANCH  89  90
ATOM     90  S   UNL     1      25.984  -4.150  -1.075  1.00  0.00     0.124 S 
ATOM     91  O   UNL     1      26.205  -3.223  -2.181  1.00  0.00    -0.237 OA
ATOM     92  O   UNL     1      26.132  -3.580   0.262  1.00  0.00    -0.237 OA
ATOM     93  O   UNL     1      26.570  -5.477  -1.247  1.00  0.00    -0.744 OA
ENDBRANCH  89  90
ENDBRANCH  63  84
ENDBRANCH  37  38
ENDBRANCH  29  32
ENDBRANCH  27  28
ENDBRANCH  26  27
ENDBRANCH   1  26
TORSDOF 17
