REMARK SMILES CCOC(=O)c1ccc(NC(=O)[C@H]2CC(C)=C(C)C[C@@H]2C(=O)NCCCCCCNC(=O)c2ccc(-c3c4nc(c(-c5ccc(S(=O)(=O)[O-])cc5)c5ccc([nH]5)c(-c5ccc(S(=O)(=O)[O-])cc5)c5nc(c(-c6ccc(S(=O)(=O)[O-])cc6)c6ccc3[nH]6)C=C5)C=C4)cc2)cc1
REMARK SMILES IDX 25 1 24 2 23 3 21 4 22 5 20 7 13 8 14 9 15 10 19 11 16 12
REMARK SMILES IDX 17 13 18 14 11 15 10 16 12 18 9 19 6 20 7 21 94 22 8 23
REMARK SMILES IDX 93 24 4 25 5 26 3 27 2 28 1 29 26 30 27 31 28 32 29 33 30 34
REMARK SMILES IDX 31 35 32 37 33 38 34 39 92 40 35 41 91 42 36 43 37 44 38 45
REMARK SMILES IDX 85 46 39 47 90 48 84 49 86 50 40 51 89 52 83 53 82 54 41 56
REMARK SMILES IDX 71 57 52 58 70 59 53 60 56 61 69 62 87 63 54 64 55 65 68 67
REMARK SMILES IDX 88 68 57 69 42 70 43 71 51 72 44 73 50 74 45 75 46 76 47 77
REMARK SMILES IDX 48 78 49 79 72 80 73 81 81 82 74 83 80 84 75 85 76 86 77 87
REMARK SMILES IDX 78 88 79 89 58 90 59 91 67 92 60 93 66 94 61 95 62 96 63 97
REMARK SMILES IDX 64 98 65 99
REMARK H PARENT 23 6 10 17 30 36 86 55 56 66
REMARK Flexibility Score: inf
ROOT
ATOM      1  C   UNL     1       7.112   8.505  -7.528  1.00  0.00     0.021 C 
ENDROOT
BRANCH   1   2
ATOM      2  C   UNL     1       7.407   7.237  -8.326  1.00  0.00     0.116 C 
BRANCH   2   3
ATOM      3  N   UNL     1       8.178   6.300  -7.534  1.00  0.00    -0.356 N 
ATOM      4  C   UNL     1       7.872   5.051  -7.108  1.00  0.00     0.224 C 
ATOM      5  O   UNL     1       8.656   4.503  -6.328  1.00  0.00    -0.275 OA
ATOM      6  H   UNL     1       9.067   6.623  -7.262  1.00  0.00     0.163 HD
BRANCH   4   7
ATOM      7  C   UNL     1       6.614   4.344  -7.597  1.00  0.00     0.095 C 
ATOM      8  C   UNL     1       5.711   4.105  -6.359  1.00  0.00     0.095 C 
ATOM      9  C   UNL     1       4.957   2.767  -6.376  1.00  0.00     0.045 C 
ATOM     10  C   UNL     1       5.514   1.629  -7.191  1.00  0.00    -0.074 C 
ATOM     11  C   UNL     1       7.088   3.131  -8.410  1.00  0.00     0.045 C 
ATOM     12  C   UNL     1       4.929   0.285  -6.833  1.00  0.00     0.039 C 
ATOM     13  C   UNL     1       6.454   1.802  -8.137  1.00  0.00    -0.074 C 
ATOM     14  C   UNL     1       6.967   0.688  -9.013  1.00  0.00     0.039 C 
BRANCH   8  15
ATOM     15  C   UNL     1       4.718   5.278  -6.229  1.00  0.00     0.228 C 
ATOM     16  N   UNL     1       3.866   5.469  -5.187  1.00  0.00    -0.326 N 
ATOM     17  H   UNL     1       3.292   6.258  -5.319  1.00  0.00     0.169 HD
ATOM     18  O   UNL     1       4.607   6.127  -7.124  1.00  0.00    -0.274 OA
BRANCH  16  19
ATOM     19  C   UNL     1       3.602   4.825  -3.974  1.00  0.00     0.041 A 
ATOM     20  C   UNL     1       2.742   3.436  -1.690  1.00  0.00     0.060 A 
ATOM     21  C   UNL     1       4.018   3.217  -2.214  1.00  0.00     0.018 A 
ATOM     22  C   UNL     1       1.927   4.422  -2.248  1.00  0.00     0.018 A 
ATOM     23  C   UNL     1       4.450   3.925  -3.340  1.00  0.00     0.027 A 
ATOM     24  C   UNL     1       2.365   5.120  -3.377  1.00  0.00     0.027 A 
BRANCH  20  25
ATOM     25  C   UNL     1       2.298   2.604  -0.553  1.00  0.00     0.338 C 
ATOM     26  O   UNL     1       3.056   2.155   0.294  1.00  0.00    -0.246 OA
BRANCH  25  27
ATOM     27  O   UNL     1       0.973   2.345  -0.674  1.00  0.00    -0.462 OA
BRANCH  27  28
ATOM     28  C   UNL     1       0.426   1.459   0.313  1.00  0.00     0.230 C 
ATOM     29  C   UNL     1       0.755   0.011  -0.007  1.00  0.00     0.049 C 
ENDBRANCH  27  28
ENDBRANCH  25  27
ENDBRANCH  20  25
ENDBRANCH  16  19
ENDBRANCH   8  15
ENDBRANCH   4   7
ENDBRANCH   2   3
ENDBRANCH   1   2
BRANCH   1  30
ATOM     30  C   UNL     1       8.360   9.304  -7.133  1.00  0.00     0.002 C 
BRANCH  30  31
ATOM     31  C   UNL     1       9.313   9.629  -8.288  1.00  0.00     0.002 C 
BRANCH  31  32
ATOM     32  C   UNL     1       8.661  10.318  -9.488  1.00  0.00     0.021 C 
BRANCH  32  33
ATOM     33  C   UNL     1       7.952  11.625  -9.157  1.00  0.00     0.116 C 
BRANCH  33  34
ATOM     34  N   UNL     1       8.874  12.624  -8.643  1.00  0.00    -0.352 N 
ATOM     35  C   UNL     1       9.101  13.901  -9.087  1.00  0.00     0.251 C 
ATOM     36  H   UNL     1       9.411  12.344  -7.867  1.00  0.00     0.163 HD
ATOM     37  O   UNL     1      10.071  14.529  -8.672  1.00  0.00    -0.269 OA
BRANCH  35  38
ATOM     38  C   UNL     1       8.185  14.511 -10.074  1.00  0.00     0.039 A 
ATOM     39  C   UNL     1       8.725  15.249 -11.130  1.00  0.00     0.014 A 
ATOM     40  C   UNL     1       6.799  14.374  -9.949  1.00  0.00     0.014 A 
ATOM     41  C   UNL     1       7.876  15.817 -12.081  1.00  0.00     0.010 A 
ATOM     42  C   UNL     1       5.959  14.873 -10.941  1.00  0.00     0.010 A 
ATOM     43  C   UNL     1       6.487  15.616 -12.007  1.00  0.00    -0.014 A 
BRANCH  43  44
ATOM     44  C   UNL     1       5.576  16.199 -13.024  1.00  0.00     0.031 A 
ATOM     45  C   UNL     1       4.568  17.244 -12.626  1.00  0.00     0.074 A 
ATOM     46  C   UNL     1       5.632  15.764 -14.298  1.00  0.00     0.049 A 
ATOM     47  N   UNL     1       3.687  17.865 -13.368  1.00  0.00    -0.248 NA
ATOM     48  C   UNL     1       4.526  17.623 -11.204  1.00  0.00     0.031 C 
ATOM     49  C   UNL     1       6.537  14.727 -14.800  1.00  0.00     0.029 A 
ATOM     50  N   UNL     1       4.915  16.143 -15.405  1.00  0.00    -0.354 N 
ATOM     51  C   UNL     1       2.982  18.696 -12.505  1.00  0.00     0.074 A 
ATOM     52  C   UNL     1       3.497  18.456 -11.175  1.00  0.00     0.031 C 
ATOM     53  C   UNL     1       6.346  14.580 -16.121  1.00  0.00     0.029 A 
ATOM     54  C   UNL     1       5.283  15.482 -16.553  1.00  0.00     0.049 A 
ATOM     55  H   UNL     1       4.204  16.823 -15.379  1.00  0.00     0.167 HD
ATOM     56  C   UNL     1       2.011  19.595 -12.793  1.00  0.00     0.031 A 
ATOM     57  C   UNL     1       4.820  15.592 -17.813  1.00  0.00     0.031 A 
ATOM     58  C   UNL     1       1.506  19.835 -14.119  1.00  0.00     0.049 A 
ATOM     59  C   UNL     1       3.736  16.591 -18.110  1.00  0.00     0.074 A 
ATOM     60  C   UNL     1       0.557  20.757 -14.525  1.00  0.00     0.029 A 
ATOM     61  N   UNL     1       1.905  19.145 -15.255  1.00  0.00    -0.354 N 
ATOM     62  N   UNL     1       3.127  17.415 -17.290  1.00  0.00    -0.248 NA
ATOM     63  C   UNL     1       3.289  16.688 -19.506  1.00  0.00     0.031 C 
ATOM     64  C   UNL     1       0.345  20.589 -15.898  1.00  0.00     0.029 A 
ATOM     65  C   UNL     1       1.206  19.605 -16.358  1.00  0.00     0.049 A 
ATOM     66  H   UNL     1       2.584  18.433 -15.273  1.00  0.00     0.167 HD
ATOM     67  C   UNL     1       2.246  18.149 -18.077  1.00  0.00     0.074 A 
ATOM     68  C   UNL     1       2.413  17.681 -19.438  1.00  0.00     0.031 C 
ATOM     69  C   UNL     1       1.380  19.125 -17.707  1.00  0.00     0.031 A 
BRANCH  56  70
ATOM     70  C   UNL     1       1.429  20.379 -11.645  1.00  0.00    -0.014 A 
ATOM     71  C   UNL     1       2.193  21.338 -10.955  1.00  0.00     0.010 A 
ATOM     72  C   UNL     1       0.092  20.168 -11.260  1.00  0.00     0.010 A 
ATOM     73  C   UNL     1       1.651  22.032  -9.870  1.00  0.00     0.020 A 
ATOM     74  C   UNL     1      -0.465  20.884 -10.196  1.00  0.00     0.020 A 
ATOM     75  C   UNL     1       0.326  21.795  -9.494  1.00  0.00     0.054 A 
BRANCH  75  76
ATOM     76  S   UNL     1      -0.355  22.713  -8.085  1.00  0.00     0.124 S 
ATOM     77  O   UNL     1       0.317  22.073  -6.957  1.00  0.00    -0.237 OA
ATOM     78  O   UNL     1       0.060  24.085  -8.365  1.00  0.00    -0.237 OA
ATOM     79  O   UNL     1      -1.792  22.469  -8.173  1.00  0.00    -0.744 OA
ENDBRANCH  75  76
ENDBRANCH  56  70
BRANCH  57  80
ATOM     80  C   UNL     1       5.406  14.751 -18.893  1.00  0.00    -0.014 A 
ATOM     81  C   UNL     1       6.217  15.329 -19.886  1.00  0.00     0.010 A 
ATOM     82  C   UNL     1       5.174  13.364 -18.922  1.00  0.00     0.010 A 
ATOM     83  C   UNL     1       6.773  14.538 -20.895  1.00  0.00     0.020 A 
ATOM     84  C   UNL     1       5.751  12.566 -19.914  1.00  0.00     0.020 A 
ATOM     85  C   UNL     1       6.540  13.160 -20.901  1.00  0.00     0.054 A 
BRANCH  85  86
ATOM     86  S   UNL     1       7.320  12.146 -22.187  1.00  0.00     0.124 S 
ATOM     87  O   UNL     1       6.542  12.503 -23.369  1.00  0.00    -0.237 OA
ATOM     88  O   UNL     1       8.701  12.622 -22.169  1.00  0.00    -0.237 OA
ATOM     89  O   UNL     1       7.134  10.779 -21.703  1.00  0.00    -0.744 OA
ENDBRANCH  85  86
ENDBRANCH  57  80
BRANCH  69  90
ATOM     90  C   UNL     1       0.571  19.781 -18.795  1.00  0.00    -0.014 A 
ATOM     91  C   UNL     1      -0.469  19.097 -19.449  1.00  0.00     0.010 A 
ATOM     92  C   UNL     1       0.833  21.120 -19.139  1.00  0.00     0.010 A 
ATOM     93  C   UNL     1      -1.206  19.728 -20.455  1.00  0.00     0.020 A 
ATOM     94  C   UNL     1       0.078  21.764 -20.123  1.00  0.00     0.020 A 
ATOM     95  C   UNL     1      -0.926  21.058 -20.787  1.00  0.00     0.054 A 
BRANCH  95  96
ATOM     96  S   UNL     1      -1.916  21.864 -22.075  1.00  0.00     0.124 S 
ATOM     97  O   UNL     1      -1.400  21.239 -23.290  1.00  0.00    -0.237 OA
ATOM     98  O   UNL     1      -3.281  21.494 -21.709  1.00  0.00    -0.237 OA
ATOM     99  O   UNL     1      -1.599  23.282 -21.920  1.00  0.00    -0.744 OA
ENDBRANCH  95  96
ENDBRANCH  69  90
ENDBRANCH  43  44
ENDBRANCH  35  38
ENDBRANCH  33  34
ENDBRANCH  32  33
ENDBRANCH  31  32
ENDBRANCH  30  31
ENDBRANCH   1  30
TORSDOF 21
