REMARK SMILES Cc1cccc(C(=O)NCCCCCCNC(=O)c2ccc(-c3c4nc(c(-c5ccc(S(=O)(=O)[O-])cc5)c5ccc([nH]5)c(-c5ccc(S(=O)(=O)[O-])cc5)c5nc(c(-c6ccc(S(=O)(=O)[O-])cc6)c6ccc3[nH]6)C=C5)C=C4)cc2)c1O[C@H](C)[C@H](C)O
REMARK SMILES IDX 12 1 11 2 10 3 9 4 7 5 8 6 6 8 1 9 2 10 3 11 79 12 4 13 5 14
REMARK SMILES IDX 80 15 81 16 82 17 83 18 84 19 85 20 13 22 14 23 15 24 16 25
REMARK SMILES IDX 17 26 18 28 19 29 20 30 78 31 21 32 77 33 22 34 23 35 24 36
REMARK SMILES IDX 71 37 25 38 76 39 70 40 72 41 26 42 75 43 69 44 68 45 27 47
REMARK SMILES IDX 57 48 38 49 56 50 39 51 42 52 55 53 73 54 40 55 41 56 54 58
REMARK SMILES IDX 74 59 43 60 28 61 29 62 37 63 30 64 36 65 31 66 32 67 33 68
REMARK SMILES IDX 34 69 35 70 58 71 59 72 67 73 60 74 66 75 61 76 62 77 63 78
REMARK SMILES IDX 64 79 65 80 44 81 45 82 53 83 46 84 52 85 47 86 48 87 49 88
REMARK SMILES IDX 50 89 51 90
REMARK H PARENT 9 7 85 21 16 27 72 46 42 57
REMARK Flexibility Score: inf
ROOT
ATOM      1  C   UNL     1       4.067   4.915  -0.799  1.00  0.00     0.002 C 
ENDROOT
BRANCH   1   2
ATOM      2  C   UNL     1       3.488   3.674  -1.470  1.00  0.00     0.021 C 
BRANCH   2   3
ATOM      3  C   UNL     1       4.155   3.137  -2.775  1.00  0.00     0.116 C 
BRANCH   3   4
ATOM      4  N   UNL     1       4.423   1.635  -2.889  1.00  0.00    -0.352 N 
ATOM      5  C   UNL     1       4.044   0.344  -3.289  1.00  0.00     0.255 C 
ATOM      6  O   UNL     1       5.054  -0.389  -3.232  1.00  0.00    -0.269 OA
ATOM      7  H   UNL     1       5.306   1.512  -2.470  1.00  0.00     0.163 HD
BRANCH   5   8
ATOM      8  C   UNL     1       2.764  -0.381  -3.784  1.00  0.00     0.082 A 
ATOM      9  C   UNL     1      -1.069  -0.668  -4.226  1.00  0.00     0.048 C 
ATOM     10  C   UNL     1       0.403  -1.026  -4.304  1.00  0.00    -0.008 A 
ATOM     11  C   UNL     1       0.805  -2.099  -5.080  1.00  0.00     0.007 A 
ATOM     12  C   UNL     1       1.368  -0.288  -3.551  1.00  0.00     0.135 A 
ATOM     13  C   UNL     1       2.155  -2.373  -5.175  1.00  0.00     0.001 A 
ATOM     14  C   UNL     1       3.098  -1.510  -4.583  1.00  0.00     0.018 A 
BRANCH  12  15
ATOM     15  O   UNL     1       0.655   0.352  -2.575  1.00  0.00    -0.487 OA
BRANCH  15  16
ATOM     16  C   UNL     1       1.215   1.505  -1.985  1.00  0.00     0.198 C 
ATOM     17  C   UNL     1       1.399   2.404  -3.239  1.00  0.00     0.056 C 
BRANCH  16  18
ATOM     18  C   UNL     1       2.018   0.880  -0.753  1.00  0.00     0.151 C 
ATOM     19  C   UNL     1       1.573   1.440   0.596  1.00  0.00     0.042 C 
BRANCH  18  20
ATOM     20  O   UNL     1       3.418   0.687  -0.673  1.00  0.00    -0.390 OA
ATOM     21  H   UNL     1       3.847   1.522  -0.431  1.00  0.00     0.211 HD
ENDBRANCH  18  20
ENDBRANCH  16  18
ENDBRANCH  15  16
ENDBRANCH  12  15
ENDBRANCH   5   8
ENDBRANCH   3   4
ENDBRANCH   2   3
ENDBRANCH   1   2
BRANCH   1  22
ATOM     22  C   UNL     1       3.876   6.232  -1.543  1.00  0.00     0.002 C 
BRANCH  22  23
ATOM     23  C   UNL     1       2.441   6.632  -1.906  1.00  0.00     0.021 C 
BRANCH  23  24
ATOM     24  C   UNL     1       1.490   6.835  -0.738  1.00  0.00     0.116 C 
BRANCH  24  25
ATOM     25  N   UNL     1       1.635   8.161  -0.166  1.00  0.00    -0.352 N 
ATOM     26  C   UNL     1       0.559   8.911   0.263  1.00  0.00     0.251 C 
ATOM     27  H   UNL     1       2.539   8.541  -0.081  1.00  0.00     0.163 HD
ATOM     28  O   UNL     1      -0.013   9.775  -0.394  1.00  0.00    -0.269 OA
BRANCH  26  29
ATOM     29  C   UNL     1      -0.028   8.405   1.507  1.00  0.00     0.039 A 
ATOM     30  C   UNL     1       0.418   8.890   2.741  1.00  0.00     0.014 A 
ATOM     31  C   UNL     1      -0.690   7.185   1.368  1.00  0.00     0.014 A 
ATOM     32  C   UNL     1       0.346   8.049   3.838  1.00  0.00     0.010 A 
ATOM     33  C   UNL     1      -0.622   6.308   2.408  1.00  0.00     0.010 A 
ATOM     34  C   UNL     1      -0.080   6.741   3.621  1.00  0.00    -0.014 A 
BRANCH  34  35
ATOM     35  C   UNL     1      -0.087   5.712   4.627  1.00  0.00     0.031 A 
ATOM     36  C   UNL     1      -1.349   5.550   5.356  1.00  0.00     0.074 A 
ATOM     37  C   UNL     1       0.976   4.885   4.676  1.00  0.00     0.049 A 
ATOM     38  N   UNL     1      -1.442   5.037   6.524  1.00  0.00    -0.248 NA
ATOM     39  C   UNL     1      -2.635   6.032   4.840  1.00  0.00     0.031 C 
ATOM     40  C   UNL     1       1.131   3.604   5.349  1.00  0.00     0.029 A 
ATOM     41  N   UNL     1       2.263   5.196   4.238  1.00  0.00    -0.354 N 
ATOM     42  C   UNL     1      -2.779   4.777   6.730  1.00  0.00     0.074 A 
ATOM     43  C   UNL     1      -3.489   5.546   5.744  1.00  0.00     0.031 C 
ATOM     44  C   UNL     1       2.446   3.370   5.528  1.00  0.00     0.029 A 
ATOM     45  C   UNL     1       3.163   4.570   5.111  1.00  0.00     0.049 A 
ATOM     46  H   UNL     1       2.496   5.751   3.460  1.00  0.00     0.167 HD
ATOM     47  C   UNL     1      -3.108   3.769   7.579  1.00  0.00     0.031 A 
ATOM     48  C   UNL     1       3.896   5.362   5.952  1.00  0.00     0.031 A 
ATOM     49  C   UNL     1      -1.894   3.198   8.165  1.00  0.00     0.049 A 
ATOM     50  C   UNL     1       3.457   5.236   7.404  1.00  0.00     0.074 A 
ATOM     51  C   UNL     1      -1.137   2.078   7.863  1.00  0.00     0.029 A 
ATOM     52  N   UNL     1      -1.070   4.032   8.906  1.00  0.00    -0.354 N 
ATOM     53  N   UNL     1       2.330   4.709   7.806  1.00  0.00    -0.248 NA
ATOM     54  C   UNL     1       4.269   5.701   8.520  1.00  0.00     0.031 C 
ATOM     55  C   UNL     1       0.165   2.266   8.415  1.00  0.00     0.029 A 
ATOM     56  C   UNL     1       0.190   3.487   9.065  1.00  0.00     0.049 A 
ATOM     57  H   UNL     1      -1.348   4.902   9.273  1.00  0.00     0.167 HD
ATOM     58  C   UNL     1       2.250   4.732   9.178  1.00  0.00     0.074 A 
ATOM     59  C   UNL     1       3.488   5.391   9.570  1.00  0.00     0.031 C 
ATOM     60  C   UNL     1       1.176   4.215   9.861  1.00  0.00     0.031 A 
BRANCH  47  61
ATOM     61  C   UNL     1      -4.465   3.118   7.643  1.00  0.00    -0.014 A 
ATOM     62  C   UNL     1      -4.545   1.781   8.080  1.00  0.00     0.010 A 
ATOM     63  C   UNL     1      -5.681   3.735   7.287  1.00  0.00     0.010 A 
ATOM     64  C   UNL     1      -5.755   1.082   8.125  1.00  0.00     0.020 A 
ATOM     65  C   UNL     1      -6.903   3.037   7.306  1.00  0.00     0.020 A 
ATOM     66  C   UNL     1      -6.930   1.712   7.731  1.00  0.00     0.054 A 
BRANCH  66  67
ATOM     67  S   UNL     1      -8.481   0.783   7.825  1.00  0.00     0.124 S 
ATOM     68  O   UNL     1      -8.220  -0.352   6.942  1.00  0.00    -0.237 OA
ATOM     69  O   UNL     1      -8.570   0.466   9.247  1.00  0.00    -0.237 OA
ATOM     70  O   UNL     1      -9.483   1.727   7.335  1.00  0.00    -0.744 OA
ENDBRANCH  66  67
ENDBRANCH  47  61
BRANCH  48  71
ATOM     71  C   UNL     1       4.381   6.618   5.281  1.00  0.00    -0.014 A 
ATOM     72  C   UNL     1       5.291   6.481   4.204  1.00  0.00     0.010 A 
ATOM     73  C   UNL     1       3.674   7.827   5.400  1.00  0.00     0.010 A 
ATOM     74  C   UNL     1       5.381   7.456   3.202  1.00  0.00     0.020 A 
ATOM     75  C   UNL     1       3.773   8.814   4.403  1.00  0.00     0.020 A 
ATOM     76  C   UNL     1       4.589   8.601   3.290  1.00  0.00     0.054 A 
BRANCH  76  77
ATOM     77  S   UNL     1       4.501   9.704   1.850  1.00  0.00     0.124 S 
ATOM     78  O   UNL     1       5.861  10.222   1.760  1.00  0.00    -0.237 OA
ATOM     79  O   UNL     1       4.106   8.774   0.793  1.00  0.00    -0.237 OA
ATOM     80  O   UNL     1       3.472  10.672   2.214  1.00  0.00    -0.744 OA
ENDBRANCH  76  77
ENDBRANCH  48  71
BRANCH  60  81
ATOM     81  C   UNL     1       0.886   4.333  11.354  1.00  0.00    -0.014 A 
ATOM     82  C   UNL     1       1.808   4.720  12.330  1.00  0.00     0.010 A 
ATOM     83  C   UNL     1      -0.419   4.026  11.834  1.00  0.00     0.010 A 
ATOM     84  C   UNL     1       1.436   4.875  13.675  1.00  0.00     0.020 A 
ATOM     85  C   UNL     1      -0.810   4.184  13.163  1.00  0.00     0.020 A 
ATOM     86  C   UNL     1       0.126   4.621  14.080  1.00  0.00     0.054 A 
BRANCH  86  87
ATOM     87  S   UNL     1      -0.318   4.835  15.814  1.00  0.00     0.124 S 
ATOM     88  O   UNL     1       0.562   3.874  16.475  1.00  0.00    -0.237 OA
ATOM     89  O   UNL     1       0.004   6.242  16.042  1.00  0.00    -0.237 OA
ATOM     90  O   UNL     1      -1.741   4.509  15.858  1.00  0.00    -0.744 OA
ENDBRANCH  86  87
ENDBRANCH  60  81
ENDBRANCH  34  35
ENDBRANCH  26  29
ENDBRANCH  24  25
ENDBRANCH  23  24
ENDBRANCH  22  23
ENDBRANCH   1  22
TORSDOF 20
