REMARK SMILES O=C(NCCCCCCNC(=O)[C@H]1[NH2+][C@@H]2CC[C@H]1CC2(F)F)c1ccc(-c2c3nc(c(-c4ccc(S(=O)(=O)[O-])cc4)c4ccc([nH]4)c(-c4ccc(S(=O)(=O)[O-])cc4)c4nc(c(-c5ccc(S(=O)(=O)[O-])cc5)c5ccc2[nH]5)C=C4)C=C3)cc1
REMARK SMILES IDX 5 1 4 2 3 3 1 4 2 5 23 7 24 8 82 9 25 10 81 11 26 12 27 13
REMARK SMILES IDX 28 14 75 15 29 16 80 17 74 18 76 19 30 20 79 21 73 22 72 23
REMARK SMILES IDX 31 25 61 26 42 27 60 28 43 29 46 30 59 31 77 32 44 33 45 34
REMARK SMILES IDX 58 36 78 37 47 38 32 39 33 40 41 41 34 42 40 43 35 44 36 45
REMARK SMILES IDX 37 46 38 47 39 48 62 49 63 50 71 51 64 52 70 53 65 54 66 55
REMARK SMILES IDX 67 56 68 57 69 58 48 59 49 60 57 61 50 62 56 63 51 64 52 65
REMARK SMILES IDX 53 66 54 67 55 68 6 69 7 70 8 71 9 72 10 73 11 74 12 76
REMARK SMILES IDX 13 77 14 78 18 79 15 80 17 83 19 84 16 85 20 86 21 87 22 88
REMARK H PARENT 3 6 76 24 46 35 10 75 14 81 14 82
REMARK Flexibility Score: inf
ROOT
ATOM      1  C   UNL     1      11.836  10.579  -6.147  1.00  0.00     0.021 C 
ENDROOT
BRANCH   1   2
ATOM      2  C   UNL     1      13.111  10.790  -5.340  1.00  0.00     0.116 C 
BRANCH   2   3
ATOM      3  N   UNL     1      14.114  11.541  -6.074  1.00  0.00    -0.352 N 
ATOM      4  O   UNL     1      15.444  13.305  -6.527  1.00  0.00    -0.269 OA
ATOM      5  C   UNL     1      14.751  12.707  -5.716  1.00  0.00     0.251 C 
ATOM      6  H   UNL     1      14.373  11.165  -6.946  1.00  0.00     0.163 HD
BRANCH   5   7
ATOM      7  C   UNL     1      14.572  13.238  -4.346  1.00  0.00     0.039 A 
ATOM      8  C   UNL     1      14.659  12.387  -3.243  1.00  0.00     0.014 A 
ATOM      9  C   UNL     1      14.313  14.600  -4.165  1.00  0.00     0.014 A 
ATOM     10  C   UNL     1      14.353  12.867  -1.977  1.00  0.00     0.010 A 
ATOM     11  C   UNL     1      14.096  15.101  -2.876  1.00  0.00     0.010 A 
ATOM     12  C   UNL     1      14.093  14.234  -1.774  1.00  0.00    -0.014 A 
BRANCH  12  13
ATOM     13  C   UNL     1      13.919  14.723  -0.382  1.00  0.00     0.031 A 
ATOM     14  C   UNL     1      12.615  15.295   0.100  1.00  0.00     0.074 A 
ATOM     15  C   UNL     1      14.955  14.583   0.469  1.00  0.00     0.049 A 
ATOM     16  N   UNL     1      12.289  15.684   1.307  1.00  0.00    -0.248 NA
ATOM     17  C   UNL     1      11.540  15.458  -0.892  1.00  0.00     0.031 C 
ATOM     18  C   UNL     1      16.278  14.063   0.105  1.00  0.00     0.029 A 
ATOM     19  N   UNL     1      15.055  14.824   1.814  1.00  0.00    -0.354 N 
ATOM     20  C   UNL     1      10.981  16.146   1.222  1.00  0.00     0.074 A 
ATOM     21  C   UNL     1      10.579  16.013  -0.163  1.00  0.00     0.031 C 
ATOM     22  C   UNL     1      17.031  13.961   1.208  1.00  0.00     0.029 A 
ATOM     23  C   UNL     1      16.272  14.466   2.345  1.00  0.00     0.049 A 
ATOM     24  H   UNL     1      14.327  15.215   2.348  1.00  0.00     0.167 HD
ATOM     25  C   UNL     1      10.189  16.630   2.209  1.00  0.00     0.031 A 
ATOM     26  C   UNL     1      16.736  14.542   3.606  1.00  0.00     0.031 A 
ATOM     27  C   UNL     1      10.599  16.767   3.584  1.00  0.00     0.049 A 
ATOM     28  C   UNL     1      15.835  15.080   4.677  1.00  0.00     0.074 A 
ATOM     29  C   UNL     1       9.868  17.245   4.659  1.00  0.00     0.029 A 
ATOM     30  N   UNL     1      11.849  16.422   4.077  1.00  0.00    -0.354 N 
ATOM     31  N   UNL     1      14.595  15.496   4.574  1.00  0.00    -0.248 NA
ATOM     32  C   UNL     1      16.393  15.158   6.032  1.00  0.00     0.031 C 
ATOM     33  C   UNL     1      10.688  17.226   5.793  1.00  0.00     0.029 A 
ATOM     34  C   UNL     1      11.914  16.689   5.436  1.00  0.00     0.049 A 
ATOM     35  H   UNL     1      12.583  16.044   3.541  1.00  0.00     0.167 HD
ATOM     36  C   UNL     1      14.225  15.889   5.853  1.00  0.00     0.074 A 
ATOM     37  C   UNL     1      15.358  15.622   6.717  1.00  0.00     0.031 C 
ATOM     38  C   UNL     1      13.057  16.435   6.274  1.00  0.00     0.031 A 
BRANCH  25  39
ATOM     39  C   UNL     1       8.793  17.061   1.841  1.00  0.00    -0.014 A 
ATOM     40  C   UNL     1       7.793  16.112   1.561  1.00  0.00     0.010 A 
ATOM     41  C   UNL     1       8.456  18.427   1.844  1.00  0.00     0.010 A 
ATOM     42  C   UNL     1       6.490  16.521   1.267  1.00  0.00     0.020 A 
ATOM     43  C   UNL     1       7.147  18.840   1.571  1.00  0.00     0.020 A 
ATOM     44  C   UNL     1       6.175  17.884   1.273  1.00  0.00     0.054 A 
BRANCH  44  45
ATOM     45  S   UNL     1       4.465  18.383   0.925  1.00  0.00     0.124 S 
ATOM     46  O   UNL     1       4.372  18.155  -0.515  1.00  0.00    -0.237 OA
ATOM     47  O   UNL     1       3.688  17.467   1.756  1.00  0.00    -0.237 OA
ATOM     48  O   UNL     1       4.422  19.784   1.338  1.00  0.00    -0.744 OA
ENDBRANCH  44  45
ENDBRANCH  25  39
BRANCH  26  49
ATOM     49  C   UNL     1      18.130  14.121   3.906  1.00  0.00    -0.014 A 
ATOM     50  C   UNL     1      18.390  12.968   4.666  1.00  0.00     0.010 A 
ATOM     51  C   UNL     1      19.211  14.872   3.407  1.00  0.00     0.010 A 
ATOM     52  C   UNL     1      19.706  12.584   4.938  1.00  0.00     0.020 A 
ATOM     53  C   UNL     1      20.527  14.474   3.651  1.00  0.00     0.020 A 
ATOM     54  C   UNL     1      20.766  13.341   4.429  1.00  0.00     0.054 A 
BRANCH  54  55
ATOM     55  S   UNL     1      22.468  12.804   4.750  1.00  0.00     0.124 S 
ATOM     56  O   UNL     1      22.677  13.266   6.118  1.00  0.00    -0.237 OA
ATOM     57  O   UNL     1      22.385  11.356   4.576  1.00  0.00    -0.237 OA
ATOM     58  O   UNL     1      23.243  13.502   3.726  1.00  0.00    -0.744 OA
ENDBRANCH  54  55
ENDBRANCH  26  49
BRANCH  38  59
ATOM     59  C   UNL     1      12.959  16.770   7.736  1.00  0.00    -0.014 A 
ATOM     60  C   UNL     1      13.666  17.860   8.276  1.00  0.00     0.010 A 
ATOM     61  C   UNL     1      12.152  15.988   8.580  1.00  0.00     0.010 A 
ATOM     62  C   UNL     1      13.607  18.130   9.645  1.00  0.00     0.020 A 
ATOM     63  C   UNL     1      12.070  16.271   9.945  1.00  0.00     0.020 A 
ATOM     64  C   UNL     1      12.816  17.328  10.472  1.00  0.00     0.054 A 
BRANCH  64  65
ATOM     65  S   UNL     1      12.751  17.697  12.246  1.00  0.00     0.124 S 
ATOM     66  O   UNL     1      14.023  17.155  12.715  1.00  0.00    -0.237 OA
ATOM     67  O   UNL     1      12.641  19.154  12.270  1.00  0.00    -0.237 OA
ATOM     68  O   UNL     1      11.561  16.982  12.704  1.00  0.00    -0.744 OA
ENDBRANCH  64  65
ENDBRANCH  38  59
ENDBRANCH  12  13
ENDBRANCH   5   7
ENDBRANCH   2   3
ENDBRANCH   1   2
BRANCH   1  69
ATOM     69  C   UNL     1      11.997   9.682  -7.374  1.00  0.00     0.002 C 
BRANCH  69  70
ATOM     70  C   UNL     1      12.567   8.287  -7.095  1.00  0.00     0.002 C 
BRANCH  70  71
ATOM     71  C   UNL     1      11.919   7.531  -5.929  1.00  0.00     0.021 C 
BRANCH  71  72
ATOM     72  C   UNL     1      10.423   7.260  -6.111  1.00  0.00     0.116 C 
BRANCH  72  73
ATOM     73  N   UNL     1      10.225   6.084  -6.927  1.00  0.00    -0.351 N 
ATOM     74  C   UNL     1       9.820   4.823  -6.658  1.00  0.00     0.278 C 
ATOM     75  H   UNL     1      10.427   6.233  -7.879  1.00  0.00     0.163 HD
ATOM     76  O   UNL     1       9.994   4.009  -7.579  1.00  0.00    -0.268 OA
BRANCH  74  77
ATOM     77  C   UNL     1       9.082   4.356  -5.357  1.00  0.00     0.276 C 
ATOM     78  N   UNL     1       9.161   2.850  -5.331  1.00  0.00    -0.328 N 
ATOM     79  C   UNL     1       9.484   4.895  -3.963  1.00  0.00     0.064 C 
ATOM     80  C   UNL     1       9.885   2.373  -4.125  1.00  0.00     0.253 C 
ATOM     81  H   UNL     1       9.652   2.528  -6.164  1.00  0.00     0.347 HD
ATOM     82  H   UNL     1       8.212   2.477  -5.307  1.00  0.00     0.347 HD
ATOM     83  C   UNL     1       8.642   4.155  -2.892  1.00  0.00     0.017 C 
ATOM     84  C   UNL     1      10.966   4.602  -3.676  1.00  0.00     0.094 C 
ATOM     85  C   UNL     1       8.947   2.653  -2.942  1.00  0.00     0.072 C 
ATOM     86  C   UNL     1      11.222   3.113  -3.880  1.00  0.00     0.298 C 
ATOM     87  F   UNL     1      11.862   2.604  -2.800  1.00  0.00    -0.200 F 
ATOM     88  F   UNL     1      12.052   2.935  -4.940  1.00  0.00    -0.200 F 
ENDBRANCH  74  77
ENDBRANCH  72  73
ENDBRANCH  71  72
ENDBRANCH  70  71
ENDBRANCH  69  70
ENDBRANCH   1  69
TORSDOF 16
