REMARK SMILES COc1ccc(Cl)c2sc(N3CC(C(=O)NCCCCCCNC(=O)c4ccc(-c5c6nc(c(-c7ccc(S(=O)(=O)[O-])cc7)c7ccc([nH]7)c(-c7ccc(S(=O)(=O)[O-])cc7)c7nc(c(-c8ccc(S(=O)(=O)[O-])cc8)c8ccc5[nH]8)C=C7)C=C6)cc4)C3)nc12
REMARK SMILES IDX 20 1 19 2 18 3 17 4 16 5 14 6 15 7 13 9 11 10 12 11 86 12
REMARK SMILES IDX 10 13 3 14 4 15 88 16 5 17 8 18 87 19 6 20 9 21 7 22 2 23
REMARK SMILES IDX 1 24 21 25 22 26 23 27 24 28 25 30 26 31 27 32 85 33 28 34
REMARK SMILES IDX 84 35 29 36 30 37 31 38 78 39 32 40 83 41 77 42 79 43 33 44
REMARK SMILES IDX 82 45 76 46 75 47 34 49 64 50 45 51 63 52 46 53 49 54 62 55
REMARK SMILES IDX 80 56 47 57 48 58 61 60 81 61 50 62 35 63 36 64 44 65 37 66
REMARK SMILES IDX 43 67 38 68 39 69 40 70 41 71 42 72 65 73 66 74 74 75 67 76
REMARK SMILES IDX 73 77 68 78 69 79 70 80 71 81 72 82 51 83 52 84 60 85 53 86
REMARK SMILES IDX 59 87 54 88 55 89 56 90 57 91 58 92
REMARK H PARENT 16 8 23 29 79 48 49 59
REMARK Flexibility Score: inf
ROOT
ATOM      1  C   UNL     1      -7.795   7.294  -6.330  1.00  0.00     0.002 C 
ENDROOT
BRANCH   1   2
ATOM      2  C   UNL     1      -7.166   6.335  -7.353  1.00  0.00     0.002 C 
BRANCH   2   3
ATOM      3  C   UNL     1      -5.832   5.698  -6.939  1.00  0.00     0.021 C 
BRANCH   3   4
ATOM      4  C   UNL     1      -5.856   5.004  -5.576  1.00  0.00     0.116 C 
BRANCH   4   5
ATOM      5  N   UNL     1      -6.754   3.866  -5.582  1.00  0.00    -0.356 N 
ATOM      6  C   UNL     1      -6.540   2.534  -5.335  1.00  0.00     0.226 C 
ATOM      7  O   UNL     1      -7.545   1.812  -5.431  1.00  0.00    -0.275 OA
ATOM      8  H   UNL     1      -7.686   4.090  -5.805  1.00  0.00     0.163 HD
BRANCH   6   9
ATOM      9  C   UNL     1      -5.180   1.960  -4.945  1.00  0.00     0.117 C 
ATOM     10  N   UNL     1      -3.307   2.647  -4.429  1.00  0.00    -0.346 N 
ATOM     11  C   UNL     1      -4.483   2.421  -3.664  1.00  0.00     0.134 C 
ATOM     12  C   UNL     1      -3.890   2.301  -5.688  1.00  0.00     0.134 C 
BRANCH  10  13
ATOM     13  C   UNL     1      -2.009   2.538  -4.073  1.00  0.00     0.186 A 
ATOM     14  C   UNL     1       0.734   1.183  -2.160  1.00  0.00     0.146 A 
ATOM     15  C   UNL     1       2.113   1.452  -2.191  1.00  0.00     0.050 A 
ATOM     16  C   UNL     1      -0.140   1.907  -3.022  1.00  0.00     0.127 A 
ATOM     17  C   UNL     1       2.624   2.450  -3.011  1.00  0.00     0.026 A 
ATOM     18  C   UNL     1       0.413   2.862  -3.882  1.00  0.00     0.079 A 
ATOM     19  N   UNL     1      -1.531   1.788  -3.105  1.00  0.00    -0.216 NA
ATOM     20  C   UNL     1       1.784   3.168  -3.862  1.00  0.00     0.060 A 
ATOM     21  S   UNL     1      -0.832   3.487  -4.892  1.00  0.00    -0.095 S 
ATOM     22  Cl  UNL     1       2.463   4.393  -4.863  1.00  0.00    -0.083 Cl
BRANCH  14  23
ATOM     23  O   UNL     1       0.219   0.166  -1.388  1.00  0.00    -0.494 OA
ATOM     24  C   UNL     1       0.709   0.140  -0.050  1.00  0.00     0.278 C 
ENDBRANCH  14  23
ENDBRANCH  10  13
ENDBRANCH   6   9
ENDBRANCH   4   5
ENDBRANCH   3   4
ENDBRANCH   2   3
ENDBRANCH   1   2
BRANCH   1  25
ATOM     25  C   UNL     1      -6.896   8.433  -5.829  1.00  0.00     0.021 C 
BRANCH  25  26
ATOM     26  C   UNL     1      -6.495   9.410  -6.921  1.00  0.00     0.116 C 
BRANCH  26  27
ATOM     27  N   UNL     1      -7.637  10.168  -7.423  1.00  0.00    -0.352 N 
ATOM     28  C   UNL     1      -7.644  11.197  -8.342  1.00  0.00     0.251 C 
ATOM     29  H   UNL     1      -8.516   9.912  -7.059  1.00  0.00     0.163 HD
ATOM     30  O   UNL     1      -8.583  11.974  -8.396  1.00  0.00    -0.269 OA
BRANCH  28  31
ATOM     31  C   UNL     1      -6.505  11.326  -9.270  1.00  0.00     0.039 A 
ATOM     32  C   UNL     1      -6.051  12.582  -9.686  1.00  0.00     0.014 A 
ATOM     33  C   UNL     1      -5.922  10.159  -9.763  1.00  0.00     0.014 A 
ATOM     34  C   UNL     1      -4.986  12.647 -10.578  1.00  0.00     0.010 A 
ATOM     35  C   UNL     1      -4.783  10.222 -10.519  1.00  0.00     0.010 A 
ATOM     36  C   UNL     1      -4.367  11.459 -10.989  1.00  0.00    -0.014 A 
BRANCH  36  37
ATOM     37  C   UNL     1      -3.241  11.474 -11.902  1.00  0.00     0.031 A 
ATOM     38  C   UNL     1      -2.009  12.095 -11.359  1.00  0.00     0.074 A 
ATOM     39  C   UNL     1      -3.245  10.770 -13.053  1.00  0.00     0.049 A 
ATOM     40  N   UNL     1      -1.485  13.224 -11.698  1.00  0.00    -0.248 NA
ATOM     41  C   UNL     1      -1.357  11.453 -10.206  1.00  0.00     0.031 C 
ATOM     42  C   UNL     1      -4.248   9.819 -13.549  1.00  0.00     0.029 A 
ATOM     43  N   UNL     1      -2.262  10.671 -13.979  1.00  0.00    -0.354 N 
ATOM     44  C   UNL     1      -0.319  13.341 -10.952  1.00  0.00     0.074 A 
ATOM     45  C   UNL     1      -0.389  12.329  -9.928  1.00  0.00     0.031 C 
ATOM     46  C   UNL     1      -3.709   9.075 -14.543  1.00  0.00     0.029 A 
ATOM     47  C   UNL     1      -2.396   9.607 -14.861  1.00  0.00     0.049 A 
ATOM     48  H   UNL     1      -1.510  11.305 -14.023  1.00  0.00     0.167 HD
ATOM     49  C   UNL     1       0.730  14.101 -11.372  1.00  0.00     0.031 A 
ATOM     50  C   UNL     1      -1.453   9.178 -15.740  1.00  0.00     0.031 A 
ATOM     51  C   UNL     1       0.375  14.940 -12.486  1.00  0.00     0.049 A 
ATOM     52  C   UNL     1      -0.523  10.322 -15.943  1.00  0.00     0.074 A 
ATOM     53  C   UNL     1      -0.557  15.940 -12.684  1.00  0.00     0.029 A 
ATOM     54  N   UNL     1       0.718  14.491 -13.742  1.00  0.00    -0.354 N 
ATOM     55  N   UNL     1      -0.883  11.455 -16.482  1.00  0.00    -0.248 NA
ATOM     56  C   UNL     1       0.672  10.380 -15.114  1.00  0.00     0.031 C 
ATOM     57  C   UNL     1      -1.091  15.688 -13.982  1.00  0.00     0.029 A 
ATOM     58  C   UNL     1      -0.400  14.605 -14.531  1.00  0.00     0.049 A 
ATOM     59  H   UNL     1       1.599  14.151 -14.022  1.00  0.00     0.167 HD
ATOM     60  C   UNL     1      -0.233  12.430 -15.737  1.00  0.00     0.074 A 
ATOM     61  C   UNL     1       0.771  11.704 -14.959  1.00  0.00     0.031 C 
ATOM     62  C   UNL     1      -0.744  13.690 -15.602  1.00  0.00     0.031 A 
BRANCH  49  63
ATOM     63  C   UNL     1       2.161  13.805 -11.019  1.00  0.00    -0.014 A 
ATOM     64  C   UNL     1       3.155  14.761 -11.301  1.00  0.00     0.010 A 
ATOM     65  C   UNL     1       2.592  12.512 -10.654  1.00  0.00     0.010 A 
ATOM     66  C   UNL     1       4.515  14.424 -11.252  1.00  0.00     0.020 A 
ATOM     67  C   UNL     1       3.943  12.179 -10.560  1.00  0.00     0.020 A 
ATOM     68  C   UNL     1       4.898  13.133 -10.886  1.00  0.00     0.054 A 
BRANCH  68  69
ATOM     69  S   UNL     1       6.651  12.682 -10.932  1.00  0.00     0.124 S 
ATOM     70  O   UNL     1       7.004  12.972 -12.318  1.00  0.00    -0.237 OA
ATOM     71  O   UNL     1       7.222  13.578  -9.931  1.00  0.00    -0.237 OA
ATOM     72  O   UNL     1       6.651  11.266 -10.570  1.00  0.00    -0.744 OA
ENDBRANCH  68  69
ENDBRANCH  49  63
BRANCH  50  73
ATOM     73  C   UNL     1      -1.080   7.769 -16.052  1.00  0.00    -0.014 A 
ATOM     74  C   UNL     1      -0.100   7.489 -17.026  1.00  0.00     0.010 A 
ATOM     75  C   UNL     1      -1.457   6.716 -15.193  1.00  0.00     0.010 A 
ATOM     76  C   UNL     1       0.546   6.240 -17.072  1.00  0.00     0.020 A 
ATOM     77  C   UNL     1      -0.825   5.465 -15.239  1.00  0.00     0.020 A 
ATOM     78  C   UNL     1       0.201   5.247 -16.153  1.00  0.00     0.054 A 
BRANCH  78  79
ATOM     79  S   UNL     1       1.176   3.713 -16.087  1.00  0.00     0.124 S 
ATOM     80  O   UNL     1       1.000   3.169 -17.430  1.00  0.00    -0.237 OA
ATOM     81  O   UNL     1       2.513   4.209 -15.775  1.00  0.00    -0.237 OA
ATOM     82  O   UNL     1       0.537   2.945 -15.019  1.00  0.00    -0.744 OA
ENDBRANCH  78  79
ENDBRANCH  50  73
BRANCH  62  83
ATOM     83  C   UNL     1      -1.903  14.106 -16.480  1.00  0.00    -0.014 A 
ATOM     84  C   UNL     1      -3.193  13.541 -16.406  1.00  0.00     0.010 A 
ATOM     85  C   UNL     1      -1.718  15.246 -17.280  1.00  0.00     0.010 A 
ATOM     86  C   UNL     1      -4.263  14.102 -17.124  1.00  0.00     0.020 A 
ATOM     87  C   UNL     1      -2.780  15.817 -17.984  1.00  0.00     0.020 A 
ATOM     88  C   UNL     1      -4.049  15.244 -17.903  1.00  0.00     0.054 A 
BRANCH  88  89
ATOM     89  S   UNL     1      -5.438  15.996 -18.801  1.00  0.00     0.124 S 
ATOM     90  O   UNL     1      -5.922  14.895 -19.629  1.00  0.00    -0.237 OA
ATOM     91  O   UNL     1      -6.330  16.409 -17.721  1.00  0.00    -0.237 OA
ATOM     92  O   UNL     1      -4.821  17.096 -19.541  1.00  0.00    -0.744 OA
ENDBRANCH  88  89
ENDBRANCH  62  83
ENDBRANCH  36  37
ENDBRANCH  28  31
ENDBRANCH  26  27
ENDBRANCH  25  26
ENDBRANCH   1  25
TORSDOF 18
