REMARK SMILES Cc1ccc2[nH]c(C(=O)NCCCCCCNC(=O)c3ccc(-c4c5nc(c(-c6ccc(S(=O)(=O)[O-])cc6)c6ccc([nH]6)c(-c6ccc(S(=O)(=O)[O-])cc6)c6nc(c(-c7ccc(S(=O)(=O)[O-])cc7)c7ccc4[nH]7)C=C6)C=C5)cc3)c(NC(=O)[C@H]3C[C@H]3c3ccccc3)c2c1
REMARK SMILES IDX 13 1 12 2 11 3 10 4 8 5 9 6 7 8 1 9 2 10 3 11 94 12 4 13
REMARK SMILES IDX 93 14 5 15 80 16 6 17 81 19 82 20 83 22 84 23 85 24 86 25
REMARK SMILES IDX 87 26 88 27 92 28 89 29 91 30 90 31 14 32 15 33 16 34 17 35
REMARK SMILES IDX 18 36 19 38 20 39 21 40 79 41 22 42 78 43 23 44 24 45 25 46
REMARK SMILES IDX 72 47 26 48 77 49 71 50 73 51 27 52 76 53 70 54 69 55 28 57
REMARK SMILES IDX 58 58 39 59 57 60 40 61 43 62 56 63 74 64 41 65 42 66 55 68
REMARK SMILES IDX 75 69 44 70 29 71 30 72 38 73 31 74 37 75 32 76 33 77 34 78
REMARK SMILES IDX 35 79 36 80 59 81 60 82 68 83 61 84 67 85 62 86 63 87 64 88
REMARK SMILES IDX 65 89 66 90 45 91 46 92 54 93 47 94 53 95 48 96 49 97 50 98
REMARK SMILES IDX 51 99 52 100
REMARK H PARENT 10 7 6 18 81 21 17 37 73 56 43 67
REMARK Flexibility Score: inf
ROOT
ATOM      1  C   UNL     1      -4.867  -1.075   2.206  1.00  0.00     0.002 C 
ENDROOT
BRANCH   1   2
ATOM      2  C   UNL     1      -5.271  -2.543   2.326  1.00  0.00     0.021 C 
BRANCH   2   3
ATOM      3  C   UNL     1      -6.400  -3.046   1.408  1.00  0.00     0.116 C 
BRANCH   3   4
ATOM      4  N   UNL     1      -6.276  -2.977  -0.052  1.00  0.00    -0.351 N 
ATOM      5  C   UNL     1      -5.973  -3.925  -1.012  1.00  0.00     0.269 C 
ATOM      6  O   UNL     1      -6.545  -3.832  -2.101  1.00  0.00    -0.268 OA
ATOM      7  H   UNL     1      -6.440  -2.079  -0.421  1.00  0.00     0.163 HD
BRANCH   5   8
ATOM      8  C   UNL     1      -5.031  -4.977  -0.782  1.00  0.00     0.129 A 
ATOM      9  C   UNL     1      -4.029  -9.729   2.576  1.00  0.00     0.044 C 
ATOM     10  C   UNL     1      -3.993  -8.825   1.367  1.00  0.00    -0.050 A 
ATOM     11  C   UNL     1      -4.364  -9.372   0.135  1.00  0.00     0.005 A 
ATOM     12  C   UNL     1      -3.728  -7.428   1.473  1.00  0.00     0.016 A 
ATOM     13  C   UNL     1      -4.635  -8.554  -0.958  1.00  0.00     0.027 A 
ATOM     14  C   UNL     1      -4.019  -6.561   0.378  1.00  0.00     0.024 A 
ATOM     15  C   UNL     1      -4.563  -7.170  -0.758  1.00  0.00     0.048 A 
ATOM     16  C   UNL     1      -3.940  -5.138   0.040  1.00  0.00     0.080 A 
ATOM     17  N   UNL     1      -5.041  -6.141  -1.532  1.00  0.00    -0.349 N 
ATOM     18  H   UNL     1      -5.342  -6.219  -2.467  1.00  0.00     0.167 HD
BRANCH  16  19
ATOM     19  N   UNL     1      -3.127  -4.142   0.565  1.00  0.00    -0.323 N 
ATOM     20  C   UNL     1      -2.846  -2.806   0.219  1.00  0.00     0.228 C 
ATOM     21  H   UNL     1      -2.634  -4.438   1.363  1.00  0.00     0.170 HD
ATOM     22  O   UNL     1      -2.171  -2.179   1.042  1.00  0.00    -0.274 OA
BRANCH  20  23
ATOM     23  C   UNL     1      -2.945  -2.182  -1.142  1.00  0.00     0.087 C 
ATOM     24  C   UNL     1      -4.005  -1.840  -2.107  1.00  0.00     0.023 C 
ATOM     25  C   UNL     1      -3.333  -0.680  -1.407  1.00  0.00     0.032 C 
BRANCH  25  26
ATOM     26  C   UNL     1      -4.335   0.373  -0.828  1.00  0.00    -0.044 A 
ATOM     27  C   UNL     1      -5.720   0.422  -1.141  1.00  0.00     0.004 A 
ATOM     28  C   UNL     1      -3.876   1.472  -0.066  1.00  0.00     0.004 A 
ATOM     29  C   UNL     1      -6.583   1.440  -0.692  1.00  0.00     0.000 A 
ATOM     30  C   UNL     1      -4.728   2.514   0.363  1.00  0.00     0.000 A 
ATOM     31  C   UNL     1      -6.085   2.492   0.058  1.00  0.00     0.000 A 
ENDBRANCH  25  26
ENDBRANCH  20  23
ENDBRANCH  16  19
ENDBRANCH   5   8
ENDBRANCH   3   4
ENDBRANCH   2   3
ENDBRANCH   1   2
BRANCH   1  32
ATOM     32  C   UNL     1      -5.757  -0.077   2.943  1.00  0.00     0.002 C 
BRANCH  32  33
ATOM     33  C   UNL     1      -5.484   0.004   4.442  1.00  0.00     0.021 C 
BRANCH  33  34
ATOM     34  C   UNL     1      -4.094   0.517   4.813  1.00  0.00     0.116 C 
BRANCH  34  35
ATOM     35  N   UNL     1      -3.838   1.882   4.358  1.00  0.00    -0.352 N 
ATOM     36  C   UNL     1      -3.627   3.025   5.111  1.00  0.00     0.251 C 
ATOM     37  H   UNL     1      -3.811   2.006   3.382  1.00  0.00     0.163 HD
ATOM     38  O   UNL     1      -3.566   4.122   4.611  1.00  0.00    -0.269 OA
BRANCH  36  39
ATOM     39  C   UNL     1      -3.503   2.841   6.574  1.00  0.00     0.039 A 
ATOM     40  C   UNL     1      -4.427   3.448   7.425  1.00  0.00     0.014 A 
ATOM     41  C   UNL     1      -2.576   1.917   7.055  1.00  0.00     0.014 A 
ATOM     42  C   UNL     1      -4.485   3.042   8.760  1.00  0.00     0.010 A 
ATOM     43  C   UNL     1      -2.720   1.431   8.345  1.00  0.00     0.010 A 
ATOM     44  C   UNL     1      -3.672   1.990   9.215  1.00  0.00    -0.014 A 
BRANCH  44  45
ATOM     45  C   UNL     1      -3.780   1.457  10.598  1.00  0.00     0.031 A 
ATOM     46  C   UNL     1      -2.568   1.477  11.492  1.00  0.00     0.074 A 
ATOM     47  C   UNL     1      -4.925   0.882  11.018  1.00  0.00     0.049 A 
ATOM     48  N   UNL     1      -2.422   0.989  12.696  1.00  0.00    -0.248 NA
ATOM     49  C   UNL     1      -1.345   2.085  10.940  1.00  0.00     0.031 C 
ATOM     50  C   UNL     1      -6.149   0.739  10.224  1.00  0.00     0.029 A 
ATOM     51  N   UNL     1      -5.247   0.303  12.221  1.00  0.00    -0.354 N 
ATOM     52  C   UNL     1      -1.089   1.205  13.027  1.00  0.00     0.074 A 
ATOM     53  C   UNL     1      -0.452   1.792  11.871  1.00  0.00     0.031 C 
ATOM     54  C   UNL     1      -7.097   0.154  10.974  1.00  0.00     0.029 A 
ATOM     55  C   UNL     1      -6.540  -0.162  12.286  1.00  0.00     0.049 A 
ATOM     56  H   UNL     1      -4.610   0.228  12.968  1.00  0.00     0.167 HD
ATOM     57  C   UNL     1      -0.456   0.970  14.200  1.00  0.00     0.031 A 
ATOM     58  C   UNL     1      -7.203  -0.772  13.288  1.00  0.00     0.031 A 
ATOM     59  C   UNL     1      -1.102   0.410  15.354  1.00  0.00     0.049 A 
ATOM     60  C   UNL     1      -6.487  -1.011  14.591  1.00  0.00     0.074 A 
ATOM     61  C   UNL     1      -0.577   0.193  16.614  1.00  0.00     0.029 A 
ATOM     62  N   UNL     1      -2.421  -0.020  15.386  1.00  0.00    -0.354 N 
ATOM     63  N   UNL     1      -5.247  -0.728  14.913  1.00  0.00    -0.248 NA
ATOM     64  C   UNL     1      -7.263  -1.638  15.669  1.00  0.00     0.031 C 
ATOM     65  C   UNL     1      -1.563  -0.421  17.394  1.00  0.00     0.029 A 
ATOM     66  C   UNL     1      -2.722  -0.524  16.639  1.00  0.00     0.049 A 
ATOM     67  H   UNL     1      -3.050   0.027  14.630  1.00  0.00     0.167 HD
ATOM     68  C   UNL     1      -5.101  -1.117  16.240  1.00  0.00     0.074 A 
ATOM     69  C   UNL     1      -6.384  -1.641  16.663  1.00  0.00     0.031 C 
ATOM     70  C   UNL     1      -4.006  -1.044  17.038  1.00  0.00     0.031 A 
BRANCH  57  71
ATOM     71  C   UNL     1       1.008   1.322  14.277  1.00  0.00    -0.014 A 
ATOM     72  C   UNL     1       1.442   2.660  14.199  1.00  0.00     0.010 A 
ATOM     73  C   UNL     1       1.965   0.304  14.427  1.00  0.00     0.010 A 
ATOM     74  C   UNL     1       2.804   2.966  14.205  1.00  0.00     0.020 A 
ATOM     75  C   UNL     1       3.329   0.609  14.472  1.00  0.00     0.020 A 
ATOM     76  C   UNL     1       3.740   1.936  14.337  1.00  0.00     0.054 A 
BRANCH  76  77
ATOM     77  S   UNL     1       5.502   2.363  14.349  1.00  0.00     0.124 S 
ATOM     78  O   UNL     1       5.736   2.715  12.950  1.00  0.00    -0.237 OA
ATOM     79  O   UNL     1       5.556   3.476  15.293  1.00  0.00    -0.237 OA
ATOM     80  O   UNL     1       6.154   1.136  14.799  1.00  0.00    -0.744 OA
ENDBRANCH  76  77
ENDBRANCH  57  71
BRANCH  58  81
ATOM     81  C   UNL     1      -8.628  -1.167  13.106  1.00  0.00    -0.014 A 
ATOM     82  C   UNL     1      -9.653  -0.479  13.781  1.00  0.00     0.010 A 
ATOM     83  C   UNL     1      -8.974  -2.213  12.231  1.00  0.00     0.010 A 
ATOM     84  C   UNL     1     -10.993  -0.834  13.591  1.00  0.00     0.020 A 
ATOM     85  C   UNL     1     -10.314  -2.552  12.016  1.00  0.00     0.020 A 
ATOM     86  C   UNL     1     -11.315  -1.864  12.703  1.00  0.00     0.054 A 
BRANCH  86  87
ATOM     87  S   UNL     1     -13.064  -2.258  12.418  1.00  0.00     0.124 S 
ATOM     88  O   UNL     1     -13.442  -2.897  13.675  1.00  0.00    -0.237 OA
ATOM     89  O   UNL     1     -13.647  -0.941  12.176  1.00  0.00    -0.237 OA
ATOM     90  O   UNL     1     -13.030  -3.139  11.252  1.00  0.00    -0.744 OA
ENDBRANCH  86  87
ENDBRANCH  58  81
BRANCH  70  91
ATOM     91  C   UNL     1      -4.152  -1.512  18.461  1.00  0.00    -0.014 A 
ATOM     92  C   UNL     1      -4.280  -2.876  18.773  1.00  0.00     0.010 A 
ATOM     93  C   UNL     1      -4.089  -0.571  19.506  1.00  0.00     0.010 A 
ATOM     94  C   UNL     1      -4.373  -3.288  20.105  1.00  0.00     0.020 A 
ATOM     95  C   UNL     1      -4.149  -0.982  20.838  1.00  0.00     0.020 A 
ATOM     96  C   UNL     1      -4.305  -2.338  21.129  1.00  0.00     0.054 A 
BRANCH  96  97
ATOM     97  S   UNL     1      -4.379  -2.905  22.850  1.00  0.00     0.124 S 
ATOM     98  O   UNL     1      -5.783  -3.285  22.984  1.00  0.00    -0.237 OA
ATOM     99  O   UNL     1      -3.424  -4.010  22.864  1.00  0.00    -0.237 OA
ATOM    100  O   UNL     1      -3.976  -1.730  23.620  1.00  0.00    -0.744 OA
ENDBRANCH  96  97
ENDBRANCH  70  91
ENDBRANCH  44  45
ENDBRANCH  36  39
ENDBRANCH  34  35
ENDBRANCH  33  34
ENDBRANCH  32  33
ENDBRANCH   1  32
TORSDOF 19
