REMARK SMILES CCc1ccc(O[C@H](C)C(=O)Oc2cccc(C(=O)NCCCCCCNC(=O)c3ccc(-c4c5nc(c(-c6ccc(S(=O)(=O)[O-])cc6)c6ccc([nH]6)c(-c6ccc(S(=O)(=O)[O-])cc6)c6nc(c(-c7ccc(S(=O)(=O)[O-])cc7)c7ccc4[nH]7)C=C6)C=C5)cc3)c2)cc1
REMARK SMILES IDX 22 1 21 2 20 3 18 4 19 5 17 7 13 8 14 9 90 10 15 11 16 12
REMARK SMILES IDX 12 13 10 14 11 15 8 16 9 17 7 18 6 19 3 20 4 21 92 22 5 23
REMARK SMILES IDX 91 24 2 25 1 26 23 27 24 28 25 29 26 30 27 31 28 32 29 34
REMARK SMILES IDX 30 35 31 36 89 37 32 38 88 39 33 40 34 41 35 42 82 43 36 44
REMARK SMILES IDX 87 45 81 46 83 47 37 48 86 49 80 50 79 51 38 53 68 54 49 55
REMARK SMILES IDX 67 56 50 57 53 58 66 59 84 60 51 61 52 62 65 64 85 65 54 66
REMARK SMILES IDX 39 67 40 68 48 69 41 70 47 71 42 72 43 73 44 74 45 75 46 76
REMARK SMILES IDX 69 77 70 78 78 79 71 80 77 81 72 82 73 83 74 84 75 85 76 86
REMARK SMILES IDX 55 87 56 88 64 89 57 90 63 91 58 92 59 93 60 94 61 95 62 96
REMARK H PARENT 20 6 27 33 83 52 53 63
REMARK Flexibility Score: inf
ROOT
ATOM      1  C   UNL     1      -3.804   9.998   1.201  1.00  0.00     0.021 C 
ENDROOT
BRANCH   1   2
ATOM      2  C   UNL     1      -2.939   9.537   2.367  1.00  0.00     0.116 C 
BRANCH   2   3
ATOM      3  N   UNL     1      -3.651   9.413   3.630  1.00  0.00    -0.352 N 
ATOM      4  C   UNL     1      -3.589   8.447   4.613  1.00  0.00     0.251 C 
ATOM      5  O   UNL     1      -4.342   8.541   5.582  1.00  0.00    -0.269 OA
ATOM      6  H   UNL     1      -4.285  10.143   3.814  1.00  0.00     0.163 HD
BRANCH   4   7
ATOM      7  C   UNL     1      -2.687   7.265   4.508  1.00  0.00     0.043 A 
ATOM      8  C   UNL     1      -0.776   6.142   3.549  1.00  0.00     0.131 A 
ATOM      9  C   UNL     1      -1.204   4.924   4.073  1.00  0.00     0.047 A 
ATOM     10  C   UNL     1      -1.466   7.316   3.837  1.00  0.00     0.061 A 
ATOM     11  C   UNL     1      -2.346   4.887   4.876  1.00  0.00     0.005 A 
ATOM     12  C   UNL     1      -3.100   6.049   5.072  1.00  0.00     0.014 A 
BRANCH   8  13
ATOM     13  O   UNL     1       0.234   6.090   2.557  1.00  0.00    -0.424 OA
BRANCH  13  14
ATOM     14  C   UNL     1       0.962   7.221   2.188  1.00  0.00     0.352 C 
ATOM     15  O   UNL     1       1.140   8.207   2.896  1.00  0.00    -0.247 OA
BRANCH  14  16
ATOM     16  C   UNL     1       1.541   7.075   0.778  1.00  0.00     0.279 C 
ATOM     17  C   UNL     1       2.886   6.354   0.787  1.00  0.00     0.066 C 
BRANCH  16  18
ATOM     18  O   UNL     1       0.602   6.713  -0.233  1.00  0.00    -0.479 OA
BRANCH  18  19
ATOM     19  C   UNL     1       0.421   5.440  -0.676  1.00  0.00     0.120 A 
ATOM     20  C   UNL     1      -0.052   2.923  -1.857  1.00  0.00    -0.048 A 
ATOM     21  C   UNL     1       0.474   3.025  -0.563  1.00  0.00     0.007 A 
ATOM     22  C   UNL     1      -0.365   4.096  -2.547  1.00  0.00     0.007 A 
ATOM     23  C   UNL     1       0.706   4.275   0.024  1.00  0.00     0.047 A 
ATOM     24  C   UNL     1      -0.135   5.342  -1.956  1.00  0.00     0.047 A 
BRANCH  20  25
ATOM     25  C   UNL     1      -0.269   1.571  -2.490  1.00  0.00     0.032 C 
ATOM     26  C   UNL     1       1.042   0.869  -2.813  1.00  0.00     0.009 C 
ENDBRANCH  20  25
ENDBRANCH  18  19
ENDBRANCH  16  18
ENDBRANCH  14  16
ENDBRANCH  13  14
ENDBRANCH   8  13
ENDBRANCH   4   7
ENDBRANCH   2   3
ENDBRANCH   1   2
BRANCH   1  27
ATOM     27  C   UNL     1      -4.321  11.433   1.268  1.00  0.00     0.002 C 
BRANCH  27  28
ATOM     28  C   UNL     1      -3.264  12.526   1.446  1.00  0.00     0.002 C 
BRANCH  28  29
ATOM     29  C   UNL     1      -2.089  12.499   0.465  1.00  0.00     0.021 C 
BRANCH  29  30
ATOM     30  C   UNL     1      -2.462  12.503  -1.015  1.00  0.00     0.116 C 
BRANCH  30  31
ATOM     31  N   UNL     1      -3.224  13.681  -1.396  1.00  0.00    -0.352 N 
ATOM     32  C   UNL     1      -2.978  14.598  -2.389  1.00  0.00     0.251 C 
ATOM     33  H   UNL     1      -4.035  13.845  -0.864  1.00  0.00     0.163 HD
ATOM     34  O   UNL     1      -3.642  15.627  -2.446  1.00  0.00    -0.269 OA
BRANCH  32  35
ATOM     35  C   UNL     1      -1.901  14.355  -3.374  1.00  0.00     0.039 A 
ATOM     36  C   UNL     1      -1.039  15.405  -3.704  1.00  0.00     0.014 A 
ATOM     37  C   UNL     1      -1.745  13.106  -3.980  1.00  0.00     0.014 A 
ATOM     38  C   UNL     1       0.015  15.184  -4.594  1.00  0.00     0.010 A 
ATOM     39  C   UNL     1      -0.651  12.867  -4.809  1.00  0.00     0.010 A 
ATOM     40  C   UNL     1       0.240  13.904  -5.127  1.00  0.00    -0.014 A 
BRANCH  40  41
ATOM     41  C   UNL     1       1.406  13.630  -6.008  1.00  0.00     0.031 A 
ATOM     42  C   UNL     1       1.195  13.198  -7.435  1.00  0.00     0.074 A 
ATOM     43  C   UNL     1       2.654  13.712  -5.505  1.00  0.00     0.049 A 
ATOM     44  N   UNL     1       2.085  12.861  -8.333  1.00  0.00    -0.248 NA
ATOM     45  C   UNL     1      -0.196  13.112  -7.908  1.00  0.00     0.031 C 
ATOM     46  C   UNL     1       2.990  14.085  -4.128  1.00  0.00     0.029 A 
ATOM     47  N   UNL     1       3.874  13.481  -6.090  1.00  0.00    -0.354 N 
ATOM     48  C   UNL     1       1.364  12.510  -9.469  1.00  0.00     0.074 A 
ATOM     49  C   UNL     1      -0.038  12.628  -9.131  1.00  0.00     0.031 C 
ATOM     50  C   UNL     1       4.324  14.082  -3.983  1.00  0.00     0.029 A 
ATOM     51  C   UNL     1       4.940  13.663  -5.238  1.00  0.00     0.049 A 
ATOM     52  H   UNL     1       3.978  13.210  -7.031  1.00  0.00     0.167 HD
ATOM     53  C   UNL     1       1.826  12.141 -10.688  1.00  0.00     0.031 A 
ATOM     54  C   UNL     1       6.262  13.499  -5.439  1.00  0.00     0.031 A 
ATOM     55  C   UNL     1       3.222  12.032 -11.020  1.00  0.00     0.049 A 
ATOM     56  C   UNL     1       6.749  13.065  -6.795  1.00  0.00     0.074 A 
ATOM     57  C   UNL     1       3.792  11.719 -12.242  1.00  0.00     0.029 A 
ATOM     58  N   UNL     1       4.268  12.227 -10.131  1.00  0.00    -0.354 N 
ATOM     59  N   UNL     1       6.053  12.804  -7.875  1.00  0.00    -0.248 NA
ATOM     60  C   UNL     1       8.201  12.912  -6.962  1.00  0.00     0.031 C 
ATOM     61  C   UNL     1       5.179  11.662 -12.076  1.00  0.00     0.029 A 
ATOM     62  C   UNL     1       5.478  12.010 -10.769  1.00  0.00     0.049 A 
ATOM     63  H   UNL     1       4.165  12.482  -9.186  1.00  0.00     0.167 HD
ATOM     64  C   UNL     1       6.984  12.486  -8.858  1.00  0.00     0.074 A 
ATOM     65  C   UNL     1       8.292  12.604  -8.248  1.00  0.00     0.031 C 
ATOM     66  C   UNL     1       6.774  12.131 -10.150  1.00  0.00     0.031 A 
BRANCH  53  67
ATOM     67  C   UNL     1       0.811  11.818 -11.755  1.00  0.00    -0.014 A 
ATOM     68  C   UNL     1       0.006  12.822 -12.323  1.00  0.00     0.010 A 
ATOM     69  C   UNL     1       0.701  10.500 -12.237  1.00  0.00     0.010 A 
ATOM     70  C   UNL     1      -0.916  12.508 -13.326  1.00  0.00     0.020 A 
ATOM     71  C   UNL     1      -0.197  10.188 -13.261  1.00  0.00     0.020 A 
ATOM     72  C   UNL     1      -1.011  11.192 -13.789  1.00  0.00     0.054 A 
BRANCH  72  73
ATOM     73  S   UNL     1      -2.193  10.822 -15.114  1.00  0.00     0.124 S 
ATOM     74  O   UNL     1      -3.473  10.951 -14.421  1.00  0.00    -0.237 OA
ATOM     75  O   UNL     1      -1.905  11.862 -16.098  1.00  0.00    -0.237 OA
ATOM     76  O   UNL     1      -1.842   9.464 -15.524  1.00  0.00    -0.744 OA
ENDBRANCH  72  73
ENDBRANCH  53  67
BRANCH  54  77
ATOM     77  C   UNL     1       7.222  13.747  -4.326  1.00  0.00    -0.014 A 
ATOM     78  C   UNL     1       8.112  14.835  -4.375  1.00  0.00     0.010 A 
ATOM     79  C   UNL     1       7.250  12.894  -3.208  1.00  0.00     0.010 A 
ATOM     80  C   UNL     1       9.027  15.050  -3.341  1.00  0.00     0.020 A 
ATOM     81  C   UNL     1       8.141  13.124  -2.156  1.00  0.00     0.020 A 
ATOM     82  C   UNL     1       9.035  14.193  -2.236  1.00  0.00     0.054 A 
BRANCH  82  83
ATOM     83  S   UNL     1      10.206  14.513  -0.888  1.00  0.00     0.124 S 
ATOM     84  O   UNL     1      11.478  14.131  -1.494  1.00  0.00    -0.237 OA
ATOM     85  O   UNL     1      10.023  15.941  -0.645  1.00  0.00    -0.237 OA
ATOM     86  O   UNL     1       9.737  13.640   0.186  1.00  0.00    -0.744 OA
ENDBRANCH  82  83
ENDBRANCH  54  77
BRANCH  66  87
ATOM     87  C   UNL     1       7.986  11.877 -11.008  1.00  0.00    -0.014 A 
ATOM     88  C   UNL     1       8.790  10.739 -10.822  1.00  0.00     0.010 A 
ATOM     89  C   UNL     1       8.289  12.765 -12.057  1.00  0.00     0.010 A 
ATOM     90  C   UNL     1       9.891  10.509 -11.652  1.00  0.00     0.020 A 
ATOM     91  C   UNL     1       9.369  12.522 -12.908  1.00  0.00     0.020 A 
ATOM     92  C   UNL     1      10.172  11.401 -12.691  1.00  0.00     0.054 A 
BRANCH  92  93
ATOM     93  S   UNL     1      11.578  11.052 -13.783  1.00  0.00     0.124 S 
ATOM     94  O   UNL     1      12.716  11.333 -12.913  1.00  0.00    -0.237 OA
ATOM     95  O   UNL     1      11.377   9.645 -14.122  1.00  0.00    -0.237 OA
ATOM     96  O   UNL     1      11.396  11.986 -14.892  1.00  0.00    -0.744 OA
ENDBRANCH  92  93
ENDBRANCH  66  87
ENDBRANCH  40  41
ENDBRANCH  32  35
ENDBRANCH  30  31
ENDBRANCH  29  30
ENDBRANCH  28  29
ENDBRANCH  27  28
ENDBRANCH   1  27
TORSDOF 22
