REMARK SMILES O=C(Cc1ccccc1F)NC[C@@H]1CC[C@@H](C(=O)NCCCCCCNC(=O)c2ccc(-c3c4nc(c(-c5ccc(S(=O)(=O)[O-])cc5)c5ccc([nH]5)c(-c5ccc(S(=O)(=O)[O-])cc5)c5nc(c(-c6ccc(S(=O)(=O)[O-])cc6)c6ccc3[nH]6)C=C5)C=C4)cc2)O1
REMARK SMILES IDX 22 1 21 2 20 3 19 4 17 5 18 6 16 8 13 9 14 10 89 11 15 12
REMARK SMILES IDX 12 13 11 14 1 15 2 16 3 18 4 19 5 20 9 21 6 22 8 23 10 24
REMARK SMILES IDX 7 25 23 26 24 27 25 28 26 29 27 30 28 32 29 33 30 34 88 35
REMARK SMILES IDX 31 36 87 37 32 38 33 39 34 40 81 41 35 42 86 43 80 44 82 45
REMARK SMILES IDX 36 46 85 47 79 48 78 49 37 51 67 52 48 53 66 54 49 55 52 56
REMARK SMILES IDX 65 57 83 58 50 59 51 60 64 62 84 63 53 64 38 65 39 66 47 67
REMARK SMILES IDX 40 68 46 69 41 70 42 71 43 72 44 73 45 74 68 75 69 76 77 77
REMARK SMILES IDX 70 78 76 79 71 80 72 81 73 82 74 83 75 84 54 85 55 86 63 87
REMARK SMILES IDX 56 88 62 89 57 90 58 91 59 92 60 93 61 94
REMARK H PARENT 19 7 11 17 26 31 82 50 52 61
REMARK Flexibility Score: inf
ROOT
ATOM      1  C   UNL     1      -1.580  -3.592   6.212  1.00  0.00     0.002 C 
ENDROOT
BRANCH   1   2
ATOM      2  C   UNL     1      -0.731  -2.782   5.225  1.00  0.00     0.021 C 
BRANCH   2   3
ATOM      3  C   UNL     1       0.768  -3.019   5.378  1.00  0.00     0.116 C 
BRANCH   3   4
ATOM      4  N   UNL     1       1.170  -4.290   4.815  1.00  0.00    -0.354 N 
ATOM      5  C   UNL     1       1.815  -4.566   3.646  1.00  0.00     0.249 C 
ATOM      6  O   UNL     1       1.985  -5.756   3.358  1.00  0.00    -0.272 OA
ATOM      7  H   UNL     1       0.943  -5.078   5.361  1.00  0.00     0.163 HD
BRANCH   5   8
ATOM      8  C   UNL     1       2.432  -3.454   2.770  1.00  0.00     0.207 C 
ATOM      9  C   UNL     1       2.771  -1.159   3.025  1.00  0.00     0.138 C 
ATOM     10  C   UNL     1       4.121  -1.789   2.741  1.00  0.00     0.037 C 
ATOM     11  O   UNL     1       1.797  -2.175   2.715  1.00  0.00    -0.363 OA
ATOM     12  C   UNL     1       3.878  -3.209   3.193  1.00  0.00     0.045 C 
BRANCH   9  13
ATOM     13  C   UNL     1       2.457   0.163   2.321  1.00  0.00     0.147 C 
BRANCH  13  14
ATOM     14  N   UNL     1       2.936   0.217   0.957  1.00  0.00    -0.353 N 
ATOM     15  O   UNL     1       0.946  -0.305  -0.068  1.00  0.00    -0.275 OA
ATOM     16  C   UNL     1       2.137  -0.018  -0.139  1.00  0.00     0.224 C 
ATOM     17  H   UNL     1       3.884   0.434   0.804  1.00  0.00     0.163 HD
BRANCH  16  18
ATOM     18  C   UNL     1       2.870   0.045  -1.469  1.00  0.00     0.138 C 
BRANCH  18  19
ATOM     19  C   UNL     1       3.772   1.249  -1.599  1.00  0.00    -0.003 A 
ATOM     20  C   UNL     1       3.239   2.545  -1.566  1.00  0.00     0.007 A 
ATOM     21  C   UNL     1       5.158   1.097  -1.695  1.00  0.00     0.126 A 
ATOM     22  C   UNL     1       4.084   3.656  -1.616  1.00  0.00     0.001 A 
ATOM     23  C   UNL     1       6.004   2.201  -1.751  1.00  0.00     0.039 A 
ATOM     24  F   UNL     1       5.699  -0.130  -1.698  1.00  0.00    -0.207 F 
ATOM     25  C   UNL     1       5.465   3.485  -1.708  1.00  0.00     0.003 A 
ENDBRANCH  18  19
ENDBRANCH  16  18
ENDBRANCH  13  14
ENDBRANCH   9  13
ENDBRANCH   5   8
ENDBRANCH   3   4
ENDBRANCH   2   3
ENDBRANCH   1   2
BRANCH   1  26
ATOM     26  C   UNL     1      -1.237  -3.373   7.691  1.00  0.00     0.002 C 
BRANCH  26  27
ATOM     27  C   UNL     1      -1.230  -1.911   8.149  1.00  0.00     0.021 C 
BRANCH  27  28
ATOM     28  C   UNL     1      -2.563  -1.191   7.982  1.00  0.00     0.116 C 
BRANCH  28  29
ATOM     29  N   UNL     1      -3.607  -1.800   8.790  1.00  0.00    -0.352 N 
ATOM     30  C   UNL     1      -4.460  -1.217   9.689  1.00  0.00     0.251 C 
ATOM     31  H   UNL     1      -3.716  -2.772   8.675  1.00  0.00     0.163 HD
ATOM     32  O   UNL     1      -5.127  -1.925  10.444  1.00  0.00    -0.269 OA
BRANCH  30  33
ATOM     33  C   UNL     1      -4.576   0.255   9.760  1.00  0.00     0.039 A 
ATOM     34  C   UNL     1      -4.675   0.867  11.012  1.00  0.00     0.014 A 
ATOM     35  C   UNL     1      -4.630   1.028   8.596  1.00  0.00     0.014 A 
ATOM     36  C   UNL     1      -4.800   2.255  11.098  1.00  0.00     0.010 A 
ATOM     37  C   UNL     1      -4.681   2.416   8.685  1.00  0.00     0.010 A 
ATOM     38  C   UNL     1      -4.790   3.042   9.936  1.00  0.00    -0.014 A 
BRANCH  38  39
ATOM     39  C   UNL     1      -4.947   4.517  10.004  1.00  0.00     0.031 A 
ATOM     40  C   UNL     1      -6.165   5.168   9.403  1.00  0.00     0.074 A 
ATOM     41  C   UNL     1      -3.981   5.272  10.563  1.00  0.00     0.049 A 
ATOM     42  N   UNL     1      -6.462   6.439   9.313  1.00  0.00    -0.248 NA
ATOM     43  C   UNL     1      -7.170   4.274   8.801  1.00  0.00     0.031 C 
ATOM     44  C   UNL     1      -2.740   4.763  11.151  1.00  0.00     0.029 A 
ATOM     45  N   UNL     1      -3.892   6.632  10.724  1.00  0.00    -0.354 N 
ATOM     46  C   UNL     1      -7.672   6.497   8.630  1.00  0.00     0.074 A 
ATOM     47  C   UNL     1      -8.027   5.140   8.282  1.00  0.00     0.031 C 
ATOM     48  C   UNL     1      -2.027   5.795  11.632  1.00  0.00     0.029 A 
ATOM     49  C   UNL     1      -2.739   7.038  11.355  1.00  0.00     0.049 A 
ATOM     50  H   UNL     1      -4.587   7.258  10.417  1.00  0.00     0.167 HD
ATOM     51  C   UNL     1      -8.432   7.580   8.337  1.00  0.00     0.031 A 
ATOM     52  C   UNL     1      -2.305   8.273  11.672  1.00  0.00     0.031 A 
ATOM     53  C   UNL     1      -8.085   8.927   8.700  1.00  0.00     0.049 A 
ATOM     54  C   UNL     1      -3.166   9.461  11.338  1.00  0.00     0.074 A 
ATOM     55  C   UNL     1      -8.807  10.089   8.492  1.00  0.00     0.029 A 
ATOM     56  N   UNL     1      -6.917   9.293   9.354  1.00  0.00    -0.354 N 
ATOM     57  N   UNL     1      -4.331   9.491  10.736  1.00  0.00    -0.248 NA
ATOM     58  C   UNL     1      -2.661  10.781  11.741  1.00  0.00     0.031 C 
ATOM     59  C   UNL     1      -8.056  11.163   8.980  1.00  0.00     0.029 A 
ATOM     60  C   UNL     1      -6.893  10.664   9.544  1.00  0.00     0.049 A 
ATOM     61  H   UNL     1      -6.210   8.670   9.639  1.00  0.00     0.167 HD
ATOM     62  C   UNL     1      -4.715  10.828  10.721  1.00  0.00     0.074 A 
ATOM     63  C   UNL     1      -3.662  11.572  11.381  1.00  0.00     0.031 C 
ATOM     64  C   UNL     1      -5.840  11.388  10.211  1.00  0.00     0.031 A 
BRANCH  51  65
ATOM     65  C   UNL     1      -9.716   7.346   7.583  1.00  0.00    -0.014 A 
ATOM     66  C   UNL     1     -10.805   6.693   8.189  1.00  0.00     0.010 A 
ATOM     67  C   UNL     1      -9.846   7.809   6.262  1.00  0.00     0.010 A 
ATOM     68  C   UNL     1     -11.984   6.468   7.473  1.00  0.00     0.020 A 
ATOM     69  C   UNL     1     -11.035   7.613   5.552  1.00  0.00     0.020 A 
ATOM     70  C   UNL     1     -12.090   6.926   6.157  1.00  0.00     0.054 A 
BRANCH  70  71
ATOM     71  S   UNL     1     -13.638   6.637   5.257  1.00  0.00     0.124 S 
ATOM     72  O   UNL     1     -13.560   5.205   4.978  1.00  0.00    -0.237 OA
ATOM     73  O   UNL     1     -14.653   7.032   6.230  1.00  0.00    -0.237 OA
ATOM     74  O   UNL     1     -13.528   7.506   4.088  1.00  0.00    -0.744 OA
ENDBRANCH  70  71
ENDBRANCH  51  65
BRANCH  52  75
ATOM     75  C   UNL     1      -1.000   8.447  12.368  1.00  0.00    -0.014 A 
ATOM     76  C   UNL     1      -0.957   8.852  13.714  1.00  0.00     0.010 A 
ATOM     77  C   UNL     1       0.207   8.200  11.690  1.00  0.00     0.010 A 
ATOM     78  C   UNL     1       0.269   9.029  14.362  1.00  0.00     0.020 A 
ATOM     79  C   UNL     1       1.434   8.349  12.343  1.00  0.00     0.020 A 
ATOM     80  C   UNL     1       1.457   8.775  13.672  1.00  0.00     0.054 A 
BRANCH  80  81
ATOM     81  S   UNL     1       3.036   8.968  14.546  1.00  0.00     0.124 S 
ATOM     82  O   UNL     1       3.162  10.419  14.628  1.00  0.00    -0.237 OA
ATOM     83  O   UNL     1       2.783   8.281  15.810  1.00  0.00    -0.237 OA
ATOM     84  O   UNL     1       3.995   8.303  13.667  1.00  0.00    -0.744 OA
ENDBRANCH  80  81
ENDBRANCH  52  75
BRANCH  64  85
ATOM     85  C   UNL     1      -6.019  12.872  10.389  1.00  0.00    -0.014 A 
ATOM     86  C   UNL     1      -5.252  13.796   9.659  1.00  0.00     0.010 A 
ATOM     87  C   UNL     1      -7.013  13.345  11.265  1.00  0.00     0.010 A 
ATOM     88  C   UNL     1      -5.453  15.169   9.828  1.00  0.00     0.020 A 
ATOM     89  C   UNL     1      -7.237  14.716  11.415  1.00  0.00     0.020 A 
ATOM     90  C   UNL     1      -6.444  15.620  10.706  1.00  0.00     0.054 A 
BRANCH  90  91
ATOM     91  S   UNL     1      -6.715  17.405  10.877  1.00  0.00     0.124 S 
ATOM     92  O   UNL     1      -5.560  17.812  11.672  1.00  0.00    -0.237 OA
ATOM     93  O   UNL     1      -6.716  17.864   9.490  1.00  0.00    -0.237 OA
ATOM     94  O   UNL     1      -8.004  17.497  11.559  1.00  0.00    -0.744 OA
ENDBRANCH  90  91
ENDBRANCH  64  85
ENDBRANCH  38  39
ENDBRANCH  30  33
ENDBRANCH  28  29
ENDBRANCH  27  28
ENDBRANCH  26  27
ENDBRANCH   1  26
TORSDOF 20
