REMARK SMILES C[C@H](C[N@H+](C)[C@H]1CC[C@H]([NH3+])CC1)C(=O)NCCCCCCNC(=O)c1ccc(-c2c3nc(c(-c4ccc(S(=O)(=O)[O-])cc4)c4ccc([nH]4)c(-c4ccc(S(=O)(=O)[O-])cc4)c4nc(c(-c5ccc(S(=O)(=O)[O-])cc5)c5ccc2[nH]5)C=C4)C=C3)cc1
REMARK SMILES IDX 18 1 17 2 16 3 15 4 13 5 14 6 2 8 1 9 3 10 4 11 5 12 6 14
REMARK SMILES IDX 7 15 12 16 8 17 11 18 9 19 10 20 19 24 20 25 21 26 22 27
REMARK SMILES IDX 23 28 24 30 25 31 26 32 84 33 27 34 83 35 28 36 29 37 30 38
REMARK SMILES IDX 77 39 31 40 82 41 76 42 78 43 32 44 81 45 75 46 74 47 33 49
REMARK SMILES IDX 63 50 44 51 62 52 45 53 48 54 61 55 79 56 46 57 47 58 60 60
REMARK SMILES IDX 80 61 49 62 34 63 35 64 43 65 36 66 42 67 37 68 38 69 39 70
REMARK SMILES IDX 40 71 41 72 64 73 65 74 73 75 66 76 72 77 67 78 68 79 69 80
REMARK SMILES IDX 70 81 71 82 50 83 51 84 59 85 52 86 58 87 53 88 54 89 55 90
REMARK SMILES IDX 56 91 57 92
REMARK H PARENT 15 7 4 13 10 21 10 22 10 23 22 29 78 48 48 59
REMARK Flexibility Score: inf
ROOT
ATOM      1  C   UNL     1      -3.745  -0.650   2.880  1.00  0.00     0.002 C 
ENDROOT
BRANCH   1   2
ATOM      2  C   UNL     1      -2.300  -0.366   2.477  1.00  0.00     0.021 C 
BRANCH   2   3
ATOM      3  C   UNL     1      -1.606  -1.472   1.676  1.00  0.00     0.116 C 
BRANCH   3   4
ATOM      4  N   UNL     1      -1.808  -1.265   0.257  1.00  0.00    -0.356 N 
ATOM      5  C   UNL     1      -0.931  -1.021  -0.749  1.00  0.00     0.228 C 
ATOM      6  O   UNL     1      -1.422  -0.692  -1.837  1.00  0.00    -0.275 OA
ATOM      7  H   UNL     1      -2.750  -1.309  -0.029  1.00  0.00     0.163 HD
BRANCH   5   8
ATOM      8  C   UNL     1       0.587  -1.151  -0.619  1.00  0.00     0.130 C 
ATOM      9  C   UNL     1       1.069  -2.469  -0.015  1.00  0.00     0.024 C 
BRANCH   8  10
ATOM     10  C   UNL     1       1.332   0.121  -0.146  1.00  0.00     0.275 C 
BRANCH  10  11
ATOM     11  N   UNL     1       1.597   0.189   1.300  1.00  0.00    -0.334 N 
ATOM     12  C   UNL     1       0.631   1.038   1.994  1.00  0.00     0.332 C 
ATOM     13  H   UNL     1       1.461  -0.760   1.650  1.00  0.00     0.348 HD
BRANCH  11  14
ATOM     14  C   UNL     1       3.005   0.504   1.645  1.00  0.00     0.184 C 
ATOM     15  C   UNL     1       3.288   0.116   3.113  1.00  0.00     0.071 C 
ATOM     16  C   UNL     1       3.435   1.955   1.329  1.00  0.00     0.071 C 
ATOM     17  C   UNL     1       4.707   0.475   3.554  1.00  0.00     0.071 C 
ATOM     18  C   UNL     1       4.843   2.283   1.823  1.00  0.00     0.071 C 
ATOM     19  C   UNL     1       4.985   1.960   3.312  1.00  0.00     0.181 C 
BRANCH  19  20
ATOM     20  N   UNL     1       6.322   2.325   3.771  1.00  0.00    -0.355 N 
ATOM     21  H   UNL     1       7.018   1.792   3.249  1.00  0.00     0.344 HD
ATOM     22  H   UNL     1       6.409   2.116   4.765  1.00  0.00     0.344 HD
ATOM     23  H   UNL     1       6.473   3.322   3.619  1.00  0.00     0.344 HD
ENDBRANCH  19  20
ENDBRANCH  11  14
ENDBRANCH  10  11
ENDBRANCH   8  10
ENDBRANCH   5   8
ENDBRANCH   3   4
ENDBRANCH   2   3
ENDBRANCH   1   2
BRANCH   1  24
ATOM     24  C   UNL     1      -3.931  -1.799   3.872  1.00  0.00     0.002 C 
BRANCH  24  25
ATOM     25  C   UNL     1      -3.032  -1.762   5.112  1.00  0.00     0.021 C 
BRANCH  25  26
ATOM     26  C   UNL     1      -3.051  -0.455   5.903  1.00  0.00     0.116 C 
BRANCH  26  27
ATOM     27  N   UNL     1      -4.382  -0.112   6.372  1.00  0.00    -0.352 N 
ATOM     28  C   UNL     1      -4.858   0.007   7.653  1.00  0.00     0.251 C 
ATOM     29  H   UNL     1      -5.042   0.062   5.662  1.00  0.00     0.163 HD
ATOM     30  O   UNL     1      -6.065   0.109   7.848  1.00  0.00    -0.269 OA
BRANCH  28  31
ATOM     31  C   UNL     1      -3.921  -0.005   8.797  1.00  0.00     0.039 A 
ATOM     32  C   UNL     1      -4.232  -0.786   9.913  1.00  0.00     0.014 A 
ATOM     33  C   UNL     1      -2.757   0.769   8.785  1.00  0.00     0.014 A 
ATOM     34  C   UNL     1      -3.349  -0.832  10.995  1.00  0.00     0.010 A 
ATOM     35  C   UNL     1      -1.846   0.669   9.834  1.00  0.00     0.010 A 
ATOM     36  C   UNL     1      -2.135  -0.127  10.953  1.00  0.00    -0.014 A 
BRANCH  36  37
ATOM     37  C   UNL     1      -1.161  -0.210  12.071  1.00  0.00     0.031 A 
ATOM     38  C   UNL     1      -0.839   1.012  12.889  1.00  0.00     0.074 A 
ATOM     39  C   UNL     1      -0.525  -1.373  12.316  1.00  0.00     0.049 A 
ATOM     40  N   UNL     1       0.011   1.144  13.875  1.00  0.00    -0.248 NA
ATOM     41  C   UNL     1      -1.551   2.252  12.540  1.00  0.00     0.031 C 
ATOM     42  C   UNL     1      -0.725  -2.620  11.575  1.00  0.00     0.029 A 
ATOM     43  N   UNL     1       0.420  -1.695  13.258  1.00  0.00    -0.354 N 
ATOM     44  C   UNL     1      -0.050   2.481  14.252  1.00  0.00     0.074 A 
ATOM     45  C   UNL     1      -0.985   3.128  13.358  1.00  0.00     0.031 C 
ATOM     46  C   UNL     1       0.050  -3.578  12.109  1.00  0.00     0.029 A 
ATOM     47  C   UNL     1       0.831  -3.006  13.201  1.00  0.00     0.049 A 
ATOM     48  H   UNL     1       0.771  -1.049  13.912  1.00  0.00     0.167 HD
ATOM     49  C   UNL     1       0.599   3.110  15.262  1.00  0.00     0.031 A 
ATOM     50  C   UNL     1       1.737  -3.674  13.942  1.00  0.00     0.031 A 
ATOM     51  C   UNL     1       1.524   2.461  16.154  1.00  0.00     0.049 A 
ATOM     52  C   UNL     1       2.459  -2.950  15.045  1.00  0.00     0.074 A 
ATOM     53  C   UNL     1       2.191   2.997  17.241  1.00  0.00     0.029 A 
ATOM     54  N   UNL     1       1.915   1.133  16.060  1.00  0.00    -0.354 N 
ATOM     55  N   UNL     1       2.340  -1.700  15.426  1.00  0.00    -0.248 NA
ATOM     56  C   UNL     1       3.432  -3.729  15.823  1.00  0.00     0.031 C 
ATOM     57  C   UNL     1       3.026   2.008  17.772  1.00  0.00     0.029 A 
ATOM     58  C   UNL     1       2.834   0.840  17.053  1.00  0.00     0.049 A 
ATOM     59  H   UNL     1       1.587   0.494  15.387  1.00  0.00     0.167 HD
ATOM     60  C   UNL     1       3.201  -1.552  16.509  1.00  0.00     0.074 A 
ATOM     61  C   UNL     1       3.824  -2.842  16.727  1.00  0.00     0.031 C 
ATOM     62  C   UNL     1       3.449  -0.449  17.256  1.00  0.00     0.031 A 
BRANCH  49  63
ATOM     63  C   UNL     1       0.338   4.583  15.444  1.00  0.00    -0.014 A 
ATOM     64  C   UNL     1      -0.909   5.051  15.898  1.00  0.00     0.010 A 
ATOM     65  C   UNL     1       1.361   5.512  15.180  1.00  0.00     0.010 A 
ATOM     66  C   UNL     1      -1.145   6.421  16.034  1.00  0.00     0.020 A 
ATOM     67  C   UNL     1       1.138   6.883  15.343  1.00  0.00     0.020 A 
ATOM     68  C   UNL     1      -0.121   7.329  15.749  1.00  0.00     0.054 A 
BRANCH  68  69
ATOM     69  S   UNL     1      -0.453   9.103  15.936  1.00  0.00     0.124 S 
ATOM     70  O   UNL     1      -1.302   9.373  14.778  1.00  0.00    -0.237 OA
ATOM     71  O   UNL     1      -1.122   9.169  17.233  1.00  0.00    -0.237 OA
ATOM     72  O   UNL     1       0.874   9.711  15.890  1.00  0.00    -0.744 OA
ENDBRANCH  68  69
ENDBRANCH  49  63
BRANCH  50  73
ATOM     73  C   UNL     1       1.994  -5.116  13.679  1.00  0.00    -0.014 A 
ATOM     74  C   UNL     1       1.565  -6.093  14.594  1.00  0.00     0.010 A 
ATOM     75  C   UNL     1       2.657  -5.522  12.506  1.00  0.00     0.010 A 
ATOM     76  C   UNL     1       1.808  -7.448  14.351  1.00  0.00     0.020 A 
ATOM     77  C   UNL     1       2.878  -6.877  12.246  1.00  0.00     0.020 A 
ATOM     78  C   UNL     1       2.462  -7.832  13.176  1.00  0.00     0.054 A 
BRANCH  78  79
ATOM     79  S   UNL     1       2.720  -9.599  12.856  1.00  0.00     0.124 S 
ATOM     80  O   UNL     1       3.790  -9.924  13.793  1.00  0.00    -0.237 OA
ATOM     81  O   UNL     1       1.412 -10.170  13.164  1.00  0.00    -0.237 OA
ATOM     82  O   UNL     1       3.091  -9.638  11.443  1.00  0.00    -0.744 OA
ENDBRANCH  78  79
ENDBRANCH  50  73
BRANCH  62  83
ATOM     83  C   UNL     1       4.412  -0.593  18.405  1.00  0.00    -0.014 A 
ATOM     84  C   UNL     1       5.794  -0.734  18.186  1.00  0.00     0.010 A 
ATOM     85  C   UNL     1       3.929  -0.533  19.725  1.00  0.00     0.010 A 
ATOM     86  C   UNL     1       6.672  -0.845  19.268  1.00  0.00     0.020 A 
ATOM     87  C   UNL     1       4.807  -0.614  20.809  1.00  0.00     0.020 A 
ATOM     88  C   UNL     1       6.172  -0.784  20.573  1.00  0.00     0.054 A 
BRANCH  88  89
ATOM     89  S   UNL     1       7.337  -0.884  21.960  1.00  0.00     0.124 S 
ATOM     90  O   UNL     1       7.693  -2.300  21.956  1.00  0.00    -0.237 OA
ATOM     91  O   UNL     1       8.400   0.032  21.553  1.00  0.00    -0.237 OA
ATOM     92  O   UNL     1       6.548  -0.442  23.108  1.00  0.00    -0.744 OA
ENDBRANCH  88  89
ENDBRANCH  62  83
ENDBRANCH  36  37
ENDBRANCH  28  31
ENDBRANCH  26  27
ENDBRANCH  25  26
ENDBRANCH  24  25
ENDBRANCH   1  24
TORSDOF 20
