REMARK SMILES O=C(NCCCCCCNC(=O)[C@H](Cc1ccc([N+](=O)[O-])cc1)c1ccccc1Br)c1ccc(-c2c3nc(c(-c4ccc(S(=O)(=O)[O-])cc4)c4ccc([nH]4)c(-c4ccc(S(=O)(=O)[O-])cc4)c4nc(c(-c5ccc(S(=O)(=O)[O-])cc5)c5ccc2[nH]5)C=C4)C=C3)cc1
REMARK SMILES IDX 6 1 5 2 4 3 3 4 1 5 2 6 31 8 32 9 90 10 33 11 89 12 34 13
REMARK SMILES IDX 35 14 36 15 83 16 37 17 88 18 82 19 84 20 38 21 87 22 81 23
REMARK SMILES IDX 80 24 39 26 69 27 50 28 68 29 51 30 54 31 67 32 85 33 52 34
REMARK SMILES IDX 53 35 66 37 86 38 55 39 40 40 41 41 49 42 42 43 48 44 43 45
REMARK SMILES IDX 44 46 45 47 46 48 47 49 70 50 71 51 79 52 72 53 78 54 73 55
REMARK SMILES IDX 74 56 75 57 76 58 77 59 56 60 57 61 65 62 58 63 64 64 59 65
REMARK SMILES IDX 60 66 61 67 62 68 63 69 7 70 8 71 9 72 10 73 11 74 12 76
REMARK SMILES IDX 13 77 24 78 25 79 29 80 26 81 28 82 30 83 27 84 14 85 15 86
REMARK SMILES IDX 16 87 23 88 17 89 22 90 18 91 19 92 20 93 21 94
REMARK H PARENT 3 7 84 25 54 36 10 75
REMARK Flexibility Score: inf
ROOT
ATOM      1  C   UNL     1       6.090  -7.012   4.011  1.00  0.00     0.002 C 
ENDROOT
BRANCH   1   2
ATOM      2  C   UNL     1       4.862  -7.445   4.819  1.00  0.00     0.021 C 
BRANCH   2   3
ATOM      3  C   UNL     1       3.543  -6.835   4.351  1.00  0.00     0.116 C 
BRANCH   3   4
ATOM      4  N   UNL     1       3.143  -7.359   3.055  1.00  0.00    -0.352 N 
ATOM      5  O   UNL     1       2.058  -8.781   1.676  1.00  0.00    -0.269 OA
ATOM      6  C   UNL     1       2.104  -8.203   2.765  1.00  0.00     0.251 C 
ATOM      7  H   UNL     1       3.689  -7.071   2.288  1.00  0.00     0.163 HD
BRANCH   6   8
ATOM      8  C   UNL     1       1.041  -8.421   3.766  1.00  0.00     0.039 A 
ATOM      9  C   UNL     1       0.444  -7.329   4.406  1.00  0.00     0.014 A 
ATOM     10  C   UNL     1       0.622  -9.722   4.052  1.00  0.00     0.014 A 
ATOM     11  C   UNL     1      -0.502  -7.542   5.403  1.00  0.00     0.010 A 
ATOM     12  C   UNL     1      -0.378  -9.930   5.004  1.00  0.00     0.010 A 
ATOM     13  C   UNL     1      -0.938  -8.843   5.696  1.00  0.00    -0.014 A 
BRANCH  13  14
ATOM     14  C   UNL     1      -2.043  -9.057   6.663  1.00  0.00     0.031 A 
ATOM     15  C   UNL     1      -1.817  -9.806   7.944  1.00  0.00     0.074 A 
ATOM     16  C   UNL     1      -3.272  -8.604   6.350  1.00  0.00     0.049 A 
ATOM     17  N   UNL     1      -2.686 -10.148   8.861  1.00  0.00    -0.248 NA
ATOM     18  C   UNL     1      -0.440 -10.235   8.228  1.00  0.00     0.031 C 
ATOM     19  C   UNL     1      -3.612  -7.869   5.128  1.00  0.00     0.029 A 
ATOM     20  N   UNL     1      -4.465  -8.705   7.019  1.00  0.00    -0.354 N 
ATOM     21  C   UNL     1      -1.969 -10.857   9.818  1.00  0.00     0.074 A 
ATOM     22  C   UNL     1      -0.597 -10.911   9.359  1.00  0.00     0.031 C 
ATOM     23  C   UNL     1      -4.921  -7.582   5.137  1.00  0.00     0.029 A 
ATOM     24  C   UNL     1      -5.525  -8.168   6.329  1.00  0.00     0.049 A 
ATOM     25  H   UNL     1      -4.553  -9.122   7.907  1.00  0.00     0.167 HD
ATOM     26  C   UNL     1      -2.418 -11.414  10.970  1.00  0.00     0.031 A 
ATOM     27  C   UNL     1      -6.845  -8.179   6.595  1.00  0.00     0.031 A 
ATOM     28  C   UNL     1      -3.792 -11.370  11.401  1.00  0.00     0.049 A 
ATOM     29  C   UNL     1      -7.329  -8.835   7.854  1.00  0.00     0.074 A 
ATOM     30  C   UNL     1      -4.343 -11.867  12.569  1.00  0.00     0.029 A 
ATOM     31  N   UNL     1      -4.835 -10.814  10.673  1.00  0.00    -0.354 N 
ATOM     32  N   UNL     1      -6.630  -9.454   8.775  1.00  0.00    -0.248 NA
ATOM     33  C   UNL     1      -8.773  -8.792   8.115  1.00  0.00     0.031 C 
ATOM     34  C   UNL     1      -5.727 -11.669  12.518  1.00  0.00     0.029 A 
ATOM     35  C   UNL     1      -6.031 -10.985  11.351  1.00  0.00     0.049 A 
ATOM     36  H   UNL     1      -4.739 -10.364   9.803  1.00  0.00     0.167 HD
ATOM     37  C   UNL     1      -7.546  -9.856   9.739  1.00  0.00     0.074 A 
ATOM     38  C   UNL     1      -8.848  -9.404   9.291  1.00  0.00     0.031 C 
ATOM     39  C   UNL     1      -7.322 -10.531  10.893  1.00  0.00     0.031 A 
BRANCH  26  40
ATOM     40  C   UNL     1      -1.419 -12.164  11.814  1.00  0.00    -0.014 A 
ATOM     41  C   UNL     1      -0.378 -11.499  12.487  1.00  0.00     0.010 A 
ATOM     42  C   UNL     1      -1.529 -13.562  11.940  1.00  0.00     0.010 A 
ATOM     43  C   UNL     1       0.573 -12.224  13.212  1.00  0.00     0.020 A 
ATOM     44  C   UNL     1      -0.598 -14.287  12.690  1.00  0.00     0.020 A 
ATOM     45  C   UNL     1       0.464 -13.616  13.298  1.00  0.00     0.054 A 
BRANCH  45  46
ATOM     46  S   UNL     1       1.732 -14.534  14.214  1.00  0.00     0.124 S 
ATOM     47  O   UNL     1       2.874 -14.450  13.307  1.00  0.00    -0.237 OA
ATOM     48  O   UNL     1       1.855 -13.765  15.450  1.00  0.00    -0.237 OA
ATOM     49  O   UNL     1       1.154 -15.867  14.367  1.00  0.00    -0.744 OA
ENDBRANCH  45  46
ENDBRANCH  26  40
BRANCH  27  50
ATOM     50  C   UNL     1      -7.780  -7.563   5.617  1.00  0.00    -0.014 A 
ATOM     51  C   UNL     1      -8.401  -6.334   5.892  1.00  0.00     0.010 A 
ATOM     52  C   UNL     1      -7.977  -8.165   4.359  1.00  0.00     0.010 A 
ATOM     53  C   UNL     1      -9.194  -5.712   4.922  1.00  0.00     0.020 A 
ATOM     54  C   UNL     1      -8.744  -7.533   3.378  1.00  0.00     0.020 A 
ATOM     55  C   UNL     1      -9.350  -6.310   3.667  1.00  0.00     0.054 A 
BRANCH  55  56
ATOM     56  S   UNL     1     -10.299  -5.433   2.393  1.00  0.00     0.124 S 
ATOM     57  O   UNL     1     -11.667  -5.581   2.878  1.00  0.00    -0.237 OA
ATOM     58  O   UNL     1      -9.745  -4.083   2.464  1.00  0.00    -0.237 OA
ATOM     59  O   UNL     1      -9.984  -6.164   1.168  1.00  0.00    -0.744 OA
ENDBRANCH  55  56
ENDBRANCH  27  50
BRANCH  39  60
ATOM     60  C   UNL     1      -8.504 -10.799  11.786  1.00  0.00    -0.014 A 
ATOM     61  C   UNL     1      -9.454 -11.784  11.466  1.00  0.00     0.010 A 
ATOM     62  C   UNL     1      -8.604 -10.120  13.015  1.00  0.00     0.010 A 
ATOM     63  C   UNL     1     -10.487 -12.083  12.360  1.00  0.00     0.020 A 
ATOM     64  C   UNL     1      -9.619 -10.434  13.921  1.00  0.00     0.020 A 
ATOM     65  C   UNL     1     -10.556 -11.413  13.586  1.00  0.00     0.054 A 
BRANCH  65  66
ATOM     66  S   UNL     1     -11.849 -11.886  14.768  1.00  0.00     0.124 S 
ATOM     67  O   UNL     1     -13.048 -11.334  14.145  1.00  0.00    -0.237 OA
ATOM     68  O   UNL     1     -11.757 -13.344  14.775  1.00  0.00    -0.237 OA
ATOM     69  O   UNL     1     -11.437 -11.236  16.011  1.00  0.00    -0.744 OA
ENDBRANCH  65  66
ENDBRANCH  39  60
ENDBRANCH  13  14
ENDBRANCH   6   8
ENDBRANCH   3   4
ENDBRANCH   2   3
ENDBRANCH   1   2
BRANCH   1  70
ATOM     70  C   UNL     1       6.293  -5.500   3.890  1.00  0.00     0.002 C 
BRANCH  70  71
ATOM     71  C   UNL     1       6.304  -4.742   5.223  1.00  0.00     0.021 C 
BRANCH  71  72
ATOM     72  C   UNL     1       7.607  -4.842   6.023  1.00  0.00     0.116 C 
BRANCH  72  73
ATOM     73  N   UNL     1       8.673  -4.042   5.440  1.00  0.00    -0.356 N 
ATOM     74  C   UNL     1       9.139  -2.777   5.642  1.00  0.00     0.227 C 
ATOM     75  H   UNL     1       9.171  -4.524   4.741  1.00  0.00     0.163 HD
ATOM     76  O   UNL     1      10.066  -2.461   4.884  1.00  0.00    -0.274 OA
BRANCH  74  77
ATOM     77  C   UNL     1       8.612  -1.800   6.749  1.00  0.00     0.114 C 
BRANCH  77  78
ATOM     78  C   UNL     1       9.410  -0.451   6.804  1.00  0.00    -0.021 A 
ATOM     79  C   UNL     1      10.817  -0.601   6.958  1.00  0.00     0.006 A 
ATOM     80  C   UNL     1       8.951   0.888   6.758  1.00  0.00     0.021 A 
ATOM     81  C   UNL     1      11.706   0.481   6.993  1.00  0.00     0.000 A 
ATOM     82  C   UNL     1       9.859   1.970   6.777  1.00  0.00     0.016 A 
ATOM     83  Br  UNL     1       7.161   1.529   6.761  1.00  0.00    -0.051 Br
ATOM     84  C   UNL     1      11.226   1.773   6.888  1.00  0.00     0.001 A 
ENDBRANCH  77  78
BRANCH  77  85
ATOM     85  C   UNL     1       7.078  -1.720   6.823  1.00  0.00     0.053 C 
BRANCH  85  86
ATOM     86  C   UNL     1       6.273  -1.289   5.611  1.00  0.00    -0.046 A 
ATOM     87  C   UNL     1       6.804  -1.170   4.317  1.00  0.00     0.011 A 
ATOM     88  C   UNL     1       4.913  -0.986   5.814  1.00  0.00     0.011 A 
ATOM     89  C   UNL     1       6.013  -0.729   3.257  1.00  0.00     0.086 A 
ATOM     90  C   UNL     1       4.124  -0.505   4.770  1.00  0.00     0.086 A 
ATOM     91  C   UNL     1       4.687  -0.369   3.498  1.00  0.00     0.269 A 
BRANCH  91  92
ATOM     92  N   UNL     1       3.896   0.204   2.412  1.00  0.00     0.062 N 
ATOM     93  O   UNL     1       4.230  -0.075   1.251  1.00  0.00    -0.258 OA
ATOM     94  O   UNL     1       2.957   0.950   2.720  1.00  0.00    -0.258 OA
ENDBRANCH  91  92
ENDBRANCH  85  86
ENDBRANCH  77  85
ENDBRANCH  74  77
ENDBRANCH  72  73
ENDBRANCH  71  72
ENDBRANCH  70  71
ENDBRANCH   1  70
TORSDOF 20
