REMARK SMILES C[C@@H]1OCC[C@@H]1C(=O)Nc1ccc(C(=O)NCCCCCCNC(=O)c2ccc(-c3c4nc(c(-c5ccc(S(=O)(=O)[O-])cc5)c5ccc([nH]5)c(-c5ccc(S(=O)(=O)[O-])cc5)c5nc(c(-c6ccc(S(=O)(=O)[O-])cc6)c6ccc3[nH]6)C=C5)C=C4)cc2)cc1F
REMARK SMILES IDX 20 1 19 2 18 3 17 4 16 5 14 6 15 7 13 9 10 10 11 11 87 12
REMARK SMILES IDX 12 13 86 14 88 15 9 16 7 17 8 18 6 20 1 21 2 22 3 23 4 24
REMARK SMILES IDX 5 25 21 26 22 27 23 28 24 29 25 31 26 32 27 33 85 34 28 35
REMARK SMILES IDX 84 36 29 37 30 38 31 39 78 40 32 41 83 42 77 43 79 44 33 45
REMARK SMILES IDX 82 46 76 47 75 48 34 50 64 51 45 52 63 53 46 54 49 55 62 56
REMARK SMILES IDX 80 57 47 58 48 59 61 61 81 62 50 63 35 64 36 65 44 66 37 67
REMARK SMILES IDX 43 68 38 69 39 70 40 71 41 72 42 73 65 74 66 75 74 76 67 77
REMARK SMILES IDX 73 78 68 79 69 80 70 81 71 82 72 83 51 84 52 85 60 86 53 87
REMARK SMILES IDX 59 88 54 89 55 90 56 91 57 92 58 93
REMARK H PARENT 16 8 9 19 23 30 79 49 49 60
REMARK Flexibility Score: inf
ROOT
ATOM      1  C   UNL     1       1.253  -5.228   6.136  1.00  0.00     0.002 C 
ENDROOT
BRANCH   1   2
ATOM      2  C   UNL     1       2.527  -4.466   5.753  1.00  0.00     0.002 C 
BRANCH   2   3
ATOM      3  C   UNL     1       2.283  -3.272   4.827  1.00  0.00     0.021 C 
BRANCH   3   4
ATOM      4  C   UNL     1       1.504  -2.146   5.525  1.00  0.00     0.116 C 
BRANCH   4   5
ATOM      5  N   UNL     1       2.418  -1.244   6.229  1.00  0.00    -0.352 N 
ATOM      6  C   UNL     1       3.032  -0.051   5.899  1.00  0.00     0.251 C 
ATOM      7  O   UNL     1       3.759   0.486   6.733  1.00  0.00    -0.269 OA
ATOM      8  H   UNL     1       2.646  -1.555   7.134  1.00  0.00     0.163 HD
BRANCH   6   9
ATOM      9  C   UNL     1       2.781   0.651   4.613  1.00  0.00     0.042 A 
ATOM     10  C   UNL     1       1.756   2.044   2.363  1.00  0.00     0.077 A 
ATOM     11  C   UNL     1       2.533   2.712   3.321  1.00  0.00     0.030 A 
ATOM     12  C   UNL     1       1.525   0.703   2.612  1.00  0.00     0.147 A 
ATOM     13  C   UNL     1       2.977   2.034   4.480  1.00  0.00     0.016 A 
ATOM     14  C   UNL     1       2.220  -0.012   3.555  1.00  0.00     0.055 A 
ATOM     15  F   UNL     1       0.484   0.033   2.128  1.00  0.00    -0.205 F 
BRANCH  10  16
ATOM     16  N   UNL     1       1.333   2.753   1.215  1.00  0.00    -0.323 N 
ATOM     17  C   UNL     1       0.627   2.412   0.085  1.00  0.00     0.230 C 
ATOM     18  O   UNL     1       0.563   3.263  -0.808  1.00  0.00    -0.274 OA
ATOM     19  H   UNL     1       1.604   3.700   1.227  1.00  0.00     0.170 HD
BRANCH  17  20
ATOM     20  C   UNL     1      -0.094   1.087  -0.054  1.00  0.00     0.110 C 
ATOM     21  C   UNL     1       1.879   0.092  -1.419  1.00  0.00     0.039 C 
ATOM     22  C   UNL     1       0.747  -0.145  -0.432  1.00  0.00     0.127 C 
ATOM     23  O   UNL     1      -0.171  -1.097  -1.016  1.00  0.00    -0.378 OA
ATOM     24  C   UNL     1      -1.466  -0.483  -1.063  1.00  0.00     0.161 C 
ATOM     25  C   UNL     1      -1.192   1.007  -1.100  1.00  0.00     0.044 C 
ENDBRANCH  17  20
ENDBRANCH  10  16
ENDBRANCH   6   9
ENDBRANCH   4   5
ENDBRANCH   3   4
ENDBRANCH   2   3
ENDBRANCH   1   2
BRANCH   1  26
ATOM     26  C   UNL     1       0.512  -5.876   4.963  1.00  0.00     0.021 C 
BRANCH  26  27
ATOM     27  C   UNL     1       1.311  -6.955   4.241  1.00  0.00     0.116 C 
BRANCH  27  28
ATOM     28  N   UNL     1       1.638  -8.060   5.130  1.00  0.00    -0.352 N 
ATOM     29  C   UNL     1       1.317  -9.390   5.021  1.00  0.00     0.251 C 
ATOM     30  H   UNL     1       2.167  -7.818   5.925  1.00  0.00     0.163 HD
ATOM     31  O   UNL     1       1.446 -10.134   5.984  1.00  0.00    -0.269 OA
BRANCH  29  32
ATOM     32  C   UNL     1       0.810  -9.912   3.735  1.00  0.00     0.039 A 
ATOM     33  C   UNL     1      -0.266 -10.802   3.738  1.00  0.00     0.014 A 
ATOM     34  C   UNL     1       1.406  -9.529   2.530  1.00  0.00     0.014 A 
ATOM     35  C   UNL     1      -0.777 -11.268   2.525  1.00  0.00     0.010 A 
ATOM     36  C   UNL     1       0.846  -9.930   1.323  1.00  0.00     0.010 A 
ATOM     37  C   UNL     1      -0.244 -10.812   1.307  1.00  0.00    -0.014 A 
BRANCH  37  38
ATOM     38  C   UNL     1      -0.808 -11.249   0.006  1.00  0.00     0.031 A 
ATOM     39  C   UNL     1       0.034 -12.046  -0.953  1.00  0.00     0.074 A 
ATOM     40  C   UNL     1      -2.056 -10.877  -0.337  1.00  0.00     0.049 A 
ATOM     41  N   UNL     1      -0.269 -12.486  -2.148  1.00  0.00    -0.248 NA
ATOM     42  C   UNL     1       1.403 -12.370  -0.523  1.00  0.00     0.031 C 
ATOM     43  C   UNL     1      -2.958 -10.076   0.494  1.00  0.00     0.029 A 
ATOM     44  N   UNL     1      -2.781 -11.122  -1.474  1.00  0.00    -0.354 N 
ATOM     45  C   UNL     1       0.874 -13.124  -2.616  1.00  0.00     0.074 A 
ATOM     46  C   UNL     1       1.893 -12.959  -1.603  1.00  0.00     0.031 C 
ATOM     47  C   UNL     1      -4.130  -9.933  -0.144  1.00  0.00     0.029 A 
ATOM     48  C   UNL     1      -4.047 -10.588  -1.446  1.00  0.00     0.049 A 
ATOM     49  H   UNL     1      -2.429 -11.633  -2.239  1.00  0.00     0.167 HD
ATOM     50  C   UNL     1       1.054 -13.804  -3.774  1.00  0.00     0.031 A 
ATOM     51  C   UNL     1      -5.032 -10.621  -2.364  1.00  0.00     0.031 A 
ATOM     52  C   UNL     1       0.038 -13.953  -4.783  1.00  0.00     0.049 A 
ATOM     53  C   UNL     1      -4.800 -11.347  -3.660  1.00  0.00     0.074 A 
ATOM     54  C   UNL     1       0.102 -14.657  -5.973  1.00  0.00     0.029 A 
ATOM     55  N   UNL     1      -1.224 -13.379  -4.726  1.00  0.00    -0.354 N 
ATOM     56  N   UNL     1      -3.735 -11.999  -4.060  1.00  0.00    -0.248 NA
ATOM     57  C   UNL     1      -5.909 -11.349  -4.624  1.00  0.00     0.031 C 
ATOM     58  C   UNL     1      -1.100 -14.458  -6.662  1.00  0.00     0.029 A 
ATOM     59  C   UNL     1      -1.938 -13.687  -5.872  1.00  0.00     0.049 A 
ATOM     60  H   UNL     1      -1.563 -12.833  -3.980  1.00  0.00     0.167 HD
ATOM     61  C   UNL     1      -4.054 -12.515  -5.311  1.00  0.00     0.074 A 
ATOM     62  C   UNL     1      -5.416 -12.107  -5.594  1.00  0.00     0.031 C 
ATOM     63  C   UNL     1      -3.291 -13.264  -6.146  1.00  0.00     0.031 A 
BRANCH  50  64
ATOM     64  C   UNL     1       2.414 -14.412  -4.010  1.00  0.00    -0.014 A 
ATOM     65  C   UNL     1       2.892 -15.465  -3.207  1.00  0.00     0.010 A 
ATOM     66  C   UNL     1       3.233 -13.919  -5.042  1.00  0.00     0.010 A 
ATOM     67  C   UNL     1       4.187 -15.961  -3.382  1.00  0.00     0.020 A 
ATOM     68  C   UNL     1       4.516 -14.436  -5.244  1.00  0.00     0.020 A 
ATOM     69  C   UNL     1       4.995 -15.435  -4.393  1.00  0.00     0.054 A 
BRANCH  69  70
ATOM     70  S   UNL     1       6.681 -16.076  -4.580  1.00  0.00     0.124 S 
ATOM     71  O   UNL     1       7.354 -15.494  -3.421  1.00  0.00    -0.237 OA
ATOM     72  O   UNL     1       6.482 -17.522  -4.529  1.00  0.00    -0.237 OA
ATOM     73  O   UNL     1       7.109 -15.555  -5.876  1.00  0.00    -0.744 OA
ENDBRANCH  69  70
ENDBRANCH  50  64
BRANCH  51  74
ATOM     74  C   UNL     1      -6.340  -9.978  -2.063  1.00  0.00    -0.014 A 
ATOM     75  C   UNL     1      -7.473 -10.769  -1.805  1.00  0.00     0.010 A 
ATOM     76  C   UNL     1      -6.450  -8.578  -1.982  1.00  0.00     0.010 A 
ATOM     77  C   UNL     1      -8.693 -10.173  -1.472  1.00  0.00     0.020 A 
ATOM     78  C   UNL     1      -7.662  -7.979  -1.623  1.00  0.00     0.020 A 
ATOM     79  C   UNL     1      -8.777  -8.781  -1.374  1.00  0.00     0.054 A 
BRANCH  79  80
ATOM     80  S   UNL     1     -10.349  -8.037  -0.858  1.00  0.00     0.124 S 
ATOM     81  O   UNL     1     -11.191  -8.260  -2.029  1.00  0.00    -0.237 OA
ATOM     82  O   UNL     1     -10.692  -8.820   0.327  1.00  0.00    -0.237 OA
ATOM     83  O   UNL     1      -9.998  -6.643  -0.594  1.00  0.00    -0.744 OA
ENDBRANCH  79  80
ENDBRANCH  51  74
BRANCH  63  84
ATOM     84  C   UNL     1      -3.920 -13.720  -7.437  1.00  0.00    -0.014 A 
ATOM     85  C   UNL     1      -4.186 -12.818  -8.482  1.00  0.00     0.010 A 
ATOM     86  C   UNL     1      -4.199 -15.087  -7.625  1.00  0.00     0.010 A 
ATOM     87  C   UNL     1      -4.749 -13.270  -9.679  1.00  0.00     0.020 A 
ATOM     88  C   UNL     1      -4.732 -15.547  -8.831  1.00  0.00     0.020 A 
ATOM     89  C   UNL     1      -5.017 -14.632  -9.847  1.00  0.00     0.054 A 
BRANCH  89  90
ATOM     90  S   UNL     1      -5.705 -15.198 -11.427  1.00  0.00     0.124 S 
ATOM     91  O   UNL     1      -7.075 -14.699 -11.358  1.00  0.00    -0.237 OA
ATOM     92  O   UNL     1      -4.843 -14.539 -12.405  1.00  0.00    -0.237 OA
ATOM     93  O   UNL     1      -5.567 -16.652 -11.364  1.00  0.00    -0.744 OA
ENDBRANCH  89  90
ENDBRANCH  63  84
ENDBRANCH  37  38
ENDBRANCH  29  32
ENDBRANCH  27  28
ENDBRANCH  26  27
ENDBRANCH   1  26
TORSDOF 18
