REMARK SMILES Cc1ccccc1C(=O)Nc1ccc(N2CCC(n3c(C)nc4cccnc43)CC2)c(C(=O)NCCCCCCNC(=O)c2ccc(-c3c4nc(c(-c5ccc(S(=O)(=O)[O-])cc5)c5ccc([nH]5)c(-c5ccc(S(=O)(=O)[O-])cc5)c5nc(c(-c6ccc(S(=O)(=O)[O-])cc6)c6ccc3[nH]6)C=C5)C=C4)cc2)c1
REMARK SMILES IDX 38 1 37 2 36 3 35 4 34 5 32 6 33 7 31 9 11 10 12 11 104 12
REMARK SMILES IDX 13 13 14 14 10 15 8 16 9 17 7 19 1 20 2 21 3 22 4 23 6 24
REMARK SMILES IDX 5 25 15 26 16 27 30 28 17 29 29 30 18 31 19 32 20 33 28 34
REMARK SMILES IDX 21 35 22 36 23 37 27 38 24 39 26 40 25 41 39 42 40 43 41 44
REMARK SMILES IDX 42 45 43 47 44 48 45 49 103 50 46 51 102 52 47 53 48 54
REMARK SMILES IDX 49 55 96 56 50 57 101 58 95 59 97 60 51 61 100 62 94 63
REMARK SMILES IDX 93 64 52 66 82 67 63 68 81 69 64 70 67 71 80 72 98 73 65 74
REMARK SMILES IDX 66 75 79 77 99 78 68 79 53 80 54 81 62 82 55 83 61 84 56 85
REMARK SMILES IDX 57 86 58 87 59 88 60 89 83 90 84 91 92 92 85 93 91 94 86 95
REMARK SMILES IDX 87 96 88 97 89 98 90 99 69 100 70 101 78 102 71 103 77 104
REMARK SMILES IDX 72 105 73 106 74 107 75 108 76 109
REMARK H PARENT 34 8 10 18 41 46 97 65 67 76
REMARK Flexibility Score: inf
ROOT
ATOM      1  C   UNL     1       8.707  -4.259   3.074  1.00  0.00     0.002 C 
ENDROOT
BRANCH   1   2
ATOM      2  C   UNL     1       9.506  -3.215   2.199  1.00  0.00     0.002 C 
BRANCH   2   3
ATOM      3  C   UNL     1       9.103  -2.648   0.816  1.00  0.00     0.021 C 
BRANCH   3   4
ATOM      4  C   UNL     1       7.706  -2.084   0.632  1.00  0.00     0.116 C 
BRANCH   4   5
ATOM      5  N   UNL     1       7.262  -1.105   1.599  1.00  0.00    -0.352 N 
ATOM      6  C   UNL     1       6.150  -0.294   1.605  1.00  0.00     0.253 C 
ATOM      7  O   UNL     1       5.968   0.368   2.636  1.00  0.00    -0.269 OA
ATOM      8  H   UNL     1       7.852  -1.002   2.381  1.00  0.00     0.163 HD
BRANCH   6   9
ATOM      9  C   UNL     1       5.176  -0.106   0.464  1.00  0.00     0.065 A 
ATOM     10  C   UNL     1       3.398   1.403  -0.315  1.00  0.00     0.042 A 
ATOM     11  C   UNL     1       3.143   0.585  -1.395  1.00  0.00     0.028 A 
ATOM     12  C   UNL     1       4.512   1.150   0.496  1.00  0.00     0.042 A 
ATOM     13  C   UNL     1       3.840  -0.616  -1.501  1.00  0.00     0.029 A 
ATOM     14  C   UNL     1       4.732  -1.057  -0.485  1.00  0.00     0.050 A 
BRANCH  10  15
ATOM     15  N   UNL     1       2.503   2.398   0.097  1.00  0.00    -0.322 N 
ATOM     16  C   UNL     1       1.121   2.389   0.188  1.00  0.00     0.255 C 
ATOM     17  O   UNL     1       0.568   3.468   0.431  1.00  0.00    -0.269 OA
ATOM     18  H   UNL     1       2.926   3.245   0.366  1.00  0.00     0.170 HD
BRANCH  16  19
ATOM     19  C   UNL     1       0.240   1.166   0.095  1.00  0.00     0.043 A 
ATOM     20  C   UNL     1       1.705  -0.531   1.381  1.00  0.00     0.045 C 
ATOM     21  C   UNL     1       0.510  -0.131   0.577  1.00  0.00    -0.038 A 
ATOM     22  C   UNL     1      -0.424  -1.170   0.360  1.00  0.00     0.004 A 
ATOM     23  C   UNL     1      -1.684  -0.912  -0.162  1.00  0.00     0.000 A 
ATOM     24  C   UNL     1      -1.063   1.408  -0.392  1.00  0.00     0.014 A 
ATOM     25  C   UNL     1      -2.021   0.390  -0.495  1.00  0.00     0.001 A 
ENDBRANCH  16  19
ENDBRANCH  10  15
BRANCH  14  26
ATOM     26  N   UNL     1       4.842  -2.447  -0.375  1.00  0.00    -0.371 N 
ATOM     27  C   UNL     1       5.447  -3.190  -1.477  1.00  0.00     0.118 C 
ATOM     28  C   UNL     1       4.548  -3.064   0.909  1.00  0.00     0.118 C 
ATOM     29  C   UNL     1       5.064  -4.658  -1.510  1.00  0.00     0.047 C 
ATOM     30  C   UNL     1       4.106  -4.506   0.781  1.00  0.00     0.047 C 
ATOM     31  C   UNL     1       4.980  -5.358  -0.141  1.00  0.00     0.094 C 
BRANCH  31  32
ATOM     32  N   UNL     1       4.550  -6.771  -0.259  1.00  0.00    -0.310 N 
ATOM     33  C   UNL     1       3.684  -7.542   0.517  1.00  0.00     0.108 A 
ATOM     34  C   UNL     1       5.132  -7.651  -1.155  1.00  0.00     0.160 A 
ATOM     35  C   UNL     1       2.787  -7.087   1.609  1.00  0.00     0.088 C 
ATOM     36  N   UNL     1       3.732  -8.820   0.177  1.00  0.00    -0.232 NA
ATOM     37  C   UNL     1       4.666  -8.907  -0.811  1.00  0.00     0.108 A 
ATOM     38  N   UNL     1       6.009  -7.366  -2.132  1.00  0.00    -0.237 NA
ATOM     39  C   UNL     1       5.198 -10.015  -1.480  1.00  0.00     0.034 A 
ATOM     40  C   UNL     1       6.533  -8.458  -2.721  1.00  0.00     0.113 A 
ATOM     41  C   UNL     1       6.180  -9.771  -2.440  1.00  0.00     0.022 A 
ENDBRANCH  31  32
ENDBRANCH  14  26
ENDBRANCH   6   9
ENDBRANCH   4   5
ENDBRANCH   3   4
ENDBRANCH   2   3
ENDBRANCH   1   2
BRANCH   1  42
ATOM     42  C   UNL     1       8.527  -5.916   2.885  1.00  0.00     0.021 C 
BRANCH  42  43
ATOM     43  C   UNL     1       9.851  -6.765   2.510  1.00  0.00     0.116 C 
BRANCH  43  44
ATOM     44  N   UNL     1      10.281  -8.315   2.011  1.00  0.00    -0.352 N 
ATOM     45  C   UNL     1      10.942  -9.232   0.947  1.00  0.00     0.251 C 
ATOM     46  H   UNL     1       9.969  -8.918   2.723  1.00  0.00     0.163 HD
ATOM     47  O   UNL     1      11.637 -10.103   1.524  1.00  0.00    -0.269 OA
BRANCH  45  48
ATOM     48  C   UNL     1      11.138  -9.373  -0.755  1.00  0.00     0.039 A 
ATOM     49  C   UNL     1      12.415  -9.579  -1.382  1.00  0.00     0.014 A 
ATOM     50  C   UNL     1      10.196  -9.186  -1.751  1.00  0.00     0.014 A 
ATOM     51  C   UNL     1      12.780  -8.822  -2.575  1.00  0.00     0.010 A 
ATOM     52  C   UNL     1      10.528  -8.438  -2.920  1.00  0.00     0.010 A 
ATOM     53  C   UNL     1      11.822  -8.014  -3.189  1.00  0.00    -0.014 A 
BRANCH  53  54
ATOM     54  C   UNL     1      12.023  -6.753  -3.998  1.00  0.00     0.031 A 
ATOM     55  C   UNL     1      12.066  -6.821  -5.457  1.00  0.00     0.074 A 
ATOM     56  C   UNL     1      12.030  -5.462  -3.546  1.00  0.00     0.049 A 
ATOM     57  N   UNL     1      13.041  -6.424  -6.205  1.00  0.00    -0.248 NA
ATOM     58  C   UNL     1      10.897  -7.298  -6.183  1.00  0.00     0.031 C 
ATOM     59  C   UNL     1      12.151  -4.162  -4.239  1.00  0.00     0.029 A 
ATOM     60  N   UNL     1      12.011  -5.034  -2.235  1.00  0.00    -0.354 N 
ATOM     61  C   UNL     1      12.495  -6.298  -7.468  1.00  0.00     0.074 A 
ATOM     62  C   UNL     1      11.258  -7.051  -7.444  1.00  0.00     0.031 C 
ATOM     63  C   UNL     1      12.573  -3.220  -3.362  1.00  0.00     0.029 A 
ATOM     64  C   UNL     1      12.791  -3.882  -2.095  1.00  0.00     0.049 A 
ATOM     65  H   UNL     1      11.519  -5.475  -1.504  1.00  0.00     0.167 HD
ATOM     66  C   UNL     1      12.905  -5.325  -8.333  1.00  0.00     0.031 A 
ATOM     67  C   UNL     1      13.963  -3.954  -1.385  1.00  0.00     0.031 A 
ATOM     68  C   UNL     1      13.757  -4.337  -7.666  1.00  0.00     0.049 A 
ATOM     69  C   UNL     1      15.184  -3.838  -2.231  1.00  0.00     0.074 A 
ATOM     70  C   UNL     1      13.508  -3.032  -7.266  1.00  0.00     0.029 A 
ATOM     71  N   UNL     1      14.923  -4.724  -7.021  1.00  0.00    -0.354 N 
ATOM     72  N   UNL     1      15.135  -3.840  -3.525  1.00  0.00    -0.248 NA
ATOM     73  C   UNL     1      16.547  -3.774  -1.716  1.00  0.00     0.031 C 
ATOM     74  C   UNL     1      14.502  -2.659  -6.329  1.00  0.00     0.029 A 
ATOM     75  C   UNL     1      15.377  -3.720  -6.186  1.00  0.00     0.049 A 
ATOM     76  H   UNL     1      15.366  -5.595  -7.141  1.00  0.00     0.167 HD
ATOM     77  C   UNL     1      16.395  -3.829  -4.034  1.00  0.00     0.074 A 
ATOM     78  C   UNL     1      17.250  -3.745  -2.863  1.00  0.00     0.031 C 
ATOM     79  C   UNL     1      16.580  -3.912  -5.380  1.00  0.00     0.031 A 
BRANCH  66  80
ATOM     80  C   UNL     1      12.242  -5.068  -9.672  1.00  0.00    -0.014 A 
ATOM     81  C   UNL     1      12.328  -3.797 -10.276  1.00  0.00     0.010 A 
ATOM     82  C   UNL     1      11.563  -6.059 -10.412  1.00  0.00     0.010 A 
ATOM     83  C   UNL     1      11.715  -3.507 -11.502  1.00  0.00     0.020 A 
ATOM     84  C   UNL     1      10.911  -5.776 -11.623  1.00  0.00     0.020 A 
ATOM     85  C   UNL     1      10.996  -4.497 -12.165  1.00  0.00     0.054 A 
BRANCH  85  86
ATOM     86  S   UNL     1      10.235  -4.104 -13.761  1.00  0.00     0.124 S 
ATOM     87  O   UNL     1       9.350  -2.991 -13.425  1.00  0.00    -0.237 OA
ATOM     88  O   UNL     1      11.392  -3.763 -14.582  1.00  0.00    -0.237 OA
ATOM     89  O   UNL     1       9.553  -5.342 -14.136  1.00  0.00    -0.744 OA
ENDBRANCH  85  86
ENDBRANCH  66  80
BRANCH  67  90
ATOM     90  C   UNL     1      13.906  -4.853  -0.195  1.00  0.00    -0.014 A 
ATOM     91  C   UNL     1      13.046  -4.430   0.797  1.00  0.00     0.010 A 
ATOM     92  C   UNL     1      13.850  -6.213  -0.437  1.00  0.00     0.010 A 
ATOM     93  C   UNL     1      11.834  -5.096   0.953  1.00  0.00     0.020 A 
ATOM     94  C   UNL     1      12.609  -6.849  -0.238  1.00  0.00     0.020 A 
ATOM     95  C   UNL     1      11.476  -6.185   0.177  1.00  0.00     0.054 A 
BRANCH  95  96
ATOM     96  S   UNL     1       9.492  -6.404  -0.492  1.00  0.00     0.124 S 
ATOM     97  O   UNL     1       8.752  -5.368   0.202  1.00  0.00    -0.237 OA
ATOM     98  O   UNL     1       9.575  -6.117  -1.924  1.00  0.00    -0.237 OA
ATOM     99  O   UNL     1       9.004  -7.713  -0.111  1.00  0.00    -0.744 OA
ENDBRANCH  95  96
ENDBRANCH  67  90
BRANCH  79 100
ATOM    100  C   UNL     1      17.897  -4.082  -6.078  1.00  0.00    -0.014 A 
ATOM    101  C   UNL     1      19.094  -4.438  -5.444  1.00  0.00     0.010 A 
ATOM    102  C   UNL     1      17.934  -3.935  -7.485  1.00  0.00     0.010 A 
ATOM    103  C   UNL     1      20.287  -4.544  -6.163  1.00  0.00     0.020 A 
ATOM    104  C   UNL     1      19.103  -4.103  -8.221  1.00  0.00     0.020 A 
ATOM    105  C   UNL     1      20.284  -4.367  -7.546  1.00  0.00     0.054 A 
BRANCH 105 106
ATOM    106  S   UNL     1      21.837  -4.513  -8.448  1.00  0.00     0.124 S 
ATOM    107  O   UNL     1      22.492  -3.249  -8.120  1.00  0.00    -0.237 OA
ATOM    108  O   UNL     1      22.440  -5.704  -7.854  1.00  0.00    -0.237 OA
ATOM    109  O   UNL     1      21.419  -4.660  -9.840  1.00  0.00    -0.744 OA
ENDBRANCH 105 106
ENDBRANCH  79 100
ENDBRANCH  53  54
ENDBRANCH  45  48
ENDBRANCH  43  44
ENDBRANCH  42  43
ENDBRANCH   1  42
TORSDOF 20
