REMARK SMILES Cc1cccc(NC(=O)COc2ccc(N3C[C@@H](C(=O)NCCCCCCNC(=O)c4ccc(-c5c6nc(c(-c7ccc(S(=O)(=O)[O-])cc7)c7ccc([nH]7)c(-c7ccc(S(=O)(=O)[O-])cc7)c7nc(c(-c8ccc(S(=O)(=O)[O-])cc8)c8ccc5[nH]8)C=C7)C=C6)cc4)CC3=O)cc2)c1
REMARK SMILES IDX 23 1 22 2 21 3 19 4 20 5 18 7 16 8 17 9 92 10 91 11 93 12
REMARK SMILES IDX 15 13 12 14 13 15 95 16 14 17 94 18 11 19 10 20 8 21 7 22
REMARK SMILES IDX 9 24 6 25 1 26 2 27 3 28 96 29 4 30 5 31 24 32 25 33 26 34
REMARK SMILES IDX 27 35 28 36 29 37 30 39 31 40 32 41 90 42 33 43 89 44 34 45
REMARK SMILES IDX 35 46 36 47 83 48 37 49 88 50 82 51 84 52 38 53 87 54 81 55
REMARK SMILES IDX 80 56 39 58 69 59 50 60 68 61 51 62 54 63 67 64 85 65 52 66
REMARK SMILES IDX 53 67 66 69 86 70 55 71 40 72 41 73 49 74 42 75 48 76 43 77
REMARK SMILES IDX 44 78 45 79 46 80 47 81 70 82 71 83 79 84 72 85 78 86 73 87
REMARK SMILES IDX 74 88 75 89 76 90 77 91 56 92 57 93 65 94 58 95 64 96 59 97
REMARK SMILES IDX 60 98 61 99 62 100 63 101
REMARK H PARENT 21 6 7 23 28 38 84 57 54 68
REMARK Flexibility Score: inf
ROOT
ATOM      1  C   UNL     1      -6.897   6.673  -7.937  1.00  0.00     0.021 C 
ENDROOT
BRANCH   1   2
ATOM      2  C   UNL     1      -7.168   5.228  -7.520  1.00  0.00     0.116 C 
BRANCH   2   3
ATOM      3  N   UNL     1      -7.562   4.390  -8.640  1.00  0.00    -0.356 N 
ATOM      4  C   UNL     1      -7.053   3.236  -9.138  1.00  0.00     0.225 C 
ATOM      5  O   UNL     1      -7.679   2.684 -10.049  1.00  0.00    -0.275 OA
ATOM      6  H   UNL     1      -8.347   4.725  -9.132  1.00  0.00     0.163 HD
BRANCH   4   7
ATOM      7  C   UNL     1      -5.799   2.575  -8.600  1.00  0.00     0.107 C 
ATOM      8  N   UNL     1      -4.824   2.383  -6.456  1.00  0.00    -0.312 N 
ATOM      9  C   UNL     1      -5.994   2.004  -7.210  1.00  0.00     0.139 C 
ATOM     10  C   UNL     1      -3.984   3.237  -7.174  1.00  0.00     0.227 C 
ATOM     11  C   UNL     1      -4.559   3.449  -8.551  1.00  0.00     0.116 C 
ATOM     12  O   UNL     1      -2.924   3.731  -6.821  1.00  0.00    -0.274 OA
BRANCH   8  13
ATOM     13  C   UNL     1      -4.624   1.970  -5.113  1.00  0.00     0.044 A 
ATOM     14  C   UNL     1      -4.237   1.149  -2.437  1.00  0.00     0.120 A 
ATOM     15  C   UNL     1      -4.972   0.360  -3.317  1.00  0.00     0.048 A 
ATOM     16  C   UNL     1      -3.675   2.335  -2.893  1.00  0.00     0.048 A 
ATOM     17  C   UNL     1      -5.190   0.780  -4.635  1.00  0.00     0.030 A 
ATOM     18  C   UNL     1      -3.858   2.733  -4.224  1.00  0.00     0.030 A 
BRANCH  14  19
ATOM     19  O   UNL     1      -4.043   0.632  -1.190  1.00  0.00    -0.484 OA
BRANCH  19  20
ATOM     20  C   UNL     1      -4.242   1.528  -0.110  1.00  0.00     0.329 C 
BRANCH  20  21
ATOM     21  C   UNL     1      -3.135   2.505   0.287  1.00  0.00     0.262 C 
ATOM     22  N   UNL     1      -1.818   2.168   0.359  1.00  0.00    -0.323 N 
ATOM     23  H   UNL     1      -1.235   2.946   0.514  1.00  0.00     0.170 HD
ATOM     24  O   UNL     1      -3.426   3.678   0.558  1.00  0.00    -0.271 OA
BRANCH  22  25
ATOM     25  C   UNL     1      -1.102   0.964   0.263  1.00  0.00     0.041 A 
ATOM     26  C   UNL     1       2.607   0.104  -0.097  1.00  0.00     0.044 C 
ATOM     27  C   UNL     1       1.121  -0.042   0.041  1.00  0.00    -0.049 A 
ATOM     28  C   UNL     1       0.540  -1.311   0.068  1.00  0.00     0.003 A 
ATOM     29  C   UNL     1       0.292   1.085   0.143  1.00  0.00     0.029 A 
ATOM     30  C   UNL     1      -0.839  -1.444   0.209  1.00  0.00     0.002 A 
ATOM     31  C   UNL     1      -1.654  -0.312   0.318  1.00  0.00     0.026 A 
ENDBRANCH  22  25
ENDBRANCH  20  21
ENDBRANCH  19  20
ENDBRANCH  14  19
ENDBRANCH   8  13
ENDBRANCH   4   7
ENDBRANCH   2   3
ENDBRANCH   1   2
BRANCH   1  32
ATOM     32  C   UNL     1      -8.103   7.453  -8.484  1.00  0.00     0.002 C 
BRANCH  32  33
ATOM     33  C   UNL     1      -9.367   7.511  -7.610  1.00  0.00     0.002 C 
BRANCH  33  34
ATOM     34  C   UNL     1      -9.182   7.859  -6.130  1.00  0.00     0.021 C 
BRANCH  34  35
ATOM     35  C   UNL     1      -8.514   9.200  -5.870  1.00  0.00     0.116 C 
BRANCH  35  36
ATOM     36  N   UNL     1      -9.407  10.274  -5.463  1.00  0.00    -0.352 N 
ATOM     37  C   UNL     1      -8.917  11.344  -4.712  1.00  0.00     0.251 C 
ATOM     38  H   UNL     1     -10.358  10.246  -5.718  1.00  0.00     0.163 HD
ATOM     39  O   UNL     1      -9.298  11.650  -3.602  1.00  0.00    -0.269 OA
BRANCH  37  40
ATOM     40  C   UNL     1      -7.821  12.087  -5.378  1.00  0.00     0.039 A 
ATOM     41  C   UNL     1      -8.107  13.242  -6.108  1.00  0.00     0.014 A 
ATOM     42  C   UNL     1      -6.581  11.458  -5.476  1.00  0.00     0.014 A 
ATOM     43  C   UNL     1      -7.190  13.684  -7.063  1.00  0.00     0.010 A 
ATOM     44  C   UNL     1      -5.729  11.832  -6.492  1.00  0.00     0.010 A 
ATOM     45  C   UNL     1      -6.046  12.924  -7.310  1.00  0.00    -0.014 A 
BRANCH  45  46
ATOM     46  C   UNL     1      -5.136  13.135  -8.431  1.00  0.00     0.031 A 
ATOM     47  C   UNL     1      -3.785  13.691  -8.194  1.00  0.00     0.074 A 
ATOM     48  C   UNL     1      -5.457  12.683  -9.664  1.00  0.00     0.049 A 
ATOM     49  N   UNL     1      -3.043  14.214  -9.113  1.00  0.00    -0.248 NA
ATOM     50  C   UNL     1      -3.171  13.732  -6.871  1.00  0.00     0.031 C 
ATOM     51  C   UNL     1      -4.546  12.483 -10.789  1.00  0.00     0.029 A 
ATOM     52  N   UNL     1      -6.721  12.516 -10.228  1.00  0.00    -0.354 N 
ATOM     53  C   UNL     1      -1.777  14.348  -8.591  1.00  0.00     0.074 A 
ATOM     54  C   UNL     1      -1.929  14.120  -7.172  1.00  0.00     0.031 C 
ATOM     55  C   UNL     1      -5.254  12.538 -11.926  1.00  0.00     0.029 A 
ATOM     56  C   UNL     1      -6.607  12.927 -11.568  1.00  0.00     0.049 A 
ATOM     57  H   UNL     1      -7.530  12.178  -9.779  1.00  0.00     0.167 HD
ATOM     58  C   UNL     1      -0.712  14.499  -9.429  1.00  0.00     0.031 A 
ATOM     59  C   UNL     1      -7.299  13.981 -12.097  1.00  0.00     0.031 A 
ATOM     60  C   UNL     1      -1.116  14.603 -10.832  1.00  0.00     0.049 A 
ATOM     61  C   UNL     1      -6.404  15.077 -12.657  1.00  0.00     0.074 A 
ATOM     62  C   UNL     1      -1.033  13.775 -11.940  1.00  0.00     0.029 A 
ATOM     63  N   UNL     1      -1.962  15.637 -11.199  1.00  0.00    -0.354 N 
ATOM     64  N   UNL     1      -5.100  15.033 -12.669  1.00  0.00    -0.248 NA
ATOM     65  C   UNL     1      -6.912  16.359 -13.151  1.00  0.00     0.031 C 
ATOM     66  C   UNL     1      -1.829  14.338 -12.981  1.00  0.00     0.029 A 
ATOM     67  C   UNL     1      -2.387  15.509 -12.505  1.00  0.00     0.049 A 
ATOM     68  H   UNL     1      -2.226  16.374 -10.601  1.00  0.00     0.167 HD
ATOM     69  C   UNL     1      -4.600  16.245 -13.067  1.00  0.00     0.074 A 
ATOM     70  C   UNL     1      -5.773  17.037 -13.383  1.00  0.00     0.031 C 
ATOM     71  C   UNL     1      -3.265  16.532 -13.048  1.00  0.00     0.031 A 
BRANCH  58  72
ATOM     72  C   UNL     1       0.724  14.321  -8.985  1.00  0.00    -0.014 A 
ATOM     73  C   UNL     1       1.696  13.887  -9.910  1.00  0.00     0.010 A 
ATOM     74  C   UNL     1       1.175  14.522  -7.666  1.00  0.00     0.010 A 
ATOM     75  C   UNL     1       3.004  13.561  -9.521  1.00  0.00     0.020 A 
ATOM     76  C   UNL     1       2.467  14.161  -7.252  1.00  0.00     0.020 A 
ATOM     77  C   UNL     1       3.372  13.667  -8.183  1.00  0.00     0.054 A 
BRANCH  77  78
ATOM     78  S   UNL     1       5.032  13.146  -7.678  1.00  0.00     0.124 S 
ATOM     79  O   UNL     1       5.096  11.773  -8.172  1.00  0.00    -0.237 OA
ATOM     80  O   UNL     1       5.886  14.106  -8.370  1.00  0.00    -0.237 OA
ATOM     81  O   UNL     1       5.006  13.274  -6.222  1.00  0.00    -0.744 OA
ENDBRANCH  77  78
ENDBRANCH  58  72
BRANCH  59  82
ATOM     82  C   UNL     1      -8.632  14.192 -11.460  1.00  0.00    -0.014 A 
ATOM     83  C   UNL     1      -9.609  13.193 -11.672  1.00  0.00     0.010 A 
ATOM     84  C   UNL     1      -8.759  15.041 -10.347  1.00  0.00     0.010 A 
ATOM     85  C   UNL     1     -10.561  12.912 -10.688  1.00  0.00     0.020 A 
ATOM     86  C   UNL     1      -9.724  14.768  -9.367  1.00  0.00     0.020 A 
ATOM     87  C   UNL     1     -10.556  13.652  -9.507  1.00  0.00     0.054 A 
BRANCH  87  88
ATOM     88  S   UNL     1     -11.514  13.025  -8.091  1.00  0.00     0.124 S 
ATOM     89  O   UNL     1     -12.837  12.820  -8.670  1.00  0.00    -0.237 OA
ATOM     90  O   UNL     1     -10.782  11.807  -7.735  1.00  0.00    -0.237 OA
ATOM     91  O   UNL     1     -11.414  14.107  -7.117  1.00  0.00    -0.744 OA
ENDBRANCH  87  88
ENDBRANCH  59  82
BRANCH  71  92
ATOM     92  C   UNL     1      -2.664  17.843 -13.484  1.00  0.00    -0.014 A 
ATOM     93  C   UNL     1      -3.112  18.550 -14.611  1.00  0.00     0.010 A 
ATOM     94  C   UNL     1      -1.513  18.340 -12.827  1.00  0.00     0.010 A 
ATOM     95  C   UNL     1      -2.475  19.731 -15.024  1.00  0.00     0.020 A 
ATOM     96  C   UNL     1      -0.861  19.503 -13.240  1.00  0.00     0.020 A 
ATOM     97  C   UNL     1      -1.358  20.204 -14.329  1.00  0.00     0.054 A 
BRANCH  97  98
ATOM     98  S   UNL     1      -0.530  21.711 -14.898  1.00  0.00     0.124 S 
ATOM     99  O   UNL     1      -0.427  21.494 -16.339  1.00  0.00    -0.237 OA
ATOM    100  O   UNL     1      -1.474  22.747 -14.486  1.00  0.00    -0.237 OA
ATOM    101  O   UNL     1       0.741  21.705 -14.180  1.00  0.00    -0.744 OA
ENDBRANCH  97  98
ENDBRANCH  71  92
ENDBRANCH  45  46
ENDBRANCH  37  40
ENDBRANCH  35  36
ENDBRANCH  34  35
ENDBRANCH  33  34
ENDBRANCH  32  33
ENDBRANCH   1  32
TORSDOF 21
