REMARK SMILES COc1cccc(CC2(CO)CCN(c3nc(C)ccc3C(=O)NCCCCCCNC(=O)c3ccc(-c4c5nc(c(-c6ccc(S(=O)(=O)[O-])cc6)c6ccc([nH]6)c(-c6ccc(S(=O)(=O)[O-])cc6)c6nc(c(-c7ccc(S(=O)(=O)[O-])cc7)c7ccc4[nH]7)C=C6)C=C5)cc3)CC2)c1
REMARK SMILES IDX 27 1 26 2 25 3 24 4 22 5 23 6 21 8 15 9 16 10 17 11 20 12
REMARK SMILES IDX 18 13 19 14 14 15 9 16 12 17 95 18 13 19 94 20 8 21 7 22
REMARK SMILES IDX 3 23 4 24 96 25 5 26 6 27 2 28 1 29 10 30 11 31 28 33 29 34
REMARK SMILES IDX 30 35 31 36 32 37 33 39 34 40 35 41 93 42 36 43 92 44 37 45
REMARK SMILES IDX 38 46 39 47 86 48 40 49 91 50 85 51 87 52 41 53 90 54 84 55
REMARK SMILES IDX 83 56 42 58 72 59 53 60 71 61 54 62 57 63 70 64 88 65 55 66
REMARK SMILES IDX 56 67 69 69 89 70 58 71 43 72 44 73 52 74 45 75 51 76 46 77
REMARK SMILES IDX 47 78 48 79 49 80 50 81 73 82 74 83 82 84 75 85 81 86 76 87
REMARK SMILES IDX 77 88 78 89 79 90 80 91 59 92 60 93 68 94 61 95 67 96 62 97
REMARK SMILES IDX 63 98 64 99 65 100 66 101
REMARK H PARENT 24 7 11 32 31 38 87 57 57 68
REMARK Flexibility Score: inf
ROOT
ATOM      1  C   UNL     1      -2.214  -1.351  -6.622  1.00  0.00     0.002 C 
ENDROOT
BRANCH   1   2
ATOM      2  C   UNL     1      -1.578  -0.297  -7.544  1.00  0.00     0.021 C 
BRANCH   2   3
ATOM      3  C   UNL     1      -1.839   1.136  -7.085  1.00  0.00     0.116 C 
BRANCH   3   4
ATOM      4  N   UNL     1      -0.972   1.470  -5.978  1.00  0.00    -0.352 N 
ATOM      5  C   UNL     1       0.186   2.173  -5.774  1.00  0.00     0.255 C 
ATOM      6  O   UNL     1       0.482   2.209  -4.582  1.00  0.00    -0.269 OA
ATOM      7  H   UNL     1      -1.306   1.084  -5.136  1.00  0.00     0.163 HD
BRANCH   5   8
ATOM      8  C   UNL     1       0.991   2.907  -6.810  1.00  0.00     0.082 A 
ATOM      9  C   UNL     1       2.055   3.771  -6.462  1.00  0.00     0.141 A 
ATOM     10  N   UNL     1       2.543   4.677  -7.362  1.00  0.00    -0.235 NA
ATOM     11  C   UNL     1       2.074   4.713  -8.623  1.00  0.00     0.040 A 
ATOM     12  C   UNL     1       0.636   2.877  -8.165  1.00  0.00     0.019 A 
ATOM     13  C   UNL     1       2.627   5.779  -9.515  1.00  0.00     0.067 C 
ATOM     14  C   UNL     1       1.155   3.795  -9.076  1.00  0.00     0.024 A 
BRANCH   9  15
ATOM     15  N   UNL     1       2.754   3.812  -5.274  1.00  0.00    -0.356 N 
ATOM     16  C   UNL     1       4.571   4.146  -2.997  1.00  0.00     0.001 C 
ATOM     17  C   UNL     1       3.933   5.341  -3.755  1.00  0.00     0.031 C 
ATOM     18  C   UNL     1       4.523   2.872  -3.884  1.00  0.00     0.031 C 
ATOM     19  C   UNL     1       2.649   5.053  -4.533  1.00  0.00     0.119 C 
ATOM     20  C   UNL     1       3.181   2.620  -4.564  1.00  0.00     0.119 C 
BRANCH  16  21
ATOM     21  C   UNL     1       3.972   3.940  -1.557  1.00  0.00     0.045 C 
BRANCH  21  22
ATOM     22  C   UNL     1       2.527   3.535  -1.391  1.00  0.00    -0.044 A 
ATOM     23  C   UNL     1       0.831   1.812  -1.143  1.00  0.00     0.119 A 
ATOM     24  C   UNL     1      -0.171   2.760  -1.331  1.00  0.00     0.046 A 
ATOM     25  C   UNL     1       2.176   2.191  -1.185  1.00  0.00     0.050 A 
ATOM     26  C   UNL     1       0.165   4.105  -1.463  1.00  0.00     0.004 A 
ATOM     27  C   UNL     1       1.506   4.492  -1.456  1.00  0.00     0.004 A 
BRANCH  23  28
ATOM     28  O   UNL     1       0.434   0.507  -1.021  1.00  0.00    -0.497 OA
ATOM     29  C   UNL     1       0.929  -0.092   0.172  1.00  0.00     0.278 C 
ENDBRANCH  23  28
ENDBRANCH  21  22
ENDBRANCH  16  21
BRANCH  16  30
ATOM     30  C   UNL     1       6.085   4.463  -2.789  1.00  0.00     0.163 C 
BRANCH  30  31
ATOM     31  O   UNL     1       6.291   5.627  -1.996  1.00  0.00    -0.396 OA
ATOM     32  H   UNL     1       5.901   6.395  -2.443  1.00  0.00     0.210 HD
ENDBRANCH  30  31
ENDBRANCH  16  30
ENDBRANCH   9  15
ENDBRANCH   5   8
ENDBRANCH   3   4
ENDBRANCH   2   3
ENDBRANCH   1   2
BRANCH   1  33
ATOM     33  C   UNL     1      -3.735  -1.231  -6.451  1.00  0.00     0.002 C 
BRANCH  33  34
ATOM     34  C   UNL     1      -4.521  -1.122  -7.760  1.00  0.00     0.021 C 
BRANCH  34  35
ATOM     35  C   UNL     1      -4.351  -2.321  -8.685  1.00  0.00     0.116 C 
BRANCH  35  36
ATOM     36  N   UNL     1      -4.913  -3.528  -8.101  1.00  0.00    -0.352 N 
ATOM     37  C   UNL     1      -5.891  -4.351  -8.599  1.00  0.00     0.251 C 
ATOM     38  H   UNL     1      -4.540  -3.790  -7.228  1.00  0.00     0.163 HD
ATOM     39  O   UNL     1      -6.426  -5.183  -7.875  1.00  0.00    -0.269 OA
BRANCH  37  40
ATOM     40  C   UNL     1      -6.301  -4.215 -10.012  1.00  0.00     0.039 A 
ATOM     41  C   UNL     1      -7.661  -4.207 -10.330  1.00  0.00     0.014 A 
ATOM     42  C   UNL     1      -5.339  -4.092 -11.019  1.00  0.00     0.014 A 
ATOM     43  C   UNL     1      -8.057  -4.017 -11.655  1.00  0.00     0.010 A 
ATOM     44  C   UNL     1      -5.736  -3.829 -12.326  1.00  0.00     0.010 A 
ATOM     45  C   UNL     1      -7.099  -3.794 -12.658  1.00  0.00    -0.014 A 
BRANCH  45  46
ATOM     46  C   UNL     1      -7.498  -3.524 -14.062  1.00  0.00     0.031 A 
ATOM     47  C   UNL     1      -7.110  -4.484 -15.154  1.00  0.00     0.074 A 
ATOM     48  C   UNL     1      -8.157  -2.386 -14.361  1.00  0.00     0.049 A 
ATOM     49  N   UNL     1      -7.301  -4.386 -16.444  1.00  0.00    -0.248 NA
ATOM     50  C   UNL     1      -6.392  -5.704 -14.744  1.00  0.00     0.031 C 
ATOM     51  C   UNL     1      -8.566  -1.364 -13.395  1.00  0.00     0.029 A 
ATOM     52  N   UNL     1      -8.594  -1.895 -15.566  1.00  0.00    -0.354 N 
ATOM     53  C   UNL     1      -6.724  -5.523 -16.999  1.00  0.00     0.074 A 
ATOM     54  C   UNL     1      -6.124  -6.266 -15.913  1.00  0.00     0.031 C 
ATOM     55  C   UNL     1      -9.219  -0.384 -14.040  1.00  0.00     0.029 A 
ATOM     56  C   UNL     1      -9.233  -0.681 -15.469  1.00  0.00     0.049 A 
ATOM     57  H   UNL     1      -8.463  -2.368 -16.419  1.00  0.00     0.167 HD
ATOM     58  C   UNL     1      -6.715  -5.924 -18.293  1.00  0.00     0.031 A 
ATOM     59  C   UNL     1      -9.761   0.109 -16.424  1.00  0.00     0.031 A 
ATOM     60  C   UNL     1      -7.314  -5.181 -19.369  1.00  0.00     0.049 A 
ATOM     61  C   UNL     1      -9.695  -0.336 -17.860  1.00  0.00     0.074 A 
ATOM     62  C   UNL     1      -7.389  -5.518 -20.709  1.00  0.00     0.029 A 
ATOM     63  N   UNL     1      -7.942  -3.952 -19.230  1.00  0.00    -0.354 N 
ATOM     64  N   UNL     1      -9.191  -1.440 -18.358  1.00  0.00    -0.248 NA
ATOM     65  C   UNL     1     -10.274   0.569 -18.862  1.00  0.00     0.031 C 
ATOM     66  C   UNL     1      -8.012  -4.467 -21.389  1.00  0.00     0.029 A 
ATOM     67  C   UNL     1      -8.384  -3.505 -20.463  1.00  0.00     0.049 A 
ATOM     68  H   UNL     1      -8.056  -3.469 -18.380  1.00  0.00     0.167 HD
ATOM     69  C   UNL     1      -9.423  -1.377 -19.728  1.00  0.00     0.074 A 
ATOM     70  C   UNL     1     -10.123  -0.134 -19.977  1.00  0.00     0.031 C 
ATOM     71  C   UNL     1      -9.086  -2.268 -20.693  1.00  0.00     0.031 A 
BRANCH  58  72
ATOM     72  C   UNL     1      -6.034  -7.229 -18.613  1.00  0.00    -0.014 A 
ATOM     73  C   UNL     1      -6.580  -8.455 -18.188  1.00  0.00     0.010 A 
ATOM     74  C   UNL     1      -4.859  -7.238 -19.386  1.00  0.00     0.010 A 
ATOM     75  C   UNL     1      -5.943  -9.659 -18.494  1.00  0.00     0.020 A 
ATOM     76  C   UNL     1      -4.234  -8.443 -19.721  1.00  0.00     0.020 A 
ATOM     77  C   UNL     1      -4.773  -9.646 -19.259  1.00  0.00     0.054 A 
BRANCH  77  78
ATOM     78  S   UNL     1      -3.983 -11.228 -19.662  1.00  0.00     0.124 S 
ATOM     79  O   UNL     1      -3.440 -11.632 -18.367  1.00  0.00    -0.237 OA
ATOM     80  O   UNL     1      -5.102 -12.029 -20.150  1.00  0.00    -0.237 OA
ATOM     81  O   UNL     1      -2.987 -10.873 -20.670  1.00  0.00    -0.744 OA
ENDBRANCH  77  78
ENDBRANCH  58  72
BRANCH  59  82
ATOM     82  C   UNL     1     -10.404   1.402 -16.056  1.00  0.00    -0.014 A 
ATOM     83  C   UNL     1     -11.791   1.578 -16.207  1.00  0.00     0.010 A 
ATOM     84  C   UNL     1      -9.631   2.469 -15.562  1.00  0.00     0.010 A 
ATOM     85  C   UNL     1     -12.388   2.804 -15.900  1.00  0.00     0.020 A 
ATOM     86  C   UNL     1     -10.229   3.686 -15.223  1.00  0.00     0.020 A 
ATOM     87  C   UNL     1     -11.602   3.851 -15.410  1.00  0.00     0.054 A 
BRANCH  87  88
ATOM     88  S   UNL     1     -12.403   5.424 -14.991  1.00  0.00     0.124 S 
ATOM     89  O   UNL     1     -12.711   5.967 -16.310  1.00  0.00    -0.237 OA
ATOM     90  O   UNL     1     -13.552   4.992 -14.199  1.00  0.00    -0.237 OA
ATOM     91  O   UNL     1     -11.374   6.142 -14.243  1.00  0.00    -0.744 OA
ENDBRANCH  87  88
ENDBRANCH  59  82
BRANCH  71  92
ATOM     92  C   UNL     1      -9.505  -1.955 -22.105  1.00  0.00    -0.014 A 
ATOM     93  C   UNL     1      -8.879  -0.936 -22.844  1.00  0.00     0.010 A 
ATOM     94  C   UNL     1     -10.495  -2.740 -22.723  1.00  0.00     0.010 A 
ATOM     95  C   UNL     1      -9.254  -0.692 -24.168  1.00  0.00     0.020 A 
ATOM     96  C   UNL     1     -10.851  -2.520 -24.056  1.00  0.00     0.020 A 
ATOM     97  C   UNL     1     -10.234  -1.489 -24.767  1.00  0.00     0.054 A 
BRANCH  97  98
ATOM     98  S   UNL     1     -10.658  -1.190 -26.505  1.00  0.00     0.124 S 
ATOM     99  O   UNL     1     -11.393   0.069 -26.427  1.00  0.00    -0.237 OA
ATOM    100  O   UNL     1      -9.346  -1.114 -27.144  1.00  0.00    -0.237 OA
ATOM    101  O   UNL     1     -11.457  -2.357 -26.873  1.00  0.00    -0.744 OA
ENDBRANCH  97  98
ENDBRANCH  71  92
ENDBRANCH  45  46
ENDBRANCH  37  40
ENDBRANCH  35  36
ENDBRANCH  34  35
ENDBRANCH  33  34
ENDBRANCH   1  33
TORSDOF 22
