REMARK SMILES CC(C)[C@H]([NH2+]Cc1ccc(O)cn1)C(=O)NCCCCCCNC(=O)c1ccc(-c2c3nc(c(-c4ccc(S(=O)(=O)[O-])cc4)c4ccc([nH]4)c(-c4ccc(S(=O)(=O)[O-])cc4)c4nc(c(-c5ccc(S(=O)(=O)[O-])cc5)c5ccc2[nH]5)C=C4)C=C3)cc1
REMARK SMILES IDX 19 1 18 2 17 3 16 4 14 5 15 6 4 8 2 9 1 10 3 11 5 12 6 15
REMARK SMILES IDX 7 16 8 17 13 18 9 19 12 20 10 21 11 22 20 24 21 25 22 26
REMARK SMILES IDX 23 27 24 28 25 30 26 31 27 32 85 33 28 34 84 35 29 36 30 37
REMARK SMILES IDX 31 38 78 39 32 40 83 41 77 42 79 43 33 44 82 45 76 46 75 47
REMARK SMILES IDX 34 49 64 50 45 51 63 52 46 53 49 54 62 55 80 56 47 57 48 58
REMARK SMILES IDX 61 60 81 61 50 62 35 63 36 64 44 65 37 66 43 67 38 68 39 69
REMARK SMILES IDX 40 70 41 71 42 72 65 73 66 74 74 75 67 76 73 77 68 78 69 79
REMARK SMILES IDX 70 80 71 81 72 82 51 83 52 84 60 85 53 86 59 87 54 88 55 89
REMARK SMILES IDX 56 90 57 91 58 92
REMARK H PARENT 16 7 5 13 5 14 11 23 23 29 79 48 49 59
REMARK Flexibility Score: inf
ROOT
ATOM      1  C   UNL     1       0.309   1.679  -6.416  1.00  0.00     0.002 C 
ENDROOT
BRANCH   1   2
ATOM      2  C   UNL     1       0.919   1.391  -5.043  1.00  0.00     0.021 C 
BRANCH   2   3
ATOM      3  C   UNL     1      -0.046   1.518  -3.871  1.00  0.00     0.116 C 
BRANCH   3   4
ATOM      4  N   UNL     1      -1.036   0.459  -3.835  1.00  0.00    -0.351 N 
ATOM      5  C   UNL     1      -1.552  -0.221  -2.768  1.00  0.00     0.278 C 
ATOM      6  O   UNL     1      -2.489  -0.996  -2.989  1.00  0.00    -0.268 OA
ATOM      7  H   UNL     1      -1.389   0.188  -4.713  1.00  0.00     0.163 HD
BRANCH   5   8
ATOM      8  C   UNL     1      -1.012  -0.040  -1.322  1.00  0.00     0.275 C 
BRANCH   8   9
ATOM      9  C   UNL     1      -1.663   1.175  -0.589  1.00  0.00     0.051 C 
ATOM     10  C   UNL     1      -1.050   1.408   0.799  1.00  0.00     0.014 C 
ATOM     11  C   UNL     1      -1.675   2.509  -1.335  1.00  0.00     0.014 C 
ENDBRANCH   8   9
BRANCH   8  12
ATOM     12  N   UNL     1       0.468  -0.085  -1.278  1.00  0.00    -0.331 N 
ATOM     13  H   UNL     1       0.775   0.120  -0.327  1.00  0.00     0.347 HD
ATOM     14  H   UNL     1       0.823   0.606  -1.939  1.00  0.00     0.347 HD
BRANCH  12  15
ATOM     15  C   UNL     1       0.994  -1.407  -1.674  1.00  0.00     0.318 C 
BRANCH  15  16
ATOM     16  C   UNL     1       2.513  -1.409  -1.702  1.00  0.00     0.095 A 
ATOM     17  C   UNL     1       3.189  -0.512  -2.532  1.00  0.00     0.033 A 
ATOM     18  N   UNL     1       3.166  -2.282  -0.896  1.00  0.00    -0.251 NA
ATOM     19  C   UNL     1       4.580  -0.493  -2.539  1.00  0.00     0.050 A 
ATOM     20  C   UNL     1       4.522  -2.245  -0.925  1.00  0.00     0.157 A 
ATOM     21  C   UNL     1       5.257  -1.377  -1.717  1.00  0.00     0.133 A 
BRANCH  21  22
ATOM     22  O   UNL     1       6.617  -1.405  -1.666  1.00  0.00    -0.506 OA
ATOM     23  H   UNL     1       7.118  -0.820  -2.199  1.00  0.00     0.293 HD
ENDBRANCH  21  22
ENDBRANCH  15  16
ENDBRANCH  12  15
ENDBRANCH   8  12
ENDBRANCH   5   8
ENDBRANCH   3   4
ENDBRANCH   2   3
ENDBRANCH   1   2
BRANCH   1  24
ATOM     24  C   UNL     1      -0.439   3.009  -6.547  1.00  0.00     0.002 C 
BRANCH  24  25
ATOM     25  C   UNL     1       0.333   4.255  -6.105  1.00  0.00     0.021 C 
BRANCH  25  26
ATOM     26  C   UNL     1       1.698   4.441  -6.757  1.00  0.00     0.116 C 
BRANCH  26  27
ATOM     27  N   UNL     1       1.619   4.506  -8.205  1.00  0.00    -0.352 N 
ATOM     28  C   UNL     1       2.165   5.426  -9.065  1.00  0.00     0.251 C 
ATOM     29  H   UNL     1       1.098   3.788  -8.631  1.00  0.00     0.163 HD
ATOM     30  O   UNL     1       1.853   5.413 -10.251  1.00  0.00    -0.269 OA
BRANCH  28  31
ATOM     31  C   UNL     1       3.115   6.440  -8.556  1.00  0.00     0.039 A 
ATOM     32  C   UNL     1       2.993   7.759  -8.998  1.00  0.00     0.014 A 
ATOM     33  C   UNL     1       4.130   6.091  -7.660  1.00  0.00     0.014 A 
ATOM     34  C   UNL     1       3.863   8.736  -8.510  1.00  0.00     0.010 A 
ATOM     35  C   UNL     1       4.943   7.080  -7.114  1.00  0.00     0.010 A 
ATOM     36  C   UNL     1       4.832   8.409  -7.547  1.00  0.00    -0.014 A 
BRANCH  36  37
ATOM     37  C   UNL     1       5.764   9.435  -7.012  1.00  0.00     0.031 A 
ATOM     38  C   UNL     1       7.245   9.303  -7.257  1.00  0.00     0.074 A 
ATOM     39  C   UNL     1       5.289  10.459  -6.275  1.00  0.00     0.049 A 
ATOM     40  N   UNL     1       8.223  10.061  -6.833  1.00  0.00    -0.248 NA
ATOM     41  C   UNL     1       7.687   8.153  -8.065  1.00  0.00     0.031 C 
ATOM     42  C   UNL     1       3.880  10.684  -5.943  1.00  0.00     0.029 A 
ATOM     43  N   UNL     1       5.941  11.504  -5.669  1.00  0.00    -0.354 N 
ATOM     44  C   UNL     1       9.390   9.476  -7.310  1.00  0.00     0.074 A 
ATOM     45  C   UNL     1       9.005   8.266  -8.001  1.00  0.00     0.031 C 
ATOM     46  C   UNL     1       3.772  11.813  -5.224  1.00  0.00     0.029 A 
ATOM     47  C   UNL     1       5.103  12.369  -5.004  1.00  0.00     0.049 A 
ATOM     48  H   UNL     1       6.918  11.623  -5.707  1.00  0.00     0.167 HD
ATOM     49  C   UNL     1      10.666   9.918  -7.207  1.00  0.00     0.031 A 
ATOM     50  C   UNL     1       5.377  13.481  -4.295  1.00  0.00     0.031 A 
ATOM     51  C   UNL     1      11.045  11.128  -6.528  1.00  0.00     0.049 A 
ATOM     52  C   UNL     1       6.807  13.936  -4.170  1.00  0.00     0.074 A 
ATOM     53  C   UNL     1      12.306  11.683  -6.399  1.00  0.00     0.029 A 
ATOM     54  N   UNL     1      10.166  11.973  -5.868  1.00  0.00    -0.354 N 
ATOM     55  N   UNL     1       7.892  13.394  -4.670  1.00  0.00    -0.248 NA
ATOM     56  C   UNL     1       7.048  15.162  -3.398  1.00  0.00     0.031 C 
ATOM     57  C   UNL     1      12.198  12.834  -5.614  1.00  0.00     0.029 A 
ATOM     58  C   UNL     1      10.860  13.036  -5.314  1.00  0.00     0.049 A 
ATOM     59  H   UNL     1       9.193  11.838  -5.803  1.00  0.00     0.167 HD
ATOM     60  C   UNL     1       8.938  14.236  -4.307  1.00  0.00     0.074 A 
ATOM     61  C   UNL     1       8.353  15.328  -3.556  1.00  0.00     0.031 C 
ATOM     62  C   UNL     1      10.262  14.120  -4.577  1.00  0.00     0.031 A 
BRANCH  49  63
ATOM     63  C   UNL     1      11.747   9.084  -7.846  1.00  0.00    -0.014 A 
ATOM     64  C   UNL     1      11.843   8.968  -9.246  1.00  0.00     0.010 A 
ATOM     65  C   UNL     1      12.707   8.443  -7.042  1.00  0.00     0.010 A 
ATOM     66  C   UNL     1      12.850   8.192  -9.826  1.00  0.00     0.020 A 
ATOM     67  C   UNL     1      13.736   7.693  -7.619  1.00  0.00     0.020 A 
ATOM     68  C   UNL     1      13.790   7.559  -9.008  1.00  0.00     0.054 A 
BRANCH  68  69
ATOM     69  S   UNL     1      15.101   6.581  -9.791  1.00  0.00     0.124 S 
ATOM     70  O   UNL     1      14.360   5.422 -10.281  1.00  0.00    -0.237 OA
ATOM     71  O   UNL     1      15.603   7.487 -10.821  1.00  0.00    -0.237 OA
ATOM     72  O   UNL     1      16.031   6.308  -8.698  1.00  0.00    -0.744 OA
ENDBRANCH  68  69
ENDBRANCH  49  63
BRANCH  50  73
ATOM     73  C   UNL     1       4.274  14.256  -3.660  1.00  0.00    -0.014 A 
ATOM     74  C   UNL     1       3.945  15.543  -4.123  1.00  0.00     0.010 A 
ATOM     75  C   UNL     1       3.552  13.716  -2.580  1.00  0.00     0.010 A 
ATOM     76  C   UNL     1       2.939  16.286  -3.500  1.00  0.00     0.020 A 
ATOM     77  C   UNL     1       2.523  14.443  -1.975  1.00  0.00     0.020 A 
ATOM     78  C   UNL     1       2.234  15.731  -2.429  1.00  0.00     0.054 A 
BRANCH  78  79
ATOM     79  S   UNL     1       0.912  16.703  -1.653  1.00  0.00     0.124 S 
ATOM     80  O   UNL     1       1.668  17.726  -0.938  1.00  0.00    -0.237 OA
ATOM     81  O   UNL     1       0.148  17.170  -2.807  1.00  0.00    -0.237 OA
ATOM     82  O   UNL     1       0.222  15.729  -0.810  1.00  0.00    -0.744 OA
ENDBRANCH  78  79
ENDBRANCH  50  73
BRANCH  62  83
ATOM     83  C   UNL     1      11.168  15.230  -4.109  1.00  0.00    -0.014 A 
ATOM     84  C   UNL     1      11.457  15.420  -2.746  1.00  0.00     0.010 A 
ATOM     85  C   UNL     1      11.784  16.062  -5.063  1.00  0.00     0.010 A 
ATOM     86  C   UNL     1      12.317  16.447  -2.345  1.00  0.00     0.020 A 
ATOM     87  C   UNL     1      12.669  17.067  -4.667  1.00  0.00     0.020 A 
ATOM     88  C   UNL     1      12.918  17.263  -3.308  1.00  0.00     0.054 A 
BRANCH  88  89
ATOM     89  S   UNL     1      14.061  18.560  -2.763  1.00  0.00     0.124 S 
ATOM     90  O   UNL     1      13.152  19.536  -2.167  1.00  0.00    -0.237 OA
ATOM     91  O   UNL     1      14.925  17.850  -1.823  1.00  0.00    -0.237 OA
ATOM     92  O   UNL     1      14.714  18.990  -3.997  1.00  0.00    -0.744 OA
ENDBRANCH  88  89
ENDBRANCH  62  83
ENDBRANCH  36  37
ENDBRANCH  28  31
ENDBRANCH  26  27
ENDBRANCH  25  26
ENDBRANCH  24  25
ENDBRANCH   1  24
TORSDOF 21
