REMARK SMILES O=C(NCCCCCCNC(=O)c1cc(-c2ccccc2)nc(Nc2nc3ccccc3s2)n1)c1ccc(-c2c3nc(c(-c4ccc(S(=O)(=O)[O-])cc4)c4ccc([nH]4)c(-c4ccc(S(=O)(=O)[O-])cc4)c4nc(c(-c5ccc(S(=O)(=O)[O-])cc5)c5ccc2[nH]5)C=C4)C=C3)cc1
REMARK SMILES IDX 6 1 5 2 4 3 3 4 1 5 2 6 35 8 36 9 94 10 37 11 93 12 38 13
REMARK SMILES IDX 39 14 40 15 87 16 41 17 92 18 86 19 88 20 42 21 91 22 85 23
REMARK SMILES IDX 84 24 43 26 73 27 54 28 72 29 55 30 58 31 71 32 89 33 56 34
REMARK SMILES IDX 57 35 70 37 90 38 59 39 44 40 45 41 53 42 46 43 52 44 47 45
REMARK SMILES IDX 48 46 49 47 50 48 51 49 74 50 75 51 83 52 76 53 82 54 77 55
REMARK SMILES IDX 78 56 79 57 80 58 81 59 60 60 61 61 69 62 62 63 68 64 63 65
REMARK SMILES IDX 64 66 65 67 66 68 67 69 7 70 8 71 9 72 10 73 11 74 12 76
REMARK SMILES IDX 13 77 14 78 34 79 15 80 23 81 22 82 16 83 17 84 21 85 18 86
REMARK SMILES IDX 20 87 19 88 24 89 25 91 26 92 33 93 27 94 32 95 28 96 31 97
REMARK SMILES IDX 29 98 30 99
REMARK H PARENT 3 7 88 25 58 36 10 75 24 90
REMARK Flexibility Score: inf
ROOT
ATOM      1  C   UNL     1       4.260   3.996   0.261  1.00  0.00     0.002 C 
ENDROOT
BRANCH   1   2
ATOM      2  C   UNL     1       4.743   2.768  -0.511  1.00  0.00     0.021 C 
BRANCH   2   3
ATOM      3  C   UNL     1       4.489   1.434   0.176  1.00  0.00     0.116 C 
BRANCH   3   4
ATOM      4  N   UNL     1       3.074   1.141   0.318  1.00  0.00    -0.352 N 
ATOM      5  O   UNL     1       1.167  -0.018   0.002  1.00  0.00    -0.269 OA
ATOM      6  C   UNL     1       2.389   0.002  -0.038  1.00  0.00     0.251 C 
ATOM      7  H   UNL     1       2.531   1.855   0.724  1.00  0.00     0.163 HD
BRANCH   6   8
ATOM      8  C   UNL     1       3.143  -1.190  -0.488  1.00  0.00     0.039 A 
ATOM      9  C   UNL     1       4.273  -1.625   0.210  1.00  0.00     0.014 A 
ATOM     10  C   UNL     1       2.701  -1.892  -1.613  1.00  0.00     0.014 A 
ATOM     11  C   UNL     1       5.023  -2.689  -0.279  1.00  0.00     0.010 A 
ATOM     12  C   UNL     1       3.412  -3.010  -2.058  1.00  0.00     0.010 A 
ATOM     13  C   UNL     1       4.586  -3.409  -1.403  1.00  0.00    -0.014 A 
BRANCH  13  14
ATOM     14  C   UNL     1       5.313  -4.641  -1.800  1.00  0.00     0.031 A 
ATOM     15  C   UNL     1       6.046  -4.736  -3.108  1.00  0.00     0.074 A 
ATOM     16  C   UNL     1       5.310  -5.683  -0.944  1.00  0.00     0.049 A 
ATOM     17  N   UNL     1       6.739  -5.738  -3.586  1.00  0.00    -0.248 NA
ATOM     18  C   UNL     1       5.995  -3.565  -3.998  1.00  0.00     0.031 C 
ATOM     19  C   UNL     1       4.614  -5.710   0.348  1.00  0.00     0.029 A 
ATOM     20  N   UNL     1       5.915  -6.911  -1.017  1.00  0.00    -0.354 N 
ATOM     21  C   UNL     1       7.191  -5.332  -4.836  1.00  0.00     0.074 A 
ATOM     22  C   UNL     1       6.682  -3.994  -5.051  1.00  0.00     0.031 C 
ATOM     23  C   UNL     1       4.865  -6.876   0.960  1.00  0.00     0.029 A 
ATOM     24  C   UNL     1       5.683  -7.703   0.083  1.00  0.00     0.049 A 
ATOM     25  H   UNL     1       6.462  -7.198  -1.783  1.00  0.00     0.167 HD
ATOM     26  C   UNL     1       7.958  -6.015  -5.719  1.00  0.00     0.031 A 
ATOM     27  C   UNL     1       6.064  -8.966   0.350  1.00  0.00     0.031 A 
ATOM     28  C   UNL     1       8.465  -7.345  -5.492  1.00  0.00     0.049 A 
ATOM     29  C   UNL     1       6.896  -9.702  -0.659  1.00  0.00     0.074 A 
ATOM     30  C   UNL     1       9.294  -8.098  -6.307  1.00  0.00     0.029 A 
ATOM     31  N   UNL     1       8.188  -8.123  -4.379  1.00  0.00    -0.354 N 
ATOM     32  N   UNL     1       7.357  -9.276  -1.810  1.00  0.00    -0.248 NA
ATOM     33  C   UNL     1       7.257 -11.088  -0.334  1.00  0.00     0.031 C 
ATOM     34  C   UNL     1       9.473  -9.351  -5.712  1.00  0.00     0.029 A 
ATOM     35  C   UNL     1       8.802  -9.359  -4.500  1.00  0.00     0.049 A 
ATOM     36  H   UNL     1       7.636  -7.839  -3.614  1.00  0.00     0.167 HD
ATOM     37  C   UNL     1       8.071 -10.341  -2.345  1.00  0.00     0.074 A 
ATOM     38  C   UNL     1       8.005 -11.418  -1.378  1.00  0.00     0.031 C 
ATOM     39  C   UNL     1       8.718 -10.422  -3.532  1.00  0.00     0.031 A 
BRANCH  26  40
ATOM     40  C   UNL     1       8.293  -5.355  -7.030  1.00  0.00    -0.014 A 
ATOM     41  C   UNL     1       9.253  -4.331  -7.105  1.00  0.00     0.010 A 
ATOM     42  C   UNL     1       7.715  -5.840  -8.219  1.00  0.00     0.010 A 
ATOM     43  C   UNL     1       9.619  -3.795  -8.344  1.00  0.00     0.020 A 
ATOM     44  C   UNL     1       8.093  -5.320  -9.461  1.00  0.00     0.020 A 
ATOM     45  C   UNL     1       9.038  -4.295  -9.514  1.00  0.00     0.054 A 
BRANCH  45  46
ATOM     46  S   UNL     1       9.578  -3.621 -11.111  1.00  0.00     0.124 S 
ATOM     47  O   UNL     1       8.957  -2.299 -11.104  1.00  0.00    -0.237 OA
ATOM     48  O   UNL     1      11.034  -3.630 -10.986  1.00  0.00    -0.237 OA
ATOM     49  O   UNL     1       9.033  -4.560 -12.087  1.00  0.00    -0.744 OA
ENDBRANCH  45  46
ENDBRANCH  26  40
BRANCH  27  50
ATOM     50  C   UNL     1       5.628  -9.622   1.611  1.00  0.00    -0.014 A 
ATOM     51  C   UNL     1       6.554  -9.929   2.622  1.00  0.00     0.010 A 
ATOM     52  C   UNL     1       4.271  -9.941   1.805  1.00  0.00     0.010 A 
ATOM     53  C   UNL     1       6.136 -10.570   3.792  1.00  0.00     0.020 A 
ATOM     54  C   UNL     1       3.844 -10.553   2.985  1.00  0.00     0.020 A 
ATOM     55  C   UNL     1       4.784 -10.881   3.964  1.00  0.00     0.054 A 
BRANCH  55  56
ATOM     56  S   UNL     1       4.254 -11.688   5.499  1.00  0.00     0.124 S 
ATOM     57  O   UNL     1       4.669 -13.069   5.273  1.00  0.00    -0.237 OA
ATOM     58  O   UNL     1       5.006 -10.959   6.518  1.00  0.00    -0.237 OA
ATOM     59  O   UNL     1       2.811 -11.461   5.522  1.00  0.00    -0.744 OA
ENDBRANCH  55  56
ENDBRANCH  27  50
BRANCH  39  60
ATOM     60  C   UNL     1       9.419 -11.716  -3.841  1.00  0.00    -0.014 A 
ATOM     61  C   UNL     1       8.690 -12.870  -4.180  1.00  0.00     0.010 A 
ATOM     62  C   UNL     1      10.824 -11.770  -3.822  1.00  0.00     0.010 A 
ATOM     63  C   UNL     1       9.355 -14.066  -4.461  1.00  0.00     0.020 A 
ATOM     64  C   UNL     1      11.493 -12.957  -4.129  1.00  0.00     0.020 A 
ATOM     65  C   UNL     1      10.753 -14.102  -4.431  1.00  0.00     0.054 A 
BRANCH  65  66
ATOM     66  S   UNL     1      11.595 -15.657  -4.833  1.00  0.00     0.124 S 
ATOM     67  O   UNL     1      11.389 -16.436  -3.616  1.00  0.00    -0.237 OA
ATOM     68  O   UNL     1      10.867 -16.123  -6.010  1.00  0.00    -0.237 OA
ATOM     69  O   UNL     1      12.975 -15.246  -5.085  1.00  0.00    -0.744 OA
ENDBRANCH  65  66
ENDBRANCH  39  60
ENDBRANCH  13  14
ENDBRANCH   6   8
ENDBRANCH   3   4
ENDBRANCH   2   3
ENDBRANCH   1   2
BRANCH   1  70
ATOM     70  C   UNL     1       4.791   4.131   1.691  1.00  0.00     0.002 C 
BRANCH  70  71
ATOM     71  C   UNL     1       6.313   4.069   1.847  1.00  0.00     0.021 C 
BRANCH  71  72
ATOM     72  C   UNL     1       7.103   5.021   0.954  1.00  0.00     0.116 C 
BRANCH  72  73
ATOM     73  N   UNL     1       6.730   6.411   1.147  1.00  0.00    -0.351 N 
ATOM     74  C   UNL     1       7.548   7.501   1.335  1.00  0.00     0.270 C 
ATOM     75  H   UNL     1       5.764   6.598   1.144  1.00  0.00     0.163 HD
ATOM     76  O   UNL     1       7.064   8.615   1.513  1.00  0.00    -0.268 OA
BRANCH  74  77
ATOM     77  C   UNL     1       9.018   7.312   1.292  1.00  0.00     0.134 A 
ATOM     78  C   UNL     1       9.617   6.842   0.158  1.00  0.00     0.063 A 
ATOM     79  N   UNL     1       9.671   7.566   2.429  1.00  0.00    -0.207 NA
ATOM     80  C   UNL     1      10.961   6.574   0.278  1.00  0.00     0.077 A 
ATOM     81  C   UNL     1      10.981   7.312   2.467  1.00  0.00     0.230 A 
ATOM     82  N   UNL     1      11.658   6.817   1.416  1.00  0.00    -0.213 NA
BRANCH  80  83
ATOM     83  C   UNL     1      11.662   5.900  -0.824  1.00  0.00     0.000 A 
ATOM     84  C   UNL     1      12.321   4.678  -0.613  1.00  0.00     0.010 A 
ATOM     85  C   UNL     1      11.576   6.387  -2.142  1.00  0.00     0.010 A 
ATOM     86  C   UNL     1      12.835   3.946  -1.687  1.00  0.00     0.001 A 
ATOM     87  C   UNL     1      12.093   5.658  -3.215  1.00  0.00     0.001 A 
ATOM     88  C   UNL     1      12.711   4.432  -2.987  1.00  0.00     0.000 A 
ENDBRANCH  80  83
BRANCH  81  89
ATOM     89  N   UNL     1      11.702   7.639   3.614  1.00  0.00    -0.300 N 
ATOM     90  H   UNL     1      12.681   7.540   3.603  1.00  0.00     0.172 HD
BRANCH  89  91
ATOM     91  C   UNL     1      11.107   8.088   4.739  1.00  0.00     0.190 A 
ATOM     92  N   UNL     1       9.943   7.674   5.188  1.00  0.00    -0.220 NA
ATOM     93  S   UNL     1      11.836   9.312   5.713  1.00  0.00    -0.097 S 
ATOM     94  C   UNL     1       9.472   8.505   6.177  1.00  0.00     0.084 A 
ATOM     95  C   UNL     1      10.361   9.494   6.593  1.00  0.00     0.056 A 
ATOM     96  C   UNL     1       8.190   8.442   6.755  1.00  0.00     0.030 A 
ATOM     97  C   UNL     1      10.003  10.438   7.570  1.00  0.00     0.021 A 
ATOM     98  C   UNL     1       7.815   9.387   7.713  1.00  0.00     0.002 A 
ATOM     99  C   UNL     1       8.712  10.374   8.111  1.00  0.00     0.002 A 
ENDBRANCH  89  91
ENDBRANCH  81  89
ENDBRANCH  74  77
ENDBRANCH  72  73
ENDBRANCH  71  72
ENDBRANCH  70  71
ENDBRANCH   1  70
TORSDOF 19
