REMARK SMILES CO[C@H]1C[C@H](C(=O)NCCCCCCNC(=O)c2ccc(-c3c4nc(c(-c5ccc(S(=O)(=O)[O-])cc5)c5ccc([nH]5)c(-c5ccc(S(=O)(=O)[O-])cc5)c5nc(c(-c6ccc(S(=O)(=O)[O-])cc6)c6ccc3[nH]6)C=C5)C=C4)cc2)N(C(=O)CCSCC(N)=O)C1
REMARK SMILES IDX 10 1 9 2 8 3 6 4 7 5 5 7 3 8 4 9 88 10 78 11 2 12 1 13 79 14
REMARK SMILES IDX 80 15 81 16 82 17 83 18 84 19 85 20 86 21 87 22 11 25 12 26
REMARK SMILES IDX 13 27 14 28 15 29 16 30 17 32 18 33 19 34 77 35 20 36 76 37
REMARK SMILES IDX 21 38 22 39 23 40 70 41 24 42 75 43 69 44 71 45 25 46 74 47
REMARK SMILES IDX 68 48 67 49 26 51 56 52 37 53 55 54 38 55 41 56 54 57 72 58
REMARK SMILES IDX 39 59 40 60 53 62 73 63 42 64 27 65 28 66 36 67 29 68 35 69
REMARK SMILES IDX 30 70 31 71 32 72 33 73 34 74 57 75 58 76 66 77 59 78 65 79
REMARK SMILES IDX 60 80 61 81 62 82 63 83 64 84 43 85 44 86 52 87 45 88 51 89
REMARK SMILES IDX 46 90 47 91 48 92 49 93 50 94
REMARK H PARENT 8 6 86 23 86 24 15 31 71 50 41 61
REMARK Flexibility Score: inf
ROOT
ATOM      1  C   UNL     1      -0.741  -0.349   1.369  1.00  0.00     0.021 C 
ENDROOT
BRANCH   1   2
ATOM      2  C   UNL     1      -0.943  -1.867   1.457  1.00  0.00     0.116 C 
BRANCH   2   3
ATOM      3  N   UNL     1      -1.863  -2.359   0.446  1.00  0.00    -0.354 N 
ATOM      4  C   UNL     1      -1.750  -3.184  -0.627  1.00  0.00     0.242 C 
ATOM      5  O   UNL     1      -2.791  -3.360  -1.277  1.00  0.00    -0.273 OA
ATOM      6  H   UNL     1      -2.778  -2.015   0.565  1.00  0.00     0.163 HD
BRANCH   4   7
ATOM      7  C   UNL     1      -0.424  -3.746  -1.205  1.00  0.00     0.177 C 
ATOM      8  C   UNL     1       1.440  -2.246  -0.949  1.00  0.00     0.139 C 
ATOM      9  C   UNL     1       0.360  -2.663  -1.941  1.00  0.00     0.069 C 
ATOM     10  C   UNL     1       1.774  -3.560  -0.238  1.00  0.00     0.152 C 
ATOM     11  N   UNL     1       0.559  -4.366  -0.318  1.00  0.00    -0.328 N 
BRANCH   8  12
ATOM     12  O   UNL     1       2.568  -1.681  -1.602  1.00  0.00    -0.380 OA
ATOM     13  C   UNL     1       2.364  -0.305  -1.912  1.00  0.00     0.195 C 
ENDBRANCH   8  12
BRANCH  11  14
ATOM     14  C   UNL     1       0.555  -5.656   0.173  1.00  0.00     0.224 C 
ATOM     15  O   UNL     1       1.465  -6.064   0.899  1.00  0.00    -0.275 OA
BRANCH  14  16
ATOM     16  C   UNL     1      -0.595  -6.583  -0.186  1.00  0.00     0.111 C 
BRANCH  16  17
ATOM     17  C   UNL     1      -1.302  -7.193   1.020  1.00  0.00     0.080 C 
BRANCH  17  18
ATOM     18  S   UNL     1      -2.265  -6.006   2.023  1.00  0.00    -0.152 SA
BRANCH  18  19
ATOM     19  C   UNL     1      -0.890  -5.182   2.858  1.00  0.00     0.169 C 
BRANCH  19  20
ATOM     20  C   UNL     1      -1.270  -4.389   4.089  1.00  0.00     0.227 C 
ATOM     21  N   UNL     1      -0.178  -4.000   4.825  1.00  0.00    -0.369 N 
ATOM     22  O   UNL     1      -2.395  -4.032   4.411  1.00  0.00    -0.274 OA
ATOM     23  H   UNL     1       0.724  -4.292   4.558  1.00  0.00     0.159 HD
ATOM     24  H   UNL     1      -0.296  -3.430   5.619  1.00  0.00     0.159 HD
ENDBRANCH  19  20
ENDBRANCH  18  19
ENDBRANCH  17  18
ENDBRANCH  16  17
ENDBRANCH  14  16
ENDBRANCH  11  14
ENDBRANCH   4   7
ENDBRANCH   2   3
ENDBRANCH   1   2
BRANCH   1  25
ATOM     25  C   UNL     1      -1.594   0.446   2.365  1.00  0.00     0.002 C 
BRANCH  25  26
ATOM     26  C   UNL     1      -1.210   0.264   3.840  1.00  0.00     0.002 C 
BRANCH  26  27
ATOM     27  C   UNL     1       0.221   0.670   4.213  1.00  0.00     0.021 C 
BRANCH  27  28
ATOM     28  C   UNL     1       0.602   2.110   3.876  1.00  0.00     0.116 C 
BRANCH  28  29
ATOM     29  N   UNL     1      -0.252   3.080   4.543  1.00  0.00    -0.352 N 
ATOM     30  C   UNL     1       0.094   4.172   5.302  1.00  0.00     0.251 C 
ATOM     31  H   UNL     1      -1.219   2.934   4.434  1.00  0.00     0.163 HD
ATOM     32  O   UNL     1      -0.767   4.777   5.933  1.00  0.00    -0.269 OA
BRANCH  30  33
ATOM     33  C   UNL     1       1.506   4.605   5.373  1.00  0.00     0.039 A 
ATOM     34  C   UNL     1       2.054   4.926   6.618  1.00  0.00     0.014 A 
ATOM     35  C   UNL     1       2.284   4.709   4.216  1.00  0.00     0.014 A 
ATOM     36  C   UNL     1       3.398   5.295   6.710  1.00  0.00     0.010 A 
ATOM     37  C   UNL     1       3.639   5.015   4.316  1.00  0.00     0.010 A 
ATOM     38  C   UNL     1       4.209   5.313   5.563  1.00  0.00    -0.014 A 
BRANCH  38  39
ATOM     39  C   UNL     1       5.654   5.649   5.648  1.00  0.00     0.031 A 
ATOM     40  C   UNL     1       6.182   6.887   4.974  1.00  0.00     0.074 A 
ATOM     41  C   UNL     1       6.498   4.812   6.285  1.00  0.00     0.049 A 
ATOM     42  N   UNL     1       7.417   7.306   4.870  1.00  0.00    -0.248 NA
ATOM     43  C   UNL     1       5.195   7.756   4.310  1.00  0.00     0.031 C 
ATOM     44  C   UNL     1       6.114   3.562   6.946  1.00  0.00     0.029 A 
ATOM     45  N   UNL     1       7.856   4.881   6.471  1.00  0.00    -0.354 N 
ATOM     46  C   UNL     1       7.357   8.481   4.131  1.00  0.00     0.074 A 
ATOM     47  C   UNL     1       5.972   8.678   3.761  1.00  0.00     0.031 C 
ATOM     48  C   UNL     1       7.208   2.991   7.478  1.00  0.00     0.029 A 
ATOM     49  C   UNL     1       8.374   3.812   7.164  1.00  0.00     0.049 A 
ATOM     50  H   UNL     1       8.408   5.626   6.140  1.00  0.00     0.167 HD
ATOM     51  C   UNL     1       8.359   9.335   3.810  1.00  0.00     0.031 A 
ATOM     52  C   UNL     1       9.645   3.518   7.499  1.00  0.00     0.031 A 
ATOM     53  C   UNL     1       9.735   9.140   4.183  1.00  0.00     0.049 A 
ATOM     54  C   UNL     1      10.743   4.473   7.114  1.00  0.00     0.074 A 
ATOM     55  C   UNL     1      10.821   9.959   3.925  1.00  0.00     0.029 A 
ATOM     56  N   UNL     1      10.213   8.056   4.903  1.00  0.00    -0.354 N 
ATOM     57  N   UNL     1      10.658   5.601   6.450  1.00  0.00    -0.248 NA
ATOM     58  C   UNL     1      12.107   4.122   7.535  1.00  0.00     0.031 C 
ATOM     59  C   UNL     1      11.963   9.349   4.454  1.00  0.00     0.029 A 
ATOM     60  C   UNL     1      11.579   8.179   5.089  1.00  0.00     0.049 A 
ATOM     61  H   UNL     1       9.663   7.309   5.232  1.00  0.00     0.167 HD
ATOM     62  C   UNL     1      11.952   6.108   6.399  1.00  0.00     0.074 A 
ATOM     63  C   UNL     1      12.796   5.173   7.114  1.00  0.00     0.031 C 
ATOM     64  C   UNL     1      12.402   7.244   5.812  1.00  0.00     0.031 A 
BRANCH  51  65
ATOM     65  C   UNL     1       7.998  10.570   3.027  1.00  0.00    -0.014 A 
ATOM     66  C   UNL     1       7.270  11.613   3.628  1.00  0.00     0.010 A 
ATOM     67  C   UNL     1       8.434  10.717   1.698  1.00  0.00     0.010 A 
ATOM     68  C   UNL     1       6.955  12.765   2.905  1.00  0.00     0.020 A 
ATOM     69  C   UNL     1       8.144  11.881   0.980  1.00  0.00     0.020 A 
ATOM     70  C   UNL     1       7.394  12.892   1.584  1.00  0.00     0.054 A 
BRANCH  70  71
ATOM     71  S   UNL     1       7.001  14.416   0.683  1.00  0.00     0.124 S 
ATOM     72  O   UNL     1       5.570  14.259   0.436  1.00  0.00    -0.237 OA
ATOM     73  O   UNL     1       7.362  15.457   1.642  1.00  0.00    -0.237 OA
ATOM     74  O   UNL     1       7.848  14.346  -0.505  1.00  0.00    -0.744 OA
ENDBRANCH  70  71
ENDBRANCH  51  65
BRANCH  52  75
ATOM     75  C   UNL     1       9.956   2.260   8.235  1.00  0.00    -0.014 A 
ATOM     76  C   UNL     1      10.402   2.298   9.568  1.00  0.00     0.010 A 
ATOM     77  C   UNL     1       9.825   1.015   7.593  1.00  0.00     0.010 A 
ATOM     78  C   UNL     1      10.747   1.117  10.233  1.00  0.00     0.020 A 
ATOM     79  C   UNL     1      10.140  -0.170   8.265  1.00  0.00     0.020 A 
ATOM     80  C   UNL     1      10.618  -0.109   9.575  1.00  0.00     0.054 A 
BRANCH  80  81
ATOM     81  S   UNL     1      11.053  -1.632  10.460  1.00  0.00     0.124 S 
ATOM     82  O   UNL     1      12.511  -1.587  10.438  1.00  0.00    -0.237 OA
ATOM     83  O   UNL     1      10.432  -1.428  11.766  1.00  0.00    -0.237 OA
ATOM     84  O   UNL     1      10.445  -2.683   9.648  1.00  0.00    -0.744 OA
ENDBRANCH  80  81
ENDBRANCH  52  75
BRANCH  64  85
ATOM     85  C   UNL     1      13.866   7.562   5.952  1.00  0.00    -0.014 A 
ATOM     86  C   UNL     1      14.842   6.836   5.247  1.00  0.00     0.010 A 
ATOM     87  C   UNL     1      14.265   8.641   6.763  1.00  0.00     0.010 A 
ATOM     88  C   UNL     1      16.194   7.163   5.375  1.00  0.00     0.020 A 
ATOM     89  C   UNL     1      15.614   8.988   6.872  1.00  0.00     0.020 A 
ATOM     90  C   UNL     1      16.572   8.237   6.187  1.00  0.00     0.054 A 
BRANCH  90  91
ATOM     91  S   UNL     1      18.329   8.669   6.302  1.00  0.00     0.124 S 
ATOM     92  O   UNL     1      18.850   7.600   7.148  1.00  0.00    -0.237 OA
ATOM     93  O   UNL     1      18.760   8.633   4.906  1.00  0.00    -0.237 OA
ATOM     94  O   UNL     1      18.320   9.998   6.910  1.00  0.00    -0.744 OA
ENDBRANCH  90  91
ENDBRANCH  64  85
ENDBRANCH  38  39
ENDBRANCH  30  33
ENDBRANCH  28  29
ENDBRANCH  27  28
ENDBRANCH  26  27
ENDBRANCH  25  26
ENDBRANCH   1  25
TORSDOF 23
