REMARK SMILES COc1ccc(OCCNc2c(Cl)cccc2C(=O)NCCCCCCNC(=O)c2ccc(-c3c4nc(c(-c5ccc(S(=O)(=O)[O-])cc5)c5ccc([nH]5)c(-c5ccc(S(=O)(=O)[O-])cc5)c5nc(c(-c6ccc(S(=O)(=O)[O-])cc6)c6ccc3[nH]6)C=C5)C=C4)cc2)cc1
REMARK SMILES IDX 22 1 21 2 20 3 18 4 19 5 17 7 11 8 12 9 13 10 14 11 16 12
REMARK SMILES IDX 15 13 10 14 9 16 8 17 7 18 6 19 3 20 4 21 91 22 5 23 90 24
REMARK SMILES IDX 2 25 1 26 23 27 24 28 25 29 26 30 27 31 28 32 29 34 30 35
REMARK SMILES IDX 31 36 89 37 32 38 88 39 33 40 34 41 35 42 82 43 36 44 87 45
REMARK SMILES IDX 81 46 83 47 37 48 86 49 80 50 79 51 38 53 68 54 49 55 67 56
REMARK SMILES IDX 50 57 53 58 66 59 84 60 51 61 52 62 65 64 85 65 54 66 39 67
REMARK SMILES IDX 40 68 48 69 41 70 47 71 42 72 43 73 44 74 45 75 46 76 69 77
REMARK SMILES IDX 70 78 78 79 71 80 77 81 72 82 73 83 74 84 75 85 76 86 55 87
REMARK SMILES IDX 56 88 64 89 57 90 63 91 58 92 59 93 60 94 61 95 62 96
REMARK H PARENT 20 6 10 15 27 33 83 52 53 63
REMARK Flexibility Score: inf
ROOT
ATOM      1  C   UNL     1       1.351  -6.029  -2.831  1.00  0.00     0.021 C 
ENDROOT
BRANCH   1   2
ATOM      2  C   UNL     1       2.667  -5.524  -2.240  1.00  0.00     0.116 C 
BRANCH   2   3
ATOM      3  N   UNL     1       3.845  -6.031  -2.910  1.00  0.00    -0.352 N 
ATOM      4  C   UNL     1       5.148  -5.605  -2.881  1.00  0.00     0.253 C 
ATOM      5  O   UNL     1       5.979  -6.258  -3.517  1.00  0.00    -0.269 OA
ATOM      6  H   UNL     1       3.684  -6.815  -3.483  1.00  0.00     0.163 HD
BRANCH   4   7
ATOM      7  C   UNL     1       5.607  -4.355  -2.220  1.00  0.00     0.064 A 
ATOM      8  C   UNL     1       5.438  -4.016  -0.864  1.00  0.00     0.066 A 
ATOM      9  C   UNL     1       6.037  -2.801  -0.428  1.00  0.00     0.065 A 
ATOM     10  Cl  UNL     1       5.901  -2.268   1.219  1.00  0.00    -0.082 Cl
ATOM     11  C   UNL     1       6.785  -1.980  -1.277  1.00  0.00     0.023 A 
ATOM     12  C   UNL     1       6.380  -3.522  -3.065  1.00  0.00     0.016 A 
ATOM     13  C   UNL     1       6.955  -2.340  -2.603  1.00  0.00     0.003 A 
BRANCH   8  14
ATOM     14  N   UNL     1       4.579  -4.663   0.004  1.00  0.00    -0.380 N 
ATOM     15  H   UNL     1       3.763  -4.176   0.261  1.00  0.00     0.160 HD
BRANCH  14  16
ATOM     16  C   UNL     1       4.757  -5.987   0.576  1.00  0.00     0.154 C 
BRANCH  16  17
ATOM     17  C   UNL     1       3.938  -6.139   1.885  1.00  0.00     0.250 C 
BRANCH  17  18
ATOM     18  O   UNL     1       2.516  -5.989   1.722  1.00  0.00    -0.492 OA
BRANCH  18  19
ATOM     19  C   UNL     1       1.952  -4.742   1.751  1.00  0.00     0.119 A 
ATOM     20  C   UNL     1       0.702  -2.265   1.334  1.00  0.00     0.119 A 
ATOM     21  C   UNL     1      -0.018  -3.442   1.164  1.00  0.00     0.050 A 
ATOM     22  C   UNL     1       2.002  -2.320   1.826  1.00  0.00     0.050 A 
ATOM     23  C   UNL     1       0.610  -4.676   1.365  1.00  0.00     0.050 A 
ATOM     24  C   UNL     1       2.612  -3.556   2.059  1.00  0.00     0.050 A 
BRANCH  20  25
ATOM     25  O   UNL     1       0.059  -1.085   1.084  1.00  0.00    -0.497 OA
ATOM     26  C   UNL     1       0.759  -0.262   0.151  1.00  0.00     0.278 C 
ENDBRANCH  20  25
ENDBRANCH  18  19
ENDBRANCH  17  18
ENDBRANCH  16  17
ENDBRANCH  14  16
ENDBRANCH   8  14
ENDBRANCH   4   7
ENDBRANCH   2   3
ENDBRANCH   1   2
BRANCH   1  27
ATOM     27  C   UNL     1       1.189  -7.551  -2.975  1.00  0.00     0.002 C 
BRANCH  27  28
ATOM     28  C   UNL     1       1.546  -8.430  -1.772  1.00  0.00     0.002 C 
BRANCH  28  29
ATOM     29  C   UNL     1       0.848  -8.115  -0.451  1.00  0.00     0.021 C 
BRANCH  29  30
ATOM     30  C   UNL     1      -0.674  -8.026  -0.465  1.00  0.00     0.116 C 
BRANCH  30  31
ATOM     31  N   UNL     1      -1.324  -9.254  -0.874  1.00  0.00    -0.352 N 
ATOM     32  C   UNL     1      -2.423  -9.896  -0.352  1.00  0.00     0.251 C 
ATOM     33  H   UNL     1      -0.914  -9.701  -1.649  1.00  0.00     0.163 HD
ATOM     34  O   UNL     1      -2.748 -10.983  -0.824  1.00  0.00    -0.269 OA
BRANCH  32  35
ATOM     35  C   UNL     1      -3.201  -9.328   0.781  1.00  0.00     0.039 A 
ATOM     36  C   UNL     1      -3.712 -10.216   1.736  1.00  0.00     0.014 A 
ATOM     37  C   UNL     1      -3.482  -7.964   0.904  1.00  0.00     0.014 A 
ATOM     38  C   UNL     1      -4.452  -9.739   2.823  1.00  0.00     0.010 A 
ATOM     39  C   UNL     1      -4.163  -7.480   2.027  1.00  0.00     0.010 A 
ATOM     40  C   UNL     1      -4.662  -8.362   2.997  1.00  0.00    -0.014 A 
BRANCH  40  41
ATOM     41  C   UNL     1      -5.402  -7.852   4.186  1.00  0.00     0.031 A 
ATOM     42  C   UNL     1      -6.729  -7.153   4.029  1.00  0.00     0.074 A 
ATOM     43  C   UNL     1      -4.872  -8.004   5.417  1.00  0.00     0.049 A 
ATOM     44  N   UNL     1      -7.519  -6.667   4.953  1.00  0.00    -0.248 NA
ATOM     45  C   UNL     1      -7.226  -6.962   2.657  1.00  0.00     0.031 C 
ATOM     46  C   UNL     1      -3.578  -8.625   5.710  1.00  0.00     0.029 A 
ATOM     47  N   UNL     1      -5.357  -7.654   6.654  1.00  0.00    -0.354 N 
ATOM     48  C   UNL     1      -8.599  -6.108   4.279  1.00  0.00     0.074 A 
ATOM     49  C   UNL     1      -8.339  -6.271   2.865  1.00  0.00     0.031 C 
ATOM     50  C   UNL     1      -3.390  -8.645   7.040  1.00  0.00     0.029 A 
ATOM     51  C   UNL     1      -4.530  -8.009   7.694  1.00  0.00     0.049 A 
ATOM     52  H   UNL     1      -6.217  -7.192   6.783  1.00  0.00     0.167 HD
ATOM     53  C   UNL     1      -9.716  -5.531   4.785  1.00  0.00     0.031 A 
ATOM     54  C   UNL     1      -4.670  -7.848   9.024  1.00  0.00     0.031 A 
ATOM     55  C   UNL     1      -9.983  -5.373   6.192  1.00  0.00     0.049 A 
ATOM     56  C   UNL     1      -5.916  -7.198   9.562  1.00  0.00     0.074 A 
ATOM     57  C   UNL     1     -11.108  -4.842   6.800  1.00  0.00     0.029 A 
ATOM     58  N   UNL     1      -9.118  -5.744   7.210  1.00  0.00    -0.354 N 
ATOM     59  N   UNL     1      -6.953  -6.735   8.906  1.00  0.00    -0.248 NA
ATOM     60  C   UNL     1      -6.017  -7.065  11.022  1.00  0.00     0.031 C 
ATOM     61  C   UNL     1     -10.903  -4.850   8.184  1.00  0.00     0.029 A 
ATOM     62  C   UNL     1      -9.675  -5.437   8.440  1.00  0.00     0.049 A 
ATOM     63  H   UNL     1      -8.238  -6.165   7.077  1.00  0.00     0.167 HD
ATOM     64  C   UNL     1      -7.840  -6.279   9.875  1.00  0.00     0.074 A 
ATOM     65  C   UNL     1      -7.227  -6.541  11.161  1.00  0.00     0.031 C 
ATOM     66  C   UNL     1      -9.055  -5.697   9.714  1.00  0.00     0.031 A 
BRANCH  53  67
ATOM     67  C   UNL     1     -10.746  -5.025   3.807  1.00  0.00    -0.014 A 
ATOM     68  C   UNL     1     -11.529  -5.918   3.053  1.00  0.00     0.010 A 
ATOM     69  C   UNL     1     -10.971  -3.642   3.676  1.00  0.00     0.010 A 
ATOM     70  C   UNL     1     -12.490  -5.439   2.160  1.00  0.00     0.020 A 
ATOM     71  C   UNL     1     -11.952  -3.159   2.804  1.00  0.00     0.020 A 
ATOM     72  C   UNL     1     -12.694  -4.061   2.038  1.00  0.00     0.054 A 
BRANCH  72  73
ATOM     73  S   UNL     1     -13.967  -3.468   0.890  1.00  0.00     0.124 S 
ATOM     74  O   UNL     1     -13.338  -3.709  -0.406  1.00  0.00    -0.237 OA
ATOM     75  O   UNL     1     -15.107  -4.326   1.204  1.00  0.00    -0.237 OA
ATOM     76  O   UNL     1     -14.132  -2.062   1.250  1.00  0.00    -0.744 OA
ENDBRANCH  72  73
ENDBRANCH  53  67
BRANCH  54  77
ATOM     77  C   UNL     1      -3.607  -8.328   9.950  1.00  0.00    -0.014 A 
ATOM     78  C   UNL     1      -3.834  -9.436  10.787  1.00  0.00     0.010 A 
ATOM     79  C   UNL     1      -2.362  -7.676  10.005  1.00  0.00     0.010 A 
ATOM     80  C   UNL     1      -2.846  -9.866  11.678  1.00  0.00     0.020 A 
ATOM     81  C   UNL     1      -1.361  -8.121  10.874  1.00  0.00     0.020 A 
ATOM     82  C   UNL     1      -1.616  -9.205  11.716  1.00  0.00     0.054 A 
BRANCH  82  83
ATOM     83  S   UNL     1      -0.333  -9.804  12.851  1.00  0.00     0.124 S 
ATOM     84  O   UNL     1      -0.823  -9.327  14.141  1.00  0.00    -0.237 OA
ATOM     85  O   UNL     1      -0.382 -11.250  12.650  1.00  0.00    -0.237 OA
ATOM     86  O   UNL     1       0.883  -9.156  12.364  1.00  0.00    -0.744 OA
ENDBRANCH  82  83
ENDBRANCH  54  77
BRANCH  66  87
ATOM     87  C   UNL     1      -9.816  -5.333  10.962  1.00  0.00    -0.014 A 
ATOM     88  C   UNL     1      -9.411  -4.261  11.778  1.00  0.00     0.010 A 
ATOM     89  C   UNL     1     -10.974  -6.055  11.305  1.00  0.00     0.010 A 
ATOM     90  C   UNL     1     -10.125  -3.947  12.938  1.00  0.00     0.020 A 
ATOM     91  C   UNL     1     -11.706  -5.726  12.448  1.00  0.00     0.020 A 
ATOM     92  C   UNL     1     -11.266  -4.685  13.268  1.00  0.00     0.054 A 
BRANCH  92  93
ATOM     93  S   UNL     1     -12.190  -4.243  14.765  1.00  0.00     0.124 S 
ATOM     94  O   UNL     1     -11.331  -4.775  15.820  1.00  0.00    -0.237 OA
ATOM     95  O   UNL     1     -12.257  -2.786  14.684  1.00  0.00    -0.237 OA
ATOM     96  O   UNL     1     -13.469  -4.930  14.598  1.00  0.00    -0.744 OA
ENDBRANCH  92  93
ENDBRANCH  66  87
ENDBRANCH  40  41
ENDBRANCH  32  35
ENDBRANCH  30  31
ENDBRANCH  29  30
ENDBRANCH  28  29
ENDBRANCH  27  28
ENDBRANCH   1  27
TORSDOF 22
