REMARK SMILES Cc1ccc(-c2nn(CCC(=O)NCCCCCCNC(=O)c3ccc(-c4c5nc(c(-c6ccc(S(=O)(=O)[O-])cc6)c6ccc([nH]6)c(-c6ccc(S(=O)(=O)[O-])cc6)c6nc(c(-c7ccc(S(=O)(=O)[O-])cc7)c7ccc4[nH]7)C=C6)C=C5)cc3)c(=O)c3noc(C)c23)cc1C
REMARK SMILES IDX 16 1 15 2 14 3 13 4 11 5 12 6 10 8 9 9 8 10 6 11 7 12 90 13
REMARK SMILES IDX 85 14 88 15 83 16 86 17 87 18 89 19 84 20 5 21 1 22 2 23
REMARK SMILES IDX 3 24 92 25 4 26 91 27 93 28 17 29 18 30 19 31 20 32 21 33
REMARK SMILES IDX 22 35 23 36 24 37 82 38 25 39 81 40 26 41 27 42 28 43 75 44
REMARK SMILES IDX 29 45 80 46 74 47 76 48 30 49 79 50 73 51 72 52 31 54 61 55
REMARK SMILES IDX 42 56 60 57 43 58 46 59 59 60 77 61 44 62 45 63 58 65 78 66
REMARK SMILES IDX 47 67 32 68 33 69 41 70 34 71 40 72 35 73 36 74 37 75 38 76
REMARK SMILES IDX 39 77 62 78 63 79 71 80 64 81 70 82 65 83 66 84 67 85 68 86
REMARK SMILES IDX 69 87 48 88 49 89 57 90 50 91 56 92 51 93 52 94 53 95 54 96
REMARK SMILES IDX 55 97
REMARK H PARENT 13 7 20 34 76 53 46 64
REMARK Flexibility Score: inf
ROOT
ATOM      1  C   UNL     1      -5.418  -5.381   2.163  1.00  0.00     0.002 C 
ENDROOT
BRANCH   1   2
ATOM      2  C   UNL     1      -5.430  -4.410   0.982  1.00  0.00     0.021 C 
BRANCH   2   3
ATOM      3  C   UNL     1      -5.217  -4.980  -0.422  1.00  0.00     0.116 C 
BRANCH   3   4
ATOM      4  N   UNL     1      -6.441  -4.917  -1.207  1.00  0.00    -0.356 N 
ATOM      5  C   UNL     1      -6.800  -4.088  -2.227  1.00  0.00     0.221 C 
ATOM      6  O   UNL     1      -7.950  -4.167  -2.666  1.00  0.00    -0.275 OA
ATOM      7  H   UNL     1      -7.122  -5.584  -0.961  1.00  0.00     0.163 HD
BRANCH   5   8
ATOM      8  C   UNL     1      -5.806  -3.130  -2.852  1.00  0.00     0.124 C 
BRANCH   8   9
ATOM      9  C   UNL     1      -5.925  -1.705  -2.321  1.00  0.00     0.158 C 
BRANCH   9  10
ATOM     10  N   UNL     1      -5.082  -1.442  -1.153  1.00  0.00    -0.227 N 
ATOM     11  C   UNL     1      -2.891  -0.976  -0.422  1.00  0.00     0.104 A 
ATOM     12  N   UNL     1      -3.709  -1.195  -1.416  1.00  0.00    -0.169 NA
ATOM     13  C   UNL     1      -3.362  -1.101   0.926  1.00  0.00     0.078 A 
ATOM     14  C   UNL     1      -4.732  -1.170   1.192  1.00  0.00     0.183 A 
ATOM     15  C   UNL     1      -2.753  -1.215   2.151  1.00  0.00     0.143 A 
ATOM     16  C   UNL     1      -5.701  -1.286   0.116  1.00  0.00     0.296 A 
ATOM     17  N   UNL     1      -4.979  -1.259   2.504  1.00  0.00    -0.074 NA
ATOM     18  O   UNL     1      -3.726  -1.280   3.107  1.00  0.00    -0.360 OA
ATOM     19  C   UNL     1      -1.360  -1.332   2.631  1.00  0.00     0.091 C 
ATOM     20  O   UNL     1      -6.911  -1.329   0.294  1.00  0.00    -0.265 OA
BRANCH  11  21
ATOM     21  C   UNL     1      -1.550  -0.399  -0.602  1.00  0.00     0.003 A 
ATOM     22  C   UNL     1       2.204   1.594   0.054  1.00  0.00     0.044 C 
ATOM     23  C   UNL     1       0.919   0.862  -0.236  1.00  0.00    -0.048 A 
ATOM     24  C   UNL     1      -0.260   1.617  -0.331  1.00  0.00     0.004 A 
ATOM     25  C   UNL     1       0.860  -0.544  -0.371  1.00  0.00    -0.048 A 
ATOM     26  C   UNL     1      -1.487   0.994  -0.510  1.00  0.00     0.011 A 
ATOM     27  C   UNL     1      -0.388  -1.171  -0.568  1.00  0.00     0.014 A 
ATOM     28  C   UNL     1       2.074  -1.418  -0.190  1.00  0.00     0.044 C 
ENDBRANCH  11  21
ENDBRANCH   9  10
ENDBRANCH   8   9
ENDBRANCH   5   8
ENDBRANCH   3   4
ENDBRANCH   2   3
ENDBRANCH   1   2
BRANCH   1  29
ATOM     29  C   UNL     1      -4.085  -6.086   2.445  1.00  0.00     0.002 C 
BRANCH  29  30
ATOM     30  C   UNL     1      -2.840  -5.205   2.692  1.00  0.00     0.021 C 
BRANCH  30  31
ATOM     31  C   UNL     1      -2.749  -4.434   4.027  1.00  0.00     0.116 C 
BRANCH  31  32
ATOM     32  N   UNL     1      -2.724  -5.320   5.174  1.00  0.00    -0.352 N 
ATOM     33  C   UNL     1      -1.971  -5.375   6.317  1.00  0.00     0.251 C 
ATOM     34  H   UNL     1      -3.395  -6.039   5.119  1.00  0.00     0.163 HD
ATOM     35  O   UNL     1      -2.107  -6.387   7.011  1.00  0.00    -0.269 OA
BRANCH  33  36
ATOM     36  C   UNL     1      -1.008  -4.338   6.783  1.00  0.00     0.039 A 
ATOM     37  C   UNL     1       0.128  -4.815   7.457  1.00  0.00     0.014 A 
ATOM     38  C   UNL     1      -1.257  -2.961   6.790  1.00  0.00     0.014 A 
ATOM     39  C   UNL     1       0.987  -3.949   8.140  1.00  0.00     0.010 A 
ATOM     40  C   UNL     1      -0.381  -2.084   7.475  1.00  0.00     0.010 A 
ATOM     41  C   UNL     1       0.742  -2.571   8.167  1.00  0.00    -0.014 A 
BRANCH  41  42
ATOM     42  C   UNL     1       1.758  -1.724   8.846  1.00  0.00     0.031 A 
ATOM     43  C   UNL     1       2.244  -0.531   8.079  1.00  0.00     0.074 A 
ATOM     44  C   UNL     1       1.908  -1.714  10.194  1.00  0.00     0.049 A 
ATOM     45  N   UNL     1       1.586   0.589   8.005  1.00  0.00    -0.248 NA
ATOM     46  C   UNL     1       3.392  -0.592   7.173  1.00  0.00     0.031 C 
ATOM     47  C   UNL     1       0.773  -1.742  11.129  1.00  0.00     0.029 A 
ATOM     48  N   UNL     1       2.993  -1.431  10.999  1.00  0.00    -0.354 N 
ATOM     49  C   UNL     1       2.223   1.392   7.070  1.00  0.00     0.074 A 
ATOM     50  C   UNL     1       3.324   0.603   6.561  1.00  0.00     0.031 C 
ATOM     51  C   UNL     1       1.196  -1.325  12.341  1.00  0.00     0.029 A 
ATOM     52  C   UNL     1       2.647  -1.146  12.323  1.00  0.00     0.049 A 
ATOM     53  H   UNL     1       3.922  -1.431  10.673  1.00  0.00     0.167 HD
ATOM     54  C   UNL     1       1.834   2.671   6.806  1.00  0.00     0.031 A 
ATOM     55  C   UNL     1       3.333  -0.305  13.155  1.00  0.00     0.031 A 
ATOM     56  C   UNL     1       0.773   3.152   7.642  1.00  0.00     0.049 A 
ATOM     57  C   UNL     1       2.964   1.031  12.561  1.00  0.00     0.074 A 
ATOM     58  C   UNL     1      -0.595   3.303   7.598  1.00  0.00     0.029 A 
ATOM     59  N   UNL     1       1.121   3.604   8.892  1.00  0.00    -0.354 N 
ATOM     60  N   UNL     1       1.829   1.657  12.717  1.00  0.00    -0.248 NA
ATOM     61  C   UNL     1       3.763   1.485  11.420  1.00  0.00     0.031 C 
ATOM     62  C   UNL     1      -1.012   3.378   8.967  1.00  0.00     0.029 A 
ATOM     63  C   UNL     1       0.128   3.233   9.756  1.00  0.00     0.049 A 
ATOM     64  H   UNL     1       1.937   4.104   9.124  1.00  0.00     0.167 HD
ATOM     65  C   UNL     1       1.618   2.341  11.520  1.00  0.00     0.074 A 
ATOM     66  C   UNL     1       2.850   2.190  10.766  1.00  0.00     0.031 C 
ATOM     67  C   UNL     1       0.406   2.827  11.117  1.00  0.00     0.031 A 
BRANCH  54  68
ATOM     68  C   UNL     1       2.537   3.649   5.933  1.00  0.00    -0.014 A 
ATOM     69  C   UNL     1       3.279   4.664   6.569  1.00  0.00     0.010 A 
ATOM     70  C   UNL     1       2.259   3.770   4.563  1.00  0.00     0.010 A 
ATOM     71  C   UNL     1       3.656   5.817   5.884  1.00  0.00     0.020 A 
ATOM     72  C   UNL     1       2.660   4.920   3.862  1.00  0.00     0.020 A 
ATOM     73  C   UNL     1       3.325   5.950   4.538  1.00  0.00     0.054 A 
BRANCH  73  74
ATOM     74  S   UNL     1       3.724   7.519   3.718  1.00  0.00     0.124 S 
ATOM     75  O   UNL     1       2.896   8.472   4.452  1.00  0.00    -0.237 OA
ATOM     76  O   UNL     1       5.163   7.629   3.945  1.00  0.00    -0.237 OA
ATOM     77  O   UNL     1       3.330   7.291   2.330  1.00  0.00    -0.744 OA
ENDBRANCH  73  74
ENDBRANCH  54  68
BRANCH  55  78
ATOM     78  C   UNL     1       4.748  -0.687  13.481  1.00  0.00    -0.014 A 
ATOM     79  C   UNL     1       4.976  -2.000  13.947  1.00  0.00     0.010 A 
ATOM     80  C   UNL     1       5.869   0.154  13.352  1.00  0.00     0.010 A 
ATOM     81  C   UNL     1       6.270  -2.506  14.102  1.00  0.00     0.020 A 
ATOM     82  C   UNL     1       7.173  -0.353  13.477  1.00  0.00     0.020 A 
ATOM     83  C   UNL     1       7.363  -1.694  13.809  1.00  0.00     0.054 A 
BRANCH  83  84
ATOM     84  S   UNL     1       9.012  -2.446  13.777  1.00  0.00     0.124 S 
ATOM     85  O   UNL     1       9.181  -2.894  15.156  1.00  0.00    -0.237 OA
ATOM     86  O   UNL     1       8.841  -3.506  12.785  1.00  0.00    -0.237 OA
ATOM     87  O   UNL     1       9.884  -1.350  13.363  1.00  0.00    -0.744 OA
ENDBRANCH  83  84
ENDBRANCH  55  78
BRANCH  67  88
ATOM     88  C   UNL     1      -0.725   2.740  12.094  1.00  0.00    -0.014 A 
ATOM     89  C   UNL     1      -0.704   3.507  13.268  1.00  0.00     0.010 A 
ATOM     90  C   UNL     1      -1.869   1.973  11.801  1.00  0.00     0.010 A 
ATOM     91  C   UNL     1      -1.823   3.556  14.101  1.00  0.00     0.020 A 
ATOM     92  C   UNL     1      -2.999   2.032  12.620  1.00  0.00     0.020 A 
ATOM     93  C   UNL     1      -2.973   2.838  13.759  1.00  0.00     0.054 A 
BRANCH  93  94
ATOM     94  S   UNL     1      -4.450   3.029  14.791  1.00  0.00     0.124 S 
ATOM     95  O   UNL     1      -4.018   2.467  16.068  1.00  0.00    -0.237 OA
ATOM     96  O   UNL     1      -4.657   4.475  14.780  1.00  0.00    -0.237 OA
ATOM     97  O   UNL     1      -5.472   2.256  14.088  1.00  0.00    -0.744 OA
ENDBRANCH  93  94
ENDBRANCH  67  88
ENDBRANCH  41  42
ENDBRANCH  33  36
ENDBRANCH  31  32
ENDBRANCH  30  31
ENDBRANCH  29  30
ENDBRANCH   1  29
TORSDOF 19
