REMARK SMILES Nc1c(C(=O)NCCCCCCNC(=O)c2ccc(-c3c4nc(c(-c5ccc(S(=O)(=O)[O-])cc5)c5ccc([nH]5)c(-c5ccc(S(=O)(=O)[O-])cc5)c5nc(c(-c6ccc(S(=O)(=O)[O-])cc6)c6ccc3[nH]6)C=C5)C=C4)cc2)cccc1-c1cc(F)c(F)c(F)c1
REMARK SMILES IDX 10 1 9 2 8 3 7 4 6 5 4 6 5 7 3 9 2 10 79 11 76 12 78 13
REMARK SMILES IDX 77 14 1 15 80 18 81 19 88 20 82 21 86 22 83 23 84 24 87 25
REMARK SMILES IDX 85 26 11 27 12 28 13 29 14 30 15 32 16 33 17 34 75 35 18 36
REMARK SMILES IDX 74 37 19 38 20 39 21 40 68 41 22 42 73 43 67 44 69 45 23 46
REMARK SMILES IDX 72 47 66 48 65 49 24 51 54 52 35 53 53 54 36 55 39 56 52 57
REMARK SMILES IDX 70 58 37 59 38 60 51 62 71 63 40 64 25 65 26 66 34 67 27 68
REMARK SMILES IDX 33 69 28 70 29 71 30 72 31 73 32 74 55 75 56 76 64 77 57 78
REMARK SMILES IDX 63 79 58 80 59 81 60 82 61 83 62 84 41 85 42 86 50 87 43 88
REMARK SMILES IDX 49 89 44 90 45 91 46 92 47 93 48 94
REMARK H PARENT 6 8 1 16 1 17 13 31 69 50 39 61
REMARK Flexibility Score: inf
ROOT
ATOM      1  C   UNL     1       5.954  -2.627   0.044  1.00  0.00     0.002 C 
ENDROOT
BRANCH   1   2
ATOM      2  C   UNL     1       5.215  -2.943   1.348  1.00  0.00     0.002 C 
BRANCH   2   3
ATOM      3  C   UNL     1       4.190  -1.918   1.843  1.00  0.00     0.021 C 
BRANCH   3   4
ATOM      4  C   UNL     1       3.170  -1.433   0.820  1.00  0.00     0.116 C 
BRANCH   4   5
ATOM      5  N   UNL     1       2.287  -2.456   0.288  1.00  0.00    -0.352 N 
ATOM      6  C   UNL     1       1.019  -2.337  -0.247  1.00  0.00     0.253 C 
ATOM      7  O   UNL     1       0.460  -3.357  -0.655  1.00  0.00    -0.269 OA
ATOM      8  H   UNL     1       2.646  -3.373   0.312  1.00  0.00     0.163 HD
BRANCH   6   9
ATOM      9  C   UNL     1       0.268  -1.043  -0.264  1.00  0.00     0.063 A 
ATOM     10  C   UNL     1       0.831   0.213  -0.587  1.00  0.00     0.052 A 
ATOM     11  C   UNL     1       0.081   1.396  -0.322  1.00  0.00     0.006 A 
ATOM     12  C   UNL     1      -1.087  -1.131   0.102  1.00  0.00     0.016 A 
ATOM     13  C   UNL     1      -1.271   1.266   0.059  1.00  0.00     0.011 A 
ATOM     14  C   UNL     1      -1.861   0.017   0.232  1.00  0.00     0.002 A 
BRANCH  10  15
ATOM     15  N   UNL     1       2.077   0.295  -1.208  1.00  0.00    -0.398 N 
ATOM     16  H   UNL     1       2.591  -0.524  -1.389  1.00  0.00     0.156 HD
ATOM     17  H   UNL     1       2.442   1.173  -1.465  1.00  0.00     0.156 HD
ENDBRANCH  10  15
BRANCH  11  18
ATOM     18  C   UNL     1       0.688   2.750  -0.354  1.00  0.00    -0.010 A 
ATOM     19  C   UNL     1       0.598   3.587   0.778  1.00  0.00     0.051 A 
ATOM     20  C   UNL     1       1.423   3.224  -1.453  1.00  0.00     0.051 A 
ATOM     21  C   UNL     1       1.258   4.816   0.816  1.00  0.00     0.162 A 
ATOM     22  C   UNL     1       2.106   4.439  -1.386  1.00  0.00     0.162 A 
ATOM     23  F   UNL     1       1.153   5.576   1.915  1.00  0.00    -0.204 F 
ATOM     24  C   UNL     1       2.029   5.236  -0.255  1.00  0.00     0.194 A 
ATOM     25  F   UNL     1       2.863   4.815  -2.425  1.00  0.00    -0.204 F 
ATOM     26  F   UNL     1       2.696   6.395  -0.193  1.00  0.00    -0.200 F 
ENDBRANCH  11  18
ENDBRANCH   6   9
ENDBRANCH   4   5
ENDBRANCH   3   4
ENDBRANCH   2   3
ENDBRANCH   1   2
BRANCH   1  27
ATOM     27  C   UNL     1       6.666  -1.274  -0.046  1.00  0.00     0.021 C 
BRANCH  27  28
ATOM     28  C   UNL     1       7.613  -0.931   1.099  1.00  0.00     0.116 C 
BRANCH  28  29
ATOM     29  N   UNL     1       8.667  -1.914   1.282  1.00  0.00    -0.352 N 
ATOM     30  C   UNL     1      10.023  -1.735   1.397  1.00  0.00     0.251 C 
ATOM     31  H   UNL     1       8.363  -2.849   1.331  1.00  0.00     0.163 HD
ATOM     32  O   UNL     1      10.764  -2.717   1.422  1.00  0.00    -0.269 OA
BRANCH  30  33
ATOM     33  C   UNL     1      10.602  -0.374   1.460  1.00  0.00     0.039 A 
ATOM     34  C   UNL     1      11.744  -0.095   0.704  1.00  0.00     0.014 A 
ATOM     35  C   UNL     1      10.037   0.622   2.261  1.00  0.00     0.014 A 
ATOM     36  C   UNL     1      12.279   1.196   0.702  1.00  0.00     0.010 A 
ATOM     37  C   UNL     1      10.527   1.926   2.200  1.00  0.00     0.010 A 
ATOM     38  C   UNL     1      11.654   2.228   1.421  1.00  0.00    -0.014 A 
BRANCH  38  39
ATOM     39  C   UNL     1      12.161   3.625   1.359  1.00  0.00     0.031 A 
ATOM     40  C   UNL     1      12.682   4.302   2.599  1.00  0.00     0.074 A 
ATOM     41  C   UNL     1      12.101   4.304   0.196  1.00  0.00     0.049 A 
ATOM     42  N   UNL     1      13.124   5.526   2.746  1.00  0.00    -0.248 NA
ATOM     43  C   UNL     1      12.689   3.510   3.840  1.00  0.00     0.031 C 
ATOM     44  C   UNL     1      11.584   3.774  -1.068  1.00  0.00     0.029 A 
ATOM     45  N   UNL     1      12.474   5.589  -0.113  1.00  0.00    -0.354 N 
ATOM     46  C   UNL     1      13.447   5.654   4.092  1.00  0.00     0.074 A 
ATOM     47  C   UNL     1      13.102   4.402   4.729  1.00  0.00     0.031 C 
ATOM     48  C   UNL     1      11.700   4.713  -2.020  1.00  0.00     0.029 A 
ATOM     49  C   UNL     1      12.254   5.927  -1.429  1.00  0.00     0.049 A 
ATOM     50  H   UNL     1      12.862   6.210   0.544  1.00  0.00     0.167 HD
ATOM     51  C   UNL     1      13.998   6.711   4.737  1.00  0.00     0.031 A 
ATOM     52  C   UNL     1      12.465   7.085  -2.086  1.00  0.00     0.031 A 
ATOM     53  C   UNL     1      14.342   7.955   4.099  1.00  0.00     0.049 A 
ATOM     54  C   UNL     1      13.054   8.253  -1.342  1.00  0.00     0.074 A 
ATOM     55  C   UNL     1      14.953   9.066   4.655  1.00  0.00     0.029 A 
ATOM     56  N   UNL     1      14.100   8.258   2.767  1.00  0.00    -0.354 N 
ATOM     57  N   UNL     1      13.418   8.329  -0.084  1.00  0.00    -0.248 NA
ATOM     58  C   UNL     1      13.271   9.487  -2.109  1.00  0.00     0.031 C 
ATOM     59  C   UNL     1      15.022  10.062   3.676  1.00  0.00     0.029 A 
ATOM     60  C   UNL     1      14.520   9.548   2.491  1.00  0.00     0.049 A 
ATOM     61  H   UNL     1      13.690   7.645   2.115  1.00  0.00     0.167 HD
ATOM     62  C   UNL     1      13.931   9.611   0.084  1.00  0.00     0.074 A 
ATOM     63  C   UNL     1      13.848  10.266  -1.206  1.00  0.00     0.031 C 
ATOM     64  C   UNL     1      14.428  10.192   1.204  1.00  0.00     0.031 A 
BRANCH  51  65
ATOM     65  C   UNL     1      14.253   6.571   6.217  1.00  0.00    -0.014 A 
ATOM     66  C   UNL     1      15.239   5.695   6.707  1.00  0.00     0.010 A 
ATOM     67  C   UNL     1      13.527   7.358   7.129  1.00  0.00     0.010 A 
ATOM     68  C   UNL     1      15.463   5.576   8.081  1.00  0.00     0.020 A 
ATOM     69  C   UNL     1      13.770   7.266   8.503  1.00  0.00     0.020 A 
ATOM     70  C   UNL     1      14.725   6.362   8.971  1.00  0.00     0.054 A 
BRANCH  70  71
ATOM     71  S   UNL     1      15.052   6.200  10.748  1.00  0.00     0.124 S 
ATOM     72  O   UNL     1      14.491   4.883  11.038  1.00  0.00    -0.237 OA
ATOM     73  O   UNL     1      16.508   6.291  10.814  1.00  0.00    -0.237 OA
ATOM     74  O   UNL     1      14.332   7.326  11.338  1.00  0.00    -0.744 OA
ENDBRANCH  70  71
ENDBRANCH  51  65
BRANCH  52  75
ATOM     75  C   UNL     1      12.124   7.192  -3.532  1.00  0.00    -0.014 A 
ATOM     76  C   UNL     1      13.137   7.313  -4.500  1.00  0.00     0.010 A 
ATOM     77  C   UNL     1      10.781   7.165  -3.951  1.00  0.00     0.010 A 
ATOM     78  C   UNL     1      12.814   7.421  -5.856  1.00  0.00     0.020 A 
ATOM     79  C   UNL     1      10.455   7.241  -5.308  1.00  0.00     0.020 A 
ATOM     80  C   UNL     1      11.474   7.381  -6.252  1.00  0.00     0.054 A 
BRANCH  80  81
ATOM     81  S   UNL     1      11.082   7.471  -8.021  1.00  0.00     0.124 S 
ATOM     82  O   UNL     1      11.379   8.867  -8.327  1.00  0.00    -0.237 OA
ATOM     83  O   UNL     1      11.997   6.488  -8.595  1.00  0.00    -0.237 OA
ATOM     84  O   UNL     1       9.669   7.103  -8.078  1.00  0.00    -0.744 OA
ENDBRANCH  80  81
ENDBRANCH  52  75
BRANCH  64  85
ATOM     85  C   UNL     1      14.952  11.600   1.084  1.00  0.00    -0.014 A 
ATOM     86  C   UNL     1      14.085  12.690   0.891  1.00  0.00     0.010 A 
ATOM     87  C   UNL     1      16.332  11.839   1.220  1.00  0.00     0.010 A 
ATOM     88  C   UNL     1      14.592  13.989   0.804  1.00  0.00     0.020 A 
ATOM     89  C   UNL     1      16.839  13.140   1.166  1.00  0.00     0.020 A 
ATOM     90  C   UNL     1      15.966  14.206   0.944  1.00  0.00     0.054 A 
BRANCH  90  91
ATOM     91  S   UNL     1      16.593  15.907   0.872  1.00  0.00     0.124 S 
ATOM     92  O   UNL     1      16.445  16.226  -0.545  1.00  0.00    -0.237 OA
ATOM     93  O   UNL     1      15.690  16.618   1.774  1.00  0.00    -0.237 OA
ATOM     94  O   UNL     1      17.971  15.790   1.344  1.00  0.00    -0.744 OA
ENDBRANCH  90  91
ENDBRANCH  64  85
ENDBRANCH  38  39
ENDBRANCH  30  33
ENDBRANCH  28  29
ENDBRANCH  27  28
ENDBRANCH   1  27
TORSDOF 18
