REMARK SMILES Cc1ccccc1C(=O)Nc1cc(NC(=O)c2ccccc2C)cc(C(=O)NCCCCCCNC(=O)c2ccc(-c3c4nc(c(-c5ccc(S(=O)(=O)[O-])cc5)c5ccc([nH]5)c(-c5ccc(S(=O)(=O)[O-])cc5)c5nc(c(-c6ccc(S(=O)(=O)[O-])cc6)c6ccc3[nH]6)C=C5)C=C4)cc2)c1
REMARK SMILES IDX 32 1 31 2 30 3 29 4 28 5 26 6 27 7 25 9 11 10 12 11 98 12
REMARK SMILES IDX 13 13 24 14 10 15 8 16 9 17 7 19 1 20 2 21 3 22 4 23 6 24
REMARK SMILES IDX 5 25 14 26 15 27 16 29 17 30 18 31 22 32 19 33 21 34 23 35
REMARK SMILES IDX 20 36 33 37 34 38 35 39 36 40 37 42 38 43 39 44 97 45 40 46
REMARK SMILES IDX 96 47 41 48 42 49 43 50 90 51 44 52 95 53 89 54 91 55 45 56
REMARK SMILES IDX 94 57 88 58 87 59 46 61 76 62 57 63 75 64 58 65 61 66 74 67
REMARK SMILES IDX 92 68 59 69 60 70 73 72 93 73 62 74 47 75 48 76 56 77 49 78
REMARK SMILES IDX 55 79 50 80 51 81 52 82 53 83 54 84 77 85 78 86 86 87 79 88
REMARK SMILES IDX 85 89 80 90 81 91 82 92 83 93 84 94 63 95 64 96 72 97 65 98
REMARK SMILES IDX 71 99 66 100 67 101 68 102 69 103 70 104
REMARK H PARENT 28 8 10 18 14 28 35 41 91 60 61 71
REMARK Flexibility Score: inf
ROOT
ATOM      1  C   UNL     1       8.335  -4.713   2.849  1.00  0.00     0.002 C 
ENDROOT
BRANCH   1   2
ATOM      2  C   UNL     1       8.818  -3.461   1.978  1.00  0.00     0.002 C 
BRANCH   2   3
ATOM      3  C   UNL     1       8.155  -2.807   0.744  1.00  0.00     0.021 C 
BRANCH   3   4
ATOM      4  C   UNL     1       6.715  -2.463   0.890  1.00  0.00     0.116 C 
BRANCH   4   5
ATOM      5  N   UNL     1       6.566  -1.359   1.808  1.00  0.00    -0.352 N 
ATOM      6  C   UNL     1       5.839  -0.213   1.722  1.00  0.00     0.251 C 
ATOM      7  O   UNL     1       6.044   0.663   2.563  1.00  0.00    -0.269 OA
ATOM      8  H   UNL     1       7.081  -1.452   2.642  1.00  0.00     0.163 HD
BRANCH   6   9
ATOM      9  C   UNL     1       4.795  -0.001   0.682  1.00  0.00     0.043 A 
ATOM     10  C   UNL     1       3.034   1.437  -0.090  1.00  0.00     0.044 A 
ATOM     11  C   UNL     1       2.639   0.489  -1.033  1.00  0.00     0.052 A 
ATOM     12  C   UNL     1       4.208   1.265   0.638  1.00  0.00     0.040 A 
ATOM     13  C   UNL     1       3.277  -0.742  -1.073  1.00  0.00     0.044 A 
ATOM     14  C   UNL     1       4.251  -1.013  -0.116  1.00  0.00     0.040 A 
BRANCH  10  15
ATOM     15  N   UNL     1       2.195   2.476   0.326  1.00  0.00    -0.322 N 
ATOM     16  C   UNL     1       0.829   2.451   0.541  1.00  0.00     0.255 C 
ATOM     17  O   UNL     1       0.267   3.499   0.867  1.00  0.00    -0.269 OA
ATOM     18  H   UNL     1       2.635   3.341   0.488  1.00  0.00     0.170 HD
BRANCH  16  19
ATOM     19  C   UNL     1      -0.002   1.210   0.419  1.00  0.00     0.043 A 
ATOM     20  C   UNL     1       1.390  -0.366   1.938  1.00  0.00     0.045 C 
ATOM     21  C   UNL     1       0.289  -0.062   0.961  1.00  0.00    -0.038 A 
ATOM     22  C   UNL     1      -0.547  -1.148   0.631  1.00  0.00     0.004 A 
ATOM     23  C   UNL     1      -1.720  -0.962  -0.095  1.00  0.00     0.000 A 
ATOM     24  C   UNL     1      -1.216   1.387  -0.270  1.00  0.00     0.014 A 
ATOM     25  C   UNL     1      -2.078   0.315  -0.507  1.00  0.00     0.001 A 
ENDBRANCH  16  19
ENDBRANCH  10  15
BRANCH  13  26
ATOM     26  N   UNL     1       2.951  -1.787  -1.950  1.00  0.00    -0.322 N 
ATOM     27  C   UNL     1       2.331  -1.781  -3.175  1.00  0.00     0.255 C 
ATOM     28  H   UNL     1       3.213  -2.682  -1.632  1.00  0.00     0.170 HD
ATOM     29  O   UNL     1       1.928  -2.838  -3.660  1.00  0.00    -0.269 OA
BRANCH  27  30
ATOM     30  C   UNL     1       2.150  -0.527  -3.942  1.00  0.00     0.043 A 
ATOM     31  C   UNL     1       0.847  -0.292  -4.407  1.00  0.00     0.014 A 
ATOM     32  C   UNL     1       3.182   0.392  -4.221  1.00  0.00    -0.038 A 
ATOM     33  C   UNL     1       0.541   0.887  -5.079  1.00  0.00     0.001 A 
ATOM     34  C   UNL     1       2.842   1.594  -4.865  1.00  0.00     0.004 A 
ATOM     35  C   UNL     1       4.628   0.179  -3.864  1.00  0.00     0.045 C 
ATOM     36  C   UNL     1       1.533   1.840  -5.286  1.00  0.00     0.000 A 
ENDBRANCH  27  30
ENDBRANCH  13  26
ENDBRANCH   6   9
ENDBRANCH   4   5
ENDBRANCH   3   4
ENDBRANCH   2   3
ENDBRANCH   1   2
BRANCH   1  37
ATOM     37  C   UNL     1       8.269  -6.342   2.551  1.00  0.00     0.021 C 
BRANCH  37  38
ATOM     38  C   UNL     1       9.617  -7.183   2.298  1.00  0.00     0.116 C 
BRANCH  38  39
ATOM     39  N   UNL     1       9.741  -8.653   1.726  1.00  0.00    -0.352 N 
ATOM     40  C   UNL     1      10.774  -9.324   0.908  1.00  0.00     0.251 C 
ATOM     41  H   UNL     1       8.983  -9.235   1.961  1.00  0.00     0.163 HD
ATOM     42  O   UNL     1      11.562 -10.025   1.568  1.00  0.00    -0.269 OA
BRANCH  40  43
ATOM     43  C   UNL     1      11.012  -9.412  -0.696  1.00  0.00     0.039 A 
ATOM     44  C   UNL     1      12.331  -9.492  -1.234  1.00  0.00     0.014 A 
ATOM     45  C   UNL     1      10.062  -9.274  -1.707  1.00  0.00     0.014 A 
ATOM     46  C   UNL     1      12.671  -8.875  -2.514  1.00  0.00     0.010 A 
ATOM     47  C   UNL     1      10.381  -8.588  -2.933  1.00  0.00     0.010 A 
ATOM     48  C   UNL     1      11.684  -8.181  -3.245  1.00  0.00    -0.014 A 
BRANCH  48  49
ATOM     49  C   UNL     1      11.927  -6.904  -4.061  1.00  0.00     0.031 A 
ATOM     50  C   UNL     1      11.982  -6.949  -5.522  1.00  0.00     0.074 A 
ATOM     51  C   UNL     1      12.031  -5.600  -3.639  1.00  0.00     0.049 A 
ATOM     52  N   UNL     1      12.971  -6.521  -6.239  1.00  0.00    -0.248 NA
ATOM     53  C   UNL     1      10.811  -7.368  -6.276  1.00  0.00     0.031 C 
ATOM     54  C   UNL     1      12.182  -4.312  -4.349  1.00  0.00     0.029 A 
ATOM     55  N   UNL     1      12.007  -5.119  -2.350  1.00  0.00    -0.354 N 
ATOM     56  C   UNL     1      12.445  -6.322  -7.498  1.00  0.00     0.074 A 
ATOM     57  C   UNL     1      11.181  -7.037  -7.516  1.00  0.00     0.031 C 
ATOM     58  C   UNL     1      12.594  -3.352  -3.484  1.00  0.00     0.029 A 
ATOM     59  C   UNL     1      12.780  -3.973  -2.187  1.00  0.00     0.049 A 
ATOM     60  H   UNL     1      11.496  -5.541  -1.621  1.00  0.00     0.167 HD
ATOM     61  C   UNL     1      12.901  -5.339  -8.331  1.00  0.00     0.031 A 
ATOM     62  C   UNL     1      13.890  -3.994  -1.373  1.00  0.00     0.031 A 
ATOM     63  C   UNL     1      13.765  -4.373  -7.642  1.00  0.00     0.049 A 
ATOM     64  C   UNL     1      15.140  -3.893  -2.196  1.00  0.00     0.074 A 
ATOM     65  C   UNL     1      13.554  -3.050  -7.276  1.00  0.00     0.029 A 
ATOM     66  N   UNL     1      14.905  -4.782  -6.960  1.00  0.00    -0.354 N 
ATOM     67  N   UNL     1      15.122  -3.910  -3.492  1.00  0.00    -0.248 NA
ATOM     68  C   UNL     1      16.495  -3.824  -1.663  1.00  0.00     0.031 C 
ATOM     69  C   UNL     1      14.549  -2.681  -6.337  1.00  0.00     0.029 A 
ATOM     70  C   UNL     1      15.385  -3.767  -6.150  1.00  0.00     0.049 A 
ATOM     71  H   UNL     1      15.316  -5.673  -7.043  1.00  0.00     0.167 HD
ATOM     72  C   UNL     1      16.386  -3.890  -3.985  1.00  0.00     0.074 A 
ATOM     73  C   UNL     1      17.219  -3.807  -2.798  1.00  0.00     0.031 C 
ATOM     74  C   UNL     1      16.584  -3.956  -5.333  1.00  0.00     0.031 A 
BRANCH  61  75
ATOM     75  C   UNL     1      12.264  -5.065  -9.682  1.00  0.00    -0.014 A 
ATOM     76  C   UNL     1      12.342  -3.789 -10.274  1.00  0.00     0.010 A 
ATOM     77  C   UNL     1      11.614  -6.062 -10.440  1.00  0.00     0.010 A 
ATOM     78  C   UNL     1      11.729  -3.499 -11.502  1.00  0.00     0.020 A 
ATOM     79  C   UNL     1      10.958  -5.777 -11.648  1.00  0.00     0.020 A 
ATOM     80  C   UNL     1      11.023  -4.492 -12.174  1.00  0.00     0.054 A 
BRANCH  80  81
ATOM     81  S   UNL     1      10.244  -4.096 -13.761  1.00  0.00     0.124 S 
ATOM     82  O   UNL     1       9.362  -2.984 -13.414  1.00  0.00    -0.237 OA
ATOM     83  O   UNL     1      11.393  -3.750 -14.594  1.00  0.00    -0.237 OA
ATOM     84  O   UNL     1       9.560  -5.333 -14.132  1.00  0.00    -0.744 OA
ENDBRANCH  80  81
ENDBRANCH  61  75
BRANCH  62  85
ATOM     85  C   UNL     1      13.813  -4.864  -0.114  1.00  0.00    -0.014 A 
ATOM     86  C   UNL     1      12.965  -4.396   0.894  1.00  0.00     0.010 A 
ATOM     87  C   UNL     1      13.675  -6.216  -0.392  1.00  0.00     0.010 A 
ATOM     88  C   UNL     1      11.691  -4.962   1.016  1.00  0.00     0.020 A 
ATOM     89  C   UNL     1      12.344  -6.660  -0.379  1.00  0.00     0.020 A 
ATOM     90  C   UNL     1      11.299  -5.938   0.125  1.00  0.00     0.054 A 
BRANCH  90  91
ATOM     91  S   UNL     1       9.469  -6.101  -0.661  1.00  0.00     0.124 S 
ATOM     92  O   UNL     1       8.695  -5.204   0.129  1.00  0.00    -0.237 OA
ATOM     93  O   UNL     1       9.610  -5.678  -2.050  1.00  0.00    -0.237 OA
ATOM     94  O   UNL     1       8.983  -7.449  -0.468  1.00  0.00    -0.744 OA
ENDBRANCH  90  91
ENDBRANCH  62  85
BRANCH  74  95
ATOM     95  C   UNL     1      17.907  -4.092  -6.029  1.00  0.00    -0.014 A 
ATOM     96  C   UNL     1      19.108  -4.437  -5.399  1.00  0.00     0.010 A 
ATOM     97  C   UNL     1      17.944  -3.927  -7.436  1.00  0.00     0.010 A 
ATOM     98  C   UNL     1      20.302  -4.535  -6.121  1.00  0.00     0.020 A 
ATOM     99  C   UNL     1      19.115  -4.077  -8.174  1.00  0.00     0.020 A 
ATOM    100  C   UNL     1      20.297  -4.350  -7.504  1.00  0.00     0.054 A 
BRANCH 100 101
ATOM    101  S   UNL     1      21.846  -4.505  -8.415  1.00  0.00     0.124 S 
ATOM    102  O   UNL     1      22.509  -3.243  -8.095  1.00  0.00    -0.237 OA
ATOM    103  O   UNL     1      22.448  -5.697  -7.820  1.00  0.00    -0.237 OA
ATOM    104  O   UNL     1      21.421  -4.655  -9.804  1.00  0.00    -0.744 OA
ENDBRANCH 100 101
ENDBRANCH  74  95
ENDBRANCH  48  49
ENDBRANCH  40  43
ENDBRANCH  38  39
ENDBRANCH  37  38
ENDBRANCH   1  37
TORSDOF 20
