REMARK SMILES [NH3+]C[C@H]1CC[C@@H](C(=O)Nc2ccc(O)c(C(=O)NCCCCCCNC(=O)c3ccc(-c4c5nc(c(-c6ccc(S(=O)(=O)[O-])cc6)c6ccc([nH]6)c(-c6ccc(S(=O)(=O)[O-])cc6)c6nc(c(-c7ccc(S(=O)(=O)[O-])cc7)c7ccc4[nH]7)C=C6)C=C5)cc3)c2)O1
REMARK SMILES IDX 21 1 20 2 19 3 18 4 16 5 17 6 15 8 10 9 11 10 88 11 12 12
REMARK SMILES IDX 13 13 9 14 7 15 8 16 6 18 3 19 4 20 89 21 5 22 2 23 1 24
REMARK SMILES IDX 14 28 22 30 23 31 24 32 25 33 26 34 27 36 28 37 29 38 87 39
REMARK SMILES IDX 30 40 86 41 31 42 32 43 33 44 80 45 34 46 85 47 79 48 81 49
REMARK SMILES IDX 35 50 84 51 78 52 77 53 36 55 66 56 47 57 65 58 48 59 51 60
REMARK SMILES IDX 64 61 82 62 49 63 50 64 63 66 83 67 52 68 37 69 38 70 46 71
REMARK SMILES IDX 39 72 45 73 40 74 41 75 42 76 43 77 44 78 67 79 68 80 76 81
REMARK SMILES IDX 69 82 75 83 70 84 71 85 72 86 73 87 74 88 53 89 54 90 62 91
REMARK SMILES IDX 55 92 61 93 56 94 57 95 58 96 59 97 60 98
REMARK H PARENT 18 7 9 17 1 25 1 26 1 27 14 29 25 35 81 54 51 65
REMARK Flexibility Score: inf
ROOT
ATOM      1  C   UNL     1      -2.024 -12.156  -6.331  1.00  0.00     0.002 C 
ENDROOT
BRANCH   1   2
ATOM      2  C   UNL     1      -1.437 -10.780  -6.013  1.00  0.00     0.021 C 
BRANCH   2   3
ATOM      3  C   UNL     1      -2.138 -10.042  -4.867  1.00  0.00     0.116 C 
BRANCH   3   4
ATOM      4  N   UNL     1      -1.590 -10.452  -3.592  1.00  0.00    -0.352 N 
ATOM      5  C   UNL     1      -0.623  -9.915  -2.787  1.00  0.00     0.255 C 
ATOM      6  O   UNL     1      -0.379 -10.534  -1.745  1.00  0.00    -0.269 OA
ATOM      7  H   UNL     1      -1.991 -11.278  -3.235  1.00  0.00     0.163 HD
BRANCH   5   8
ATOM      8  C   UNL     1       0.109  -8.632  -3.023  1.00  0.00     0.083 A 
ATOM      9  C   UNL     1       1.263  -6.800  -1.878  1.00  0.00     0.042 A 
ATOM     10  C   UNL     1       1.713  -6.323  -3.101  1.00  0.00     0.030 A 
ATOM     11  C   UNL     1       0.523  -7.980  -1.838  1.00  0.00     0.043 A 
ATOM     12  C   UNL     1       1.300  -6.922  -4.281  1.00  0.00     0.049 A 
ATOM     13  C   UNL     1       0.491  -8.060  -4.245  1.00  0.00     0.128 A 
BRANCH   9  14
ATOM     14  N   UNL     1       1.658  -6.189  -0.686  1.00  0.00    -0.324 N 
ATOM     15  C   UNL     1       1.819  -4.847  -0.434  1.00  0.00     0.253 C 
ATOM     16  O   UNL     1       2.675  -4.503   0.387  1.00  0.00    -0.272 OA
ATOM     17  H   UNL     1       1.845  -6.795   0.067  1.00  0.00     0.170 HD
BRANCH  15  18
ATOM     18  C   UNL     1       0.760  -3.852  -0.989  1.00  0.00     0.208 C 
ATOM     19  C   UNL     1       1.040  -1.530  -1.275  1.00  0.00     0.174 C 
ATOM     20  C   UNL     1       0.341  -2.065  -2.507  1.00  0.00     0.041 C 
ATOM     21  O   UNL     1       0.902  -2.585  -0.304  1.00  0.00    -0.359 OA
ATOM     22  C   UNL     1       0.755  -3.518  -2.471  1.00  0.00     0.045 C 
BRANCH  19  23
ATOM     23  C   UNL     1       2.533  -1.202  -1.538  1.00  0.00     0.291 C 
BRANCH  23  24
ATOM     24  N   UNL     1       3.407  -1.472  -0.394  1.00  0.00    -0.355 N 
ATOM     25  H   UNL     1       4.368  -1.234  -0.638  1.00  0.00     0.344 HD
ATOM     26  H   UNL     1       3.352  -2.461  -0.151  1.00  0.00     0.344 HD
ATOM     27  H   UNL     1       3.108  -0.909   0.402  1.00  0.00     0.344 HD
ENDBRANCH  23  24
ENDBRANCH  19  23
ENDBRANCH  15  18
ENDBRANCH   9  14
BRANCH  13  28
ATOM     28  O   UNL     1       0.179  -8.593  -5.455  1.00  0.00    -0.507 OA
ATOM     29  H   UNL     1       0.461  -8.168  -6.241  1.00  0.00     0.293 HD
ENDBRANCH  13  28
ENDBRANCH   5   8
ENDBRANCH   3   4
ENDBRANCH   2   3
ENDBRANCH   1   2
BRANCH   1  30
ATOM     30  C   UNL     1      -3.453 -12.131  -6.878  1.00  0.00     0.002 C 
BRANCH  30  31
ATOM     31  C   UNL     1      -3.664 -11.241  -8.107  1.00  0.00     0.021 C 
BRANCH  31  32
ATOM     32  C   UNL     1      -2.816 -11.622  -9.318  1.00  0.00     0.116 C 
BRANCH  32  33
ATOM     33  N   UNL     1      -3.157 -12.947  -9.812  1.00  0.00    -0.352 N 
ATOM     34  C   UNL     1      -3.656 -13.316 -11.036  1.00  0.00     0.251 C 
ATOM     35  H   UNL     1      -3.009 -13.684  -9.177  1.00  0.00     0.163 HD
ATOM     36  O   UNL     1      -4.136 -14.433 -11.192  1.00  0.00    -0.269 OA
BRANCH  34  37
ATOM     37  C   UNL     1      -3.615 -12.360 -12.164  1.00  0.00     0.039 A 
ATOM     38  C   UNL     1      -4.738 -12.223 -12.982  1.00  0.00     0.014 A 
ATOM     39  C   UNL     1      -2.457 -11.622 -12.428  1.00  0.00     0.014 A 
ATOM     40  C   UNL     1      -4.718 -11.308 -14.037  1.00  0.00     0.010 A 
ATOM     41  C   UNL     1      -2.461 -10.665 -13.438  1.00  0.00     0.010 A 
ATOM     42  C   UNL     1      -3.588 -10.502 -14.257  1.00  0.00    -0.014 A 
BRANCH  42  43
ATOM     43  C   UNL     1      -3.564  -9.487 -15.340  1.00  0.00     0.031 A 
ATOM     44  C   UNL     1      -2.600  -9.630 -16.487  1.00  0.00     0.074 A 
ATOM     45  C   UNL     1      -4.360  -8.403 -15.254  1.00  0.00     0.049 A 
ATOM     46  N   UNL     1      -2.380  -8.812 -17.485  1.00  0.00    -0.248 NA
ATOM     47  C   UNL     1      -1.757 -10.837 -16.503  1.00  0.00     0.031 C 
ATOM     48  C   UNL     1      -5.308  -8.131 -14.171  1.00  0.00     0.029 A 
ATOM     49  N   UNL     1      -4.492  -7.321 -16.088  1.00  0.00    -0.354 N 
ATOM     50  C   UNL     1      -1.363  -9.394 -18.233  1.00  0.00     0.074 A 
ATOM     51  C   UNL     1      -0.979 -10.610 -17.552  1.00  0.00     0.031 C 
ATOM     52  C   UNL     1      -5.937  -6.970 -14.417  1.00  0.00     0.029 A 
ATOM     53  C   UNL     1      -5.411  -6.396 -15.652  1.00  0.00     0.049 A 
ATOM     54  H   UNL     1      -3.977  -7.218 -16.921  1.00  0.00     0.167 HD
ATOM     55  C   UNL     1      -0.812  -8.963 -19.393  1.00  0.00     0.031 A 
ATOM     56  C   UNL     1      -5.783  -5.214 -16.180  1.00  0.00     0.031 A 
ATOM     57  C   UNL     1      -1.209  -7.761 -20.076  1.00  0.00     0.049 A 
ATOM     58  C   UNL     1      -5.155  -4.757 -17.468  1.00  0.00     0.074 A 
ATOM     59  C   UNL     1      -0.752  -7.269 -21.287  1.00  0.00     0.029 A 
ATOM     60  N   UNL     1      -2.157  -6.862 -19.611  1.00  0.00    -0.354 N 
ATOM     61  N   UNL     1      -4.239  -5.353 -18.193  1.00  0.00    -0.248 NA
ATOM     62  C   UNL     1      -5.618  -3.474 -18.014  1.00  0.00     0.031 C 
ATOM     63  C   UNL     1      -1.389  -6.048 -21.530  1.00  0.00     0.029 A 
ATOM     64  C   UNL     1      -2.283  -5.807 -20.498  1.00  0.00     0.049 A 
ATOM     65  H   UNL     1      -2.665  -6.960 -18.773  1.00  0.00     0.167 HD
ATOM     66  C   UNL     1      -4.036  -4.530 -19.295  1.00  0.00     0.074 A 
ATOM     67  C   UNL     1      -4.934  -3.403 -19.147  1.00  0.00     0.031 C 
ATOM     68  C   UNL     1      -3.183  -4.694 -20.336  1.00  0.00     0.031 A 
BRANCH  55  69
ATOM     69  C   UNL     1       0.287  -9.798 -19.996  1.00  0.00    -0.014 A 
ATOM     70  C   UNL     1       0.015 -11.052 -20.573  1.00  0.00     0.010 A 
ATOM     71  C   UNL     1       1.603  -9.301 -20.031  1.00  0.00     0.010 A 
ATOM     72  C   UNL     1       1.043 -11.810 -21.137  1.00  0.00     0.020 A 
ATOM     73  C   UNL     1       2.631 -10.045 -20.619  1.00  0.00     0.020 A 
ATOM     74  C   UNL     1       2.346 -11.303 -21.154  1.00  0.00     0.054 A 
BRANCH  74  75
ATOM     75  S   UNL     1       3.656 -12.298 -21.919  1.00  0.00     0.124 S 
ATOM     76  O   UNL     1       3.851 -13.351 -20.925  1.00  0.00    -0.237 OA
ATOM     77  O   UNL     1       3.043 -12.725 -23.174  1.00  0.00    -0.237 OA
ATOM     78  O   UNL     1       4.767 -11.360 -22.058  1.00  0.00    -0.744 OA
ENDBRANCH  74  75
ENDBRANCH  55  69
BRANCH  56  79
ATOM     79  C   UNL     1      -6.809  -4.383 -15.493  1.00  0.00    -0.014 A 
ATOM     80  C   UNL     1      -8.093  -4.233 -16.044  1.00  0.00     0.010 A 
ATOM     81  C   UNL     1      -6.507  -3.743 -14.277  1.00  0.00     0.010 A 
ATOM     82  C   UNL     1      -9.051  -3.442 -15.402  1.00  0.00     0.020 A 
ATOM     83  C   UNL     1      -7.470  -2.974 -13.619  1.00  0.00     0.020 A 
ATOM     84  C   UNL     1      -8.733  -2.817 -14.193  1.00  0.00     0.054 A 
BRANCH  84  85
ATOM     85  S   UNL     1     -10.005  -1.833 -13.353  1.00  0.00     0.124 S 
ATOM     86  O   UNL     1     -10.040  -0.624 -14.168  1.00  0.00    -0.237 OA
ATOM     87  O   UNL     1     -11.182  -2.693 -13.443  1.00  0.00    -0.237 OA
ATOM     88  O   UNL     1      -9.469  -1.665 -12.004  1.00  0.00    -0.744 OA
ENDBRANCH  84  85
ENDBRANCH  56  79
BRANCH  68  89
ATOM     89  C   UNL     1      -3.200  -3.646 -21.417  1.00  0.00    -0.014 A 
ATOM     90  C   UNL     1      -2.650  -2.371 -21.203  1.00  0.00     0.010 A 
ATOM     91  C   UNL     1      -3.724  -3.966 -22.683  1.00  0.00     0.010 A 
ATOM     92  C   UNL     1      -2.648  -1.423 -22.230  1.00  0.00     0.020 A 
ATOM     93  C   UNL     1      -3.699  -3.030 -23.720  1.00  0.00     0.020 A 
ATOM     94  C   UNL     1      -3.173  -1.759 -23.482  1.00  0.00     0.054 A 
BRANCH  94  95
ATOM     95  S   UNL     1      -3.115  -0.528 -24.812  1.00  0.00     0.124 S 
ATOM     96  O   UNL     1      -4.170   0.399 -24.414  1.00  0.00    -0.237 OA
ATOM     97  O   UNL     1      -1.752  -0.011 -24.712  1.00  0.00    -0.237 OA
ATOM     98  O   UNL     1      -3.391  -1.307 -26.017  1.00  0.00    -0.744 OA
ENDBRANCH  94  95
ENDBRANCH  68  89
ENDBRANCH  42  43
ENDBRANCH  34  37
ENDBRANCH  32  33
ENDBRANCH  31  32
ENDBRANCH  30  31
ENDBRANCH   1  30
TORSDOF 21
