REMARK SMILES C[C@@H]1CC([NH2+][C@@](C)(C(=O)NCCCCCCNC(=O)c2ccc(-c3c4nc(c(-c5ccc(S(=O)(=O)[O-])cc5)c5ccc([nH]5)c(-c5ccc(S(=O)(=O)[O-])cc5)c5nc(c(-c6ccc(S(=O)(=O)[O-])cc6)c6ccc3[nH]6)C=C5)C=C4)cc2)C(F)(F)F)C[C@@H](C)C1
REMARK SMILES IDX 14 1 13 2 12 3 11 4 10 5 8 6 9 7 6 9 7 10 5 11 4 14 1 15
REMARK SMILES IDX 2 16 3 17 87 18 85 19 84 20 86 21 80 22 81 23 82 24 83 25
REMARK SMILES IDX 15 26 16 27 17 28 18 29 19 31 20 32 21 33 79 34 22 35 78 36
REMARK SMILES IDX 23 37 24 38 25 39 72 40 26 41 77 42 71 43 73 44 27 45 76 46
REMARK SMILES IDX 70 47 69 48 28 50 58 51 39 52 57 53 40 54 43 55 56 56 74 57
REMARK SMILES IDX 41 58 42 59 55 61 75 62 44 63 29 64 30 65 38 66 31 67 37 68
REMARK SMILES IDX 32 69 33 70 34 71 35 72 36 73 59 74 60 75 68 76 61 77 67 78
REMARK SMILES IDX 62 79 63 80 64 81 65 82 66 83 45 84 46 85 54 86 47 87 53 88
REMARK SMILES IDX 48 89 49 90 50 91 51 92 52 93
REMARK H PARENT 10 8 5 12 5 13 17 30 73 49 43 60
REMARK Flexibility Score: inf
ROOT
ATOM      1  C   UNL     1       2.749   2.423   4.692  1.00  0.00     0.002 C 
ENDROOT
BRANCH   1   2
ATOM      2  C   UNL     1       2.805   1.014   4.089  1.00  0.00     0.002 C 
BRANCH   2   3
ATOM      3  C   UNL     1       2.522   0.951   2.585  1.00  0.00     0.021 C 
BRANCH   3   4
ATOM      4  C   UNL     1       3.539   1.714   1.738  1.00  0.00     0.116 C 
BRANCH   4   5
ATOM      5  N   UNL     1       4.745   0.927   1.550  1.00  0.00    -0.350 N 
ATOM      6  C   UNL     1       5.370   0.424   0.439  1.00  0.00     0.290 C 
ATOM      7  O   UNL     1       6.369  -0.263   0.671  1.00  0.00    -0.267 OA
ATOM      8  H   UNL     1       5.206   0.710   2.392  1.00  0.00     0.163 HD
BRANCH   6   9
ATOM      9  C   UNL     1       4.874   0.742  -1.002  1.00  0.00     0.268 C 
ATOM     10  C   UNL     1       4.985   2.271  -1.188  1.00  0.00     0.101 C 
BRANCH   9  11
ATOM     11  N   UNL     1       3.484   0.179  -1.132  1.00  0.00    -0.324 N 
ATOM     12  H   UNL     1       3.540  -0.804  -0.867  1.00  0.00     0.347 HD
ATOM     13  H   UNL     1       2.928   0.798  -0.541  1.00  0.00     0.347 HD
BRANCH  11  14
ATOM     14  C   UNL     1       2.783   0.230  -2.418  1.00  0.00     0.184 C 
ATOM     15  C   UNL     1       0.360  -0.358  -0.071  1.00  0.00     0.008 C 
ATOM     16  C   UNL     1       0.303  -0.074  -1.577  1.00  0.00    -0.008 C 
ATOM     17  C   UNL     1       1.510  -0.658  -2.348  1.00  0.00     0.068 C 
ATOM     18  C   UNL     1       0.055   1.414  -1.891  1.00  0.00     0.007 C 
ATOM     19  C   UNL     1       1.333   2.256  -1.900  1.00  0.00    -0.008 C 
ATOM     20  C   UNL     1       2.345   1.632  -2.867  1.00  0.00     0.068 C 
ATOM     21  C   UNL     1       1.049   3.708  -2.278  1.00  0.00     0.008 C 
ENDBRANCH  11  14
ENDBRANCH   9  11
BRANCH   9  22
ATOM     22  C   UNL     1       5.933   0.097  -1.951  1.00  0.00     0.453 C 
ATOM     23  F   UNL     1       5.983  -1.251  -1.866  1.00  0.00    -0.164 F 
ATOM     24  F   UNL     1       5.646   0.388  -3.252  1.00  0.00    -0.164 F 
ATOM     25  F   UNL     1       7.181   0.583  -1.741  1.00  0.00    -0.164 F 
ENDBRANCH   9  22
ENDBRANCH   6   9
ENDBRANCH   4   5
ENDBRANCH   3   4
ENDBRANCH   2   3
ENDBRANCH   1   2
BRANCH   1  26
ATOM     26  C   UNL     1       1.448   3.190   4.438  1.00  0.00     0.021 C 
BRANCH  26  27
ATOM     27  C   UNL     1       0.187   2.490   4.937  1.00  0.00     0.116 C 
BRANCH  27  28
ATOM     28  N   UNL     1       0.220   2.272   6.374  1.00  0.00    -0.352 N 
ATOM     29  C   UNL     1      -0.652   2.700   7.344  1.00  0.00     0.251 C 
ATOM     30  H   UNL     1       0.981   1.739   6.700  1.00  0.00     0.163 HD
ATOM     31  O   UNL     1      -0.342   2.608   8.527  1.00  0.00    -0.269 OA
BRANCH  29  32
ATOM     32  C   UNL     1      -1.956   3.283   6.961  1.00  0.00     0.039 A 
ATOM     33  C   UNL     1      -2.397   4.438   7.611  1.00  0.00     0.014 A 
ATOM     34  C   UNL     1      -2.748   2.684   5.977  1.00  0.00     0.014 A 
ATOM     35  C   UNL     1      -3.605   5.026   7.232  1.00  0.00     0.010 A 
ATOM     36  C   UNL     1      -3.916   3.311   5.551  1.00  0.00     0.010 A 
ATOM     37  C   UNL     1      -4.358   4.487   6.175  1.00  0.00    -0.014 A 
BRANCH  37  38
ATOM     38  C   UNL     1      -5.599   5.152   5.700  1.00  0.00     0.031 A 
ATOM     39  C   UNL     1      -6.928   4.454   5.809  1.00  0.00     0.074 A 
ATOM     40  C   UNL     1      -5.518   6.358   5.104  1.00  0.00     0.049 A 
ATOM     41  N   UNL     1      -8.105   4.855   5.402  1.00  0.00    -0.248 NA
ATOM     42  C   UNL     1      -6.931   3.121   6.434  1.00  0.00     0.031 C 
ATOM     43  C   UNL     1      -4.282   7.117   4.894  1.00  0.00     0.029 A 
ATOM     44  N   UNL     1      -6.492   7.154   4.555  1.00  0.00    -0.354 N 
ATOM     45  C   UNL     1      -8.983   3.821   5.701  1.00  0.00     0.074 A 
ATOM     46  C   UNL     1      -8.196   2.755   6.284  1.00  0.00     0.031 C 
ATOM     47  C   UNL     1      -4.576   8.274   4.281  1.00  0.00     0.029 A 
ATOM     48  C   UNL     1      -6.010   8.324   4.016  1.00  0.00     0.049 A 
ATOM     49  H   UNL     1      -7.446   6.911   4.549  1.00  0.00     0.167 HD
ATOM     50  C   UNL     1     -10.325   3.767   5.521  1.00  0.00     0.031 A 
ATOM     51  C   UNL     1      -6.645   9.320   3.369  1.00  0.00     0.031 A 
ATOM     52  C   UNL     1     -11.104   4.834   4.947  1.00  0.00     0.049 A 
ATOM     53  C   UNL     1      -8.134   9.240   3.179  1.00  0.00     0.074 A 
ATOM     54  C   UNL     1     -12.477   4.905   4.789  1.00  0.00     0.029 A 
ATOM     55  N   UNL     1     -10.580   6.009   4.429  1.00  0.00    -0.354 N 
ATOM     56  N   UNL     1      -8.960   8.289   3.546  1.00  0.00    -0.248 NA
ATOM     57  C   UNL     1      -8.780  10.371   2.499  1.00  0.00     0.031 C 
ATOM     58  C   UNL     1     -12.778   6.095   4.118  1.00  0.00     0.029 A 
ATOM     59  C   UNL     1     -11.599   6.796   3.918  1.00  0.00     0.049 A 
ATOM     60  H   UNL     1      -9.625   6.248   4.425  1.00  0.00     0.167 HD
ATOM     61  C   UNL     1     -10.225   8.717   3.161  1.00  0.00     0.074 A 
ATOM     62  C   UNL     1     -10.057  10.020   2.549  1.00  0.00     0.031 C 
ATOM     63  C   UNL     1     -11.418   8.087   3.302  1.00  0.00     0.031 A 
BRANCH  50  64
ATOM     64  C   UNL     1     -11.036   2.503   5.933  1.00  0.00    -0.014 A 
ATOM     65  C   UNL     1     -11.161   2.141   7.286  1.00  0.00     0.010 A 
ATOM     66  C   UNL     1     -11.620   1.682   4.950  1.00  0.00     0.010 A 
ATOM     67  C   UNL     1     -11.814   0.959   7.646  1.00  0.00     0.020 A 
ATOM     68  C   UNL     1     -12.301   0.515   5.308  1.00  0.00     0.020 A 
ATOM     69  C   UNL     1     -12.377   0.151   6.654  1.00  0.00     0.054 A 
BRANCH  69  70
ATOM     70  S   UNL     1     -13.229  -1.371   7.152  1.00  0.00     0.124 S 
ATOM     71  O   UNL     1     -12.112  -2.225   7.548  1.00  0.00    -0.237 OA
ATOM     72  O   UNL     1     -14.088  -0.915   8.242  1.00  0.00    -0.237 OA
ATOM     73  O   UNL     1     -13.932  -1.787   5.941  1.00  0.00    -0.744 OA
ENDBRANCH  69  70
ENDBRANCH  50  64
BRANCH  51  74
ATOM     74  C   UNL     1      -5.865  10.481   2.857  1.00  0.00    -0.014 A 
ATOM     75  C   UNL     1      -5.981  11.746   3.459  1.00  0.00     0.010 A 
ATOM     76  C   UNL     1      -4.977  10.316   1.778  1.00  0.00     0.010 A 
ATOM     77  C   UNL     1      -5.229  12.826   2.986  1.00  0.00     0.020 A 
ATOM     78  C   UNL     1      -4.203  11.386   1.321  1.00  0.00     0.020 A 
ATOM     79  C   UNL     1      -4.341  12.637   1.923  1.00  0.00     0.054 A 
BRANCH  79  80
ATOM     80  S   UNL     1      -3.326  14.037   1.371  1.00  0.00     0.124 S 
ATOM     81  O   UNL     1      -4.306  14.870   0.682  1.00  0.00    -0.237 OA
ATOM     82  O   UNL     1      -2.813  14.570   2.630  1.00  0.00    -0.237 OA
ATOM     83  O   UNL     1      -2.321  13.412   0.514  1.00  0.00    -0.744 OA
ENDBRANCH  79  80
ENDBRANCH  51  74
BRANCH  63  84
ATOM     84  C   UNL     1     -12.645   8.806   2.807  1.00  0.00    -0.014 A 
ATOM     85  C   UNL     1     -12.894   8.963   1.432  1.00  0.00     0.010 A 
ATOM     86  C   UNL     1     -13.592   9.282   3.733  1.00  0.00     0.010 A 
ATOM     87  C   UNL     1     -14.053   9.609   0.993  1.00  0.00     0.020 A 
ATOM     88  C   UNL     1     -14.766   9.901   3.298  1.00  0.00     0.020 A 
ATOM     89  C   UNL     1     -14.983  10.073   1.929  1.00  0.00     0.054 A 
BRANCH  89  90
ATOM     90  S   UNL     1     -16.500  10.867   1.332  1.00  0.00     0.124 S 
ATOM     91  O   UNL     1     -16.003  12.156   0.859  1.00  0.00    -0.237 OA
ATOM     92  O   UNL     1     -16.954   9.948   0.292  1.00  0.00    -0.237 OA
ATOM     93  O   UNL     1     -17.351  10.925   2.519  1.00  0.00    -0.744 OA
ENDBRANCH  89  90
ENDBRANCH  63  84
ENDBRANCH  37  38
ENDBRANCH  29  32
ENDBRANCH  27  28
ENDBRANCH  26  27
ENDBRANCH   1  26
TORSDOF 19
