REMARK SMILES CC[C@@](O)(C(=O)NCCCCCCNC(=O)c1ccc(-c2c3nc(c(-c4ccc(S(=O)(=O)[O-])cc4)c4ccc([nH]4)c(-c4ccc(S(=O)(=O)[O-])cc4)c4nc(c(-c5ccc(S(=O)(=O)[O-])cc5)c5ccc2[nH]5)C=C4)C=C3)cc1)[C@@H](C)c1ccc(OC(C)C)cc1
REMARK SMILES IDX 10 1 9 2 8 3 7 4 5 5 6 6 3 8 2 9 1 10 4 11 77 13 78 14 79 15
REMARK SMILES IDX 80 16 88 17 81 18 87 19 82 20 83 21 84 22 85 23 86 24 11 25
REMARK SMILES IDX 12 26 13 27 14 28 15 29 16 31 17 32 18 33 76 34 19 35 75 36
REMARK SMILES IDX 20 37 21 38 22 39 69 40 23 41 74 42 68 43 70 44 24 45 73 46
REMARK SMILES IDX 67 47 66 48 25 50 55 51 36 52 54 53 37 54 40 55 53 56 71 57
REMARK SMILES IDX 38 58 39 59 52 61 72 62 41 63 26 64 27 65 35 66 28 67 34 68
REMARK SMILES IDX 29 69 30 70 31 71 32 72 33 73 56 74 57 75 65 76 58 77 64 78
REMARK SMILES IDX 59 79 60 80 61 81 62 82 63 83 42 84 43 85 51 86 44 87 50 88
REMARK SMILES IDX 45 89 46 90 47 91 48 92 49 93
REMARK H PARENT 7 7 4 12 14 30 70 49 40 60
REMARK Flexibility Score: inf
ROOT
ATOM      1  C   UNL     1      -3.554   4.299  -1.067  1.00  0.00     0.002 C 
ENDROOT
BRANCH   1   2
ATOM      2  C   UNL     1      -2.814   2.993  -0.762  1.00  0.00     0.021 C 
BRANCH   2   3
ATOM      3  C   UNL     1      -2.006   2.457  -1.944  1.00  0.00     0.116 C 
BRANCH   3   4
ATOM      4  N   UNL     1      -0.904   3.344  -2.250  1.00  0.00    -0.354 N 
ATOM      5  C   UNL     1       0.446   3.184  -2.135  1.00  0.00     0.252 C 
ATOM      6  O   UNL     1       1.122   4.137  -2.535  1.00  0.00    -0.272 OA
ATOM      7  H   UNL     1      -1.178   4.221  -2.605  1.00  0.00     0.163 HD
BRANCH   5   8
ATOM      8  C   UNL     1       1.075   1.864  -1.570  1.00  0.00     0.149 C 
BRANCH   8   9
ATOM      9  C   UNL     1       0.586   1.590  -0.116  1.00  0.00     0.043 C 
ATOM     10  C   UNL     1       0.735   0.174   0.438  1.00  0.00     0.007 C 
ENDBRANCH   8   9
BRANCH   8  11
ATOM     11  O   UNL     1       0.579   0.874  -2.502  1.00  0.00    -0.379 OA
ATOM     12  H   UNL     1      -0.388   0.825  -2.436  1.00  0.00     0.212 HD
ENDBRANCH   8  11
BRANCH   8  13
ATOM     13  C   UNL     1       2.655   1.919  -1.702  1.00  0.00     0.057 C 
ATOM     14  C   UNL     1       3.279   3.061  -0.864  1.00  0.00     0.016 C 
BRANCH  13  15
ATOM     15  C   UNL     1       3.316   0.564  -1.394  1.00  0.00    -0.042 A 
ATOM     16  C   UNL     1       3.003  -0.568  -2.161  1.00  0.00     0.008 A 
ATOM     17  C   UNL     1       4.169   0.379  -0.299  1.00  0.00     0.008 A 
ATOM     18  C   UNL     1       3.382  -1.848  -1.744  1.00  0.00     0.047 A 
ATOM     19  C   UNL     1       4.569  -0.899   0.099  1.00  0.00     0.047 A 
ATOM     20  C   UNL     1       4.141  -2.025  -0.589  1.00  0.00     0.119 A 
BRANCH  20  21
ATOM     21  O   UNL     1       4.360  -3.325  -0.247  1.00  0.00    -0.491 OA
BRANCH  21  22
ATOM     22  C   UNL     1       5.217  -3.701   0.835  1.00  0.00     0.167 C 
ATOM     23  C   UNL     1       6.673  -3.302   0.602  1.00  0.00     0.052 C 
ATOM     24  C   UNL     1       4.661  -3.369   2.220  1.00  0.00     0.052 C 
ENDBRANCH  21  22
ENDBRANCH  20  21
ENDBRANCH  13  15
ENDBRANCH   8  13
ENDBRANCH   5   8
ENDBRANCH   3   4
ENDBRANCH   2   3
ENDBRANCH   1   2
BRANCH   1  25
ATOM     25  C   UNL     1      -4.498   4.226  -2.270  1.00  0.00     0.002 C 
BRANCH  25  26
ATOM     26  C   UNL     1      -5.513   3.083  -2.211  1.00  0.00     0.021 C 
BRANCH  26  27
ATOM     27  C   UNL     1      -6.408   3.112  -0.979  1.00  0.00     0.116 C 
BRANCH  27  28
ATOM     28  N   UNL     1      -7.232   4.309  -0.944  1.00  0.00    -0.352 N 
ATOM     29  C   UNL     1      -8.595   4.408  -0.848  1.00  0.00     0.251 C 
ATOM     30  H   UNL     1      -6.745   5.163  -0.997  1.00  0.00     0.163 HD
ATOM     31  O   UNL     1      -9.153   5.482  -1.068  1.00  0.00    -0.269 OA
BRANCH  29  32
ATOM     32  C   UNL     1      -9.386   3.214  -0.489  1.00  0.00     0.039 A 
ATOM     33  C   UNL     1     -10.554   2.932  -1.199  1.00  0.00     0.014 A 
ATOM     34  C   UNL     1      -8.967   2.374   0.547  1.00  0.00     0.014 A 
ATOM     35  C   UNL     1     -11.282   1.781  -0.895  1.00  0.00     0.010 A 
ATOM     36  C   UNL     1      -9.646   1.185   0.790  1.00  0.00     0.010 A 
ATOM     37  C   UNL     1     -10.821   0.886   0.085  1.00  0.00    -0.014 A 
BRANCH  37  38
ATOM     38  C   UNL     1     -11.567  -0.356   0.408  1.00  0.00     0.031 A 
ATOM     39  C   UNL     1     -12.149  -0.546   1.783  1.00  0.00     0.074 A 
ATOM     40  C   UNL     1     -11.672  -1.333  -0.513  1.00  0.00     0.049 A 
ATOM     41  N   UNL     1     -12.798  -1.573   2.270  1.00  0.00    -0.248 NA
ATOM     42  C   UNL     1     -11.951   0.550   2.746  1.00  0.00     0.031 C 
ATOM     43  C   UNL     1     -11.123  -1.282  -1.870  1.00  0.00     0.029 A 
ATOM     44  N   UNL     1     -12.278  -2.562  -0.446  1.00  0.00    -0.354 N 
ATOM     45  C   UNL     1     -13.066  -1.256   3.597  1.00  0.00     0.074 A 
ATOM     46  C   UNL     1     -12.458   0.031   3.854  1.00  0.00     0.031 C 
ATOM     47  C   UNL     1     -11.451  -2.410  -2.519  1.00  0.00     0.029 A 
ATOM     48  C   UNL     1     -12.192  -3.283  -1.614  1.00  0.00     0.049 A 
ATOM     49  H   UNL     1     -12.731  -2.896   0.361  1.00  0.00     0.167 HD
ATOM     50  C   UNL     1     -13.771  -1.961   4.514  1.00  0.00     0.031 A 
ATOM     51  C   UNL     1     -12.657  -4.510  -1.922  1.00  0.00     0.031 A 
ATOM     52  C   UNL     1     -14.374  -3.240   4.250  1.00  0.00     0.049 A 
ATOM     53  C   UNL     1     -13.419  -5.286  -0.883  1.00  0.00     0.074 A 
ATOM     54  C   UNL     1     -15.155  -4.013   5.091  1.00  0.00     0.029 A 
ATOM     55  N   UNL     1     -14.257  -3.939   3.057  1.00  0.00    -0.354 N 
ATOM     56  N   UNL     1     -13.719  -4.942   0.347  1.00  0.00    -0.248 NA
ATOM     57  C   UNL     1     -13.917  -6.609  -1.280  1.00  0.00     0.031 C 
ATOM     58  C   UNL     1     -15.456  -5.208   4.429  1.00  0.00     0.029 A 
ATOM     59  C   UNL     1     -14.926  -5.149   3.150  1.00  0.00     0.049 A 
ATOM     60  H   UNL     1     -13.771  -3.623   2.262  1.00  0.00     0.167 HD
ATOM     61  C   UNL     1     -14.472  -5.993   0.860  1.00  0.00     0.074 A 
ATOM     62  C   UNL     1     -14.586  -6.978  -0.196  1.00  0.00     0.031 C 
ATOM     63  C   UNL     1     -15.027  -6.124   2.092  1.00  0.00     0.031 A 
BRANCH  50  64
ATOM     64  C   UNL     1     -13.899  -1.367   5.894  1.00  0.00    -0.014 A 
ATOM     65  C   UNL     1     -14.626  -0.182   6.119  1.00  0.00     0.010 A 
ATOM     66  C   UNL     1     -13.282  -2.003   6.986  1.00  0.00     0.010 A 
ATOM     67  C   UNL     1     -14.675   0.389   7.394  1.00  0.00     0.020 A 
ATOM     68  C   UNL     1     -13.360  -1.456   8.270  1.00  0.00     0.020 A 
ATOM     69  C   UNL     1     -14.034  -0.248   8.460  1.00  0.00     0.054 A 
BRANCH  69  70
ATOM     70  S   UNL     1     -14.100   0.523  10.100  1.00  0.00     0.124 S 
ATOM     71  O   UNL     1     -13.206   1.667   9.931  1.00  0.00    -0.237 OA
ATOM     72  O   UNL     1     -15.516   0.849  10.244  1.00  0.00    -0.237 OA
ATOM     73  O   UNL     1     -13.609  -0.522  10.995  1.00  0.00    -0.744 OA
ENDBRANCH  69  70
ENDBRANCH  50  64
BRANCH  51  74
ATOM     74  C   UNL     1     -12.444  -5.056  -3.290  1.00  0.00    -0.014 A 
ATOM     75  C   UNL     1     -13.524  -5.175  -4.183  1.00  0.00     0.010 A 
ATOM     76  C   UNL     1     -11.156  -5.422  -3.723  1.00  0.00     0.010 A 
ATOM     77  C   UNL     1     -13.322  -5.654  -5.480  1.00  0.00     0.020 A 
ATOM     78  C   UNL     1     -10.945  -5.875  -5.028  1.00  0.00     0.020 A 
ATOM     79  C   UNL     1     -12.031  -5.993  -5.897  1.00  0.00     0.054 A 
BRANCH  79  80
ATOM     80  S   UNL     1     -11.784  -6.540  -7.610  1.00  0.00     0.124 S 
ATOM     81  O   UNL     1     -12.406  -7.860  -7.601  1.00  0.00    -0.237 OA
ATOM     82  O   UNL     1     -12.490  -5.512  -8.371  1.00  0.00    -0.237 OA
ATOM     83  O   UNL     1     -10.331  -6.532  -7.765  1.00  0.00    -0.744 OA
ENDBRANCH  79  80
ENDBRANCH  51  74
BRANCH  63  84
ATOM     84  C   UNL     1     -15.847  -7.360   2.356  1.00  0.00    -0.014 A 
ATOM     85  C   UNL     1     -15.251  -8.627   2.482  1.00  0.00     0.010 A 
ATOM     86  C   UNL     1     -17.238  -7.237   2.537  1.00  0.00     0.010 A 
ATOM     87  C   UNL     1     -16.036  -9.753   2.750  1.00  0.00     0.020 A 
ATOM     88  C   UNL     1     -18.020  -8.354   2.837  1.00  0.00     0.020 A 
ATOM     89  C   UNL     1     -17.416  -9.609   2.927  1.00  0.00     0.054 A 
BRANCH  89  90
ATOM     90  S   UNL     1     -18.404 -11.078   3.316  1.00  0.00     0.124 S 
ATOM     91  O   UNL     1     -18.406 -11.790   2.041  1.00  0.00    -0.237 OA
ATOM     92  O   UNL     1     -17.634 -11.707   4.386  1.00  0.00    -0.237 OA
ATOM     93  O   UNL     1     -19.696 -10.530   3.725  1.00  0.00    -0.744 OA
ENDBRANCH  89  90
ENDBRANCH  63  84
ENDBRANCH  37  38
ENDBRANCH  29  32
ENDBRANCH  27  28
ENDBRANCH  26  27
ENDBRANCH  25  26
ENDBRANCH   1  25
TORSDOF 22
