REMARK SMILES O=C(NCCCCCCNC(=O)[C@H]1C=C[C@H](NS(=O)(=O)c2ccc(F)c(F)c2F)C1)c1ccc(-c2c3nc(c(-c4ccc(S(=O)(=O)[O-])cc4)c4ccc([nH]4)c(-c4ccc(S(=O)(=O)[O-])cc4)c4nc(c(-c5ccc(S(=O)(=O)[O-])cc5)c5ccc2[nH]5)C=C4)C=C3)cc1
REMARK SMILES IDX 6 1 5 2 4 3 3 4 1 5 2 6 31 8 32 9 90 10 33 11 89 12 34 13
REMARK SMILES IDX 35 14 36 15 83 16 37 17 88 18 82 19 84 20 38 21 87 22 81 23
REMARK SMILES IDX 80 24 39 26 69 27 50 28 68 29 51 30 54 31 67 32 85 33 52 34
REMARK SMILES IDX 53 35 66 37 86 38 55 39 40 40 41 41 49 42 42 43 48 44 43 45
REMARK SMILES IDX 44 46 45 47 46 48 47 49 70 50 71 51 79 52 72 53 78 54 73 55
REMARK SMILES IDX 74 56 75 57 76 58 77 59 56 60 57 61 65 62 58 63 64 64 59 65
REMARK SMILES IDX 60 66 61 67 62 68 63 69 7 70 8 71 9 72 10 73 11 74 12 76
REMARK SMILES IDX 13 77 14 78 30 79 15 80 16 81 17 82 18 84 19 85 20 86 21 87
REMARK SMILES IDX 22 88 28 89 23 90 26 91 29 92 24 93 27 94 25 95
REMARK H PARENT 3 7 84 25 54 36 10 75 17 83
REMARK Flexibility Score: inf
ROOT
ATOM      1  C   UNL     1       4.187  -3.288  -1.835  1.00  0.00     0.002 C 
ENDROOT
BRANCH   1   2
ATOM      2  C   UNL     1       4.636  -2.487  -0.614  1.00  0.00     0.021 C 
BRANCH   2   3
ATOM      3  C   UNL     1       4.464  -0.982  -0.762  1.00  0.00     0.116 C 
BRANCH   3   4
ATOM      4  N   UNL     1       3.064  -0.595  -0.867  1.00  0.00    -0.352 N 
ATOM      5  O   UNL     1       1.123   0.330  -0.178  1.00  0.00    -0.269 OA
ATOM      6  C   UNL     1       2.342   0.260  -0.069  1.00  0.00     0.251 C 
ATOM      7  H   UNL     1       2.566  -1.003  -1.612  1.00  0.00     0.163 HD
BRANCH   6   8
ATOM      8  C   UNL     1       3.053   1.073   0.940  1.00  0.00     0.039 A 
ATOM      9  C   UNL     1       4.243   1.722   0.604  1.00  0.00     0.014 A 
ATOM     10  C   UNL     1       2.551   1.153   2.241  1.00  0.00     0.014 A 
ATOM     11  C   UNL     1       5.019   2.290   1.604  1.00  0.00     0.010 A 
ATOM     12  C   UNL     1       3.284   1.824   3.224  1.00  0.00     0.010 A 
ATOM     13  C   UNL     1       4.547   2.359   2.925  1.00  0.00    -0.014 A 
BRANCH  13  14
ATOM     14  C   UNL     1       5.383   3.029   3.956  1.00  0.00     0.031 A 
ATOM     15  C   UNL     1       5.906   2.276   5.151  1.00  0.00     0.074 A 
ATOM     16  C   UNL     1       5.709   4.326   3.778  1.00  0.00     0.049 A 
ATOM     17  N   UNL     1       6.694   2.700   6.107  1.00  0.00    -0.248 NA
ATOM     18  C   UNL     1       5.489   0.873   5.300  1.00  0.00     0.031 C 
ATOM     19  C   UNL     1       5.261   5.162   2.659  1.00  0.00     0.029 A 
ATOM     20  N   UNL     1       6.514   5.160   4.510  1.00  0.00    -0.354 N 
ATOM     21  C   UNL     1       6.844   1.631   6.984  1.00  0.00     0.074 A 
ATOM     22  C   UNL     1       6.046   0.544   6.459  1.00  0.00     0.031 C 
ATOM     23  C   UNL     1       5.849   6.363   2.744  1.00  0.00     0.029 A 
ATOM     24  C   UNL     1       6.652   6.411   3.958  1.00  0.00     0.049 A 
ATOM     25  H   UNL     1       6.950   4.888   5.350  1.00  0.00     0.167 HD
ATOM     26  C   UNL     1       7.582   1.561   8.120  1.00  0.00     0.031 A 
ATOM     27  C   UNL     1       7.338   7.488   4.385  1.00  0.00     0.031 A 
ATOM     28  C   UNL     1       8.376   2.648   8.634  1.00  0.00     0.049 A 
ATOM     29  C   UNL     1       8.123   7.390   5.660  1.00  0.00     0.074 A 
ATOM     30  C   UNL     1       9.188   2.664   9.755  1.00  0.00     0.029 A 
ATOM     31  N   UNL     1       8.453   3.914   8.070  1.00  0.00    -0.354 N 
ATOM     32  N   UNL     1       8.282   6.357   6.453  1.00  0.00    -0.248 NA
ATOM     33  C   UNL     1       8.827   8.602   6.095  1.00  0.00     0.031 C 
ATOM     34  C   UNL     1       9.704   3.955   9.905  1.00  0.00     0.029 A 
ATOM     35  C   UNL     1       9.275   4.725   8.836  1.00  0.00     0.049 A 
ATOM     36  H   UNL     1       7.991   4.194   7.247  1.00  0.00     0.167 HD
ATOM     37  C   UNL     1       9.131   6.787   7.465  1.00  0.00     0.074 A 
ATOM     38  C   UNL     1       9.464   8.167   7.173  1.00  0.00     0.031 C 
ATOM     39  C   UNL     1       9.596   6.099   8.537  1.00  0.00     0.031 A 
BRANCH  26  40
ATOM     40  C   UNL     1       7.536   0.277   8.911  1.00  0.00    -0.014 A 
ATOM     41  C   UNL     1       8.127  -0.907   8.432  1.00  0.00     0.010 A 
ATOM     42  C   UNL     1       6.932   0.269  10.183  1.00  0.00     0.010 A 
ATOM     43  C   UNL     1       8.076  -2.082   9.190  1.00  0.00     0.020 A 
ATOM     44  C   UNL     1       6.906  -0.896  10.957  1.00  0.00     0.020 A 
ATOM     45  C   UNL     1       7.463  -2.069  10.446  1.00  0.00     0.054 A 
BRANCH  45  46
ATOM     46  S   UNL     1       7.426  -3.604  11.414  1.00  0.00     0.124 S 
ATOM     47  O   UNL     1       6.462  -4.407  10.666  1.00  0.00    -0.237 OA
ATOM     48  O   UNL     1       8.812  -4.060  11.342  1.00  0.00    -0.237 OA
ATOM     49  O   UNL     1       6.982  -3.171  12.736  1.00  0.00    -0.744 OA
ENDBRANCH  45  46
ENDBRANCH  26  40
BRANCH  27  50
ATOM     50  C   UNL     1       7.306   8.748   3.593  1.00  0.00    -0.014 A 
ATOM     51  C   UNL     1       8.461   9.215   2.942  1.00  0.00     0.010 A 
ATOM     52  C   UNL     1       6.109   9.479   3.471  1.00  0.00     0.010 A 
ATOM     53  C   UNL     1       8.424  10.400   2.201  1.00  0.00     0.020 A 
ATOM     54  C   UNL     1       6.060  10.644   2.703  1.00  0.00     0.020 A 
ATOM     55  C   UNL     1       7.223  11.105   2.084  1.00  0.00     0.054 A 
BRANCH  55  56
ATOM     56  S   UNL     1       7.190  12.615   1.081  1.00  0.00     0.124 S 
ATOM     57  O   UNL     1       7.934  13.551   1.918  1.00  0.00    -0.237 OA
ATOM     58  O   UNL     1       7.860  12.192  -0.146  1.00  0.00    -0.237 OA
ATOM     59  O   UNL     1       5.764  12.899   0.937  1.00  0.00    -0.744 OA
ENDBRANCH  55  56
ENDBRANCH  27  50
BRANCH  39  60
ATOM     60  C   UNL     1      10.559   6.815   9.448  1.00  0.00    -0.014 A 
ATOM     61  C   UNL     1      10.146   7.878  10.272  1.00  0.00     0.010 A 
ATOM     62  C   UNL     1      11.902   6.396   9.495  1.00  0.00     0.010 A 
ATOM     63  C   UNL     1      11.068   8.539  11.088  1.00  0.00     0.020 A 
ATOM     64  C   UNL     1      12.819   7.031  10.335  1.00  0.00     0.020 A 
ATOM     65  C   UNL     1      12.399   8.113  11.112  1.00  0.00     0.054 A 
BRANCH  65  66
ATOM     66  S   UNL     1      13.573   8.973  12.194  1.00  0.00     0.124 S 
ATOM     67  O   UNL     1      13.759  10.240  11.493  1.00  0.00    -0.237 OA
ATOM     68  O   UNL     1      12.843   9.055  13.457  1.00  0.00    -0.237 OA
ATOM     69  O   UNL     1      14.739   8.093  12.211  1.00  0.00    -0.744 OA
ENDBRANCH  65  66
ENDBRANCH  39  60
ENDBRANCH  13  14
ENDBRANCH   6   8
ENDBRANCH   3   4
ENDBRANCH   2   3
ENDBRANCH   1   2
BRANCH   1  70
ATOM     70  C   UNL     1       4.884  -2.899  -3.144  1.00  0.00     0.002 C 
BRANCH  70  71
ATOM     71  C   UNL     1       6.418  -2.910  -3.084  1.00  0.00     0.021 C 
BRANCH  71  72
ATOM     72  C   UNL     1       6.995  -4.283  -2.746  1.00  0.00     0.116 C 
BRANCH  72  73
ATOM     73  N   UNL     1       6.816  -5.175  -3.873  1.00  0.00    -0.356 N 
ATOM     74  C   UNL     1       7.696  -5.566  -4.832  1.00  0.00     0.226 C 
ATOM     75  H   UNL     1       5.914  -5.558  -3.958  1.00  0.00     0.163 HD
ATOM     76  O   UNL     1       7.234  -6.119  -5.835  1.00  0.00    -0.274 OA
BRANCH  74  77
ATOM     77  C   UNL     1       9.213  -5.488  -4.631  1.00  0.00     0.103 C 
ATOM     78  C   UNL     1       9.862  -4.203  -4.236  1.00  0.00    -0.016 C 
ATOM     79  C   UNL     1       9.628  -6.465  -3.529  1.00  0.00     0.042 C 
ATOM     80  C   UNL     1      10.621  -4.345  -3.141  1.00  0.00    -0.011 C 
ATOM     81  C   UNL     1      10.534  -5.714  -2.547  1.00  0.00     0.093 C 
BRANCH  81  82
ATOM     82  N   UNL     1      11.851  -6.328  -2.519  1.00  0.00    -0.204 NA
ATOM     83  H   UNL     1      12.526  -5.569  -2.430  1.00  0.00     0.142 HD
BRANCH  82  84
ATOM     84  S   UNL     1      12.236  -7.457  -1.338  1.00  0.00     0.244 S 
ATOM     85  O   UNL     1      13.644  -7.726  -1.520  1.00  0.00    -0.207 OA
ATOM     86  O   UNL     1      11.720  -7.008  -0.064  1.00  0.00    -0.207 OA
BRANCH  84  87
ATOM     87  C   UNL     1      11.364  -8.914  -1.827  1.00  0.00     0.121 A 
ATOM     88  C   UNL     1      12.044  -9.983  -2.426  1.00  0.00     0.028 A 
ATOM     89  C   UNL     1       9.993  -8.994  -1.609  1.00  0.00     0.181 A 
ATOM     90  C   UNL     1      11.324 -11.098  -2.866  1.00  0.00     0.044 A 
ATOM     91  C   UNL     1       9.276 -10.084  -2.087  1.00  0.00     0.195 A 
ATOM     92  F   UNL     1       9.326  -8.001  -1.006  1.00  0.00    -0.202 F 
ATOM     93  C   UNL     1       9.940 -11.129  -2.715  1.00  0.00     0.161 A 
ATOM     94  F   UNL     1       7.941 -10.110  -1.970  1.00  0.00    -0.200 F 
ATOM     95  F   UNL     1       9.252 -12.176  -3.189  1.00  0.00    -0.204 F 
ENDBRANCH  84  87
ENDBRANCH  82  84
ENDBRANCH  81  82
ENDBRANCH  74  77
ENDBRANCH  72  73
ENDBRANCH  71  72
ENDBRANCH  70  71
ENDBRANCH   1  70
TORSDOF 19
