REMARK SMILES C[C@H](C(=O)NCCCCCCNC(=O)c1ccc(-c2c3nc(c(-c4ccc(S(=O)(=O)[O-])cc4)c4ccc([nH]4)c(-c4ccc(S(=O)(=O)[O-])cc4)c4nc(c(-c5ccc(S(=O)(=O)[O-])cc5)c5ccc2[nH]5)C=C4)C=C3)cc1)c1ccc2c(c1)OCCO2
REMARK SMILES IDX 9 1 8 2 7 3 6 4 5 5 3 6 4 7 2 9 1 10 75 11 76 12 80 13 77 14
REMARK SMILES IDX 79 15 78 16 81 17 84 18 82 19 83 20 10 21 11 22 12 23 13 24
REMARK SMILES IDX 14 26 15 27 16 28 74 29 17 30 73 31 18 32 19 33 20 34 67 35
REMARK SMILES IDX 21 36 72 37 66 38 68 39 22 40 71 41 65 42 64 43 23 45 53 46
REMARK SMILES IDX 34 47 52 48 35 49 38 50 51 51 69 52 36 53 37 54 50 56 70 57
REMARK SMILES IDX 39 58 24 59 25 60 33 61 26 62 32 63 27 64 28 65 29 66 30 67
REMARK SMILES IDX 31 68 54 69 55 70 63 71 56 72 62 73 57 74 58 75 59 76 60 77
REMARK SMILES IDX 61 78 40 79 41 80 49 81 42 82 48 83 43 84 44 85 45 86 46 87
REMARK SMILES IDX 47 88
REMARK H PARENT 5 8 12 25 68 44 38 55
REMARK Flexibility Score: inf
ROOT
ATOM      1  C   UNL     1       1.857   3.457   3.398  1.00  0.00     0.002 C 
ENDROOT
BRANCH   1   2
ATOM      2  C   UNL     1       2.310   1.997   3.425  1.00  0.00     0.002 C 
BRANCH   2   3
ATOM      3  C   UNL     1       1.180   0.965   3.385  1.00  0.00     0.021 C 
BRANCH   3   4
ATOM      4  C   UNL     1       0.239   1.093   2.190  1.00  0.00     0.116 C 
BRANCH   4   5
ATOM      5  N   UNL     1       0.945   1.065   0.926  1.00  0.00    -0.356 N 
ATOM      6  C   UNL     1       1.150   0.036   0.065  1.00  0.00     0.227 C 
ATOM      7  O   UNL     1       1.767   0.275  -0.977  1.00  0.00    -0.274 OA
ATOM      8  H   UNL     1       1.337   1.924   0.649  1.00  0.00     0.163 HD
BRANCH   6   9
ATOM      9  C   UNL     1       0.669  -1.375   0.377  1.00  0.00     0.105 C 
ATOM     10  C   UNL     1       1.483  -2.005   1.509  1.00  0.00     0.023 C 
BRANCH   9  11
ATOM     11  C   UNL     1      -0.840  -1.583   0.449  1.00  0.00    -0.032 A 
ATOM     12  C   UNL     1      -1.731  -0.766  -0.277  1.00  0.00     0.008 A 
ATOM     13  C   UNL     1      -1.337  -2.750   1.048  1.00  0.00     0.055 A 
ATOM     14  C   UNL     1      -3.044  -1.177  -0.519  1.00  0.00     0.051 A 
ATOM     15  C   UNL     1      -2.602  -3.206   0.722  1.00  0.00     0.161 A 
ATOM     16  C   UNL     1      -3.428  -2.443  -0.102  1.00  0.00     0.161 A 
ATOM     17  O   UNL     1      -2.897  -4.488   1.097  1.00  0.00    -0.486 OA
ATOM     18  O   UNL     1      -4.538  -3.011  -0.682  1.00  0.00    -0.486 OA
ATOM     19  C   UNL     1      -3.776  -5.148   0.178  1.00  0.00     0.271 C 
ATOM     20  C   UNL     1      -4.123  -4.331  -1.065  1.00  0.00     0.271 C 
ENDBRANCH   9  11
ENDBRANCH   6   9
ENDBRANCH   4   5
ENDBRANCH   3   4
ENDBRANCH   2   3
ENDBRANCH   1   2
BRANCH   1  21
ATOM     21  C   UNL     1       0.834   3.834   4.469  1.00  0.00     0.021 C 
BRANCH  21  22
ATOM     22  C   UNL     1       1.264   3.526   5.898  1.00  0.00     0.116 C 
BRANCH  22  23
ATOM     23  N   UNL     1       2.438   4.287   6.297  1.00  0.00    -0.352 N 
ATOM     24  C   UNL     1       2.605   5.095   7.395  1.00  0.00     0.251 C 
ATOM     25  H   UNL     1       3.217   4.213   5.700  1.00  0.00     0.163 HD
ATOM     26  O   UNL     1       3.599   5.809   7.495  1.00  0.00    -0.269 OA
BRANCH  24  27
ATOM     27  C   UNL     1       1.563   5.116   8.442  1.00  0.00     0.039 A 
ATOM     28  C   UNL     1       1.083   6.345   8.902  1.00  0.00     0.014 A 
ATOM     29  C   UNL     1       1.040   3.920   8.943  1.00  0.00     0.014 A 
ATOM     30  C   UNL     1       0.028   6.374   9.816  1.00  0.00     0.010 A 
ATOM     31  C   UNL     1      -0.059   3.953   9.794  1.00  0.00     0.010 A 
ATOM     32  C   UNL     1      -0.576   5.180  10.241  1.00  0.00    -0.014 A 
BRANCH  32  33
ATOM     33  C   UNL     1      -1.751   5.178  11.149  1.00  0.00     0.031 A 
ATOM     34  C   UNL     1      -1.652   4.529  12.502  1.00  0.00     0.074 A 
ATOM     35  C   UNL     1      -2.932   5.664  10.720  1.00  0.00     0.049 A 
ATOM     36  N   UNL     1      -2.591   4.314  13.386  1.00  0.00    -0.248 NA
ATOM     37  C   UNL     1      -0.326   4.026  12.897  1.00  0.00     0.031 C 
ATOM     38  C   UNL     1      -3.170   6.279   9.412  1.00  0.00     0.029 A 
ATOM     39  N   UNL     1      -4.163   5.693  11.329  1.00  0.00    -0.354 N 
ATOM     40  C   UNL     1      -1.979   3.626  14.427  1.00  0.00     0.074 A 
ATOM     41  C   UNL     1      -0.599   3.420  14.042  1.00  0.00     0.031 C 
ATOM     42  C   UNL     1      -4.463   6.627   9.319  1.00  0.00     0.029 A 
ATOM     43  C   UNL     1      -5.157   6.218  10.537  1.00  0.00     0.049 A 
ATOM     44  H   UNL     1      -4.318   5.369  12.245  1.00  0.00     0.167 HD
ATOM     45  C   UNL     1      -2.513   3.214  15.602  1.00  0.00     0.031 A 
ATOM     46  C   UNL     1      -6.482   6.336  10.751  1.00  0.00     0.031 A 
ATOM     47  C   UNL     1      -3.885   3.424  15.977  1.00  0.00     0.049 A 
ATOM     48  C   UNL     1      -7.061   5.869  12.058  1.00  0.00     0.074 A 
ATOM     49  C   UNL     1      -4.508   3.105  17.171  1.00  0.00     0.029 A 
ATOM     50  N   UNL     1      -4.851   3.994  15.161  1.00  0.00    -0.354 N 
ATOM     51  N   UNL     1      -6.450   5.293  13.066  1.00  0.00    -0.248 NA
ATOM     52  C   UNL     1      -8.500   6.078  12.264  1.00  0.00     0.031 C 
ATOM     53  C   UNL     1      -5.864   3.425  17.053  1.00  0.00     0.029 A 
ATOM     54  C   UNL     1      -6.073   4.008  15.812  1.00  0.00     0.049 A 
ATOM     55  H   UNL     1      -4.692   4.338  14.252  1.00  0.00     0.167 HD
ATOM     56  C   UNL     1      -7.426   5.093  14.037  1.00  0.00     0.074 A 
ATOM     57  C   UNL     1      -8.665   5.616  13.498  1.00  0.00     0.031 C 
ATOM     58  C   UNL     1      -7.301   4.532  15.265  1.00  0.00     0.031 A 
BRANCH  45  59
ATOM     59  C   UNL     1      -1.608   2.465  16.547  1.00  0.00    -0.014 A 
ATOM     60  C   UNL     1      -0.518   3.097  17.175  1.00  0.00     0.010 A 
ATOM     61  C   UNL     1      -1.851   1.105  16.812  1.00  0.00     0.010 A 
ATOM     62  C   UNL     1       0.352   2.367  17.989  1.00  0.00     0.020 A 
ATOM     63  C   UNL     1      -1.004   0.380  17.655  1.00  0.00     0.020 A 
ATOM     64  C   UNL     1       0.109   1.009  18.215  1.00  0.00     0.054 A 
BRANCH  64  65
ATOM     65  S   UNL     1       1.267   0.079  19.255  1.00  0.00     0.124 S 
ATOM     66  O   UNL     1       2.426  -0.045  18.374  1.00  0.00    -0.237 OA
ATOM     67  O   UNL     1       1.446   0.962  20.405  1.00  0.00    -0.237 OA
ATOM     68  O   UNL     1       0.560  -1.168  19.533  1.00  0.00    -0.744 OA
ENDBRANCH  64  65
ENDBRANCH  45  59
BRANCH  46  69
ATOM     69  C   UNL     1      -7.341   6.923   9.687  1.00  0.00    -0.014 A 
ATOM     70  C   UNL     1      -7.871   8.218   9.824  1.00  0.00     0.010 A 
ATOM     71  C   UNL     1      -7.576   6.211   8.496  1.00  0.00     0.010 A 
ATOM     72  C   UNL     1      -8.614   8.792   8.788  1.00  0.00     0.020 A 
ATOM     73  C   UNL     1      -8.296   6.792   7.447  1.00  0.00     0.020 A 
ATOM     74  C   UNL     1      -8.813   8.079   7.601  1.00  0.00     0.054 A 
BRANCH  74  75
ATOM     75  S   UNL     1      -9.696   8.883   6.235  1.00  0.00     0.124 S 
ATOM     76  O   UNL     1     -11.071   8.889   6.723  1.00  0.00    -0.237 OA
ATOM     77  O   UNL     1      -9.042  10.187   6.163  1.00  0.00    -0.237 OA
ATOM     78  O   UNL     1      -9.438   8.003   5.097  1.00  0.00    -0.744 OA
ENDBRANCH  74  75
ENDBRANCH  46  69
BRANCH  58  79
ATOM     79  C   UNL     1      -8.523   4.480  16.144  1.00  0.00    -0.014 A 
ATOM     80  C   UNL     1      -9.564   3.569  15.896  1.00  0.00     0.010 A 
ATOM     81  C   UNL     1      -8.576   5.285  17.297  1.00  0.00     0.010 A 
ATOM     82  C   UNL     1     -10.639   3.468  16.784  1.00  0.00     0.020 A 
ATOM     83  C   UNL     1      -9.634   5.168  18.201  1.00  0.00     0.020 A 
ATOM     84  C   UNL     1     -10.663   4.262  17.936  1.00  0.00     0.054 A 
BRANCH  84  85
ATOM     85  S   UNL     1     -12.024   4.048  19.117  1.00  0.00     0.124 S 
ATOM     86  O   UNL     1     -13.146   4.647  18.401  1.00  0.00    -0.237 OA
ATOM     87  O   UNL     1     -12.082   2.597  19.277  1.00  0.00    -0.237 OA
ATOM     88  O   UNL     1     -11.576   4.782  20.299  1.00  0.00    -0.744 OA
ENDBRANCH  84  85
ENDBRANCH  58  79
ENDBRANCH  32  33
ENDBRANCH  24  27
ENDBRANCH  22  23
ENDBRANCH  21  22
ENDBRANCH   1  21
TORSDOF 17
