REMARK SMILES CC1([C@](C)(Nc2cccc(Cl)c2)C(=O)NCCCCCCNC(=O)c2ccc(-c3c4nc(c(-c5ccc(S(=O)(=O)[O-])cc5)c5ccc([nH]5)c(-c5ccc(S(=O)(=O)[O-])cc5)c5nc(c(-c6ccc(S(=O)(=O)[O-])cc6)c6ccc3[nH]6)C=C5)C=C4)cc2)CC1
REMARK SMILES IDX 19 1 18 2 17 3 16 4 15 5 13 6 14 7 3 9 4 10 2 11 1 12 85 13
REMARK SMILES IDX 86 14 5 15 6 17 7 18 12 19 8 20 10 21 9 22 11 23 20 24 21 25
REMARK SMILES IDX 22 26 23 27 24 29 25 30 26 31 84 32 27 33 83 34 28 35 29 36
REMARK SMILES IDX 30 37 77 38 31 39 82 40 76 41 78 42 32 43 81 44 75 45 74 46
REMARK SMILES IDX 33 48 63 49 44 50 62 51 45 52 48 53 61 54 79 55 46 56 47 57
REMARK SMILES IDX 60 59 80 60 49 61 34 62 35 63 43 64 36 65 42 66 37 67 38 68
REMARK SMILES IDX 39 69 40 70 41 71 64 72 65 73 73 74 66 75 72 76 67 77 68 78
REMARK SMILES IDX 69 79 70 80 71 81 50 82 51 83 59 84 52 85 58 86 53 87 54 88
REMARK SMILES IDX 55 89 56 90 57 91
REMARK H PARENT 15 8 5 16 22 28 78 47 48 58
REMARK Flexibility Score: inf
ROOT
ATOM      1  C   UNL     1       0.625   0.324   8.361  1.00  0.00     0.002 C 
ENDROOT
BRANCH   1   2
ATOM      2  C   UNL     1       1.580   0.965   7.356  1.00  0.00     0.002 C 
BRANCH   2   3
ATOM      3  C   UNL     1       1.847   0.080   6.147  1.00  0.00     0.021 C 
BRANCH   3   4
ATOM      4  C   UNL     1       0.643  -0.096   5.227  1.00  0.00     0.116 C 
BRANCH   4   5
ATOM      5  N   UNL     1       0.033   1.141   4.763  1.00  0.00    -0.354 N 
ATOM      6  C   UNL     1       0.043   1.706   3.504  1.00  0.00     0.245 C 
ATOM      7  O   UNL     1      -0.496   2.809   3.367  1.00  0.00    -0.272 OA
ATOM      8  H   UNL     1      -0.458   1.650   5.448  1.00  0.00     0.163 HD
BRANCH   6   9
ATOM      9  C   UNL     1       0.664   0.915   2.292  1.00  0.00     0.119 C 
ATOM     10  C   UNL     1       0.776   1.777   1.001  1.00  0.00     0.046 C 
BRANCH   9  11
ATOM     11  C   UNL     1      -0.377  -0.249   1.979  1.00  0.00    -0.001 C 
ATOM     12  C   UNL     1      -1.823   0.264   1.899  1.00  0.00     0.014 C 
ATOM     13  C   UNL     1      -0.258  -1.663   2.542  1.00  0.00     0.010 C 
ATOM     14  C   UNL     1      -0.045  -1.430   1.081  1.00  0.00     0.010 C 
ENDBRANCH   9  11
BRANCH   9  15
ATOM     15  N   UNL     1       2.074   0.498   2.575  1.00  0.00    -0.371 N 
ATOM     16  H   UNL     1       2.309  -0.449   2.439  1.00  0.00     0.161 HD
BRANCH  15  17
ATOM     17  C   UNL     1       3.087   1.367   3.022  1.00  0.00     0.036 A 
ATOM     18  C   UNL     1       2.910   2.372   3.992  1.00  0.00     0.026 A 
ATOM     19  C   UNL     1       4.396   1.224   2.540  1.00  0.00     0.046 A 
ATOM     20  C   UNL     1       3.972   3.086   4.564  1.00  0.00     0.004 A 
ATOM     21  C   UNL     1       5.457   1.990   3.058  1.00  0.00     0.043 A 
ATOM     22  C   UNL     1       5.258   2.891   4.098  1.00  0.00     0.020 A 
ATOM     23  Cl  UNL     1       7.042   1.819   2.404  1.00  0.00    -0.084 Cl
ENDBRANCH  15  17
ENDBRANCH   9  15
ENDBRANCH   6   9
ENDBRANCH   4   5
ENDBRANCH   3   4
ENDBRANCH   2   3
ENDBRANCH   1   2
BRANCH   1  24
ATOM     24  C   UNL     1       1.076  -1.050   8.866  1.00  0.00     0.021 C 
BRANCH  24  25
ATOM     25  C   UNL     1       2.511  -1.085   9.382  1.00  0.00     0.116 C 
BRANCH  25  26
ATOM     26  N   UNL     1       2.677  -0.229  10.545  1.00  0.00    -0.352 N 
ATOM     27  C   UNL     1       3.095  -0.586  11.800  1.00  0.00     0.251 C 
ATOM     28  H   UNL     1       2.462   0.724  10.415  1.00  0.00     0.163 HD
ATOM     29  O   UNL     1       2.942   0.177  12.754  1.00  0.00    -0.269 OA
BRANCH  27  30
ATOM     30  C   UNL     1       3.718  -1.909  11.988  1.00  0.00     0.039 A 
ATOM     31  C   UNL     1       3.251  -2.748  12.999  1.00  0.00     0.014 A 
ATOM     32  C   UNL     1       4.735  -2.328  11.124  1.00  0.00     0.014 A 
ATOM     33  C   UNL     1       3.777  -4.035  13.116  1.00  0.00     0.010 A 
ATOM     34  C   UNL     1       5.201  -3.636  11.195  1.00  0.00     0.010 A 
ATOM     35  C   UNL     1       4.734  -4.500  12.197  1.00  0.00    -0.014 A 
BRANCH  35  36
ATOM     36  C   UNL     1       5.262  -5.885  12.274  1.00  0.00     0.031 A 
ATOM     37  C   UNL     1       6.723  -6.120  12.550  1.00  0.00     0.074 A 
ATOM     38  C   UNL     1       4.439  -6.927  12.043  1.00  0.00     0.049 A 
ATOM     39  N   UNL     1       7.376  -7.252  12.620  1.00  0.00    -0.248 NA
ATOM     40  C   UNL     1       7.565  -4.929  12.751  1.00  0.00     0.031 C 
ATOM     41  C   UNL     1       3.013  -6.826  11.723  1.00  0.00     0.029 A 
ATOM     42  N   UNL     1       4.684  -8.278  12.037  1.00  0.00    -0.354 N 
ATOM     43  C   UNL     1       8.702  -6.909  12.857  1.00  0.00     0.074 A 
ATOM     44  C   UNL     1       8.771  -5.465  12.864  1.00  0.00     0.031 C 
ATOM     45  C   UNL     1       2.505  -8.061  11.585  1.00  0.00     0.029 A 
ATOM     46  C   UNL     1       3.573  -9.040  11.760  1.00  0.00     0.049 A 
ATOM     47  H   UNL     1       5.572  -8.665  12.215  1.00  0.00     0.167 HD
ATOM     48  C   UNL     1       9.763  -7.723  13.072  1.00  0.00     0.031 A 
ATOM     49  C   UNL     1       3.431 -10.375  11.652  1.00  0.00     0.031 A 
ATOM     50  C   UNL     1       9.687  -9.159  13.068  1.00  0.00     0.049 A 
ATOM     51  C   UNL     1       4.629 -11.258  11.875  1.00  0.00     0.074 A 
ATOM     52  C   UNL     1      10.693 -10.073  13.328  1.00  0.00     0.029 A 
ATOM     53  N   UNL     1       8.544  -9.892  12.785  1.00  0.00    -0.354 N 
ATOM     54  N   UNL     1       5.861 -10.917  12.171  1.00  0.00    -0.248 NA
ATOM     55  C   UNL     1       4.415 -12.708  11.764  1.00  0.00     0.031 C 
ATOM     56  C   UNL     1      10.174 -11.358  13.140  1.00  0.00     0.029 A 
ATOM     57  C   UNL     1       8.826 -11.247  12.835  1.00  0.00     0.049 A 
ATOM     58  H   UNL     1       7.662  -9.506  12.579  1.00  0.00     0.167 HD
ATOM     59  C   UNL     1       6.561 -12.110  12.310  1.00  0.00     0.074 A 
ATOM     60  C   UNL     1       5.612 -13.181  12.082  1.00  0.00     0.031 C 
ATOM     61  C   UNL     1       7.871 -12.302  12.604  1.00  0.00     0.031 A 
BRANCH  48  62
ATOM     62  C   UNL     1      11.102  -7.075  13.318  1.00  0.00    -0.014 A 
ATOM     63  C   UNL     1      11.355  -6.347  14.496  1.00  0.00     0.010 A 
ATOM     64  C   UNL     1      12.137  -7.232  12.378  1.00  0.00     0.010 A 
ATOM     65  C   UNL     1      12.601  -5.753  14.708  1.00  0.00     0.020 A 
ATOM     66  C   UNL     1      13.396  -6.667  12.602  1.00  0.00     0.020 A 
ATOM     67  C   UNL     1      13.614  -5.917  13.759  1.00  0.00     0.054 A 
BRANCH  67  68
ATOM     68  S   UNL     1      15.230  -5.156  14.075  1.00  0.00     0.124 S 
ATOM     69  O   UNL     1      14.934  -3.736  13.899  1.00  0.00    -0.237 OA
ATOM     70  O   UNL     1      15.517  -5.572  15.445  1.00  0.00    -0.237 OA
ATOM     71  O   UNL     1      16.096  -5.741  13.054  1.00  0.00    -0.744 OA
ENDBRANCH  67  68
ENDBRANCH  48  62
BRANCH  49  72
ATOM     72  C   UNL     1       2.099 -10.957  11.326  1.00  0.00    -0.014 A 
ATOM     73  C   UNL     1       1.387 -11.700  12.285  1.00  0.00     0.010 A 
ATOM     74  C   UNL     1       1.529 -10.761  10.055  1.00  0.00     0.010 A 
ATOM     75  C   UNL     1       0.140 -12.251  11.972  1.00  0.00     0.020 A 
ATOM     76  C   UNL     1       0.270 -11.283   9.748  1.00  0.00     0.020 A 
ATOM     77  C   UNL     1      -0.412 -12.036  10.706  1.00  0.00     0.054 A 
BRANCH  77  78
ATOM     78  S   UNL     1      -2.053 -12.718  10.340  1.00  0.00     0.124 S 
ATOM     79  O   UNL     1      -1.773 -14.147  10.241  1.00  0.00    -0.237 OA
ATOM     80  O   UNL     1      -2.832 -12.303  11.503  1.00  0.00    -0.237 OA
ATOM     81  O   UNL     1      -2.423 -12.063   9.086  1.00  0.00    -0.744 OA
ENDBRANCH  77  78
ENDBRANCH  49  72
BRANCH  61  82
ATOM     82  C   UNL     1       8.354 -13.723  12.736  1.00  0.00    -0.014 A 
ATOM     83  C   UNL     1       8.478 -14.563  11.616  1.00  0.00     0.010 A 
ATOM     84  C   UNL     1       8.748 -14.203  13.999  1.00  0.00     0.010 A 
ATOM     85  C   UNL     1       8.957 -15.868  11.762  1.00  0.00     0.020 A 
ATOM     86  C   UNL     1       9.258 -15.495  14.144  1.00  0.00     0.020 A 
ATOM     87  C   UNL     1       9.346 -16.325  13.025  1.00  0.00     0.054 A 
BRANCH  87  88
ATOM     88  S   UNL     1      10.009 -18.006  13.178  1.00  0.00     0.124 S 
ATOM     89  O   UNL     1       8.814 -18.823  12.986  1.00  0.00    -0.237 OA
ATOM     90  O   UNL     1      10.990 -18.062  12.097  1.00  0.00    -0.237 OA
ATOM     91  O   UNL     1      10.573 -18.036  14.526  1.00  0.00    -0.744 OA
ENDBRANCH  87  88
ENDBRANCH  61  82
ENDBRANCH  35  36
ENDBRANCH  27  30
ENDBRANCH  25  26
ENDBRANCH  24  25
ENDBRANCH   1  24
TORSDOF 19
