REMARK SMILES CC[C@]1(C(=O)NCCCCCCNC(=O)c2ccc(-c3c4nc(c(-c5ccc(S(=O)(=O)[O-])cc5)c5ccc([nH]5)c(-c5ccc(S(=O)(=O)[O-])cc5)c5nc(c(-c6ccc(S(=O)(=O)[O-])cc6)c6ccc3[nH]6)C=C5)C=C4)cc2)CCN(C(=O)[C@]2(C)CCCO2)C1
REMARK SMILES IDX 10 1 9 2 8 3 7 4 6 5 4 6 5 7 3 9 76 10 87 11 77 12 78 13
REMARK SMILES IDX 2 14 1 15 79 16 80 17 81 18 83 19 86 20 82 21 84 22 85 23
REMARK SMILES IDX 11 24 12 25 13 26 14 27 15 29 16 30 17 31 75 32 18 33 74 34
REMARK SMILES IDX 19 35 20 36 21 37 68 38 22 39 73 40 67 41 69 42 23 43 72 44
REMARK SMILES IDX 66 45 65 46 24 48 54 49 35 50 53 51 36 52 39 53 52 54 70 55
REMARK SMILES IDX 37 56 38 57 51 59 71 60 40 61 25 62 26 63 34 64 27 65 33 66
REMARK SMILES IDX 28 67 29 68 30 69 31 70 32 71 55 72 56 73 64 74 57 75 63 76
REMARK SMILES IDX 58 77 59 78 60 79 61 80 62 81 41 82 42 83 50 84 43 85 49 86
REMARK SMILES IDX 44 87 45 88 46 89 47 90 48 91
REMARK H PARENT 6 8 13 28 69 47 39 58
REMARK Flexibility Score: inf
ROOT
ATOM      1  C   UNL     1       4.005   5.817  -7.756  1.00  0.00     0.002 C 
ENDROOT
BRANCH   1   2
ATOM      2  C   UNL     1       3.010   6.911  -7.354  1.00  0.00     0.002 C 
BRANCH   2   3
ATOM      3  C   UNL     1       2.583   6.906  -5.882  1.00  0.00     0.021 C 
BRANCH   3   4
ATOM      4  C   UNL     1       3.731   7.007  -4.880  1.00  0.00     0.116 C 
BRANCH   4   5
ATOM      5  N   UNL     1       4.422   8.281  -4.979  1.00  0.00    -0.356 N 
ATOM      6  C   UNL     1       4.697   9.256  -4.072  1.00  0.00     0.228 C 
ATOM      7  O   UNL     1       5.298  10.240  -4.518  1.00  0.00    -0.274 OA
ATOM      8  H   UNL     1       4.759   8.477  -5.883  1.00  0.00     0.163 HD
BRANCH   6   9
ATOM      9  C   UNL     1       4.271   9.183  -2.589  1.00  0.00     0.068 C 
ATOM     10  C   UNL     1       2.732   9.161  -2.468  1.00  0.00     0.040 C 
ATOM     11  C   UNL     1       4.740   7.863  -1.952  1.00  0.00     0.136 C 
ATOM     12  C   UNL     1       2.426   8.132  -1.396  1.00  0.00     0.121 C 
ATOM     13  N   UNL     1       3.542   7.217  -1.425  1.00  0.00    -0.339 N 
BRANCH   9  14
ATOM     14  C   UNL     1       4.844  10.439  -1.862  1.00  0.00     0.015 C 
ATOM     15  C   UNL     1       4.778  10.467  -0.339  1.00  0.00     0.005 C 
ENDBRANCH   9  14
BRANCH  13  16
ATOM     16  C   UNL     1       3.592   5.919  -0.952  1.00  0.00     0.254 C 
ATOM     17  O   UNL     1       4.642   5.274  -1.061  1.00  0.00    -0.272 OA
BRANCH  16  18
ATOM     18  C   UNL     1       2.301   5.253  -0.370  1.00  0.00     0.144 C 
ATOM     19  C   UNL     1       1.399   4.711  -1.489  1.00  0.00     0.048 C 
ATOM     20  O   UNL     1       1.501   6.148   0.419  1.00  0.00    -0.365 OA
ATOM     21  C   UNL     1       2.727   4.098   0.553  1.00  0.00     0.053 C 
ATOM     22  C   UNL     1       0.068   5.404  -1.304  1.00  0.00     0.032 C 
ATOM     23  C   UNL     1       0.122   5.929   0.111  1.00  0.00     0.162 C 
ENDBRANCH  16  18
ENDBRANCH  13  16
ENDBRANCH   6   9
ENDBRANCH   4   5
ENDBRANCH   3   4
ENDBRANCH   2   3
ENDBRANCH   1   2
BRANCH   1  24
ATOM     24  C   UNL     1       3.590   4.388  -7.402  1.00  0.00     0.021 C 
BRANCH  24  25
ATOM     25  C   UNL     1       2.253   3.944  -7.986  1.00  0.00     0.116 C 
BRANCH  25  26
ATOM     26  N   UNL     1       2.276   3.875  -9.438  1.00  0.00    -0.352 N 
ATOM     27  C   UNL     1       1.866   2.847 -10.256  1.00  0.00     0.251 C 
ATOM     28  H   UNL     1       2.632   4.670  -9.897  1.00  0.00     0.163 HD
ATOM     29  O   UNL     1       2.102   2.876 -11.456  1.00  0.00    -0.269 OA
BRANCH  27  30
ATOM     30  C   UNL     1       1.155   1.694  -9.661  1.00  0.00     0.039 A 
ATOM     31  C   UNL     1       1.586   0.399  -9.957  1.00  0.00     0.014 A 
ATOM     32  C   UNL     1       0.080   1.901  -8.792  1.00  0.00     0.014 A 
ATOM     33  C   UNL     1       0.980  -0.692  -9.329  1.00  0.00     0.010 A 
ATOM     34  C   UNL     1      -0.479   0.819  -8.121  1.00  0.00     0.010 A 
ATOM     35  C   UNL     1      -0.035  -0.488  -8.380  1.00  0.00    -0.014 A 
BRANCH  35  36
ATOM     36  C   UNL     1      -0.667  -1.614  -7.646  1.00  0.00     0.031 A 
ATOM     37  C   UNL     1      -2.133  -1.892  -7.836  1.00  0.00     0.074 A 
ATOM     38  C   UNL     1       0.044  -2.314  -6.741  1.00  0.00     0.049 A 
ATOM     39  N   UNL     1      -2.913  -2.704  -7.171  1.00  0.00    -0.248 NA
ATOM     40  C   UNL     1      -2.817  -1.131  -8.895  1.00  0.00     0.031 C 
ATOM     41  C   UNL     1       1.468  -2.134  -6.454  1.00  0.00     0.029 A 
ATOM     42  N   UNL     1      -0.344  -3.309  -5.878  1.00  0.00    -0.354 N 
ATOM     43  C   UNL     1      -4.183  -2.531  -7.709  1.00  0.00     0.074 A 
ATOM     44  C   UNL     1      -4.075  -1.509  -8.727  1.00  0.00     0.031 C 
ATOM     45  C   UNL     1       1.836  -2.996  -5.492  1.00  0.00     0.029 A 
ATOM     46  C   UNL     1       0.666  -3.755  -5.059  1.00  0.00     0.049 A 
ATOM     47  H   UNL     1      -1.260  -3.670  -5.849  1.00  0.00     0.167 HD
ATOM     48  C   UNL     1      -5.332  -3.173  -7.391  1.00  0.00     0.031 A 
ATOM     49  C   UNL     1       0.650  -4.658  -4.059  1.00  0.00     0.031 A 
ATOM     50  C   UNL     1      -5.431  -4.199  -6.389  1.00  0.00     0.049 A 
ATOM     51  C   UNL     1      -0.642  -5.347  -3.711  1.00  0.00     0.074 A 
ATOM     52  C   UNL     1      -6.541  -4.937  -6.019  1.00  0.00     0.029 A 
ATOM     53  N   UNL     1      -4.378  -4.637  -5.600  1.00  0.00    -0.354 N 
ATOM     54  N   UNL     1      -1.829  -5.190  -4.248  1.00  0.00    -0.248 NA
ATOM     55  C   UNL     1      -0.597  -6.340  -2.628  1.00  0.00     0.031 C 
ATOM     56  C   UNL     1      -6.169  -5.793  -4.977  1.00  0.00     0.029 A 
ATOM     57  C   UNL     1      -4.814  -5.626  -4.737  1.00  0.00     0.049 A 
ATOM     58  H   UNL     1      -3.456  -4.295  -5.647  1.00  0.00     0.167 HD
ATOM     59  C   UNL     1      -2.662  -6.091  -3.594  1.00  0.00     0.074 A 
ATOM     60  C   UNL     1      -1.845  -6.788  -2.622  1.00  0.00     0.031 C 
ATOM     61  C   UNL     1      -3.984  -6.322  -3.786  1.00  0.00     0.031 A 
BRANCH  48  62
ATOM     62  C   UNL     1      -6.579  -2.768  -8.132  1.00  0.00    -0.014 A 
ATOM     63  C   UNL     1      -6.747  -3.074  -9.495  1.00  0.00     0.010 A 
ATOM     64  C   UNL     1      -7.606  -2.088  -7.452  1.00  0.00     0.010 A 
ATOM     65  C   UNL     1      -7.895  -2.662 -10.177  1.00  0.00     0.020 A 
ATOM     66  C   UNL     1      -8.769  -1.700  -8.123  1.00  0.00     0.020 A 
ATOM     67  C   UNL     1      -8.896  -1.970  -9.487  1.00  0.00     0.054 A 
BRANCH  67  68
ATOM     68  S   UNL     1     -10.377  -1.449 -10.395  1.00  0.00     0.124 S 
ATOM     69  O   UNL     1      -9.870  -0.321 -11.172  1.00  0.00    -0.237 OA
ATOM     70  O   UNL     1     -10.718  -2.641 -11.167  1.00  0.00    -0.237 OA
ATOM     71  O   UNL     1     -11.325  -1.101  -9.340  1.00  0.00    -0.744 OA
ENDBRANCH  67  68
ENDBRANCH  48  62
BRANCH  49  72
ATOM     72  C   UNL     1       1.904  -4.972  -3.322  1.00  0.00    -0.014 A 
ATOM     73  C   UNL     1       2.546  -6.209  -3.512  1.00  0.00     0.010 A 
ATOM     74  C   UNL     1       2.473  -4.034  -2.442  1.00  0.00     0.010 A 
ATOM     75  C   UNL     1       3.726  -6.507  -2.825  1.00  0.00     0.020 A 
ATOM     76  C   UNL     1       3.667  -4.319  -1.772  1.00  0.00     0.020 A 
ATOM     77  C   UNL     1       4.280  -5.559  -1.960  1.00  0.00     0.054 A 
BRANCH  77  78
ATOM     78  S   UNL     1       5.842  -5.949  -1.121  1.00  0.00     0.124 S 
ATOM     79  O   UNL     1       5.409  -6.901  -0.104  1.00  0.00    -0.237 OA
ATOM     80  O   UNL     1       6.652  -6.503  -2.204  1.00  0.00    -0.237 OA
ATOM     81  O   UNL     1       6.290  -4.653  -0.618  1.00  0.00    -0.744 OA
ENDBRANCH  77  78
ENDBRANCH  49  72
BRANCH  61  82
ATOM     82  C   UNL     1      -4.628  -7.413  -2.975  1.00  0.00    -0.014 A 
ATOM     83  C   UNL     1      -4.932  -7.232  -1.615  1.00  0.00     0.010 A 
ATOM     84  C   UNL     1      -5.013  -8.608  -3.613  1.00  0.00     0.010 A 
ATOM     85  C   UNL     1      -5.598  -8.234  -0.903  1.00  0.00     0.020 A 
ATOM     86  C   UNL     1      -5.699  -9.600  -2.910  1.00  0.00     0.020 A 
ATOM     87  C   UNL     1      -5.981  -9.410  -1.556  1.00  0.00     0.054 A 
BRANCH  87  88
ATOM     88  S   UNL     1      -6.910 -10.663  -0.630  1.00  0.00     0.124 S 
ATOM     89  O   UNL     1      -5.870 -11.254   0.208  1.00  0.00    -0.237 OA
ATOM     90  O   UNL     1      -7.908  -9.864   0.077  1.00  0.00    -0.237 OA
ATOM     91  O   UNL     1      -7.444 -11.538  -1.671  1.00  0.00    -0.744 OA
ENDBRANCH  87  88
ENDBRANCH  61  82
ENDBRANCH  35  36
ENDBRANCH  27  30
ENDBRANCH  25  26
ENDBRANCH  24  25
ENDBRANCH   1  24
TORSDOF 19
