REMARK SMILES Nc1cc(C(=O)NCCCCCCNC(=O)c2ccc(-c3c4nc(c(-c5ccc(S(=O)(=O)[O-])cc5)c5ccc([nH]5)c(-c5ccc(S(=O)(=O)[O-])cc5)c5nc(c(-c6ccc(S(=O)(=O)[O-])cc6)c6ccc3[nH]6)C=C5)C=C4)cc2)ccc1N1CC2(CCOCC2)C1
REMARK SMILES IDX 11 1 10 2 9 3 8 4 7 5 5 6 6 7 4 9 2 10 3 11 79 12 78 13
REMARK SMILES IDX 77 14 1 15 80 18 81 19 88 20 82 21 83 22 87 23 84 24 86 25
REMARK SMILES IDX 85 26 12 27 13 28 14 29 15 30 16 32 17 33 18 34 76 35 19 36
REMARK SMILES IDX 75 37 20 38 21 39 22 40 69 41 23 42 74 43 68 44 70 45 24 46
REMARK SMILES IDX 73 47 67 48 66 49 25 51 55 52 36 53 54 54 37 55 40 56 53 57
REMARK SMILES IDX 71 58 38 59 39 60 52 62 72 63 41 64 26 65 27 66 35 67 28 68
REMARK SMILES IDX 34 69 29 70 30 71 31 72 32 73 33 74 56 75 57 76 65 77 58 78
REMARK SMILES IDX 64 79 59 80 60 81 61 82 62 83 63 84 42 85 43 86 51 87 44 88
REMARK SMILES IDX 50 89 45 90 46 91 47 92 48 93 49 94
REMARK H PARENT 7 8 1 16 1 17 14 31 70 50 40 61
REMARK Flexibility Score: inf
ROOT
ATOM      1  C   UNL     1      -7.085  -2.694  -0.081  1.00  0.00     0.002 C 
ENDROOT
BRANCH   1   2
ATOM      2  C   UNL     1      -6.015  -2.613  -1.179  1.00  0.00     0.002 C 
BRANCH   2   3
ATOM      3  C   UNL     1      -5.016  -1.457  -1.013  1.00  0.00     0.021 C 
BRANCH   3   4
ATOM      4  C   UNL     1      -4.246  -1.531   0.306  1.00  0.00     0.116 C 
BRANCH   4   5
ATOM      5  N   UNL     1      -3.137  -2.447   0.174  1.00  0.00    -0.352 N 
ATOM      6  C   UNL     1      -1.805  -2.302  -0.093  1.00  0.00     0.251 C 
ATOM      7  O   UNL     1      -1.170  -3.353  -0.223  1.00  0.00    -0.269 OA
ATOM      8  H   UNL     1      -3.400  -3.387   0.307  1.00  0.00     0.163 HD
BRANCH   6   9
ATOM      9  C   UNL     1      -1.073  -1.000  -0.175  1.00  0.00     0.041 A 
ATOM     10  C   UNL     1       1.152   0.027  -0.131  1.00  0.00     0.056 A 
ATOM     11  C   UNL     1       0.328  -1.101  -0.176  1.00  0.00     0.041 A 
ATOM     12  C   UNL     1       0.572   1.312  -0.112  1.00  0.00     0.060 A 
ATOM     13  C   UNL     1      -0.819   1.421  -0.150  1.00  0.00     0.029 A 
ATOM     14  C   UNL     1      -1.629   0.279  -0.225  1.00  0.00     0.016 A 
BRANCH  10  15
ATOM     15  N   UNL     1       2.536  -0.147  -0.167  1.00  0.00    -0.397 N 
ATOM     16  H   UNL     1       2.918  -1.054  -0.180  1.00  0.00     0.156 HD
ATOM     17  H   UNL     1       3.131   0.638  -0.180  1.00  0.00     0.156 HD
ENDBRANCH  10  15
BRANCH  12  18
ATOM     18  N   UNL     1       1.377   2.449   0.014  1.00  0.00    -0.369 N 
ATOM     19  C   UNL     1       2.310   3.032  -0.890  1.00  0.00     0.125 C 
ATOM     20  C   UNL     1       1.262   3.623   0.814  1.00  0.00     0.125 C 
ATOM     21  C   UNL     1       2.681   3.977   0.287  1.00  0.00     0.010 C 
ATOM     22  C   UNL     1       2.943   5.439  -0.058  1.00  0.00     0.039 C 
ATOM     23  C   UNL     1       3.818   3.442   1.179  1.00  0.00     0.039 C 
ATOM     24  C   UNL     1       4.322   5.547  -0.704  1.00  0.00     0.161 C 
ATOM     25  C   UNL     1       5.140   3.644   0.452  1.00  0.00     0.161 C 
ATOM     26  O   UNL     1       5.335   5.031   0.166  1.00  0.00    -0.381 OA
ENDBRANCH  12  18
ENDBRANCH   6   9
ENDBRANCH   4   5
ENDBRANCH   3   4
ENDBRANCH   2   3
ENDBRANCH   1   2
BRANCH   1  27
ATOM     27  C   UNL     1      -7.850  -1.390   0.161  1.00  0.00     0.021 C 
BRANCH  27  28
ATOM     28  C   UNL     1      -8.634  -0.904  -1.052  1.00  0.00     0.116 C 
BRANCH  28  29
ATOM     29  N   UNL     1      -9.677  -1.850  -1.419  1.00  0.00    -0.352 N 
ATOM     30  C   UNL     1     -11.031  -1.650  -1.509  1.00  0.00     0.251 C 
ATOM     31  H   UNL     1      -9.368  -2.760  -1.632  1.00  0.00     0.163 HD
ATOM     32  O   UNL     1     -11.793  -2.609  -1.567  1.00  0.00    -0.269 OA
BRANCH  30  33
ATOM     33  C   UNL     1     -11.561  -0.271  -1.528  1.00  0.00     0.039 A 
ATOM     34  C   UNL     1     -12.683   0.037  -0.757  1.00  0.00     0.014 A 
ATOM     35  C   UNL     1     -10.951   0.710  -2.315  1.00  0.00     0.014 A 
ATOM     36  C   UNL     1     -13.166   1.347  -0.740  1.00  0.00     0.010 A 
ATOM     37  C   UNL     1     -11.386   2.028  -2.236  1.00  0.00     0.010 A 
ATOM     38  C   UNL     1     -12.504   2.358  -1.456  1.00  0.00    -0.014 A 
BRANCH  38  39
ATOM     39  C   UNL     1     -12.970   3.767  -1.407  1.00  0.00     0.031 A 
ATOM     40  C   UNL     1     -13.463   4.442  -2.658  1.00  0.00     0.074 A 
ATOM     41  C   UNL     1     -12.890   4.454  -0.251  1.00  0.00     0.049 A 
ATOM     42  N   UNL     1     -13.856   5.678  -2.826  1.00  0.00    -0.248 NA
ATOM     43  C   UNL     1     -13.495   3.630  -3.887  1.00  0.00     0.031 C 
ATOM     44  C   UNL     1     -12.392   3.919   1.020  1.00  0.00     0.029 A 
ATOM     45  N   UNL     1     -13.221   5.752   0.044  1.00  0.00    -0.354 N 
ATOM     46  C   UNL     1     -14.167   5.796  -4.176  1.00  0.00     0.074 A 
ATOM     47  C   UNL     1     -13.866   4.523  -4.793  1.00  0.00     0.031 C 
ATOM     48  C   UNL     1     -12.478   4.872   1.962  1.00  0.00     0.029 A 
ATOM     49  C   UNL     1     -12.993   6.096   1.356  1.00  0.00     0.049 A 
ATOM     50  H   UNL     1     -13.587   6.379  -0.621  1.00  0.00     0.167 HD
ATOM     51  C   UNL     1     -14.675   6.862  -4.839  1.00  0.00     0.031 A 
ATOM     52  C   UNL     1     -13.170   7.267   1.998  1.00  0.00     0.031 A 
ATOM     53  C   UNL     1     -14.980   8.123  -4.218  1.00  0.00     0.049 A 
ATOM     54  C   UNL     1     -13.722   8.441   1.237  1.00  0.00     0.074 A 
ATOM     55  C   UNL     1     -15.548   9.248  -4.790  1.00  0.00     0.029 A 
ATOM     56  N   UNL     1     -14.742   8.429  -2.886  1.00  0.00    -0.354 N 
ATOM     57  N   UNL     1     -14.070   8.514  -0.026  1.00  0.00    -0.248 NA
ATOM     58  C   UNL     1     -13.916   9.688   1.989  1.00  0.00     0.031 C 
ATOM     59  C   UNL     1     -15.598  10.253  -3.819  1.00  0.00     0.029 A 
ATOM     60  C   UNL     1     -15.127   9.733  -2.624  1.00  0.00     0.049 A 
ATOM     61  H   UNL     1     -14.356   7.810  -2.224  1.00  0.00     0.167 HD
ATOM     62  C   UNL     1     -14.555   9.804  -0.211  1.00  0.00     0.074 A 
ATOM     63  C   UNL     1     -14.467  10.471   1.072  1.00  0.00     0.031 C 
ATOM     64  C   UNL     1     -15.034  10.382  -1.340  1.00  0.00     0.031 A 
BRANCH  51  65
ATOM     65  C   UNL     1     -14.927   6.711  -6.317  1.00  0.00    -0.014 A 
ATOM     66  C   UNL     1     -15.944   5.868  -6.801  1.00  0.00     0.010 A 
ATOM     67  C   UNL     1     -14.165   7.457  -7.236  1.00  0.00     0.010 A 
ATOM     68  C   UNL     1     -16.167   5.741  -8.175  1.00  0.00     0.020 A 
ATOM     69  C   UNL     1     -14.405   7.357  -8.609  1.00  0.00     0.020 A 
ATOM     70  C   UNL     1     -15.394   6.486  -9.070  1.00  0.00     0.054 A 
BRANCH  70  71
ATOM     71  S   UNL     1     -15.723   6.320 -10.846  1.00  0.00     0.124 S 
ATOM     72  O   UNL     1     -15.205   4.982 -11.124  1.00  0.00    -0.237 OA
ATOM     73  O   UNL     1     -17.175   6.458 -10.917  1.00  0.00    -0.237 OA
ATOM     74  O   UNL     1     -14.964   7.416 -11.444  1.00  0.00    -0.744 OA
ENDBRANCH  70  71
ENDBRANCH  51  65
BRANCH  52  75
ATOM     75  C   UNL     1     -12.832   7.381   3.444  1.00  0.00    -0.014 A 
ATOM     76  C   UNL     1     -13.847   7.534   4.405  1.00  0.00     0.010 A 
ATOM     77  C   UNL     1     -11.492   7.324   3.868  1.00  0.00     0.010 A 
ATOM     78  C   UNL     1     -13.526   7.649   5.761  1.00  0.00     0.020 A 
ATOM     79  C   UNL     1     -11.170   7.408   5.226  1.00  0.00     0.020 A 
ATOM     80  C   UNL     1     -12.189   7.583   6.163  1.00  0.00     0.054 A 
BRANCH  80  81
ATOM     81  S   UNL     1     -11.800   7.689   7.932  1.00  0.00     0.124 S 
ATOM     82  O   UNL     1     -12.053   9.098   8.214  1.00  0.00    -0.237 OA
ATOM     83  O   UNL     1     -12.747   6.745   8.519  1.00  0.00    -0.237 OA
ATOM     84  O   UNL     1     -10.400   7.277   7.999  1.00  0.00    -0.744 OA
ENDBRANCH  80  81
ENDBRANCH  52  75
BRANCH  64  85
ATOM     85  C   UNL     1     -15.543  11.796  -1.236  1.00  0.00    -0.014 A 
ATOM     86  C   UNL     1     -14.665  12.880  -1.062  1.00  0.00     0.010 A 
ATOM     87  C   UNL     1     -16.921  12.045  -1.377  1.00  0.00     0.010 A 
ATOM     88  C   UNL     1     -15.159  14.186  -1.002  1.00  0.00     0.020 A 
ATOM     89  C   UNL     1     -17.415  13.351  -1.349  1.00  0.00     0.020 A 
ATOM     90  C   UNL     1     -16.532  14.413  -1.148  1.00  0.00     0.054 A 
BRANCH  90  91
ATOM     91  S   UNL     1     -17.141  16.121  -1.117  1.00  0.00     0.124 S 
ATOM     92  O   UNL     1     -17.004  16.466   0.296  1.00  0.00    -0.237 OA
ATOM     93  O   UNL     1     -16.223  16.805  -2.023  1.00  0.00    -0.237 OA
ATOM     94  O   UNL     1     -18.516  16.008  -1.600  1.00  0.00    -0.744 OA
ENDBRANCH  90  91
ENDBRANCH  64  85
ENDBRANCH  38  39
ENDBRANCH  30  33
ENDBRANCH  28  29
ENDBRANCH  27  28
ENDBRANCH   1  27
TORSDOF 18
