REMARK SMILES O=C(NCCCCCCNC(=O)c1ccc(-c2c3nc(c(-c4ccc(S(=O)(=O)[O-])cc4)c4ccc([nH]4)c(-c4ccc(S(=O)(=O)[O-])cc4)c4nc(c(-c5ccc(S(=O)(=O)[O-])cc5)c5ccc2[nH]5)C=C4)C=C3)cc1)c1ccc(/[NH+]=C2\S[C@@H](Cc3ccc(F)cc3)C(=O)N2Cc2ccccc2)cc1
REMARK SMILES IDX 6 1 5 2 4 3 3 4 1 5 2 6 73 8 74 9 100 10 75 11 99 12 76 13
REMARK SMILES IDX 77 14 78 15 79 17 91 18 80 19 89 20 90 21 92 22 93 23 94 24
REMARK SMILES IDX 98 25 95 26 97 27 96 28 81 29 82 30 83 31 88 32 84 33 87 34
REMARK SMILES IDX 85 35 86 36 7 37 8 38 9 39 10 40 11 41 12 43 13 44 14 45
REMARK SMILES IDX 72 46 15 47 71 48 16 49 17 50 18 51 65 52 19 53 70 54 64 55
REMARK SMILES IDX 66 56 20 57 69 58 63 59 62 60 21 62 51 63 32 64 50 65 33 66
REMARK SMILES IDX 36 67 49 68 67 69 34 70 35 71 48 73 68 74 37 75 22 76 23 77
REMARK SMILES IDX 31 78 24 79 30 80 25 81 26 82 27 83 28 84 29 85 52 86 53 87
REMARK SMILES IDX 61 88 54 89 60 90 55 91 56 92 57 93 58 94 59 95 38 96 39 97
REMARK SMILES IDX 47 98 40 99 46 100 41 101 42 102 43 103 44 104 45 105
REMARK H PARENT 3 7 77 16 10 42 66 61 36 72
REMARK Flexibility Score: inf
ROOT
ATOM      1  C   UNL     1       4.267  -2.630  -2.777  1.00  0.00     0.002 C 
ENDROOT
BRANCH   1   2
ATOM      2  C   UNL     1       4.743  -2.209  -1.385  1.00  0.00     0.021 C 
BRANCH   2   3
ATOM      3  C   UNL     1       4.478  -0.751  -1.021  1.00  0.00     0.116 C 
BRANCH   3   4
ATOM      4  N   UNL     1       3.057  -0.437  -0.989  1.00  0.00    -0.352 N 
ATOM      5  O   UNL     1       1.065   0.068  -0.050  1.00  0.00    -0.269 OA
ATOM      6  C   UNL     1       2.288   0.017   0.053  1.00  0.00     0.251 C 
ATOM      7  H   UNL     1       2.578  -0.570  -1.839  1.00  0.00     0.163 HD
BRANCH   6   8
ATOM      8  C   UNL     1       2.934   0.432   1.315  1.00  0.00     0.040 A 
ATOM      9  C   UNL     1       4.016   1.312   1.297  1.00  0.00     0.018 A 
ATOM     10  C   UNL     1       2.439  -0.049   2.531  1.00  0.00     0.018 A 
ATOM     11  C   UNL     1       4.674   1.609   2.486  1.00  0.00     0.052 A 
ATOM     12  C   UNL     1       3.083   0.288   3.727  1.00  0.00     0.052 A 
ATOM     13  C   UNL     1       4.232   1.081   3.704  1.00  0.00     0.125 A 
BRANCH  13  14
ATOM     14  N   UNL     1       4.934   1.453   4.852  1.00  0.00    -0.235 N 
ATOM     15  C   UNL     1       5.671   0.625   5.511  1.00  0.00     0.320 C 
ATOM     16  H   UNL     1       4.864   2.382   5.170  1.00  0.00     0.313 HD
ATOM     17  S   UNL     1       5.785  -1.101   5.306  1.00  0.00    -0.022 SA
ATOM     18  N   UNL     1       6.522   1.051   6.496  1.00  0.00    -0.186 N 
ATOM     19  C   UNL     1       6.682  -1.312   6.879  1.00  0.00     0.178 C 
ATOM     20  C   UNL     1       7.193   0.082   7.213  1.00  0.00     0.324 C 
ATOM     21  O   UNL     1       8.029   0.318   8.078  1.00  0.00    -0.245 OA
BRANCH  18  22
ATOM     22  C   UNL     1       6.768   2.468   6.743  1.00  0.00     0.283 C 
BRANCH  22  23
ATOM     23  C   UNL     1       7.674   3.103   5.707  1.00  0.00    -0.006 A 
ATOM     24  C   UNL     1       9.065   3.117   5.870  1.00  0.00     0.008 A 
ATOM     25  C   UNL     1       7.132   3.679   4.546  1.00  0.00     0.008 A 
ATOM     26  C   UNL     1       9.888   3.689   4.894  1.00  0.00     0.000 A 
ATOM     27  C   UNL     1       7.954   4.221   3.558  1.00  0.00     0.000 A 
ATOM     28  C   UNL     1       9.333   4.229   3.733  1.00  0.00     0.000 A 
ENDBRANCH  22  23
ENDBRANCH  18  22
BRANCH  19  29
ATOM     29  C   UNL     1       7.769  -2.379   6.744  1.00  0.00     0.063 C 
BRANCH  29  30
ATOM     30  C   UNL     1       8.453  -2.744   8.046  1.00  0.00    -0.046 A 
ATOM     31  C   UNL     1       9.840  -2.570   8.174  1.00  0.00     0.007 A 
ATOM     32  C   UNL     1       7.730  -3.268   9.129  1.00  0.00     0.007 A 
ATOM     33  C   UNL     1      10.488  -2.886   9.369  1.00  0.00     0.039 A 
ATOM     34  C   UNL     1       8.380  -3.579  10.326  1.00  0.00     0.039 A 
ATOM     35  C   UNL     1       9.751  -3.381  10.436  1.00  0.00     0.123 A 
ATOM     36  F   UNL     1      10.369  -3.676  11.588  1.00  0.00    -0.207 F 
ENDBRANCH  29  30
ENDBRANCH  19  29
ENDBRANCH  13  14
ENDBRANCH   6   8
ENDBRANCH   3   4
ENDBRANCH   2   3
ENDBRANCH   1   2
BRANCH   1  37
ATOM     37  C   UNL     1       4.784  -1.779  -3.940  1.00  0.00     0.002 C 
BRANCH  37  38
ATOM     38  C   UNL     1       6.304  -1.622  -4.025  1.00  0.00     0.021 C 
BRANCH  38  39
ATOM     39  C   UNL     1       7.094  -2.926  -4.076  1.00  0.00     0.116 C 
BRANCH  39  40
ATOM     40  N   UNL     1       6.767  -3.733  -5.239  1.00  0.00    -0.352 N 
ATOM     41  C   UNL     1       7.602  -4.312  -6.163  1.00  0.00     0.251 C 
ATOM     42  H   UNL     1       5.806  -3.887  -5.386  1.00  0.00     0.163 HD
ATOM     43  O   UNL     1       7.130  -4.832  -7.170  1.00  0.00    -0.269 OA
BRANCH  41  44
ATOM     44  C   UNL     1       9.068  -4.288  -5.959  1.00  0.00     0.039 A 
ATOM     45  C   UNL     1       9.892  -3.960  -7.039  1.00  0.00     0.014 A 
ATOM     46  C   UNL     1       9.632  -4.597  -4.718  1.00  0.00     0.014 A 
ATOM     47  C   UNL     1      11.276  -3.881  -6.858  1.00  0.00     0.010 A 
ATOM     48  C   UNL     1      11.004  -4.453  -4.523  1.00  0.00     0.010 A 
ATOM     49  C   UNL     1      11.841  -4.095  -5.591  1.00  0.00    -0.014 A 
BRANCH  49  50
ATOM     50  C   UNL     1      13.301  -3.942  -5.362  1.00  0.00     0.031 A 
ATOM     51  C   UNL     1      14.136  -5.129  -4.962  1.00  0.00     0.074 A 
ATOM     52  C   UNL     1      13.867  -2.722  -5.454  1.00  0.00     0.049 A 
ATOM     53  N   UNL     1      15.409  -5.179  -4.666  1.00  0.00    -0.248 NA
ATOM     54  C   UNL     1      13.444  -6.424  -4.857  1.00  0.00     0.031 C 
ATOM     55  C   UNL     1      13.162  -1.485  -5.799  1.00  0.00     0.029 A 
ATOM     56  N   UNL     1      15.165  -2.320  -5.259  1.00  0.00    -0.354 N 
ATOM     57  C   UNL     1      15.667  -6.501  -4.321  1.00  0.00     0.074 A 
ATOM     58  C   UNL     1      14.409  -7.211  -4.402  1.00  0.00     0.031 C 
ATOM     59  C   UNL     1      14.041  -0.469  -5.818  1.00  0.00     0.029 A 
ATOM     60  C   UNL     1      15.360  -0.972  -5.448  1.00  0.00     0.049 A 
ATOM     61  H   UNL     1      15.888  -2.938  -5.007  1.00  0.00     0.167 HD
ATOM     62  C   UNL     1      16.846  -7.077  -3.982  1.00  0.00     0.031 A 
ATOM     63  C   UNL     1      16.473  -0.221  -5.332  1.00  0.00     0.031 A 
ATOM     64  C   UNL     1      18.099  -6.373  -3.916  1.00  0.00     0.049 A 
ATOM     65  C   UNL     1      17.768  -0.882  -4.947  1.00  0.00     0.074 A 
ATOM     66  C   UNL     1      19.358  -6.881  -3.644  1.00  0.00     0.029 A 
ATOM     67  N   UNL     1      18.254  -5.010  -4.120  1.00  0.00    -0.354 N 
ATOM     68  N   UNL     1      18.003  -2.146  -4.688  1.00  0.00    -0.248 NA
ATOM     69  C   UNL     1      18.951  -0.015  -4.848  1.00  0.00     0.031 C 
ATOM     70  C   UNL     1      20.266  -5.817  -3.634  1.00  0.00     0.029 A 
ATOM     71  C   UNL     1      19.583  -4.655  -3.956  1.00  0.00     0.049 A 
ATOM     72  H   UNL     1      17.527  -4.387  -4.349  1.00  0.00     0.167 HD
ATOM     73  C   UNL     1      19.366  -2.231  -4.424  1.00  0.00     0.074 A 
ATOM     74  C   UNL     1      19.904  -0.893  -4.565  1.00  0.00     0.031 C 
ATOM     75  C   UNL     1      20.105  -3.319  -4.098  1.00  0.00     0.031 A 
BRANCH  62  76
ATOM     76  C   UNL     1      16.831  -8.545  -3.645  1.00  0.00    -0.014 A 
ATOM     77  C   UNL     1      16.615  -9.518  -4.637  1.00  0.00     0.010 A 
ATOM     78  C   UNL     1      17.071  -8.960  -2.322  1.00  0.00     0.010 A 
ATOM     79  C   UNL     1      16.591 -10.875  -4.305  1.00  0.00     0.020 A 
ATOM     80  C   UNL     1      17.076 -10.318  -1.990  1.00  0.00     0.020 A 
ATOM     81  C   UNL     1      16.816 -11.266  -2.982  1.00  0.00     0.054 A 
BRANCH  81  82
ATOM     82  S   UNL     1      16.790 -13.035  -2.580  1.00  0.00     0.124 S 
ATOM     83  O   UNL     1      15.361 -13.334  -2.635  1.00  0.00    -0.237 OA
ATOM     84  O   UNL     1      17.595 -13.619  -3.649  1.00  0.00    -0.237 OA
ATOM     85  O   UNL     1      17.388 -13.097  -1.248  1.00  0.00    -0.744 OA
ENDBRANCH  81  82
ENDBRANCH  62  76
BRANCH  63  86
ATOM     86  C   UNL     1      16.415   1.241  -5.604  1.00  0.00    -0.014 A 
ATOM     87  C   UNL     1      17.010   1.772  -6.762  1.00  0.00     0.010 A 
ATOM     88  C   UNL     1      15.754   2.107  -4.715  1.00  0.00     0.010 A 
ATOM     89  C   UNL     1      16.960   3.145  -7.018  1.00  0.00     0.020 A 
ATOM     90  C   UNL     1      15.679   3.478  -4.981  1.00  0.00     0.020 A 
ATOM     91  C   UNL     1      16.293   3.989  -6.126  1.00  0.00     0.054 A 
BRANCH  91  92
ATOM     92  S   UNL     1      16.193   5.761  -6.505  1.00  0.00     0.124 S 
ATOM     93  O   UNL     1      17.547   6.213  -6.200  1.00  0.00    -0.237 OA
ATOM     94  O   UNL     1      15.828   5.762  -7.919  1.00  0.00    -0.237 OA
ATOM     95  O   UNL     1      15.152   6.244  -5.601  1.00  0.00    -0.744 OA
ENDBRANCH  91  92
ENDBRANCH  63  86
BRANCH  75  96
ATOM     96  C   UNL     1      21.584  -3.120  -3.902  1.00  0.00    -0.014 A 
ATOM     97  C   UNL     1      22.088  -2.470  -2.762  1.00  0.00     0.010 A 
ATOM     98  C   UNL     1      22.484  -3.638  -4.851  1.00  0.00     0.010 A 
ATOM     99  C   UNL     1      23.466  -2.317  -2.589  1.00  0.00     0.020 A 
ATOM    100  C   UNL     1      23.863  -3.511  -4.668  1.00  0.00     0.020 A 
ATOM    101  C   UNL     1      24.345  -2.838  -3.544  1.00  0.00     0.054 A 
BRANCH 101 102
ATOM    102  S   UNL     1      26.131  -2.667  -3.274  1.00  0.00     0.124 S 
ATOM    103  O   UNL     1      26.351  -1.256  -3.584  1.00  0.00    -0.237 OA
ATOM    104  O   UNL     1      26.280  -3.032  -1.868  1.00  0.00    -0.237 OA
ATOM    105  O   UNL     1      26.716  -3.612  -4.223  1.00  0.00    -0.744 OA
ENDBRANCH 101 102
ENDBRANCH  75  96
ENDBRANCH  49  50
ENDBRANCH  41  44
ENDBRANCH  39  40
ENDBRANCH  38  39
ENDBRANCH  37  38
ENDBRANCH   1  37
TORSDOF 21
