REMARK SMILES O=C(COc1cccc(NC(=O)c2ccc3c(c2)C(=O)N(c2ccccc2-c2ccccc2)C3=O)c1)NCCCCCCNC(=O)c1ccc(-c2c3nc(c(-c4ccc(S(=O)(=O)[O-])cc4)c4ccc([nH]4)c(-c4ccc(S(=O)(=O)[O-])cc4)c4nc(c(-c5ccc(S(=O)(=O)[O-])cc5)c5ccc2[nH]5)C=C4)C=C3)cc1
REMARK SMILES IDX 39 1 38 2 37 3 1 4 2 5 3 7 4 8 5 9 6 10 36 11 7 12 9 13 8 14
REMARK SMILES IDX 10 15 11 16 12 18 13 19 14 20 18 21 15 22 17 23 16 24 19 25
REMARK SMILES IDX 34 26 20 27 21 28 35 29 22 30 23 31 27 32 24 33 26 34 25 35
REMARK SMILES IDX 28 36 29 37 33 38 30 39 32 40 31 41 40 42 41 43 42 44 43 45
REMARK SMILES IDX 44 46 45 47 46 49 47 50 48 51 106 52 49 53 105 54 50 55
REMARK SMILES IDX 51 56 52 57 99 58 53 59 104 60 98 61 100 62 54 63 103 64
REMARK SMILES IDX 97 65 96 66 55 68 85 69 66 70 84 71 67 72 70 73 83 74 101 75
REMARK SMILES IDX 68 76 69 77 82 79 102 80 71 81 56 82 57 83 65 84 58 85 64 86
REMARK SMILES IDX 59 87 60 88 61 89 62 90 63 91 86 92 87 93 95 94 88 95 94 96
REMARK SMILES IDX 89 97 90 98 91 99 92 100 93 101 72 102 73 103 81 104 74 105
REMARK SMILES IDX 80 106 75 107 76 108 77 109 78 110 79 111
REMARK H PARENT 37 6 10 17 44 48 100 67 70 78
REMARK Flexibility Score: inf
ROOT
ATOM      1  C   UNL     1       2.838  -3.226   1.334  1.00  0.00     0.021 C 
ENDROOT
BRANCH   1   2
ATOM      2  C   UNL     1       2.219  -1.861   1.602  1.00  0.00     0.116 C 
BRANCH   2   3
ATOM      3  N   UNL     1       2.759  -0.834   0.740  1.00  0.00    -0.353 N 
ATOM      4  O   UNL     1       0.907  -0.623  -0.609  1.00  0.00    -0.271 OA
ATOM      5  C   UNL     1       2.019  -0.239  -0.259  1.00  0.00     0.257 C 
ATOM      6  H   UNL     1       3.692  -0.548   0.872  1.00  0.00     0.163 HD
BRANCH   5   7
ATOM      7  C   UNL     1       2.687   0.981  -0.895  1.00  0.00     0.329 C 
BRANCH   7   8
ATOM      8  O   UNL     1       3.739   1.590  -0.160  1.00  0.00    -0.484 OA
BRANCH   8   9
ATOM      9  C   UNL     1       3.385   2.435   0.858  1.00  0.00     0.122 A 
ATOM     10  C   UNL     1       4.222   3.537   1.008  1.00  0.00     0.046 A 
ATOM     11  C   UNL     1       2.381   2.189   1.808  1.00  0.00     0.072 A 
ATOM     12  C   UNL     1       4.072   4.371   2.105  1.00  0.00     0.006 A 
ATOM     13  C   UNL     1       2.239   3.003   2.943  1.00  0.00     0.045 A 
ATOM     14  C   UNL     1       3.104   4.088   3.071  1.00  0.00     0.026 A 
BRANCH  13  15
ATOM     15  N   UNL     1       1.309   2.587   3.933  1.00  0.00    -0.322 N 
ATOM     16  C   UNL     1       0.808   3.199   5.071  1.00  0.00     0.255 C 
ATOM     17  H   UNL     1       0.948   1.684   3.780  1.00  0.00     0.170 HD
ATOM     18  O   UNL     1       0.205   2.566   5.930  1.00  0.00    -0.269 OA
BRANCH  16  19
ATOM     19  C   UNL     1       0.855   4.664   5.175  1.00  0.00     0.041 A 
ATOM     20  C   UNL     1       1.841   5.303   5.961  1.00  0.00     0.015 A 
ATOM     21  C   UNL     1       0.074   5.363   4.258  1.00  0.00     0.028 A 
ATOM     22  C   UNL     1       2.210   6.627   5.662  1.00  0.00     0.015 A 
ATOM     23  C   UNL     1       0.476   6.649   3.993  1.00  0.00     0.054 A 
ATOM     24  C   UNL     1       1.553   7.242   4.607  1.00  0.00     0.053 A 
ATOM     25  C   UNL     1       0.123   7.439   2.837  1.00  0.00     0.266 C 
ATOM     26  C   UNL     1       1.929   8.383   3.762  1.00  0.00     0.266 C 
ATOM     27  O   UNL     1      -0.944   7.247   2.285  1.00  0.00    -0.268 OA
ATOM     28  N   UNL     1       1.183   8.288   2.602  1.00  0.00    -0.242 N 
ATOM     29  O   UNL     1       2.715   9.215   4.176  1.00  0.00    -0.268 OA
BRANCH  28  30
ATOM     30  C   UNL     1       1.432   8.886   1.312  1.00  0.00     0.060 A 
ATOM     31  C   UNL     1       0.408   8.815   0.333  1.00  0.00     0.027 A 
ATOM     32  C   UNL     1       2.675   9.424   0.880  1.00  0.00     0.006 A 
ATOM     33  C   UNL     1       0.569   9.238  -0.989  1.00  0.00     0.002 A 
ATOM     34  C   UNL     1       2.800   9.885  -0.462  1.00  0.00     0.011 A 
ATOM     35  C   UNL     1       1.768   9.787  -1.387  1.00  0.00     0.001 A 
BRANCH  32  36
ATOM     36  C   UNL     1       3.933   9.438   1.639  1.00  0.00    -0.016 A 
ATOM     37  C   UNL     1       4.408  10.622   2.225  1.00  0.00     0.009 A 
ATOM     38  C   UNL     1       4.745   8.293   1.694  1.00  0.00     0.009 A 
ATOM     39  C   UNL     1       5.633  10.645   2.897  1.00  0.00     0.001 A 
ATOM     40  C   UNL     1       5.973   8.317   2.360  1.00  0.00     0.001 A 
ATOM     41  C   UNL     1       6.411   9.491   2.969  1.00  0.00     0.000 A 
ENDBRANCH  32  36
ENDBRANCH  28  30
ENDBRANCH  16  19
ENDBRANCH  13  15
ENDBRANCH   8   9
ENDBRANCH   7   8
ENDBRANCH   5   7
ENDBRANCH   2   3
ENDBRANCH   1   2
BRANCH   1  42
ATOM     42  C   UNL     1       4.344  -3.309   1.609  1.00  0.00     0.002 C 
BRANCH  42  43
ATOM     43  C   UNL     1       4.783  -2.937   3.029  1.00  0.00     0.002 C 
BRANCH  43  44
ATOM     44  C   UNL     1       4.091  -3.702   4.161  1.00  0.00     0.021 C 
BRANCH  44  45
ATOM     45  C   UNL     1       4.208  -5.221   4.088  1.00  0.00     0.116 C 
BRANCH  45  46
ATOM     46  N   UNL     1       5.582  -5.682   4.197  1.00  0.00    -0.352 N 
ATOM     47  C   UNL     1       6.102  -6.696   4.963  1.00  0.00     0.251 C 
ATOM     48  H   UNL     1       6.234  -5.197   3.640  1.00  0.00     0.163 HD
ATOM     49  O   UNL     1       7.320  -6.837   5.036  1.00  0.00    -0.269 OA
BRANCH  47  50
ATOM     50  C   UNL     1       5.206  -7.602   5.718  1.00  0.00     0.039 A 
ATOM     51  C   UNL     1       5.551  -7.953   7.027  1.00  0.00     0.014 A 
ATOM     52  C   UNL     1       4.048  -8.130   5.139  1.00  0.00     0.014 A 
ATOM     53  C   UNL     1       4.715  -8.794   7.768  1.00  0.00     0.010 A 
ATOM     54  C   UNL     1       3.183  -8.915   5.900  1.00  0.00     0.010 A 
ATOM     55  C   UNL     1       3.512  -9.265   7.219  1.00  0.00    -0.014 A 
BRANCH  55  56
ATOM     56  C   UNL     1       2.605 -10.151   7.995  1.00  0.00     0.031 A 
ATOM     57  C   UNL     1       2.366 -11.567   7.538  1.00  0.00     0.074 A 
ATOM     58  C   UNL     1       1.965  -9.677   9.082  1.00  0.00     0.049 A 
ATOM     59  N   UNL     1       1.560 -12.470   8.036  1.00  0.00    -0.248 NA
ATOM     60  C   UNL     1       3.115 -12.021   6.354  1.00  0.00     0.031 C 
ATOM     61  C   UNL     1       2.082  -8.316   9.611  1.00  0.00     0.029 A 
ATOM     62  N   UNL     1       1.079 -10.287   9.935  1.00  0.00    -0.354 N 
ATOM     63  C   UNL     1       1.698 -13.591   7.225  1.00  0.00     0.074 A 
ATOM     64  C   UNL     1       2.623 -13.238   6.171  1.00  0.00     0.031 C 
ATOM     65  C   UNL     1       1.310  -8.200  10.705  1.00  0.00     0.029 A 
ATOM     66  C   UNL     1       0.619  -9.464  10.937  1.00  0.00     0.049 A 
ATOM     67  H   UNL     1       0.799 -11.226   9.839  1.00  0.00     0.167 HD
ATOM     68  C   UNL     1       1.129 -14.813   7.357  1.00  0.00     0.031 A 
ATOM     69  C   UNL     1      -0.265  -9.698  11.927  1.00  0.00     0.031 A 
ATOM     70  C   UNL     1       0.218 -15.171   8.412  1.00  0.00     0.049 A 
ATOM     71  C   UNL     1      -0.882 -11.066  12.053  1.00  0.00     0.074 A 
ATOM     72  C   UNL     1      -0.402 -16.388   8.638  1.00  0.00     0.029 A 
ATOM     73  N   UNL     1      -0.190 -14.320   9.426  1.00  0.00    -0.354 N 
ATOM     74  N   UNL     1      -0.714 -12.120  11.291  1.00  0.00    -0.248 NA
ATOM     75  C   UNL     1      -1.791 -11.282  13.188  1.00  0.00     0.031 C 
ATOM     76  C   UNL     1      -1.207 -16.264   9.775  1.00  0.00     0.029 A 
ATOM     77  C   UNL     1      -1.048 -14.985  10.284  1.00  0.00     0.049 A 
ATOM     78  H   UNL     1       0.090 -13.380   9.523  1.00  0.00     0.167 HD
ATOM     79  C   UNL     1      -1.466 -13.134  11.877  1.00  0.00     0.074 A 
ATOM     80  C   UNL     1      -2.078 -12.570  13.061  1.00  0.00     0.031 C 
ATOM     81  C   UNL     1      -1.633 -14.416  11.471  1.00  0.00     0.031 A 
BRANCH  68  82
ATOM     82  C   UNL     1       1.494 -15.864   6.342  1.00  0.00    -0.014 A 
ATOM     83  C   UNL     1       2.775 -16.444   6.339  1.00  0.00     0.010 A 
ATOM     84  C   UNL     1       0.536 -16.315   5.416  1.00  0.00     0.010 A 
ATOM     85  C   UNL     1       3.103 -17.432   5.409  1.00  0.00     0.020 A 
ATOM     86  C   UNL     1       0.852 -17.324   4.501  1.00  0.00     0.020 A 
ATOM     87  C   UNL     1       2.139 -17.866   4.495  1.00  0.00     0.054 A 
BRANCH  87  88
ATOM     88  S   UNL     1       2.583 -19.178   3.323  1.00  0.00     0.124 S 
ATOM     89  O   UNL     1       3.453 -18.467   2.390  1.00  0.00    -0.237 OA
ATOM     90  O   UNL     1       3.247 -20.160   4.177  1.00  0.00    -0.237 OA
ATOM     91  O   UNL     1       1.297 -19.603   2.775  1.00  0.00    -0.744 OA
ENDBRANCH  87  88
ENDBRANCH  68  82
BRANCH  69  92
ATOM     92  C   UNL     1      -0.620  -8.618  12.889  1.00  0.00    -0.014 A 
ATOM     93  C   UNL     1      -0.210  -8.691  14.232  1.00  0.00     0.010 A 
ATOM     94  C   UNL     1      -1.397  -7.523  12.470  1.00  0.00     0.010 A 
ATOM     95  C   UNL     1      -0.606  -7.712  15.148  1.00  0.00     0.020 A 
ATOM     96  C   UNL     1      -1.770  -6.527  13.377  1.00  0.00     0.020 A 
ATOM     97  C   UNL     1      -1.390  -6.639  14.715  1.00  0.00     0.054 A 
BRANCH  97  98
ATOM     98  S   UNL     1      -1.886  -5.373  15.916  1.00  0.00     0.124 S 
ATOM     99  O   UNL     1      -2.955  -6.049  16.643  1.00  0.00    -0.237 OA
ATOM    100  O   UNL     1      -0.654  -5.146  16.667  1.00  0.00    -0.237 OA
ATOM    101  O   UNL     1      -2.309  -4.254  15.076  1.00  0.00    -0.744 OA
ENDBRANCH  97  98
ENDBRANCH  69  92
BRANCH  81 102
ATOM    102  C   UNL     1      -2.458 -15.319  12.348  1.00  0.00    -0.014 A 
ATOM    103  C   UNL     1      -3.855 -15.188  12.430  1.00  0.00     0.010 A 
ATOM    104  C   UNL     1      -1.821 -16.343  13.073  1.00  0.00     0.010 A 
ATOM    105  C   UNL     1      -4.596 -16.041  13.253  1.00  0.00     0.020 A 
ATOM    106  C   UNL     1      -2.560 -17.215  13.875  1.00  0.00     0.020 A 
ATOM    107  C   UNL     1      -3.943 -17.047  13.974  1.00  0.00     0.054 A 
BRANCH 107 108
ATOM    108  S   UNL     1      -4.928 -18.160  15.013  1.00  0.00     0.124 S 
ATOM    109  O   UNL     1      -5.231 -17.314  16.163  1.00  0.00    -0.237 OA
ATOM    110  O   UNL     1      -6.064 -18.483  14.153  1.00  0.00    -0.237 OA
ATOM    111  O   UNL     1      -4.022 -19.275  15.281  1.00  0.00    -0.744 OA
ENDBRANCH 107 108
ENDBRANCH  81 102
ENDBRANCH  55  56
ENDBRANCH  47  50
ENDBRANCH  45  46
ENDBRANCH  44  45
ENDBRANCH  43  44
ENDBRANCH  42  43
ENDBRANCH   1  42
TORSDOF 22
