REMARK SMILES Cc1cc(NCc2ccco2)cc(C(=O)NCCCCCCNC(=O)c2ccc(-c3c4nc(c(-c5ccc(S(=O)(=O)[O-])cc5)c5ccc([nH]5)c(-c5ccc(S(=O)(=O)[O-])cc5)c5nc(c(-c6ccc(S(=O)(=O)[O-])cc6)c6ccc3[nH]6)C=C5)C=C4)cc2)c1N
REMARK SMILES IDX 19 1 18 2 17 3 16 4 14 5 15 6 13 8 1 9 2 10 3 11 86 12 4 13
REMARK SMILES IDX 12 14 87 15 5 18 6 20 7 21 8 22 11 23 9 24 10 25 20 26 21 27
REMARK SMILES IDX 22 28 23 29 24 30 25 32 26 33 27 34 85 35 28 36 84 37 29 38
REMARK SMILES IDX 30 39 31 40 78 41 32 42 83 43 77 44 79 45 33 46 82 47 76 48
REMARK SMILES IDX 75 49 34 51 64 52 45 53 63 54 46 55 49 56 62 57 80 58 47 59
REMARK SMILES IDX 48 60 61 62 81 63 50 64 35 65 36 66 44 67 37 68 43 69 38 70
REMARK SMILES IDX 39 71 40 72 41 73 42 74 65 75 66 76 74 77 67 78 73 79 68 80
REMARK SMILES IDX 69 81 70 82 71 83 72 84 51 85 52 86 60 87 53 88 59 89 54 90
REMARK SMILES IDX 55 91 56 92 57 93 58 94
REMARK H PARENT 16 7 87 16 87 17 5 19 23 31 79 50 49 61
REMARK Flexibility Score: inf
ROOT
ATOM      1  C   UNL     1      -4.134  -5.016  -0.987  1.00  0.00     0.002 C 
ENDROOT
BRANCH   1   2
ATOM      2  C   UNL     1      -3.823  -3.525  -0.793  1.00  0.00     0.021 C 
BRANCH   2   3
ATOM      3  C   UNL     1      -2.995  -3.252   0.467  1.00  0.00     0.116 C 
BRANCH   3   4
ATOM      4  N   UNL     1      -1.597  -3.519   0.190  1.00  0.00    -0.352 N 
ATOM      5  C   UNL     1      -0.530  -2.726  -0.151  1.00  0.00     0.253 C 
ATOM      6  O   UNL     1       0.516  -3.324  -0.424  1.00  0.00    -0.269 OA
ATOM      7  H   UNL     1      -1.363  -4.473   0.262  1.00  0.00     0.163 HD
BRANCH   5   8
ATOM      8  C   UNL     1      -0.559  -1.223  -0.149  1.00  0.00     0.065 A 
ATOM      9  C   UNL     1       1.874   1.714   0.183  1.00  0.00     0.046 C 
ATOM     10  C   UNL     1       0.616   0.897   0.070  1.00  0.00    -0.025 A 
ATOM     11  C   UNL     1      -0.625   1.560   0.030  1.00  0.00     0.031 A 
ATOM     12  C   UNL     1       0.657  -0.509  -0.004  1.00  0.00     0.047 A 
ATOM     13  C   UNL     1      -1.832   0.875  -0.132  1.00  0.00     0.036 A 
ATOM     14  C   UNL     1      -1.752  -0.503  -0.327  1.00  0.00     0.041 A 
BRANCH  12  15
ATOM     15  N   UNL     1       1.874  -1.171   0.208  1.00  0.00    -0.398 N 
ATOM     16  H   UNL     1       2.705  -0.653   0.306  1.00  0.00     0.156 HD
ATOM     17  H   UNL     1       1.897  -2.154   0.258  1.00  0.00     0.156 HD
ENDBRANCH  12  15
BRANCH  13  18
ATOM     18  N   UNL     1      -3.012   1.591  -0.165  1.00  0.00    -0.378 N 
ATOM     19  H   UNL     1      -2.934   2.569  -0.246  1.00  0.00     0.161 HD
BRANCH  18  20
ATOM     20  C   UNL     1      -4.364   1.046  -0.094  1.00  0.00     0.188 C 
BRANCH  20  21
ATOM     21  C   UNL     1      -5.021   1.129   1.244  1.00  0.00     0.122 A 
ATOM     22  C   UNL     1      -5.604   0.196   2.079  1.00  0.00     0.047 A 
ATOM     23  O   UNL     1      -5.166   2.380   1.778  1.00  0.00    -0.467 OA
ATOM     24  C   UNL     1      -6.153   0.917   3.168  1.00  0.00     0.042 A 
ATOM     25  C   UNL     1      -5.857   2.240   2.939  1.00  0.00     0.195 A 
ENDBRANCH  20  21
ENDBRANCH  18  20
ENDBRANCH  13  18
ENDBRANCH   5   8
ENDBRANCH   3   4
ENDBRANCH   2   3
ENDBRANCH   1   2
BRANCH   1  26
ATOM     26  C   UNL     1      -4.998  -5.632   0.121  1.00  0.00     0.002 C 
BRANCH  26  27
ATOM     27  C   UNL     1      -6.327  -4.913   0.369  1.00  0.00     0.021 C 
BRANCH  27  28
ATOM     28  C   UNL     1      -7.264  -4.913  -0.834  1.00  0.00     0.116 C 
BRANCH  28  29
ATOM     29  N   UNL     1      -7.681  -6.263  -1.179  1.00  0.00    -0.352 N 
ATOM     30  C   UNL     1      -8.947  -6.789  -1.238  1.00  0.00     0.251 C 
ATOM     31  H   UNL     1      -6.953  -6.888  -1.400  1.00  0.00     0.163 HD
ATOM     32  O   UNL     1      -9.107  -8.004  -1.286  1.00  0.00    -0.269 OA
BRANCH  30  33
ATOM     33  C   UNL     1     -10.114  -5.883  -1.238  1.00  0.00     0.039 A 
ATOM     34  C   UNL     1     -11.219  -6.196  -0.444  1.00  0.00     0.014 A 
ATOM     35  C   UNL     1     -10.120  -4.733  -2.035  1.00  0.00     0.014 A 
ATOM     36  C   UNL     1     -12.312  -5.327  -0.411  1.00  0.00     0.010 A 
ATOM     37  C   UNL     1     -11.177  -3.834  -1.944  1.00  0.00     0.010 A 
ATOM     38  C   UNL     1     -12.288  -4.125  -1.138  1.00  0.00    -0.014 A 
BRANCH  38  39
ATOM     39  C   UNL     1     -13.416  -3.163  -1.072  1.00  0.00     0.031 A 
ATOM     40  C   UNL     1     -14.220  -2.856  -2.308  1.00  0.00     0.074 A 
ATOM     41  C   UNL     1     -13.677  -2.522   0.084  1.00  0.00     0.049 A 
ATOM     42  N   UNL     1     -15.201  -2.004  -2.461  1.00  0.00    -0.248 NA
ATOM     43  C   UNL     1     -13.861  -3.584  -3.537  1.00  0.00     0.031 C 
ATOM     44  C   UNL     1     -12.943  -2.704   1.339  1.00  0.00     0.029 A 
ATOM     45  N   UNL     1     -14.628  -1.581   0.392  1.00  0.00    -0.354 N 
ATOM     46  C   UNL     1     -15.563  -2.080  -3.801  1.00  0.00     0.074 A 
ATOM     47  C   UNL     1     -14.667  -3.026  -4.429  1.00  0.00     0.031 C 
ATOM     48  C   UNL     1     -13.487  -1.922   2.285  1.00  0.00     0.029 A 
ATOM     49  C   UNL     1     -14.577  -1.150   1.697  1.00  0.00     0.049 A 
ATOM     50  H   UNL     1     -15.284  -1.245  -0.261  1.00  0.00     0.167 HD
ATOM     51  C   UNL     1     -16.564  -1.436  -4.446  1.00  0.00     0.031 A 
ATOM     52  C   UNL     1     -15.318  -0.231   2.346  1.00  0.00     0.031 A 
ATOM     53  C   UNL     1     -17.463  -0.508  -3.813  1.00  0.00     0.049 A 
ATOM     54  C   UNL     1     -16.418   0.479   1.603  1.00  0.00     0.074 A 
ATOM     55  C   UNL     1     -18.546   0.153  -4.367  1.00  0.00     0.029 A 
ATOM     56  N   UNL     1     -17.386  -0.108  -2.488  1.00  0.00    -0.354 N 
ATOM     57  N   UNL     1     -16.787   0.342   0.351  1.00  0.00    -0.248 NA
ATOM     58  C   UNL     1     -17.208   1.457   2.362  1.00  0.00     0.031 C 
ATOM     59  C   UNL     1     -19.088   0.995  -3.392  1.00  0.00     0.029 A 
ATOM     60  C   UNL     1     -18.385   0.810  -2.212  1.00  0.00     0.049 A 
ATOM     61  H   UNL     1     -16.719  -0.429  -1.838  1.00  0.00     0.167 HD
ATOM     62  C   UNL     1     -17.873   1.194   0.183  1.00  0.00     0.074 A 
ATOM     63  C   UNL     1     -18.109   1.829   1.463  1.00  0.00     0.031 C 
ATOM     64  C   UNL     1     -18.610   1.429  -0.931  1.00  0.00     0.031 A 
BRANCH  51  65
ATOM     65  C   UNL     1     -16.743  -1.710  -5.917  1.00  0.00    -0.014 A 
ATOM     66  C   UNL     1     -17.219  -2.953  -6.373  1.00  0.00     0.010 A 
ATOM     67  C   UNL     1     -16.492  -0.689  -6.853  1.00  0.00     0.010 A 
ATOM     68  C   UNL     1     -17.410  -3.180  -7.738  1.00  0.00     0.020 A 
ATOM     69  C   UNL     1     -16.710  -0.903  -8.217  1.00  0.00     0.020 A 
ATOM     70  C   UNL     1     -17.155  -2.153  -8.652  1.00  0.00     0.054 A 
BRANCH  70  71
ATOM     71  S   UNL     1     -17.453  -2.464 -10.414  1.00  0.00     0.124 S 
ATOM     72  O   UNL     1     -16.358  -3.371 -10.748  1.00  0.00    -0.237 OA
ATOM     73  O   UNL     1     -18.785  -3.064 -10.411  1.00  0.00    -0.237 OA
ATOM     74  O   UNL     1     -17.371  -1.138 -11.020  1.00  0.00    -0.744 OA
ENDBRANCH  70  71
ENDBRANCH  51  65
BRANCH  52  75
ATOM     75  C   UNL     1     -15.050   0.069   3.779  1.00  0.00    -0.014 A 
ATOM     76  C   UNL     1     -15.976  -0.294   4.773  1.00  0.00     0.010 A 
ATOM     77  C   UNL     1     -13.865   0.727   4.158  1.00  0.00     0.010 A 
ATOM     78  C   UNL     1     -15.736   0.020   6.115  1.00  0.00     0.020 A 
ATOM     79  C   UNL     1     -13.606   1.014   5.501  1.00  0.00     0.020 A 
ATOM     80  C   UNL     1     -14.552   0.673   6.469  1.00  0.00     0.054 A 
BRANCH  80  81
ATOM     81  S   UNL     1     -14.244   1.041   8.219  1.00  0.00     0.124 S 
ATOM     82  O   UNL     1     -15.170   2.142   8.464  1.00  0.00    -0.237 OA
ATOM     83  O   UNL     1     -14.575  -0.224   8.870  1.00  0.00    -0.237 OA
ATOM     84  O   UNL     1     -12.827   1.395   8.248  1.00  0.00    -0.744 OA
ENDBRANCH  80  81
ENDBRANCH  52  75
BRANCH  64  85
ATOM     85  C   UNL     1     -19.770   2.382  -0.809  1.00  0.00    -0.014 A 
ATOM     86  C   UNL     1     -19.568   3.765  -0.659  1.00  0.00     0.010 A 
ATOM     87  C   UNL     1     -21.083   1.886  -0.905  1.00  0.00     0.010 A 
ATOM     88  C   UNL     1     -20.661   4.632  -0.574  1.00  0.00     0.020 A 
ATOM     89  C   UNL     1     -22.177   2.753  -0.852  1.00  0.00     0.020 A 
ATOM     90  C   UNL     1     -21.959   4.120  -0.672  1.00  0.00     0.054 A 
BRANCH  90  91
ATOM     91  S   UNL     1     -23.358   5.271  -0.605  1.00  0.00     0.124 S 
ATOM     92  O   UNL     1     -23.378   5.643   0.807  1.00  0.00    -0.237 OA
ATOM     93  O   UNL     1     -22.948   6.327  -1.528  1.00  0.00    -0.237 OA
ATOM     94  O   UNL     1     -24.492   4.466  -1.054  1.00  0.00    -0.744 OA
ENDBRANCH  90  91
ENDBRANCH  64  85
ENDBRANCH  38  39
ENDBRANCH  30  33
ENDBRANCH  28  29
ENDBRANCH  27  28
ENDBRANCH  26  27
ENDBRANCH   1  26
TORSDOF 20
