REMARK SMILES CCOc1cc2c(cc1OCC)[C@@H](C(=O)NCCCCCCNC(=O)c1ccc(-c3c4nc(c(-c5ccc(S(=O)(=O)[O-])cc5)c5ccc([nH]5)c(-c5ccc(S(=O)(=O)[O-])cc5)c5nc(c(-c6ccc(S(=O)(=O)[O-])cc6)c6ccc3[nH]6)C=C5)C=C4)cc1)[C@H](c1ccc(F)cc1Cl)N(C)C2=O
REMARK SMILES IDX 20 1 19 2 18 3 17 4 16 5 14 6 15 7 13 9 4 10 5 11 9 12 6 13
REMARK SMILES IDX 8 14 7 15 97 16 95 17 98 18 86 19 96 20 3 21 2 22 1 23 10 24
REMARK SMILES IDX 11 25 12 26 87 27 88 28 93 29 89 30 92 31 94 32 90 33 91 34
REMARK SMILES IDX 21 35 22 36 23 37 24 38 25 40 26 41 27 42 85 43 28 44 84 45
REMARK SMILES IDX 29 46 30 47 31 48 78 49 32 50 83 51 77 52 79 53 33 54 82 55
REMARK SMILES IDX 76 56 75 57 34 59 64 60 45 61 63 62 46 63 49 64 62 65 80 66
REMARK SMILES IDX 47 67 48 68 61 70 81 71 50 72 35 73 36 74 44 75 37 76 43 77
REMARK SMILES IDX 38 78 39 79 40 80 41 81 42 82 65 83 66 84 74 85 67 86 73 87
REMARK SMILES IDX 68 88 69 89 70 90 71 91 72 92 51 93 52 94 60 95 53 96 59 97
REMARK SMILES IDX 54 98 55 99 56 100 57 101 58 102
REMARK H PARENT 16 8 23 39 79 58 49 69
REMARK Flexibility Score: inf
ROOT
ATOM      1  C   UNL     1       6.846   2.047  -3.012  1.00  0.00     0.002 C 
ENDROOT
BRANCH   1   2
ATOM      2  C   UNL     1       8.015   1.345  -2.314  1.00  0.00     0.002 C 
BRANCH   2   3
ATOM      3  C   UNL     1       7.603   0.390  -1.194  1.00  0.00     0.021 C 
BRANCH   3   4
ATOM      4  C   UNL     1       6.797  -0.821  -1.674  1.00  0.00     0.116 C 
BRANCH   4   5
ATOM      5  N   UNL     1       7.497  -2.064  -1.386  1.00  0.00    -0.355 N 
ATOM      6  C   UNL     1       7.427  -2.995  -0.406  1.00  0.00     0.230 C 
ATOM      7  O   UNL     1       8.296  -3.880  -0.461  1.00  0.00    -0.274 OA
ATOM      8  H   UNL     1       8.180  -2.278  -2.062  1.00  0.00     0.163 HD
BRANCH   6   9
ATOM      9  C   UNL     1       6.427  -3.048   0.747  1.00  0.00     0.136 C 
ATOM     10  C   UNL     1       2.256  -2.186   0.126  1.00  0.00     0.161 A 
ATOM     11  C   UNL     1       3.121  -1.219   0.658  1.00  0.00     0.064 A 
ATOM     12  C   UNL     1       2.746  -3.454  -0.217  1.00  0.00     0.161 A 
ATOM     13  C   UNL     1       4.478  -1.482   0.803  1.00  0.00     0.048 A 
ATOM     14  C   UNL     1       4.120  -3.704  -0.076  1.00  0.00     0.056 A 
ATOM     15  C   UNL     1       4.987  -2.731   0.440  1.00  0.00    -0.016 A 
ATOM     16  C   UNL     1       5.398  -0.416   1.296  1.00  0.00     0.254 C 
ATOM     17  N   UNL     1       6.626  -0.841   1.801  1.00  0.00    -0.333 N 
ATOM     18  O   UNL     1       5.070   0.763   1.180  1.00  0.00    -0.269 OA
ATOM     19  C   UNL     1       6.878  -2.263   2.022  1.00  0.00     0.134 C 
ATOM     20  C   UNL     1       7.638   0.118   2.221  1.00  0.00     0.147 C 
BRANCH  10  21
ATOM     21  O   UNL     1       0.923  -1.884   0.078  1.00  0.00    -0.490 OA
BRANCH  21  22
ATOM     22  C   UNL     1       0.595  -0.897  -0.912  1.00  0.00     0.226 C 
ATOM     23  C   UNL     1       0.588   0.510  -0.339  1.00  0.00     0.049 C 
ENDBRANCH  21  22
ENDBRANCH  10  21
BRANCH  12  24
ATOM     24  O   UNL     1       2.073  -4.560  -0.657  1.00  0.00    -0.490 OA
BRANCH  24  25
ATOM     25  C   UNL     1       0.660  -4.534  -0.829  1.00  0.00     0.226 C 
ATOM     26  C   UNL     1      -0.077  -4.743   0.484  1.00  0.00     0.049 C 
ENDBRANCH  24  25
ENDBRANCH  12  24
BRANCH  19  27
ATOM     27  C   UNL     1       6.228  -2.844   3.316  1.00  0.00    -0.005 A 
ATOM     28  C   UNL     1       6.439  -4.230   3.543  1.00  0.00     0.010 A 
ATOM     29  C   UNL     1       5.420  -2.173   4.268  1.00  0.00     0.049 A 
ATOM     30  C   UNL     1       5.788  -4.924   4.567  1.00  0.00     0.040 A 
ATOM     31  C   UNL     1       4.767  -2.879   5.290  1.00  0.00     0.060 A 
ATOM     32  Cl  UNL     1       5.150  -0.469   4.365  1.00  0.00    -0.084 Cl
ATOM     33  C   UNL     1       4.938  -4.243   5.417  1.00  0.00     0.124 A 
ATOM     34  F   UNL     1       4.294  -4.904   6.386  1.00  0.00    -0.207 F 
ENDBRANCH  19  27
ENDBRANCH   6   9
ENDBRANCH   4   5
ENDBRANCH   3   4
ENDBRANCH   2   3
ENDBRANCH   1   2
BRANCH   1  35
ATOM     35  C   UNL     1       5.969   2.929  -2.115  1.00  0.00     0.021 C 
BRANCH  35  36
ATOM     36  C   UNL     1       6.712   4.022  -1.346  1.00  0.00     0.116 C 
BRANCH  36  37
ATOM     37  N   UNL     1       7.501   4.865  -2.232  1.00  0.00    -0.352 N 
ATOM     38  C   UNL     1       7.377   6.194  -2.543  1.00  0.00     0.251 C 
ATOM     39  H   UNL     1       8.246   4.405  -2.682  1.00  0.00     0.163 HD
ATOM     40  O   UNL     1       7.975   6.639  -3.521  1.00  0.00    -0.269 OA
BRANCH  38  41
ATOM     41  C   UNL     1       6.540   7.094  -1.719  1.00  0.00     0.039 A 
ATOM     42  C   UNL     1       5.800   8.092  -2.359  1.00  0.00     0.014 A 
ATOM     43  C   UNL     1       6.529   7.006  -0.324  1.00  0.00     0.014 A 
ATOM     44  C   UNL     1       5.017   8.968  -1.604  1.00  0.00     0.010 A 
ATOM     45  C   UNL     1       5.688   7.831   0.422  1.00  0.00     0.010 A 
ATOM     46  C   UNL     1       4.929   8.826  -0.208  1.00  0.00    -0.014 A 
BRANCH  46  47
ATOM     47  C   UNL     1       4.023   9.701   0.580  1.00  0.00     0.031 A 
ATOM     48  C   UNL     1       4.567  10.660   1.605  1.00  0.00     0.074 A 
ATOM     49  C   UNL     1       2.692   9.606   0.386  1.00  0.00     0.049 A 
ATOM     50  N   UNL     1       3.921  11.528   2.343  1.00  0.00    -0.248 NA
ATOM     51  C   UNL     1       6.017  10.630   1.848  1.00  0.00     0.031 C 
ATOM     52  C   UNL     1       2.039   8.671  -0.534  1.00  0.00     0.029 A 
ATOM     53  N   UNL     1       1.651  10.305   0.941  1.00  0.00    -0.354 N 
ATOM     54  C   UNL     1       4.881  12.139   3.142  1.00  0.00     0.074 A 
ATOM     55  C   UNL     1       6.146  11.506   2.835  1.00  0.00     0.031 C 
ATOM     56  C   UNL     1       0.715   8.885  -0.513  1.00  0.00     0.029 A 
ATOM     57  C   UNL     1       0.419   9.941   0.450  1.00  0.00     0.049 A 
ATOM     58  H   UNL     1       1.774  11.002   1.626  1.00  0.00     0.167 HD
ATOM     59  C   UNL     1       4.727  13.146   4.036  1.00  0.00     0.031 A 
ATOM     60  C   UNL     1      -0.812  10.403   0.738  1.00  0.00     0.031 A 
ATOM     61  C   UNL     1       3.463  13.767   4.341  1.00  0.00     0.049 A 
ATOM     62  C   UNL     1      -0.958  11.523   1.730  1.00  0.00     0.074 A 
ATOM     63  C   UNL     1       3.211  14.836   5.183  1.00  0.00     0.029 A 
ATOM     64  N   UNL     1       2.238  13.367   3.826  1.00  0.00    -0.354 N 
ATOM     65  N   UNL     1      -0.025  12.151   2.406  1.00  0.00    -0.248 NA
ATOM     66  C   UNL     1      -2.320  12.007   1.984  1.00  0.00     0.031 C 
ATOM     67  C   UNL     1       1.827  15.040   5.229  1.00  0.00     0.029 A 
ATOM     68  C   UNL     1       1.222  14.145   4.360  1.00  0.00     0.049 A 
ATOM     69  H   UNL     1       2.109  12.638   3.177  1.00  0.00     0.167 HD
ATOM     70  C   UNL     1      -0.687  13.116   3.156  1.00  0.00     0.074 A 
ATOM     71  C   UNL     1      -2.094  13.008   2.824  1.00  0.00     0.031 C 
ATOM     72  C   UNL     1      -0.178  14.010   4.041  1.00  0.00     0.031 A 
BRANCH  59  73
ATOM     73  C   UNL     1       5.958  13.629   4.763  1.00  0.00    -0.014 A 
ATOM     74  C   UNL     1       6.986  14.312   4.087  1.00  0.00     0.010 A 
ATOM     75  C   UNL     1       6.071  13.434   6.152  1.00  0.00     0.010 A 
ATOM     76  C   UNL     1       8.123  14.748   4.775  1.00  0.00     0.020 A 
ATOM     77  C   UNL     1       7.191  13.897   6.851  1.00  0.00     0.020 A 
ATOM     78  C   UNL     1       8.219  14.535   6.153  1.00  0.00     0.054 A 
BRANCH  78  79
ATOM     79  S   UNL     1       9.697  15.127   7.023  1.00  0.00     0.124 S 
ATOM     80  O   UNL     1      10.719  14.198   6.548  1.00  0.00    -0.237 OA
ATOM     81  O   UNL     1       9.823  16.500   6.540  1.00  0.00    -0.237 OA
ATOM     82  O   UNL     1       9.346  14.996   8.435  1.00  0.00    -0.744 OA
ENDBRANCH  78  79
ENDBRANCH  59  73
BRANCH  60  83
ATOM     83  C   UNL     1      -2.000   9.813   0.060  1.00  0.00    -0.014 A 
ATOM     84  C   UNL     1      -2.727  10.552  -0.889  1.00  0.00     0.010 A 
ATOM     85  C   UNL     1      -2.389   8.490   0.340  1.00  0.00     0.010 A 
ATOM     86  C   UNL     1      -3.829   9.984  -1.536  1.00  0.00     0.020 A 
ATOM     87  C   UNL     1      -3.470   7.909  -0.328  1.00  0.00     0.020 A 
ATOM     88  C   UNL     1      -4.189   8.663  -1.256  1.00  0.00     0.054 A 
BRANCH  88  89
ATOM     89  S   UNL     1      -5.581   7.925  -2.157  1.00  0.00     0.124 S 
ATOM     90  O   UNL     1      -6.725   8.605  -1.560  1.00  0.00    -0.237 OA
ATOM     91  O   UNL     1      -5.283   8.281  -3.542  1.00  0.00    -0.237 OA
ATOM     92  O   UNL     1      -5.469   6.500  -1.851  1.00  0.00    -0.744 OA
ENDBRANCH  88  89
ENDBRANCH  60  83
BRANCH  72  93
ATOM     93  C   UNL     1      -1.153  14.949   4.704  1.00  0.00    -0.014 A 
ATOM     94  C   UNL     1      -2.095  14.482   5.639  1.00  0.00     0.010 A 
ATOM     95  C   UNL     1      -1.116  16.322   4.399  1.00  0.00     0.010 A 
ATOM     96  C   UNL     1      -3.016  15.362   6.215  1.00  0.00     0.020 A 
ATOM     97  C   UNL     1      -2.012  17.210   4.998  1.00  0.00     0.020 A 
ATOM     98  C   UNL     1      -2.972  16.720   5.886  1.00  0.00     0.054 A 
BRANCH  98  99
ATOM     99  S   UNL     1      -4.174  17.842   6.651  1.00  0.00     0.124 S 
ATOM    100  O   UNL     1      -5.407  17.485   5.956  1.00  0.00    -0.237 OA
ATOM    101  O   UNL     1      -4.114  17.463   8.061  1.00  0.00    -0.237 OA
ATOM    102  O   UNL     1      -3.650  19.172   6.347  1.00  0.00    -0.744 OA
ENDBRANCH  98  99
ENDBRANCH  72  93
ENDBRANCH  46  47
ENDBRANCH  38  41
ENDBRANCH  36  37
ENDBRANCH  35  36
ENDBRANCH   1  35
TORSDOF 21
