REMARK SMILES N#CCC[NH+]1CCN(c2ccc(NS(=O)(=O)c3ccccc3Cl)cc2C(=O)NCCCCCCNC(=O)c2ccc(-c3c4nc(c(-c5ccc(S(=O)(=O)[O-])cc5)c5ccc([nH]5)c(-c5ccc(S(=O)(=O)[O-])cc5)c5nc(c(-c6ccc(S(=O)(=O)[O-])cc6)c6ccc3[nH]6)C=C5)C=C4)cc2)CC1
REMARK SMILES IDX 31 1 30 2 29 3 28 4 26 5 27 6 25 8 9 9 10 10 11 11 24 12
REMARK SMILES IDX 12 13 8 14 5 15 6 16 99 17 7 19 98 20 4 21 3 22 2 23 1 24
REMARK SMILES IDX 13 25 14 27 15 28 16 29 17 30 18 31 22 32 19 33 21 34 23 35
REMARK SMILES IDX 20 36 32 37 33 38 34 39 35 40 36 41 37 43 38 44 39 45 97 46
REMARK SMILES IDX 40 47 96 48 41 49 42 50 43 51 90 52 44 53 95 54 89 55 91 56
REMARK SMILES IDX 45 57 94 58 88 59 87 60 46 62 76 63 57 64 75 65 58 66 61 67
REMARK SMILES IDX 74 68 92 69 59 70 60 71 73 73 93 74 62 75 47 76 48 77 56 78
REMARK SMILES IDX 49 79 55 80 50 81 51 82 52 83 53 84 54 85 77 86 78 87 86 88
REMARK SMILES IDX 79 89 85 90 80 91 81 92 82 93 83 94 84 95 63 96 64 97 72 98
REMARK SMILES IDX 65 99 71 100 66 101 67 102 68 103 69 104 70 105
REMARK H PARENT 28 7 5 18 13 26 35 42 91 61 61 72
REMARK Flexibility Score: inf
ROOT
ATOM      1  C   UNL     1       3.799  -1.586   4.672  1.00  0.00     0.002 C 
ENDROOT
BRANCH   1   2
ATOM      2  C   UNL     1       3.689  -3.144   4.734  1.00  0.00     0.021 C 
BRANCH   2   3
ATOM      3  C   UNL     1       4.631  -4.106   3.920  1.00  0.00     0.116 C 
BRANCH   3   4
ATOM      4  N   UNL     1       3.885  -5.331   3.527  1.00  0.00    -0.352 N 
ATOM      5  C   UNL     1       3.699  -6.232   2.499  1.00  0.00     0.253 C 
ATOM      6  O   UNL     1       2.853  -7.093   2.802  1.00  0.00    -0.269 OA
ATOM      7  H   UNL     1       3.310  -5.598   4.280  1.00  0.00     0.163 HD
BRANCH   5   8
ATOM      8  C   UNL     1       4.340  -6.405   1.131  1.00  0.00     0.065 A 
ATOM      9  C   UNL     1       5.116  -5.504   0.383  1.00  0.00     0.050 A 
ATOM     10  C   UNL     1       5.739  -5.939  -0.810  1.00  0.00     0.029 A 
ATOM     11  C   UNL     1       5.436  -7.164  -1.393  1.00  0.00     0.029 A 
ATOM     12  C   UNL     1       3.993  -7.612   0.463  1.00  0.00     0.042 A 
ATOM     13  C   UNL     1       4.443  -7.937  -0.827  1.00  0.00     0.050 A 
BRANCH   9  14
ATOM     14  N   UNL     1       5.078  -4.148   0.611  1.00  0.00    -0.360 N 
ATOM     15  N   UNL     1       4.664  -1.581   1.614  1.00  0.00    -0.331 N 
ATOM     16  C   UNL     1       3.533  -2.488   1.325  1.00  0.00     0.284 C 
ATOM     17  C   UNL     1       6.038  -2.015   1.293  1.00  0.00     0.284 C 
ATOM     18  H   UNL     1       4.686  -1.680   2.629  1.00  0.00     0.348 HD
ATOM     19  C   UNL     1       3.801  -3.526   0.256  1.00  0.00     0.178 C 
ATOM     20  C   UNL     1       6.220  -3.267   0.413  1.00  0.00     0.178 C 
BRANCH  15  21
ATOM     21  C   UNL     1       4.406  -0.190   1.344  1.00  0.00     0.277 C 
BRANCH  21  22
ATOM     22  C   UNL     1       3.876   0.018  -0.026  1.00  0.00     0.181 C 
BRANCH  22  23
ATOM     23  C   UNL     1       2.356   0.018  -0.026  1.00  0.00     0.068 C 
ATOM     24  N   UNL     1       1.095   0.018  -0.026  1.00  0.00    -0.198 NA
ENDBRANCH  22  23
ENDBRANCH  21  22
ENDBRANCH  15  21
ENDBRANCH   9  14
BRANCH  13  25
ATOM     25  N   UNL     1       3.803  -9.025  -1.494  1.00  0.00    -0.280 N 
ATOM     26  H   UNL     1       3.165  -9.558  -0.968  1.00  0.00     0.180 HD
BRANCH  25  27
ATOM     27  S   UNL     1       4.038  -9.477  -3.093  1.00  0.00     0.263 S 
ATOM     28  O   UNL     1       5.401  -9.977  -3.191  1.00  0.00    -0.201 OA
ATOM     29  O   UNL     1       2.926 -10.319  -3.462  1.00  0.00    -0.201 OA
BRANCH  27  30
ATOM     30  C   UNL     1       3.947  -8.013  -4.096  1.00  0.00     0.106 A 
ATOM     31  C   UNL     1       4.993  -7.792  -5.013  1.00  0.00     0.024 A 
ATOM     32  C   UNL     1       2.936  -7.063  -3.955  1.00  0.00     0.061 A 
ATOM     33  C   UNL     1       5.060  -6.603  -5.738  1.00  0.00     0.002 A 
ATOM     34  C   UNL     1       3.016  -5.868  -4.685  1.00  0.00     0.022 A 
ATOM     35  Cl  UNL     1       1.564  -7.261  -2.929  1.00  0.00    -0.083 Cl
ATOM     36  C   UNL     1       4.079  -5.633  -5.562  1.00  0.00     0.002 A 
ENDBRANCH  27  30
ENDBRANCH  25  27
ENDBRANCH  13  25
ENDBRANCH   5   8
ENDBRANCH   3   4
ENDBRANCH   2   3
ENDBRANCH   1   2
BRANCH   1  37
ATOM     37  C   UNL     1       5.094  -0.915   5.146  1.00  0.00     0.002 C 
BRANCH  37  38
ATOM     38  C   UNL     1       5.537   0.444   4.509  1.00  0.00     0.021 C 
BRANCH  38  39
ATOM     39  C   UNL     1       4.508   1.513   4.067  1.00  0.00     0.116 C 
BRANCH  39  40
ATOM     40  N   UNL     1       4.546   2.752   4.824  1.00  0.00    -0.352 N 
ATOM     41  C   UNL     1       4.716   4.069   4.446  1.00  0.00     0.251 C 
ATOM     42  H   UNL     1       4.429   2.629   5.793  1.00  0.00     0.163 HD
ATOM     43  O   UNL     1       4.747   4.912   5.345  1.00  0.00    -0.269 OA
BRANCH  41  44
ATOM     44  C   UNL     1       4.896   4.546   3.036  1.00  0.00     0.039 A 
ATOM     45  C   UNL     1       5.840   5.566   2.822  1.00  0.00     0.014 A 
ATOM     46  C   UNL     1       4.088   4.168   1.959  1.00  0.00     0.014 A 
ATOM     47  C   UNL     1       6.001   6.168   1.560  1.00  0.00     0.010 A 
ATOM     48  C   UNL     1       4.265   4.759   0.683  1.00  0.00     0.010 A 
ATOM     49  C   UNL     1       5.225   5.766   0.463  1.00  0.00    -0.014 A 
BRANCH  49  50
ATOM     50  C   UNL     1       5.440   6.387  -0.889  1.00  0.00     0.031 A 
ATOM     51  C   UNL     1       4.423   7.318  -1.510  1.00  0.00     0.074 A 
ATOM     52  C   UNL     1       6.570   6.130  -1.584  1.00  0.00     0.049 A 
ATOM     53  N   UNL     1       4.455   7.920  -2.676  1.00  0.00    -0.248 NA
ATOM     54  C   UNL     1       3.219   7.612  -0.721  1.00  0.00     0.031 C 
ATOM     55  C   UNL     1       7.667   5.278  -1.125  1.00  0.00     0.029 A 
ATOM     56  N   UNL     1       6.984   6.559  -2.827  1.00  0.00    -0.354 N 
ATOM     57  C   UNL     1       3.278   8.656  -2.767  1.00  0.00     0.074 A 
ATOM     58  C   UNL     1       2.541   8.403  -1.544  1.00  0.00     0.031 C 
ATOM     59  C   UNL     1       8.627   5.252  -2.065  1.00  0.00     0.029 A 
ATOM     60  C   UNL     1       8.205   6.053  -3.213  1.00  0.00     0.049 A 
ATOM     61  H   UNL     1       6.456   7.173  -3.387  1.00  0.00     0.167 HD
ATOM     62  C   UNL     1       2.845   9.472  -3.763  1.00  0.00     0.031 A 
ATOM     63  C   UNL     1       8.908   6.193  -4.357  1.00  0.00     0.031 A 
ATOM     64  C   UNL     1       3.560   9.740  -4.987  1.00  0.00     0.049 A 
ATOM     65  C   UNL     1       8.381   7.051  -5.476  1.00  0.00     0.074 A 
ATOM     66  C   UNL     1       3.195  10.582  -6.028  1.00  0.00     0.029 A 
ATOM     67  N   UNL     1       4.773   9.176  -5.345  1.00  0.00    -0.354 N 
ATOM     68  N   UNL     1       7.279   7.758  -5.520  1.00  0.00    -0.248 NA
ATOM     69  C   UNL     1       9.197   7.134  -6.699  1.00  0.00     0.031 C 
ATOM     70  C   UNL     1       4.160  10.485  -7.036  1.00  0.00     0.029 A 
ATOM     71  C   UNL     1       5.154   9.627  -6.601  1.00  0.00     0.049 A 
ATOM     72  H   UNL     1       5.289   8.547  -4.790  1.00  0.00     0.167 HD
ATOM     73  C   UNL     1       7.285   8.392  -6.760  1.00  0.00     0.074 A 
ATOM     74  C   UNL     1       8.500   7.989  -7.435  1.00  0.00     0.031 C 
ATOM     75  C   UNL     1       6.363   9.237  -7.282  1.00  0.00     0.031 A 
BRANCH  62  76
ATOM     76  C   UNL     1       1.502  10.136  -3.590  1.00  0.00    -0.014 A 
ATOM     77  C   UNL     1       1.329  11.206  -2.695  1.00  0.00     0.010 A 
ATOM     78  C   UNL     1       0.416   9.730  -4.389  1.00  0.00     0.010 A 
ATOM     79  C   UNL     1       0.083  11.829  -2.569  1.00  0.00     0.020 A 
ATOM     80  C   UNL     1      -0.825  10.366  -4.284  1.00  0.00     0.020 A 
ATOM     81  C   UNL     1      -0.988  11.400  -3.359  1.00  0.00     0.054 A 
BRANCH  81  82
ATOM     82  S   UNL     1      -2.591  12.231  -3.183  1.00  0.00     0.124 S 
ATOM     83  O   UNL     1      -3.065  11.699  -1.907  1.00  0.00    -0.237 OA
ATOM     84  O   UNL     1      -2.223  13.644  -3.175  1.00  0.00    -0.237 OA
ATOM     85  O   UNL     1      -3.341  11.793  -4.357  1.00  0.00    -0.744 OA
ENDBRANCH  81  82
ENDBRANCH  62  76
BRANCH  63  86
ATOM     86  C   UNL     1      10.203   5.473  -4.517  1.00  0.00    -0.014 A 
ATOM     87  C   UNL     1      11.422   6.174  -4.516  1.00  0.00     0.010 A 
ATOM     88  C   UNL     1      10.217   4.075  -4.671  1.00  0.00     0.010 A 
ATOM     89  C   UNL     1      12.631   5.489  -4.674  1.00  0.00     0.020 A 
ATOM     90  C   UNL     1      11.424   3.385  -4.803  1.00  0.00     0.020 A 
ATOM     91  C   UNL     1      12.624   4.098  -4.812  1.00  0.00     0.054 A 
BRANCH  91  92
ATOM     92  S   UNL     1      14.206   3.218  -4.947  1.00  0.00     0.124 S 
ATOM     93  O   UNL     1      14.590   3.497  -6.327  1.00  0.00    -0.237 OA
ATOM     94  O   UNL     1      15.016   3.864  -3.918  1.00  0.00    -0.237 OA
ATOM     95  O   UNL     1      13.845   1.831  -4.664  1.00  0.00    -0.744 OA
ENDBRANCH  91  92
ENDBRANCH  63  86
BRANCH  75  96
ATOM     96  C   UNL     1       6.630   9.827  -8.643  1.00  0.00    -0.014 A 
ATOM     97  C   UNL     1       6.490   9.060  -9.813  1.00  0.00     0.010 A 
ATOM     98  C   UNL     1       6.948  11.194  -8.757  1.00  0.00     0.010 A 
ATOM     99  C   UNL     1       6.675   9.646 -11.070  1.00  0.00     0.020 A 
ATOM    100  C   UNL     1       7.113  11.788 -10.012  1.00  0.00     0.020 A 
ATOM    101  C   UNL     1       6.982  11.008 -11.162  1.00  0.00     0.054 A 
BRANCH 101 102
ATOM    102  S   UNL     1       7.147  11.760 -12.806  1.00  0.00     0.124 S 
ATOM    103  O   UNL     1       8.444  11.252 -13.245  1.00  0.00    -0.237 OA
ATOM    104  O   UNL     1       5.990  11.226 -13.521  1.00  0.00    -0.237 OA
ATOM    105  O   UNL     1       7.098  13.195 -12.538  1.00  0.00    -0.744 OA
ENDBRANCH 101 102
ENDBRANCH  75  96
ENDBRANCH  49  50
ENDBRANCH  41  44
ENDBRANCH  39  40
ENDBRANCH  38  39
ENDBRANCH  37  38
ENDBRANCH   1  37
TORSDOF 23
