REMARK SMILES O=C(CSc1nnc(Cc2ccncc2)n1-c1ccccc1Cl)NCCCCCCNC(=O)c1ccc(-c2c3nc(c(-c4ccc(S(=O)(=O)[O-])cc4)c4ccc([nH]4)c(-c4ccc(S(=O)(=O)[O-])cc4)c4nc(c(-c5ccc(S(=O)(=O)[O-])cc5)c5ccc2[nH]5)C=C4)C=C3)cc1
REMARK SMILES IDX 27 1 26 2 25 3 24 4 1 5 2 6 3 8 4 9 5 10 6 11 16 12 7 13
REMARK SMILES IDX 8 14 17 15 18 16 22 17 19 18 21 19 23 20 20 21 9 22 10 23
REMARK SMILES IDX 11 24 15 25 12 26 14 27 13 28 28 29 29 30 30 31 31 32 32 33
REMARK SMILES IDX 33 35 34 36 35 37 93 38 36 39 92 40 37 41 38 42 39 43 86 44
REMARK SMILES IDX 40 45 91 46 85 47 87 48 41 49 90 50 84 51 83 52 42 54 72 55
REMARK SMILES IDX 53 56 71 57 54 58 57 59 70 60 88 61 55 62 56 63 69 65 89 66
REMARK SMILES IDX 58 67 43 68 44 69 52 70 45 71 51 72 46 73 47 74 48 75 49 76
REMARK SMILES IDX 50 77 73 78 74 79 82 80 75 81 81 82 76 83 77 84 78 85 79 86
REMARK SMILES IDX 80 87 59 88 60 89 68 90 61 91 67 92 62 93 63 94 64 95 65 96
REMARK SMILES IDX 66 97
REMARK H PARENT 24 7 31 34 87 53 57 64
REMARK Flexibility Score: inf
ROOT
ATOM      1  C   UNL     1       4.160   0.983   3.498  1.00  0.00     0.002 C 
ENDROOT
BRANCH   1   2
ATOM      2  C   UNL     1       2.659   0.740   3.291  1.00  0.00     0.021 C 
BRANCH   2   3
ATOM      3  C   UNL     1       2.073   1.316   2.003  1.00  0.00     0.116 C 
BRANCH   3   4
ATOM      4  N   UNL     1       2.642   0.709   0.817  1.00  0.00    -0.355 N 
ATOM      5  O   UNL     1       0.633   0.310  -0.220  1.00  0.00    -0.274 OA
ATOM      6  C   UNL     1       1.860   0.255  -0.229  1.00  0.00     0.230 C 
ATOM      7  H   UNL     1       3.620   0.616   0.753  1.00  0.00     0.163 HD
BRANCH   6   8
ATOM      8  C   UNL     1       2.628  -0.403  -1.364  1.00  0.00     0.178 C 
BRANCH   8   9
ATOM      9  S   UNL     1       3.971   0.654  -1.975  1.00  0.00    -0.076 SA
BRANCH   9  10
ATOM     10  C   UNL     1       3.091   1.974  -2.683  1.00  0.00     0.196 A 
ATOM     11  N   UNL     1       1.940   1.882  -3.305  1.00  0.00    -0.123 NA
ATOM     12  N   UNL     1       3.463   3.300  -2.572  1.00  0.00    -0.272 N 
ATOM     13  N   UNL     1       1.518   3.156  -3.598  1.00  0.00    -0.134 NA
ATOM     14  C   UNL     1       2.420   4.009  -3.148  1.00  0.00     0.142 A 
BRANCH  12  15
ATOM     15  C   UNL     1       4.571   3.825  -1.872  1.00  0.00     0.068 A 
ATOM     16  C   UNL     1       4.325   4.597  -0.726  1.00  0.00     0.028 A 
ATOM     17  C   UNL     1       5.883   3.555  -2.279  1.00  0.00     0.065 A 
ATOM     18  C   UNL     1       5.396   5.091   0.017  1.00  0.00     0.002 A 
ATOM     19  C   UNL     1       6.947   4.044  -1.517  1.00  0.00     0.023 A 
ATOM     20  Cl  UNL     1       6.266   2.744  -3.755  1.00  0.00    -0.082 Cl
ATOM     21  C   UNL     1       6.705   4.808  -0.373  1.00  0.00     0.002 A 
ENDBRANCH  12  15
BRANCH  14  22
ATOM     22  C   UNL     1       2.338   5.497  -3.259  1.00  0.00     0.113 C 
BRANCH  22  23
ATOM     23  C   UNL     1       2.581   6.031  -4.653  1.00  0.00    -0.037 A 
ATOM     24  C   UNL     1       1.619   5.868  -5.655  1.00  0.00     0.024 A 
ATOM     25  C   UNL     1       3.747   6.737  -4.965  1.00  0.00     0.024 A 
ATOM     26  C   UNL     1       1.850   6.431  -6.901  1.00  0.00     0.111 A 
ATOM     27  C   UNL     1       3.885   7.265  -6.241  1.00  0.00     0.111 A 
ATOM     28  N   UNL     1       2.960   7.134  -7.215  1.00  0.00    -0.265 NA
ENDBRANCH  22  23
ENDBRANCH  14  22
ENDBRANCH   9  10
ENDBRANCH   8   9
ENDBRANCH   6   8
ENDBRANCH   3   4
ENDBRANCH   2   3
ENDBRANCH   1   2
BRANCH   1  29
ATOM     29  C   UNL     1       4.634   2.442   3.435  1.00  0.00     0.002 C 
BRANCH  29  30
ATOM     30  C   UNL     1       3.932   3.442   4.365  1.00  0.00     0.021 C 
BRANCH  30  31
ATOM     31  C   UNL     1       4.091   3.147   5.850  1.00  0.00     0.116 C 
BRANCH  31  32
ATOM     32  N   UNL     1       5.467   3.305   6.324  1.00  0.00    -0.352 N 
ATOM     33  C   UNL     1       5.967   3.085   7.599  1.00  0.00     0.251 C 
ATOM     34  H   UNL     1       6.120   3.606   5.652  1.00  0.00     0.163 HD
ATOM     35  O   UNL     1       7.012   3.604   7.955  1.00  0.00    -0.269 OA
BRANCH  33  36
ATOM     36  C   UNL     1       5.209   2.209   8.515  1.00  0.00     0.039 A 
ATOM     37  C   UNL     1       5.092   2.490   9.880  1.00  0.00     0.014 A 
ATOM     38  C   UNL     1       4.586   1.094   7.968  1.00  0.00     0.014 A 
ATOM     39  C   UNL     1       4.267   1.684  10.667  1.00  0.00     0.010 A 
ATOM     40  C   UNL     1       3.644   0.417   8.696  1.00  0.00     0.010 A 
ATOM     41  C   UNL     1       3.526   0.659  10.061  1.00  0.00    -0.014 A 
BRANCH  41  42
ATOM     42  C   UNL     1       2.541  -0.123  10.802  1.00  0.00     0.031 A 
ATOM     43  C   UNL     1       1.481   0.670  11.479  1.00  0.00     0.074 A 
ATOM     44  C   UNL     1       2.437  -1.465  10.670  1.00  0.00     0.049 A 
ATOM     45  N   UNL     1       1.287   0.796  12.749  1.00  0.00    -0.248 NA
ATOM     46  C   UNL     1       0.610   1.527  10.657  1.00  0.00     0.031 C 
ATOM     47  C   UNL     1       3.225  -2.350   9.801  1.00  0.00     0.029 A 
ATOM     48  N   UNL     1       1.495  -2.308  11.172  1.00  0.00    -0.354 N 
ATOM     49  C   UNL     1       0.130   1.556  12.887  1.00  0.00     0.074 A 
ATOM     50  C   UNL     1      -0.121   2.138  11.592  1.00  0.00     0.031 C 
ATOM     51  C   UNL     1       2.569  -3.518   9.632  1.00  0.00     0.029 A 
ATOM     52  C   UNL     1       1.418  -3.533  10.515  1.00  0.00     0.049 A 
ATOM     53  H   UNL     1       0.918  -2.072  11.934  1.00  0.00     0.167 HD
ATOM     54  C   UNL     1      -0.672   1.442  13.983  1.00  0.00     0.031 A 
ATOM     55  C   UNL     1       0.457  -4.481  10.657  1.00  0.00     0.031 A 
ATOM     56  C   UNL     1      -0.036   0.683  15.031  1.00  0.00     0.049 A 
ATOM     57  C   UNL     1      -0.200  -4.235  11.964  1.00  0.00     0.074 A 
ATOM     58  C   UNL     1       1.139   0.808  15.746  1.00  0.00     0.029 A 
ATOM     59  N   UNL     1      -0.436  -0.626  15.183  1.00  0.00    -0.354 N 
ATOM     60  N   UNL     1       0.415  -4.381  13.104  1.00  0.00    -0.248 NA
ATOM     61  C   UNL     1      -1.379  -3.384  12.000  1.00  0.00     0.031 C 
ATOM     62  C   UNL     1       1.633  -0.524  15.871  1.00  0.00     0.029 A 
ATOM     63  C   UNL     1       0.696  -1.390  15.304  1.00  0.00     0.049 A 
ATOM     64  H   UNL     1      -1.365  -0.953  15.201  1.00  0.00     0.167 HD
ATOM     65  C   UNL     1      -0.004  -3.303  13.870  1.00  0.00     0.074 A 
ATOM     66  C   UNL     1      -1.194  -2.796  13.187  1.00  0.00     0.031 C 
ATOM     67  C   UNL     1       0.814  -2.748  14.814  1.00  0.00     0.031 A 
BRANCH  54  68
ATOM     68  C   UNL     1      -2.168   1.648  13.964  1.00  0.00    -0.014 A 
ATOM     69  C   UNL     1      -2.878   1.577  15.181  1.00  0.00     0.010 A 
ATOM     70  C   UNL     1      -2.929   1.624  12.777  1.00  0.00     0.010 A 
ATOM     71  C   UNL     1      -4.268   1.406  15.203  1.00  0.00     0.020 A 
ATOM     72  C   UNL     1      -4.319   1.501  12.790  1.00  0.00     0.020 A 
ATOM     73  C   UNL     1      -4.977   1.353  14.003  1.00  0.00     0.054 A 
BRANCH  73  74
ATOM     74  S   UNL     1      -6.753   1.011  14.036  1.00  0.00     0.124 S 
ATOM     75  O   UNL     1      -6.783  -0.363  14.527  1.00  0.00    -0.237 OA
ATOM     76  O   UNL     1      -7.246   2.027  14.960  1.00  0.00    -0.237 OA
ATOM     77  O   UNL     1      -7.160   1.189  12.644  1.00  0.00    -0.744 OA
ENDBRANCH  73  74
ENDBRANCH  54  68
BRANCH  55  78
ATOM     78  C   UNL     1      -0.081  -5.416   9.638  1.00  0.00    -0.014 A 
ATOM     79  C   UNL     1      -0.913  -6.491  10.005  1.00  0.00     0.010 A 
ATOM     80  C   UNL     1      -0.002  -5.092   8.267  1.00  0.00     0.010 A 
ATOM     81  C   UNL     1      -1.694  -7.163   9.048  1.00  0.00     0.020 A 
ATOM     82  C   UNL     1      -0.768  -5.763   7.307  1.00  0.00     0.020 A 
ATOM     83  C   UNL     1      -1.635  -6.777   7.707  1.00  0.00     0.054 A 
BRANCH  83  84
ATOM     84  S   UNL     1      -2.795  -7.505   6.511  1.00  0.00     0.124 S 
ATOM     85  O   UNL     1      -2.283  -8.865   6.368  1.00  0.00    -0.237 OA
ATOM     86  O   UNL     1      -4.078  -7.380   7.196  1.00  0.00    -0.237 OA
ATOM     87  O   UNL     1      -2.644  -6.658   5.328  1.00  0.00    -0.744 OA
ENDBRANCH  83  84
ENDBRANCH  55  78
BRANCH  67  88
ATOM     88  C   UNL     1       2.072  -3.495  15.204  1.00  0.00    -0.014 A 
ATOM     89  C   UNL     1       3.096  -3.838  14.298  1.00  0.00     0.010 A 
ATOM     90  C   UNL     1       2.289  -3.733  16.573  1.00  0.00     0.010 A 
ATOM     91  C   UNL     1       4.282  -4.438  14.745  1.00  0.00     0.020 A 
ATOM     92  C   UNL     1       3.477  -4.311  17.027  1.00  0.00     0.020 A 
ATOM     93  C   UNL     1       4.463  -4.675  16.110  1.00  0.00     0.054 A 
BRANCH  93  94
ATOM     94  S   UNL     1       6.009  -5.428  16.689  1.00  0.00     0.124 S 
ATOM     95  O   UNL     1       5.907  -6.793  16.178  1.00  0.00    -0.237 OA
ATOM     96  O   UNL     1       7.033  -4.596  16.061  1.00  0.00    -0.237 OA
ATOM     97  O   UNL     1       5.932  -5.306  18.144  1.00  0.00    -0.744 OA
ENDBRANCH  93  94
ENDBRANCH  67  88
ENDBRANCH  41  42
ENDBRANCH  33  36
ENDBRANCH  31  32
ENDBRANCH  30  31
ENDBRANCH  29  30
ENDBRANCH   1  29
TORSDOF 21
