REMARK SMILES Cc1cc(C)c2c(CCCC(=O)NCCCCCCNC(=O)c3ccc(-c4c5nc(c(-c6ccc(S(=O)(=O)[O-])cc6)c6ccc([nH]6)c(-c6ccc(S(=O)(=O)[O-])cc6)c6nc(c(-c7ccc(S(=O)(=O)[O-])cc7)c7ccc4[nH]7)C=C6)C=C5)cc3)c(-c3ccccn3)[nH]c2c1
REMARK SMILES IDX 16 1 15 2 14 3 13 4 11 5 12 6 10 8 9 9 8 10 7 11 1 12 2 13
REMARK SMILES IDX 3 14 92 15 4 16 91 17 5 18 6 19 90 20 83 21 84 23 85 24
REMARK SMILES IDX 89 25 86 26 88 27 87 28 17 29 18 30 19 31 20 32 21 33 22 35
REMARK SMILES IDX 23 36 24 37 82 38 25 39 81 40 26 41 27 42 28 43 75 44 29 45
REMARK SMILES IDX 80 46 74 47 76 48 30 49 79 50 73 51 72 52 31 54 61 55 42 56
REMARK SMILES IDX 60 57 43 58 46 59 59 60 77 61 44 62 45 63 58 65 78 66 47 67
REMARK SMILES IDX 32 68 33 69 41 70 34 71 40 72 35 73 36 74 37 75 38 76 39 77
REMARK SMILES IDX 62 78 63 79 71 80 64 81 70 82 65 83 66 84 67 85 68 86 69 87
REMARK SMILES IDX 48 88 49 89 57 90 50 91 56 92 51 93 52 94 53 95 54 96 55 97
REMARK H PARENT 13 7 90 22 20 34 76 53 46 64
REMARK Flexibility Score: inf
ROOT
ATOM      1  C   UNL     1      -5.396   1.616   6.197  1.00  0.00     0.002 C 
ENDROOT
BRANCH   1   2
ATOM      2  C   UNL     1      -3.961   1.129   6.408  1.00  0.00     0.021 C 
BRANCH   2   3
ATOM      3  C   UNL     1      -3.052   2.214   6.974  1.00  0.00     0.116 C 
BRANCH   3   4
ATOM      4  N   UNL     1      -2.962   2.189   8.411  1.00  0.00    -0.356 N 
ATOM      5  C   UNL     1      -1.894   2.097   9.240  1.00  0.00     0.220 C 
ATOM      6  O   UNL     1      -2.115   2.336  10.434  1.00  0.00    -0.275 OA
ATOM      7  H   UNL     1      -3.829   2.249   8.873  1.00  0.00     0.163 HD
BRANCH   5   8
ATOM      8  C   UNL     1      -0.464   1.869   8.780  1.00  0.00     0.100 C 
BRANCH   8   9
ATOM      9  C   UNL     1       0.002   0.650   8.013  1.00  0.00     0.015 C 
BRANCH   9  10
ATOM     10  C   UNL     1      -0.345   0.420   6.551  1.00  0.00     0.039 C 
BRANCH  10  11
ATOM     11  C   UNL     1       0.050   1.312   5.378  1.00  0.00    -0.013 A 
ATOM     12  C   UNL     1       0.996   0.010  -0.159  1.00  0.00     0.044 C 
ATOM     13  C   UNL     1       0.652   0.280   1.276  1.00  0.00    -0.049 A 
ATOM     14  C   UNL     1       0.259  -0.766   2.110  1.00  0.00     0.007 A 
ATOM     15  C   UNL     1       0.778   1.569   1.800  1.00  0.00     0.030 A 
ATOM     16  C   UNL     1      -0.023  -0.575   3.481  1.00  0.00    -0.041 A 
ATOM     17  C   UNL     1       0.536   1.754   3.166  1.00  0.00     0.047 A 
ATOM     18  C   UNL     1      -0.507  -1.782   4.248  1.00  0.00     0.045 C 
ATOM     19  C   UNL     1       0.172   0.729   4.035  1.00  0.00     0.006 A 
ATOM     20  N   UNL     1       0.590   2.904   3.902  1.00  0.00    -0.353 N 
ATOM     21  C   UNL     1       0.195   2.702   5.205  1.00  0.00     0.068 A 
ATOM     22  H   UNL     1       0.877   3.775   3.543  1.00  0.00     0.167 HD
BRANCH  21  23
ATOM     23  C   UNL     1      -0.095   3.895   6.003  1.00  0.00     0.087 A 
ATOM     24  C   UNL     1      -1.273   4.613   5.797  1.00  0.00     0.030 A 
ATOM     25  N   UNL     1       0.806   4.235   6.945  1.00  0.00    -0.255 NA
ATOM     26  C   UNL     1      -1.633   5.598   6.714  1.00  0.00     0.004 A 
ATOM     27  C   UNL     1       0.426   5.193   7.830  1.00  0.00     0.112 A 
ATOM     28  C   UNL     1      -0.786   5.866   7.779  1.00  0.00     0.020 A 
ENDBRANCH  21  23
ENDBRANCH  10  11
ENDBRANCH   9  10
ENDBRANCH   8   9
ENDBRANCH   5   8
ENDBRANCH   3   4
ENDBRANCH   2   3
ENDBRANCH   1   2
BRANCH   1  29
ATOM     29  C   UNL     1      -5.578   2.734   5.155  1.00  0.00     0.002 C 
BRANCH  29  30
ATOM     30  C   UNL     1      -5.056   2.465   3.735  1.00  0.00     0.021 C 
BRANCH  30  31
ATOM     31  C   UNL     1      -5.713   1.285   3.032  1.00  0.00     0.116 C 
BRANCH  31  32
ATOM     32  N   UNL     1      -7.164   1.440   2.927  1.00  0.00    -0.352 N 
ATOM     33  C   UNL     1      -8.124   0.518   2.555  1.00  0.00     0.251 C 
ATOM     34  H   UNL     1      -7.507   2.334   3.156  1.00  0.00     0.163 HD
ATOM     35  O   UNL     1      -9.225   0.890   2.185  1.00  0.00    -0.269 OA
BRANCH  33  36
ATOM     36  C   UNL     1      -7.796  -0.919   2.611  1.00  0.00     0.039 A 
ATOM     37  C   UNL     1      -8.264  -1.811   1.643  1.00  0.00     0.014 A 
ATOM     38  C   UNL     1      -6.994  -1.369   3.655  1.00  0.00     0.014 A 
ATOM     39  C   UNL     1      -7.845  -3.139   1.697  1.00  0.00     0.010 A 
ATOM     40  C   UNL     1      -6.446  -2.622   3.610  1.00  0.00     0.010 A 
ATOM     41  C   UNL     1      -6.917  -3.532   2.675  1.00  0.00    -0.014 A 
BRANCH  41  42
ATOM     42  C   UNL     1      -6.351  -4.873   2.683  1.00  0.00     0.031 A 
ATOM     43  C   UNL     1      -5.713  -5.282   1.407  1.00  0.00     0.074 A 
ATOM     44  C   UNL     1      -6.220  -5.617   3.803  1.00  0.00     0.049 A 
ATOM     45  N   UNL     1      -6.172  -6.118   0.538  1.00  0.00    -0.248 NA
ATOM     46  C   UNL     1      -4.505  -4.565   0.969  1.00  0.00     0.031 C 
ATOM     47  C   UNL     1      -6.506  -5.242   5.194  1.00  0.00     0.029 A 
ATOM     48  N   UNL     1      -5.688  -6.860   3.936  1.00  0.00    -0.354 N 
ATOM     49  C   UNL     1      -5.199  -6.213  -0.450  1.00  0.00     0.074 A 
ATOM     50  C   UNL     1      -4.307  -5.100  -0.238  1.00  0.00     0.031 C 
ATOM     51  C   UNL     1      -5.931  -6.132   6.033  1.00  0.00     0.029 A 
ATOM     52  C   UNL     1      -5.409  -7.233   5.246  1.00  0.00     0.049 A 
ATOM     53  H   UNL     1      -5.514  -7.449   3.167  1.00  0.00     0.167 HD
ATOM     54  C   UNL     1      -5.061  -7.340  -1.203  1.00  0.00     0.031 A 
ATOM     55  C   UNL     1      -4.784  -8.367   5.648  1.00  0.00     0.031 A 
ATOM     56  C   UNL     1      -6.186  -8.228  -1.036  1.00  0.00     0.049 A 
ATOM     57  C   UNL     1      -4.934  -9.345   4.544  1.00  0.00     0.074 A 
ATOM     58  C   UNL     1      -7.544  -8.136  -1.266  1.00  0.00     0.029 A 
ATOM     59  N   UNL     1      -6.016  -9.278  -0.164  1.00  0.00    -0.354 N 
ATOM     60  N   UNL     1      -6.084  -9.832   4.170  1.00  0.00    -0.248 NA
ATOM     61  C   UNL     1      -3.865  -9.449   3.564  1.00  0.00     0.031 C 
ATOM     62  C   UNL     1      -8.149  -8.822  -0.172  1.00  0.00     0.029 A 
ATOM     63  C   UNL     1      -7.134  -9.357   0.625  1.00  0.00     0.049 A 
ATOM     64  H   UNL     1      -5.230  -9.869  -0.115  1.00  0.00     0.167 HD
ATOM     65  C   UNL     1      -6.008  -9.899   2.786  1.00  0.00     0.074 A 
ATOM     66  C   UNL     1      -4.585  -9.758   2.482  1.00  0.00     0.031 C 
ATOM     67  C   UNL     1      -7.128  -9.787   2.011  1.00  0.00     0.031 A 
BRANCH  54  68
ATOM     68  C   UNL     1      -3.744  -7.828  -1.756  1.00  0.00    -0.014 A 
ATOM     69  C   UNL     1      -3.734  -8.985  -2.563  1.00  0.00     0.010 A 
ATOM     70  C   UNL     1      -2.496  -7.360  -1.297  1.00  0.00     0.010 A 
ATOM     71  C   UNL     1      -2.544  -9.673  -2.836  1.00  0.00     0.020 A 
ATOM     72  C   UNL     1      -1.299  -8.012  -1.600  1.00  0.00     0.020 A 
ATOM     73  C   UNL     1      -1.335  -9.185  -2.339  1.00  0.00     0.054 A 
BRANCH  73  74
ATOM     74  S   UNL     1       0.181 -10.136  -2.606  1.00  0.00     0.124 S 
ATOM     75  O   UNL     1      -0.091 -11.354  -1.851  1.00  0.00    -0.237 OA
ATOM     76  O   UNL     1       0.202 -10.280  -4.059  1.00  0.00    -0.237 OA
ATOM     77  O   UNL     1       1.225  -9.275  -2.055  1.00  0.00    -0.744 OA
ENDBRANCH  73  74
ENDBRANCH  54  68
BRANCH  55  78
ATOM     78  C   UNL     1      -3.824  -8.555   6.763  1.00  0.00    -0.014 A 
ATOM     79  C   UNL     1      -3.427  -9.848   7.154  1.00  0.00     0.010 A 
ATOM     80  C   UNL     1      -3.062  -7.465   7.233  1.00  0.00     0.010 A 
ATOM     81  C   UNL     1      -2.263 -10.050   7.914  1.00  0.00     0.020 A 
ATOM     82  C   UNL     1      -1.903  -7.659   7.997  1.00  0.00     0.020 A 
ATOM     83  C   UNL     1      -1.492  -8.953   8.306  1.00  0.00     0.054 A 
BRANCH  83  84
ATOM     84  S   UNL     1       0.117  -9.237   9.105  1.00  0.00     0.124 S 
ATOM     85  O   UNL     1      -0.270  -9.794  10.397  1.00  0.00    -0.237 OA
ATOM     86  O   UNL     1       0.766 -10.167   8.185  1.00  0.00    -0.237 OA
ATOM     87  O   UNL     1       0.715  -7.904   9.158  1.00  0.00    -0.744 OA
ENDBRANCH  83  84
ENDBRANCH  55  78
BRANCH  67  88
ATOM     88  C   UNL     1      -8.481  -9.898   2.682  1.00  0.00    -0.014 A 
ATOM     89  C   UNL     1      -8.958  -8.995   3.653  1.00  0.00     0.010 A 
ATOM     90  C   UNL     1      -9.365 -10.873   2.187  1.00  0.00     0.010 A 
ATOM     91  C   UNL     1     -10.280  -9.079   4.124  1.00  0.00     0.020 A 
ATOM     92  C   UNL     1     -10.685 -10.950   2.637  1.00  0.00     0.020 A 
ATOM     93  C   UNL     1     -11.136 -10.057   3.608  1.00  0.00     0.054 A 
BRANCH  93  94
ATOM     94  S   UNL     1     -12.859 -10.130   4.176  1.00  0.00     0.124 S 
ATOM     95  O   UNL     1     -12.718 -10.533   5.573  1.00  0.00    -0.237 OA
ATOM     96  O   UNL     1     -13.331  -8.764   3.960  1.00  0.00    -0.237 OA
ATOM     97  O   UNL     1     -13.472 -11.132   3.304  1.00  0.00    -0.744 OA
ENDBRANCH  93  94
ENDBRANCH  67  88
ENDBRANCH  41  42
ENDBRANCH  33  36
ENDBRANCH  31  32
ENDBRANCH  30  31
ENDBRANCH  29  30
ENDBRANCH   1  29
TORSDOF 20
