REMARK SMILES O=C(CCc1ccccc1)Nc1ccccc1Oc1ccsc1C(=O)NCCCCCCNC(=O)c1ccc(-c2c3nc(c(-c4ccc(S(=O)(=O)[O-])cc4)c4ccc([nH]4)c(-c4ccc(S(=O)(=O)[O-])cc4)c4nc(c(-c5ccc(S(=O)(=O)[O-])cc5)c5ccc2[nH]5)C=C4)C=C3)cc1
REMARK SMILES IDX 28 1 27 2 26 3 24 4 25 5 23 7 19 8 20 9 21 10 22 11 18 12
REMARK SMILES IDX 17 13 12 14 13 15 14 16 16 17 15 18 11 19 1 20 2 21 3 23
REMARK SMILES IDX 4 24 5 25 6 26 10 27 7 28 9 29 8 30 29 31 30 32 31 33 32 34
REMARK SMILES IDX 33 35 34 36 35 38 36 39 37 40 95 41 38 42 94 43 39 44 40 45
REMARK SMILES IDX 41 46 88 47 42 48 93 49 87 50 89 51 43 52 92 53 86 54 85 55
REMARK SMILES IDX 44 57 74 58 55 59 73 60 56 61 59 62 72 63 90 64 57 65 58 66
REMARK SMILES IDX 71 68 91 69 60 70 45 71 46 72 54 73 47 74 53 75 48 76 49 77
REMARK SMILES IDX 50 78 51 79 52 80 75 81 76 82 84 83 77 84 83 85 78 86 79 87
REMARK SMILES IDX 80 88 81 89 82 90 61 91 62 92 70 93 63 94 69 95 64 96 65 97
REMARK SMILES IDX 66 98 67 99 68 100
REMARK H PARENT 26 6 11 22 33 37 89 56 59 67
REMARK Flexibility Score: inf
ROOT
ATOM      1  C   UNL     1      -1.945   0.142   2.556  1.00  0.00     0.021 C 
ENDROOT
BRANCH   1   2
ATOM      2  C   UNL     1      -1.242  -0.744   1.541  1.00  0.00     0.116 C 
BRANCH   2   3
ATOM      3  N   UNL     1      -1.707  -0.710   0.186  1.00  0.00    -0.351 N 
ATOM      4  C   UNL     1      -1.043  -1.062  -0.974  1.00  0.00     0.265 C 
ATOM      5  O   UNL     1      -1.722  -0.885  -1.996  1.00  0.00    -0.268 OA
ATOM      6  H   UNL     1      -2.631  -0.390   0.064  1.00  0.00     0.163 HD
BRANCH   4   7
ATOM      7  C   UNL     1       0.335  -1.590  -1.033  1.00  0.00     0.135 A 
ATOM      8  C   UNL     1       1.261  -2.110  -0.132  1.00  0.00     0.151 A 
ATOM      9  C   UNL     1       2.479  -2.547  -0.737  1.00  0.00     0.059 A 
ATOM     10  C   UNL     1       2.493  -2.328  -2.092  1.00  0.00     0.069 A 
ATOM     11  S   UNL     1       1.047  -1.609  -2.630  1.00  0.00    -0.135 S 
BRANCH   8  12
ATOM     12  O   UNL     1       0.980  -2.360   1.159  1.00  0.00    -0.453 OA
BRANCH  12  13
ATOM     13  C   UNL     1       1.600  -1.799   2.255  1.00  0.00     0.151 A 
ATOM     14  C   UNL     1       2.434  -0.673   2.350  1.00  0.00     0.084 A 
ATOM     15  C   UNL     1       2.862  -0.252   3.624  1.00  0.00     0.030 A 
ATOM     16  C   UNL     1       2.425  -0.887   4.787  1.00  0.00     0.002 A 
ATOM     17  C   UNL     1       1.212  -2.458   3.439  1.00  0.00     0.049 A 
ATOM     18  C   UNL     1       1.605  -2.001   4.695  1.00  0.00     0.004 A 
BRANCH  14  19
ATOM     19  N   UNL     1       2.995   0.042   1.276  1.00  0.00    -0.323 N 
ATOM     20  O   UNL     1       1.161   1.143   0.400  1.00  0.00    -0.275 OA
ATOM     21  C   UNL     1       2.326   0.772   0.315  1.00  0.00     0.224 C 
ATOM     22  H   UNL     1       3.977   0.018   1.202  1.00  0.00     0.170 HD
BRANCH  21  23
ATOM     23  C   UNL     1       3.162   1.083  -0.925  1.00  0.00     0.105 C 
BRANCH  23  24
ATOM     24  C   UNL     1       4.284   2.111  -0.772  1.00  0.00     0.045 C 
BRANCH  24  25
ATOM     25  C   UNL     1       5.359   1.742   0.223  1.00  0.00    -0.048 A 
ATOM     26  C   UNL     1       5.951   0.468   0.232  1.00  0.00     0.004 A 
ATOM     27  C   UNL     1       5.716   2.661   1.219  1.00  0.00     0.004 A 
ATOM     28  C   UNL     1       6.777   0.083   1.290  1.00  0.00     0.000 A 
ATOM     29  C   UNL     1       6.572   2.284   2.254  1.00  0.00     0.000 A 
ATOM     30  C   UNL     1       7.077   0.988   2.305  1.00  0.00     0.000 A 
ENDBRANCH  24  25
ENDBRANCH  23  24
ENDBRANCH  21  23
ENDBRANCH  14  19
ENDBRANCH  12  13
ENDBRANCH   8  12
ENDBRANCH   4   7
ENDBRANCH   2   3
ENDBRANCH   1   2
BRANCH   1  31
ATOM     31  C   UNL     1      -3.387  -0.206   2.900  1.00  0.00     0.002 C 
BRANCH  31  32
ATOM     32  C   UNL     1      -3.698  -1.669   3.223  1.00  0.00     0.002 C 
BRANCH  32  33
ATOM     33  C   UNL     1      -2.841  -2.365   4.285  1.00  0.00     0.021 C 
BRANCH  33  34
ATOM     34  C   UNL     1      -2.675  -1.651   5.624  1.00  0.00     0.116 C 
BRANCH  34  35
ATOM     35  N   UNL     1      -3.941  -1.341   6.262  1.00  0.00    -0.352 N 
ATOM     36  C   UNL     1      -4.405  -1.630   7.519  1.00  0.00     0.251 C 
ATOM     37  H   UNL     1      -4.572  -0.838   5.698  1.00  0.00     0.163 HD
ATOM     38  O   UNL     1      -5.579  -1.369   7.793  1.00  0.00    -0.269 OA
BRANCH  36  39
ATOM     39  C   UNL     1      -3.543  -2.268   8.543  1.00  0.00     0.039 A 
ATOM     40  C   UNL     1      -4.114  -3.240   9.372  1.00  0.00     0.014 A 
ATOM     41  C   UNL     1      -2.211  -1.892   8.740  1.00  0.00     0.014 A 
ATOM     42  C   UNL     1      -3.344  -3.864  10.357  1.00  0.00     0.010 A 
ATOM     43  C   UNL     1      -1.424  -2.562   9.681  1.00  0.00     0.010 A 
ATOM     44  C   UNL     1      -1.982  -3.552  10.503  1.00  0.00    -0.014 A 
BRANCH  44  45
ATOM     45  C   UNL     1      -1.146  -4.272  11.501  1.00  0.00     0.031 A 
ATOM     46  C   UNL     1      -0.548  -3.550  12.678  1.00  0.00     0.074 A 
ATOM     47  C   UNL     1      -0.898  -5.586  11.330  1.00  0.00     0.049 A 
ATOM     48  N   UNL     1       0.186  -4.027  13.652  1.00  0.00    -0.248 NA
ATOM     49  C   UNL     1      -0.787  -2.101  12.761  1.00  0.00     0.031 C 
ATOM     50  C   UNL     1      -1.369  -6.395  10.203  1.00  0.00     0.029 A 
ATOM     51  N   UNL     1      -0.187  -6.472  12.100  1.00  0.00    -0.354 N 
ATOM     52  C   UNL     1       0.500  -2.940  14.461  1.00  0.00     0.074 A 
ATOM     53  C   UNL     1      -0.077  -1.771  13.831  1.00  0.00     0.031 C 
ATOM     54  C   UNL     1      -0.956  -7.661  10.368  1.00  0.00     0.029 A 
ATOM     55  C   UNL     1      -0.168  -7.750  11.594  1.00  0.00     0.049 A 
ATOM     56  H   UNL     1       0.266  -6.217  12.936  1.00  0.00     0.167 HD
ATOM     57  C   UNL     1       1.186  -2.916  15.630  1.00  0.00     0.031 A 
ATOM     58  C   UNL     1       0.415  -8.872  12.059  1.00  0.00     0.031 A 
ATOM     59  C   UNL     1       1.770  -4.077  16.253  1.00  0.00     0.049 A 
ATOM     60  C   UNL     1       1.160  -8.829  13.363  1.00  0.00     0.074 A 
ATOM     61  C   UNL     1       2.447  -4.162  17.457  1.00  0.00     0.029 A 
ATOM     62  N   UNL     1       1.752  -5.357  15.717  1.00  0.00    -0.354 N 
ATOM     63  N   UNL     1       1.386  -7.803  14.148  1.00  0.00    -0.248 NA
ATOM     64  C   UNL     1       1.709 -10.100  13.853  1.00  0.00     0.031 C 
ATOM     65  C   UNL     1       2.881  -5.483  17.626  1.00  0.00     0.029 A 
ATOM     66  C   UNL     1       2.425  -6.233  16.554  1.00  0.00     0.049 A 
ATOM     67  H   UNL     1       1.325  -5.606  14.866  1.00  0.00     0.167 HD
ATOM     68  C   UNL     1       2.094  -8.306  15.233  1.00  0.00     0.074 A 
ATOM     69  C   UNL     1       2.234  -9.732  15.014  1.00  0.00     0.031 C 
ATOM     70  C   UNL     1       2.584  -7.646  16.313  1.00  0.00     0.031 A 
BRANCH  57  71
ATOM     71  C   UNL     1       1.348  -1.576  16.304  1.00  0.00    -0.014 A 
ATOM     72  C   UNL     1       0.245  -0.909  16.868  1.00  0.00     0.010 A 
ATOM     73  C   UNL     1       2.618  -0.976  16.378  1.00  0.00     0.010 A 
ATOM     74  C   UNL     1       0.396   0.359  17.434  1.00  0.00     0.020 A 
ATOM     75  C   UNL     1       2.779   0.280  16.972  1.00  0.00     0.020 A 
ATOM     76  C   UNL     1       1.661   0.951  17.473  1.00  0.00     0.054 A 
BRANCH  76  77
ATOM     77  S   UNL     1       1.828   2.606  18.197  1.00  0.00     0.124 S 
ATOM     78  O   UNL     1       1.257   3.450  17.149  1.00  0.00    -0.237 OA
ATOM     79  O   UNL     1       1.037   2.504  19.420  1.00  0.00    -0.237 OA
ATOM     80  O   UNL     1       3.267   2.753  18.399  1.00  0.00    -0.744 OA
ENDBRANCH  76  77
ENDBRANCH  57  71
BRANCH  58  81
ATOM     81  C   UNL     1       0.292 -10.134  11.281  1.00  0.00    -0.014 A 
ATOM     82  C   UNL     1      -0.550 -11.170  11.721  1.00  0.00     0.010 A 
ATOM     83  C   UNL     1       0.981 -10.281  10.063  1.00  0.00     0.010 A 
ATOM     84  C   UNL     1      -0.700 -12.331  10.957  1.00  0.00     0.020 A 
ATOM     85  C   UNL     1       0.813 -11.428   9.284  1.00  0.00     0.020 A 
ATOM     86  C   UNL     1      -0.023 -12.450   9.739  1.00  0.00     0.054 A 
BRANCH  86  87
ATOM     87  S   UNL     1      -0.302 -13.925   8.721  1.00  0.00     0.124 S 
ATOM     88  O   UNL     1       0.466 -14.938   9.438  1.00  0.00    -0.237 OA
ATOM     89  O   UNL     1      -1.754 -14.076   8.772  1.00  0.00    -0.237 OA
ATOM     90  O   UNL     1       0.230 -13.543   7.414  1.00  0.00    -0.744 OA
ENDBRANCH  86  87
ENDBRANCH  58  81
BRANCH  70  91
ATOM     91  C   UNL     1       3.313  -8.469  17.344  1.00  0.00    -0.014 A 
ATOM     92  C   UNL     1       4.582  -9.014  17.075  1.00  0.00     0.010 A 
ATOM     93  C   UNL     1       2.727  -8.690  18.603  1.00  0.00     0.010 A 
ATOM     94  C   UNL     1       5.227  -9.808  18.027  1.00  0.00     0.020 A 
ATOM     95  C   UNL     1       3.381  -9.460  19.568  1.00  0.00     0.020 A 
ATOM     96  C   UNL     1       4.618 -10.033  19.265  1.00  0.00     0.054 A 
BRANCH  96  97
ATOM     97  S   UNL     1       5.476 -11.062  20.488  1.00  0.00     0.124 S 
ATOM     98  O   UNL     1       5.263 -12.405  19.955  1.00  0.00    -0.237 OA
ATOM     99  O   UNL     1       6.849 -10.569  20.419  1.00  0.00    -0.237 OA
ATOM    100  O   UNL     1       4.778 -10.769  21.738  1.00  0.00    -0.744 OA
ENDBRANCH  96  97
ENDBRANCH  70  91
ENDBRANCH  44  45
ENDBRANCH  36  39
ENDBRANCH  34  35
ENDBRANCH  33  34
ENDBRANCH  32  33
ENDBRANCH  31  32
ENDBRANCH   1  31
TORSDOF 22
