REMARK SMILES CC(=O)/C=C(/C)NCC(=O)NCCCCCCNC(=O)c1ccc(-c2c3nc(c(-c4ccc(S(=O)(=O)[O-])cc4)c4ccc([nH]4)c(-c4ccc(S(=O)(=O)[O-])cc4)c4nc(c(-c5ccc(S(=O)(=O)[O-])cc5)c5ccc2[nH]5)C=C4)C=C3)cc1
REMARK SMILES IDX 14 1 13 2 12 3 11 4 9 5 10 6 8 8 7 9 5 11 4 12 6 13 2 14
REMARK SMILES IDX 1 15 3 16 15 17 16 18 17 19 18 20 19 21 20 23 21 24 22 25
REMARK SMILES IDX 80 26 23 27 79 28 24 29 25 30 26 31 73 32 27 33 78 34 72 35
REMARK SMILES IDX 74 36 28 37 77 38 71 39 70 40 29 42 59 43 40 44 58 45 41 46
REMARK SMILES IDX 44 47 57 48 75 49 42 50 43 51 56 53 76 54 45 55 30 56 31 57
REMARK SMILES IDX 39 58 32 59 38 60 33 61 34 62 35 63 36 64 37 65 60 66 61 67
REMARK SMILES IDX 69 68 62 69 68 70 63 71 64 72 65 73 66 74 67 75 46 76 47 77
REMARK SMILES IDX 55 78 48 79 54 80 49 81 50 82 51 83 52 84 53 85
REMARK H PARENT 11 7 7 10 18 22 74 41 44 52
REMARK Flexibility Score: inf
ROOT
ATOM      1  C   UNL     1       6.158   1.927   0.055  1.00  0.00     0.002 C 
ENDROOT
BRANCH   1   2
ATOM      2  C   UNL     1       4.803   1.861   0.768  1.00  0.00     0.021 C 
BRANCH   2   3
ATOM      3  C   UNL     1       3.708   1.217  -0.080  1.00  0.00     0.116 C 
BRANCH   3   4
ATOM      4  N   UNL     1       3.886  -0.218  -0.175  1.00  0.00    -0.355 N 
ATOM      5  C   UNL     1       3.288  -1.237   0.502  1.00  0.00     0.239 C 
ATOM      6  O   UNL     1       3.678  -2.382   0.240  1.00  0.00    -0.273 OA
ATOM      7  H   UNL     1       4.551  -0.505  -0.843  1.00  0.00     0.163 HD
BRANCH   5   8
ATOM      8  C   UNL     1       2.124  -1.036   1.485  1.00  0.00     0.213 C 
BRANCH   8   9
ATOM      9  N   UNL     1       2.194   0.156   2.308  1.00  0.00    -0.380 N 
ATOM     10  H   UNL     1       3.010   0.205   2.857  1.00  0.00     0.160 HD
BRANCH   9  11
ATOM     11  C   UNL     1       1.349   1.238   2.478  1.00  0.00     0.011 C 
ATOM     12  C   UNL     1       0.403   1.809   1.702  1.00  0.00     0.067 C 
ATOM     13  C   UNL     1       1.641   1.976   3.788  1.00  0.00     0.064 C 
BRANCH  12  14
ATOM     14  C   UNL     1      -0.209   1.647   0.349  1.00  0.00     0.154 C 
ATOM     15  C   UNL     1      -0.010   0.437  -0.505  1.00  0.00     0.093 C 
ATOM     16  O   UNL     1      -0.930   2.565  -0.056  1.00  0.00    -0.295 OA
ENDBRANCH  12  14
ENDBRANCH   9  11
ENDBRANCH   8   9
ENDBRANCH   5   8
ENDBRANCH   3   4
ENDBRANCH   2   3
ENDBRANCH   1   2
BRANCH   1  17
ATOM     17  C   UNL     1       6.168   2.759  -1.233  1.00  0.00     0.002 C 
BRANCH  17  18
ATOM     18  C   UNL     1       5.736   4.220  -1.070  1.00  0.00     0.021 C 
BRANCH  18  19
ATOM     19  C   UNL     1       6.582   5.033  -0.093  1.00  0.00     0.116 C 
BRANCH  19  20
ATOM     20  N   UNL     1       7.982   5.071  -0.484  1.00  0.00    -0.352 N 
ATOM     21  C   UNL     1       8.825   6.143  -0.638  1.00  0.00     0.251 C 
ATOM     22  H   UNL     1       8.388   4.193  -0.668  1.00  0.00     0.163 HD
ATOM     23  O   UNL     1       9.920   5.981  -1.167  1.00  0.00    -0.269 OA
BRANCH  21  24
ATOM     24  C   UNL     1       8.413   7.490  -0.184  1.00  0.00     0.039 A 
ATOM     25  C   UNL     1       8.704   8.588  -0.998  1.00  0.00     0.014 A 
ATOM     26  C   UNL     1       7.776   7.680   1.046  1.00  0.00     0.014 A 
ATOM     27  C   UNL     1       8.306   9.867  -0.605  1.00  0.00     0.010 A 
ATOM     28  C   UNL     1       7.321   8.948   1.406  1.00  0.00     0.010 A 
ATOM     29  C   UNL     1       7.584  10.055   0.586  1.00  0.00    -0.014 A 
BRANCH  29  30
ATOM     30  C   UNL     1       7.080  11.402   0.959  1.00  0.00     0.031 A 
ATOM     31  C   UNL     1       7.596  12.105   2.185  1.00  0.00     0.074 A 
ATOM     32  C   UNL     1       6.124  11.977   0.203  1.00  0.00     0.049 A 
ATOM     33  N   UNL     1       7.283  13.290   2.646  1.00  0.00    -0.248 NA
ATOM     34  C   UNL     1       8.572  11.379   3.013  1.00  0.00     0.031 C 
ATOM     35  C   UNL     1       5.504  11.374  -0.980  1.00  0.00     0.029 A 
ATOM     36  N   UNL     1       5.509  13.199   0.312  1.00  0.00    -0.354 N 
ATOM     37  C   UNL     1       8.015  13.448   3.817  1.00  0.00     0.074 A 
ATOM     38  C   UNL     1       8.748  12.219   4.024  1.00  0.00     0.031 C 
ATOM     39  C   UNL     1       4.626  12.242  -1.507  1.00  0.00     0.029 A 
ATOM     40  C   UNL     1       4.595  13.447  -0.684  1.00  0.00     0.049 A 
ATOM     41  H   UNL     1       5.704  13.838   1.036  1.00  0.00     0.167 HD
ATOM     42  C   UNL     1       8.085  14.526   4.635  1.00  0.00     0.031 A 
ATOM     43  C   UNL     1       3.819  14.524  -0.915  1.00  0.00     0.031 A 
ATOM     44  C   UNL     1       7.356  15.750   4.424  1.00  0.00     0.049 A 
ATOM     45  C   UNL     1       3.919  15.709   0.004  1.00  0.00     0.074 A 
ATOM     46  C   UNL     1       7.405  16.919   5.163  1.00  0.00     0.029 A 
ATOM     47  N   UNL     1       6.442  15.963   3.402  1.00  0.00    -0.354 N 
ATOM     48  N   UNL     1       4.677  15.868   1.063  1.00  0.00    -0.248 NA
ATOM     49  C   UNL     1       3.069  16.864  -0.312  1.00  0.00     0.031 C 
ATOM     50  C   UNL     1       6.482  17.820   4.620  1.00  0.00     0.029 A 
ATOM     51  C   UNL     1       5.901  17.233   3.507  1.00  0.00     0.049 A 
ATOM     52  H   UNL     1       6.212  15.306   2.705  1.00  0.00     0.167 HD
ATOM     53  C   UNL     1       4.411  17.151   1.527  1.00  0.00     0.074 A 
ATOM     54  C   UNL     1       3.439  17.731   0.622  1.00  0.00     0.031 C 
ATOM     55  C   UNL     1       4.925  17.792   2.606  1.00  0.00     0.031 A 
BRANCH  42  56
ATOM     56  C   UNL     1       8.983  14.428   5.841  1.00  0.00    -0.014 A 
ATOM     57  C   UNL     1      10.383  14.403   5.705  1.00  0.00     0.010 A 
ATOM     58  C   UNL     1       8.423  14.404   7.132  1.00  0.00     0.010 A 
ATOM     59  C   UNL     1      11.204  14.312   6.832  1.00  0.00     0.020 A 
ATOM     60  C   UNL     1       9.242  14.342   8.264  1.00  0.00     0.020 A 
ATOM     61  C   UNL     1      10.628  14.279   8.105  1.00  0.00     0.054 A 
BRANCH  61  62
ATOM     62  S   UNL     1      11.718  14.182   9.552  1.00  0.00     0.124 S 
ATOM     63  O   UNL     1      12.182  12.798   9.486  1.00  0.00    -0.237 OA
ATOM     64  O   UNL     1      12.728  15.197   9.261  1.00  0.00    -0.237 OA
ATOM     65  O   UNL     1      10.835  14.490  10.674  1.00  0.00    -0.744 OA
ENDBRANCH  61  62
ENDBRANCH  42  56
BRANCH  43  66
ATOM     66  C   UNL     1       2.899  14.537  -2.085  1.00  0.00    -0.014 A 
ATOM     67  C   UNL     1       3.165  15.359  -3.194  1.00  0.00     0.010 A 
ATOM     68  C   UNL     1       1.761  13.710  -2.104  1.00  0.00     0.010 A 
ATOM     69  C   UNL     1       2.301  15.369  -4.292  1.00  0.00     0.020 A 
ATOM     70  C   UNL     1       0.910  13.696  -3.212  1.00  0.00     0.020 A 
ATOM     71  C   UNL     1       1.179  14.534  -4.295  1.00  0.00     0.054 A 
BRANCH  71  72
ATOM     72  S   UNL     1       0.101  14.523  -5.755  1.00  0.00     0.124 S 
ATOM     73  O   UNL     1      -0.611  15.789  -5.616  1.00  0.00    -0.237 OA
ATOM     74  O   UNL     1       1.060  14.452  -6.855  1.00  0.00    -0.237 OA
ATOM     75  O   UNL     1      -0.711  13.322  -5.569  1.00  0.00    -0.744 OA
ENDBRANCH  71  72
ENDBRANCH  43  66
BRANCH  55  76
ATOM     76  C   UNL     1       4.459  19.203   2.854  1.00  0.00    -0.014 A 
ATOM     77  C   UNL     1       3.154  19.469   3.309  1.00  0.00     0.010 A 
ATOM     78  C   UNL     1       5.349  20.274   2.660  1.00  0.00     0.010 A 
ATOM     79  C   UNL     1       2.736  20.785   3.523  1.00  0.00     0.020 A 
ATOM     80  C   UNL     1       4.944  21.589   2.901  1.00  0.00     0.020 A 
ATOM     81  C   UNL     1       3.634  21.838   3.313  1.00  0.00     0.054 A 
BRANCH  81  82
ATOM     82  S   UNL     1       3.075  23.536   3.621  1.00  0.00     0.124 S 
ATOM     83  O   UNL     1       2.224  23.790   2.462  1.00  0.00    -0.237 OA
ATOM     84  O   UNL     1       2.378  23.418   4.900  1.00  0.00    -0.237 OA
ATOM     85  O   UNL     1       4.316  24.306   3.665  1.00  0.00    -0.744 OA
ENDBRANCH  81  82
ENDBRANCH  55  76
ENDBRANCH  29  30
ENDBRANCH  21  24
ENDBRANCH  19  20
ENDBRANCH  18  19
ENDBRANCH  17  18
ENDBRANCH   1  17
TORSDOF 19
