REMARK SMILES Cc1cc(Br)cc([N+](=O)[O-])c1OCCC(=O)NCCCCCCNC(=O)c1ccc(-c2c3nc(c(-c4ccc(S(=O)(=O)[O-])cc4)c4ccc([nH]4)c(-c4ccc(S(=O)(=O)[O-])cc4)c4nc(c(-c5ccc(S(=O)(=O)[O-])cc5)c5ccc2[nH]5)C=C4)C=C3)cc1
REMARK SMILES IDX 20 1 19 2 18 3 17 4 15 5 16 6 14 8 13 9 12 10 11 11 1 12
REMARK SMILES IDX 2 13 3 14 4 15 7 16 5 17 6 18 8 19 9 20 10 21 21 22 22 23
REMARK SMILES IDX 23 24 24 25 25 26 26 28 27 29 28 30 86 31 29 32 85 33 30 34
REMARK SMILES IDX 31 35 32 36 79 37 33 38 84 39 78 40 80 41 34 42 83 43 77 44
REMARK SMILES IDX 76 45 35 47 65 48 46 49 64 50 47 51 50 52 63 53 81 54 48 55
REMARK SMILES IDX 49 56 62 58 82 59 51 60 36 61 37 62 45 63 38 64 44 65 39 66
REMARK SMILES IDX 40 67 41 68 42 69 43 70 66 71 67 72 75 73 68 74 74 75 69 76
REMARK SMILES IDX 70 77 71 78 72 79 73 80 52 81 53 82 61 83 54 84 60 85 55 86
REMARK SMILES IDX 56 87 57 88 58 89 59 90
REMARK H PARENT 17 7 24 27 80 46 50 57
REMARK Flexibility Score: inf
ROOT
ATOM      1  C   UNL     1      -0.573   1.214  -1.716  1.00  0.00     0.002 C 
ENDROOT
BRANCH   1   2
ATOM      2  C   UNL     1      -2.039   1.570  -2.002  1.00  0.00     0.021 C 
BRANCH   2   3
ATOM      3  C   UNL     1      -2.701   0.655  -3.029  1.00  0.00     0.116 C 
BRANCH   3   4
ATOM      4  N   UNL     1      -2.904  -0.695  -2.528  1.00  0.00    -0.356 N 
ATOM      5  C   UNL     1      -3.907  -1.183  -1.745  1.00  0.00     0.223 C 
ATOM      6  O   UNL     1      -3.940  -2.393  -1.512  1.00  0.00    -0.275 OA
ATOM      7  H   UNL     1      -2.217  -1.349  -2.791  1.00  0.00     0.163 HD
BRANCH   5   8
ATOM      8  C   UNL     1      -4.975  -0.257  -1.218  1.00  0.00     0.141 C 
BRANCH   8   9
ATOM      9  C   UNL     1      -5.096  -0.304   0.299  1.00  0.00     0.240 C 
BRANCH   9  10
ATOM     10  O   UNL     1      -4.168   0.534   0.969  1.00  0.00    -0.486 OA
BRANCH  10  11
ATOM     11  C   UNL     1      -2.900   0.287   1.384  1.00  0.00     0.200 A 
ATOM     12  C   UNL     1      -2.776  -2.336   1.287  1.00  0.00     0.049 C 
ATOM     13  C   UNL     1      -2.232  -0.949   1.488  1.00  0.00    -0.001 A 
ATOM     14  C   UNL     1      -0.856  -0.959   1.842  1.00  0.00     0.023 A 
ATOM     15  C   UNL     1      -0.162   0.200   2.159  1.00  0.00     0.025 A 
ATOM     16  C   UNL     1      -2.170   1.460   1.754  1.00  0.00     0.312 A 
ATOM     17  Br  UNL     1       1.676   0.116   2.579  1.00  0.00    -0.051 Br
ATOM     18  C   UNL     1      -0.818   1.413   2.148  1.00  0.00     0.105 A 
BRANCH  16  19
ATOM     19  N   UNL     1      -2.765   2.815   1.670  1.00  0.00     0.066 N 
ATOM     20  O   UNL     1      -1.974   3.768   1.571  1.00  0.00    -0.258 OA
ATOM     21  O   UNL     1      -3.994   2.947   1.712  1.00  0.00    -0.258 OA
ENDBRANCH  16  19
ENDBRANCH  10  11
ENDBRANCH   9  10
ENDBRANCH   8   9
ENDBRANCH   5   8
ENDBRANCH   3   4
ENDBRANCH   2   3
ENDBRANCH   1   2
BRANCH   1  22
ATOM     22  C   UNL     1       0.453   2.040  -2.501  1.00  0.00     0.002 C 
BRANCH  22  23
ATOM     23  C   UNL     1       0.442   3.550  -2.226  1.00  0.00     0.021 C 
BRANCH  23  24
ATOM     24  C   UNL     1       0.711   3.959  -0.778  1.00  0.00     0.116 C 
BRANCH  24  25
ATOM     25  N   UNL     1       2.106   3.801  -0.401  1.00  0.00    -0.352 N 
ATOM     26  C   UNL     1       3.042   4.760  -0.076  1.00  0.00     0.251 C 
ATOM     27  H   UNL     1       2.431   2.872  -0.373  1.00  0.00     0.163 HD
ATOM     28  O   UNL     1       4.217   4.445   0.054  1.00  0.00    -0.269 OA
BRANCH  26  29
ATOM     29  C   UNL     1       2.635   6.178   0.080  1.00  0.00     0.039 A 
ATOM     30  C   UNL     1       3.375   7.164  -0.580  1.00  0.00     0.014 A 
ATOM     31  C   UNL     1       1.543   6.539   0.873  1.00  0.00     0.014 A 
ATOM     32  C   UNL     1       2.970   8.501  -0.511  1.00  0.00     0.010 A 
ATOM     33  C   UNL     1       1.107   7.866   0.894  1.00  0.00     0.010 A 
ATOM     34  C   UNL     1       1.808   8.859   0.193  1.00  0.00    -0.014 A 
BRANCH  34  35
ATOM     35  C   UNL     1       1.296  10.256   0.165  1.00  0.00     0.031 A 
ATOM     36  C   UNL     1       1.262  11.090   1.417  1.00  0.00     0.074 A 
ATOM     37  C   UNL     1       0.804  10.760  -0.985  1.00  0.00     0.049 A 
ATOM     38  N   UNL     1       0.825  12.313   1.581  1.00  0.00    -0.248 NA
ATOM     39  C   UNL     1       1.770  10.464   2.647  1.00  0.00     0.031 C 
ATOM     40  C   UNL     1       0.740  10.046  -2.263  1.00  0.00     0.029 A 
ATOM     41  N   UNL     1       0.258  11.989  -1.266  1.00  0.00    -0.354 N 
ATOM     42  C   UNL     1       0.993  12.600   2.930  1.00  0.00     0.074 A 
ATOM     43  C   UNL     1       1.535  11.408   3.548  1.00  0.00     0.031 C 
ATOM     44  C   UNL     1       0.207  10.854  -3.193  1.00  0.00     0.029 A 
ATOM     45  C   UNL     1      -0.143  12.130  -2.574  1.00  0.00     0.049 A 
ATOM     46  H   UNL     1       0.162  12.701  -0.594  1.00  0.00     0.167 HD
ATOM     47  C   UNL     1       0.734  13.754   3.594  1.00  0.00     0.031 A 
ATOM     48  C   UNL     1      -0.730  13.163  -3.209  1.00  0.00     0.031 A 
ATOM     49  C   UNL     1       0.193  14.939   2.982  1.00  0.00     0.049 A 
ATOM     50  C   UNL     1      -1.020  14.429  -2.450  1.00  0.00     0.074 A 
ATOM     51  C   UNL     1      -0.055  16.171   3.564  1.00  0.00     0.029 A 
ATOM     52  N   UNL     1      -0.192  15.042   1.654  1.00  0.00    -0.354 N 
ATOM     53  N   UNL     1      -0.787  14.703  -1.188  1.00  0.00    -0.248 NA
ATOM     54  C   UNL     1      -1.639  15.529  -3.203  1.00  0.00     0.031 C 
ATOM     55  C   UNL     1      -0.635  17.003   2.600  1.00  0.00     0.029 A 
ATOM     56  C   UNL     1      -0.696  16.308   1.403  1.00  0.00     0.049 A 
ATOM     57  H   UNL     1      -0.118  14.322   0.987  1.00  0.00     0.167 HD
ATOM     58  C   UNL     1      -1.207  16.016  -1.004  1.00  0.00     0.074 A 
ATOM     59  C   UNL     1      -1.696  16.484  -2.284  1.00  0.00     0.031 C 
ATOM     60  C   UNL     1      -1.183  16.766   0.126  1.00  0.00     0.031 A 
BRANCH  47  61
ATOM     61  C   UNL     1       1.027  13.784   5.072  1.00  0.00    -0.014 A 
ATOM     62  C   UNL     1       2.350  13.782   5.549  1.00  0.00     0.010 A 
ATOM     63  C   UNL     1      -0.033  13.852   5.995  1.00  0.00     0.010 A 
ATOM     64  C   UNL     1       2.607  13.799   6.923  1.00  0.00     0.020 A 
ATOM     65  C   UNL     1       0.221  13.896   7.369  1.00  0.00     0.020 A 
ATOM     66  C   UNL     1       1.540  13.850   7.824  1.00  0.00     0.054 A 
BRANCH  66  67
ATOM     67  S   UNL     1       1.903  13.879   9.601  1.00  0.00     0.124 S 
ATOM     68  O   UNL     1       2.305  12.497   9.849  1.00  0.00    -0.237 OA
ATOM     69  O   UNL     1       2.972  14.870   9.695  1.00  0.00    -0.237 OA
ATOM     70  O   UNL     1       0.635  14.277  10.208  1.00  0.00    -0.744 OA
ENDBRANCH  66  67
ENDBRANCH  47  61
BRANCH  48  71
ATOM     71  C   UNL     1      -1.067  13.048  -4.654  1.00  0.00    -0.014 A 
ATOM     72  C   UNL     1      -0.330  13.759  -5.617  1.00  0.00     0.010 A 
ATOM     73  C   UNL     1      -2.115  12.209  -5.076  1.00  0.00     0.010 A 
ATOM     74  C   UNL     1      -0.642  13.643  -6.975  1.00  0.00     0.020 A 
ATOM     75  C   UNL     1      -2.413  12.071  -6.434  1.00  0.00     0.020 A 
ATOM     76  C   UNL     1      -1.680  12.797  -7.375  1.00  0.00     0.054 A 
BRANCH  76  77
ATOM     77  S   UNL     1      -2.027  12.613  -9.147  1.00  0.00     0.124 S 
ATOM     78  O   UNL     1      -2.699  13.870  -9.458  1.00  0.00    -0.237 OA
ATOM     79  O   UNL     1      -0.691  12.451  -9.716  1.00  0.00    -0.237 OA
ATOM     80  O   UNL     1      -2.869  11.419  -9.208  1.00  0.00    -0.744 OA
ENDBRANCH  76  77
ENDBRANCH  48  71
BRANCH  60  81
ATOM     81  C   UNL     1      -1.668  18.188   0.027  1.00  0.00    -0.014 A 
ATOM     82  C   UNL     1      -3.036  18.486  -0.102  1.00  0.00     0.010 A 
ATOM     83  C   UNL     1      -0.743  19.244   0.123  1.00  0.00     0.010 A 
ATOM     84  C   UNL     1      -3.467  19.815  -0.160  1.00  0.00     0.020 A 
ATOM     85  C   UNL     1      -1.172  20.573   0.091  1.00  0.00     0.020 A 
ATOM     86  C   UNL     1      -2.532  20.851  -0.063  1.00  0.00     0.054 A 
BRANCH  86  87
ATOM     87  S   UNL     1      -3.120  22.567  -0.091  1.00  0.00     0.124 S 
ATOM     88  O   UNL     1      -3.444  22.754  -1.503  1.00  0.00    -0.237 OA
ATOM     89  O   UNL     1      -4.265  22.529   0.816  1.00  0.00    -0.237 OA
ATOM     90  O   UNL     1      -1.975  23.334   0.393  1.00  0.00    -0.744 OA
ENDBRANCH  86  87
ENDBRANCH  60  81
ENDBRANCH  34  35
ENDBRANCH  26  29
ENDBRANCH  24  25
ENDBRANCH  23  24
ENDBRANCH  22  23
ENDBRANCH   1  22
TORSDOF 20
