REMARK SMILES CS(=O)(=O)c1ccc(/C=C(/C(=O)NCCCCCCNC(=O)c2ccc(-c3c4nc(c(-c5ccc(S(=O)(=O)[O-])cc5)c5ccc([nH]5)c(-c5ccc(S(=O)(=O)[O-])cc5)c5nc(c(-c6ccc(S(=O)(=O)[O-])cc6)c6ccc3[nH]6)C=C5)C=C4)cc2)c2ccc(-c3ccc(F)cc3F)cc2)cc1
REMARK SMILES IDX 17 1 16 2 15 3 14 4 13 5 11 6 12 7 10 9 9 10 8 11 5 12 6 13
REMARK SMILES IDX 98 14 7 15 97 16 2 17 1 18 3 19 4 20 83 21 84 22 96 23 85 24
REMARK SMILES IDX 95 25 86 26 87 27 88 28 93 29 89 30 92 31 94 32 90 33 91 34
REMARK SMILES IDX 18 35 19 36 20 37 21 38 22 40 23 41 24 42 82 43 25 44 81 45
REMARK SMILES IDX 26 46 27 47 28 48 75 49 29 50 80 51 74 52 76 53 30 54 79 55
REMARK SMILES IDX 73 56 72 57 31 59 61 60 42 61 60 62 43 63 46 64 59 65 77 66
REMARK SMILES IDX 44 67 45 68 58 70 78 71 47 72 32 73 33 74 41 75 34 76 40 77
REMARK SMILES IDX 35 78 36 79 37 80 38 81 39 82 62 83 63 84 71 85 64 86 70 87
REMARK SMILES IDX 65 88 66 89 67 90 68 91 69 92 48 93 49 94 57 95 50 96 56 97
REMARK SMILES IDX 51 98 52 99 53 100 54 101 55 102
REMARK H PARENT 13 8 20 39 76 58 46 69
REMARK Flexibility Score: inf
ROOT
ATOM      1  C   UNL     1       2.978   7.749   9.614  1.00  0.00     0.002 C 
ENDROOT
BRANCH   1   2
ATOM      2  C   UNL     1       1.842   6.725   9.497  1.00  0.00     0.002 C 
BRANCH   2   3
ATOM      3  C   UNL     1       1.669   6.096   8.104  1.00  0.00     0.021 C 
BRANCH   3   4
ATOM      4  C   UNL     1       2.881   5.280   7.646  1.00  0.00     0.116 C 
BRANCH   4   5
ATOM      5  N   UNL     1       2.965   4.057   8.420  1.00  0.00    -0.352 N 
ATOM      6  C   UNL     1       2.636   2.762   8.186  1.00  0.00     0.251 C 
ATOM      7  O   UNL     1       2.757   1.995   9.147  1.00  0.00    -0.269 OA
ATOM      8  H   UNL     1       3.347   4.198   9.316  1.00  0.00     0.163 HD
BRANCH   6   9
ATOM      9  C   UNL     1       2.229   2.226   6.832  1.00  0.00     0.047 C 
ATOM     10  C   UNL     1       1.508   2.946   5.942  1.00  0.00     0.022 C 
BRANCH  10  11
ATOM     11  C   UNL     1       1.129   2.602   4.553  1.00  0.00    -0.025 A 
ATOM     12  C   UNL     1       0.573   2.050   1.854  1.00  0.00     0.067 A 
ATOM     13  C   UNL     1       0.271   1.103   2.834  1.00  0.00     0.021 A 
ATOM     14  C   UNL     1       1.104   3.289   2.210  1.00  0.00     0.021 A 
ATOM     15  C   UNL     1       0.535   1.389   4.179  1.00  0.00     0.009 A 
ATOM     16  C   UNL     1       1.378   3.559   3.555  1.00  0.00     0.009 A 
BRANCH  12  17
ATOM     17  S   UNL     1       0.264   1.678   0.144  1.00  0.00     0.175 S 
ATOM     18  C   UNL     1       1.162   0.179  -0.160  1.00  0.00     0.163 C 
ATOM     19  O   UNL     1       0.885   2.714  -0.654  1.00  0.00    -0.224 OA
ATOM     20  O   UNL     1      -1.154   1.384   0.028  1.00  0.00    -0.224 OA
ENDBRANCH  12  17
ENDBRANCH  10  11
BRANCH   9  21
ATOM     21  C   UNL     1       2.482   0.783   6.589  1.00  0.00    -0.013 A 
ATOM     22  C   UNL     1       1.754  -0.148   7.340  1.00  0.00     0.009 A 
ATOM     23  C   UNL     1       3.337   0.317   5.587  1.00  0.00     0.009 A 
ATOM     24  C   UNL     1       1.826  -1.510   7.054  1.00  0.00     0.009 A 
ATOM     25  C   UNL     1       3.393  -1.054   5.290  1.00  0.00     0.009 A 
ATOM     26  C   UNL     1       2.612  -1.988   5.995  1.00  0.00    -0.015 A 
BRANCH  26  27
ATOM     27  C   UNL     1       2.556  -3.414   5.617  1.00  0.00     0.018 A 
ATOM     28  C   UNL     1       1.313  -4.080   5.555  1.00  0.00     0.015 A 
ATOM     29  C   UNL     1       3.702  -4.163   5.302  1.00  0.00     0.133 A 
ATOM     30  C   UNL     1       1.227  -5.430   5.209  1.00  0.00     0.040 A 
ATOM     31  C   UNL     1       3.626  -5.510   4.952  1.00  0.00     0.079 A 
ATOM     32  F   UNL     1       4.917  -3.595   5.341  1.00  0.00    -0.206 F 
ATOM     33  C   UNL     1       2.387  -6.132   4.912  1.00  0.00     0.126 A 
ATOM     34  F   UNL     1       2.305  -7.426   4.581  1.00  0.00    -0.207 F 
ENDBRANCH  26  27
ENDBRANCH   9  21
ENDBRANCH   6   9
ENDBRANCH   4   5
ENDBRANCH   3   4
ENDBRANCH   2   3
ENDBRANCH   1   2
BRANCH   1  35
ATOM     35  C   UNL     1       2.929   8.889   8.595  1.00  0.00     0.021 C 
BRANCH  35  36
ATOM     36  C   UNL     1       1.662   9.739   8.657  1.00  0.00     0.116 C 
BRANCH  36  37
ATOM     37  N   UNL     1       1.588  10.513   9.887  1.00  0.00    -0.352 N 
ATOM     38  C   UNL     1       1.475  11.874  10.041  1.00  0.00     0.251 C 
ATOM     39  H   UNL     1       1.624   9.992  10.721  1.00  0.00     0.163 HD
ATOM     40  O   UNL     1       1.631  12.389  11.143  1.00  0.00    -0.269 OA
BRANCH  38  41
ATOM     41  C   UNL     1       1.185  12.714   8.860  1.00  0.00     0.039 A 
ATOM     42  C   UNL     1       1.989  13.826   8.600  1.00  0.00     0.014 A 
ATOM     43  C   UNL     1       0.131  12.386   8.002  1.00  0.00     0.014 A 
ATOM     44  C   UNL     1       1.783  14.569   7.435  1.00  0.00     0.010 A 
ATOM     45  C   UNL     1      -0.038  13.095   6.816  1.00  0.00     0.010 A 
ATOM     46  C   UNL     1       0.792  14.186   6.517  1.00  0.00    -0.014 A 
BRANCH  46  47
ATOM     47  C   UNL     1       0.619  14.890   5.222  1.00  0.00     0.031 A 
ATOM     48  C   UNL     1      -0.644  15.654   4.941  1.00  0.00     0.074 A 
ATOM     49  C   UNL     1       1.561  14.765   4.266  1.00  0.00     0.049 A 
ATOM     50  N   UNL     1      -1.026  16.234   3.832  1.00  0.00    -0.248 NA
ATOM     51  C   UNL     1      -1.613  15.762   6.043  1.00  0.00     0.031 C 
ATOM     52  C   UNL     1       2.818  14.026   4.406  1.00  0.00     0.029 A 
ATOM     53  N   UNL     1       1.599  15.242   2.979  1.00  0.00    -0.354 N 
ATOM     54  C   UNL     1      -2.286  16.759   4.095  1.00  0.00     0.074 A 
ATOM     55  C   UNL     1      -2.618  16.398   5.457  1.00  0.00     0.031 C 
ATOM     56  C   UNL     1       3.507  14.109   3.256  1.00  0.00     0.029 A 
ATOM     57  C   UNL     1       2.725  14.868   2.285  1.00  0.00     0.049 A 
ATOM     58  H   UNL     1       0.886  15.799   2.590  1.00  0.00     0.167 HD
ATOM     59  C   UNL     1      -3.088  17.485   3.281  1.00  0.00     0.031 A 
ATOM     60  C   UNL     1       3.082  15.094   1.006  1.00  0.00     0.031 A 
ATOM     61  C   UNL     1      -2.752  17.851   1.931  1.00  0.00     0.049 A 
ATOM     62  C   UNL     1       2.163  15.878   0.112  1.00  0.00     0.074 A 
ATOM     63  C   UNL     1      -3.473  18.635   1.048  1.00  0.00     0.029 A 
ATOM     64  N   UNL     1      -1.602  17.452   1.267  1.00  0.00    -0.354 N 
ATOM     65  N   UNL     1       1.000  16.414   0.397  1.00  0.00    -0.248 NA
ATOM     66  C   UNL     1       2.601  16.086  -1.275  1.00  0.00     0.031 C 
ATOM     67  C   UNL     1      -2.779  18.674  -0.167  1.00  0.00     0.029 A 
ATOM     68  C   UNL     1      -1.605  17.951  -0.025  1.00  0.00     0.049 A 
ATOM     69  H   UNL     1      -0.888  16.897   1.656  1.00  0.00     0.167 HD
ATOM     70  C   UNL     1       0.575  17.036  -0.771  1.00  0.00     0.074 A 
ATOM     71  C   UNL     1       1.610  16.822  -1.762  1.00  0.00     0.031 C 
ATOM     72  C   UNL     1      -0.570  17.723  -1.001  1.00  0.00     0.031 A 
BRANCH  59  73
ATOM     73  C   UNL     1      -4.417  17.925   3.833  1.00  0.00    -0.014 A 
ATOM     74  C   UNL     1      -4.497  18.936   4.807  1.00  0.00     0.010 A 
ATOM     75  C   UNL     1      -5.603  17.341   3.351  1.00  0.00     0.010 A 
ATOM     76  C   UNL     1      -5.736  19.324   5.323  1.00  0.00     0.020 A 
ATOM     77  C   UNL     1      -6.846  17.744   3.847  1.00  0.00     0.020 A 
ATOM     78  C   UNL     1      -6.903  18.720   4.845  1.00  0.00     0.054 A 
BRANCH  78  79
ATOM     79  S   UNL     1      -8.500  19.247   5.525  1.00  0.00     0.124 S 
ATOM     80  O   UNL     1      -8.499  18.592   6.831  1.00  0.00    -0.237 OA
ATOM     81  O   UNL     1      -8.374  20.702   5.553  1.00  0.00    -0.237 OA
ATOM     82  O   UNL     1      -9.473  18.727   4.568  1.00  0.00    -0.744 OA
ENDBRANCH  78  79
ENDBRANCH  59  73
BRANCH  60  83
ATOM     83  C   UNL     1       4.375  14.565   0.496  1.00  0.00    -0.014 A 
ATOM     84  C   UNL     1       5.455  15.434   0.262  1.00  0.00     0.010 A 
ATOM     85  C   UNL     1       4.540  13.187   0.265  1.00  0.00     0.010 A 
ATOM     86  C   UNL     1       6.676  14.935  -0.199  1.00  0.00     0.020 A 
ATOM     87  C   UNL     1       5.767  12.683  -0.175  1.00  0.00     0.020 A 
ATOM     88  C   UNL     1       6.826  13.562  -0.412  1.00  0.00     0.054 A 
BRANCH  88  89
ATOM     89  S   UNL     1       8.440  12.927  -0.945  1.00  0.00     0.124 S 
ATOM     90  O   UNL     1       8.451  13.276  -2.362  1.00  0.00    -0.237 OA
ATOM     91  O   UNL     1       9.369  13.674  -0.101  1.00  0.00    -0.237 OA
ATOM     92  O   UNL     1       8.356  11.498  -0.651  1.00  0.00    -0.744 OA
ENDBRANCH  88  89
ENDBRANCH  60  83
BRANCH  72  93
ATOM     93  C   UNL     1      -0.765  18.307  -2.372  1.00  0.00    -0.014 A 
ATOM     94  C   UNL     1      -1.129  17.491  -3.458  1.00  0.00     0.010 A 
ATOM     95  C   UNL     1      -0.655  19.696  -2.561  1.00  0.00     0.010 A 
ATOM     96  C   UNL     1      -1.367  18.056  -4.714  1.00  0.00     0.020 A 
ATOM     97  C   UNL     1      -0.913  20.266  -3.810  1.00  0.00     0.020 A 
ATOM     98  C   UNL     1      -1.260  19.440  -4.881  1.00  0.00     0.054 A 
BRANCH  98  99
ATOM     99  S   UNL     1      -1.642  20.157  -6.504  1.00  0.00     0.124 S 
ATOM    100  O   UNL     1      -0.448  19.818  -7.274  1.00  0.00    -0.237 OA
ATOM    101  O   UNL     1      -2.861  19.450  -6.890  1.00  0.00    -0.237 OA
ATOM    102  O   UNL     1      -1.818  21.579  -6.220  1.00  0.00    -0.744 OA
ENDBRANCH  98  99
ENDBRANCH  72  93
ENDBRANCH  46  47
ENDBRANCH  38  41
ENDBRANCH  36  37
ENDBRANCH  35  36
ENDBRANCH   1  35
TORSDOF 20
