REMARK SMILES Cc1n[nH]c(CCC(=O)NCCCCCCNC(=O)c2ccc(-c3c4nc(c(-c5ccc(S(=O)(=O)[O-])cc5)c5ccc([nH]5)c(-c5ccc(S(=O)(=O)[O-])cc5)c5nc(c(-c6ccc(S(=O)(=O)[O-])cc6)c6ccc3[nH]6)C=C5)C=C4)cc2)c1C
REMARK SMILES IDX 14 1 13 2 12 3 11 4 10 5 8 6 9 7 7 9 6 10 5 11 1 12 2 13
REMARK SMILES IDX 3 14 80 15 4 16 81 17 15 19 16 20 17 21 18 22 19 24 20 25
REMARK SMILES IDX 21 26 79 27 22 28 78 29 23 30 24 31 25 32 72 33 26 34 77 35
REMARK SMILES IDX 71 36 73 37 27 38 76 39 70 40 69 41 28 43 58 44 39 45 57 46
REMARK SMILES IDX 40 47 43 48 56 49 74 50 41 51 42 52 55 54 75 55 44 56 29 57
REMARK SMILES IDX 30 58 38 59 31 60 37 61 32 62 33 63 34 64 35 65 36 66 59 67
REMARK SMILES IDX 60 68 68 69 61 70 67 71 62 72 63 73 64 74 65 75 66 76 45 77
REMARK SMILES IDX 46 78 54 79 47 80 53 81 48 82 49 83 50 84 51 85 52 86
REMARK H PARENT 10 8 4 18 17 23 73 42 43 53
REMARK Flexibility Score: inf
ROOT
ATOM      1  C   UNL     1      -1.548   1.672   1.331  1.00  0.00     0.002 C 
ENDROOT
BRANCH   1   2
ATOM      2  C   UNL     1      -1.171   1.362  -0.122  1.00  0.00     0.002 C 
BRANCH   2   3
ATOM      3  C   UNL     1      -1.000  -0.114  -0.474  1.00  0.00     0.021 C 
BRANCH   3   4
ATOM      4  C   UNL     1      -2.273  -0.950  -0.580  1.00  0.00     0.116 C 
BRANCH   4   5
ATOM      5  N   UNL     1      -2.946  -0.724  -1.851  1.00  0.00    -0.356 N 
ATOM      6  C   UNL     1      -3.085  -1.540  -2.935  1.00  0.00     0.220 C 
ATOM      7  O   UNL     1      -3.588  -1.063  -3.955  1.00  0.00    -0.275 OA
ATOM      8  H   UNL     1      -3.369   0.160  -1.942  1.00  0.00     0.163 HD
BRANCH   6   9
ATOM      9  C   UNL     1      -2.691  -3.005  -2.878  1.00  0.00     0.106 C 
BRANCH   9  10
ATOM     10  C   UNL     1      -1.393  -3.326  -3.623  1.00  0.00     0.066 C 
BRANCH  10  11
ATOM     11  C   UNL     1      -0.180  -2.932  -2.853  1.00  0.00     0.039 A 
ATOM     12  C   UNL     1       2.452  -0.967  -1.226  1.00  0.00     0.069 C 
ATOM     13  C   UNL     1       1.496  -1.950  -1.790  1.00  0.00     0.062 A 
ATOM     14  N   UNL     1       1.296  -3.107  -1.149  1.00  0.00    -0.181 NA
ATOM     15  C   UNL     1       0.621  -1.806  -2.907  1.00  0.00    -0.007 A 
ATOM     16  N   UNL     1       0.373  -3.732  -1.891  1.00  0.00    -0.282 N 
ATOM     17  C   UNL     1       0.501  -0.659  -3.845  1.00  0.00     0.048 C 
ATOM     18  H   UNL     1       0.118  -4.673  -1.758  1.00  0.00     0.190 HD
ENDBRANCH  10  11
ENDBRANCH   9  10
ENDBRANCH   6   9
ENDBRANCH   4   5
ENDBRANCH   3   4
ENDBRANCH   2   3
ENDBRANCH   1   2
BRANCH   1  19
ATOM     19  C   UNL     1      -0.695   1.015   2.425  1.00  0.00     0.021 C 
BRANCH  19  20
ATOM     20  C   UNL     1       0.782   1.343   2.328  1.00  0.00     0.116 C 
BRANCH  20  21
ATOM     21  N   UNL     1       1.111   2.722   2.688  1.00  0.00    -0.352 N 
ATOM     22  C   UNL     1       2.344   3.263   3.032  1.00  0.00     0.251 C 
ATOM     23  H   UNL     1       0.356   3.353   2.686  1.00  0.00     0.163 HD
ATOM     24  O   UNL     1       2.409   4.355   3.571  1.00  0.00    -0.269 OA
BRANCH  22  25
ATOM     25  C   UNL     1       3.578   2.504   2.718  1.00  0.00     0.039 A 
ATOM     26  C   UNL     1       4.772   2.664   3.431  1.00  0.00     0.014 A 
ATOM     27  C   UNL     1       3.540   1.641   1.632  1.00  0.00     0.014 A 
ATOM     28  C   UNL     1       5.907   1.975   2.998  1.00  0.00     0.010 A 
ATOM     29  C   UNL     1       4.543   0.754   1.408  1.00  0.00     0.010 A 
ATOM     30  C   UNL     1       5.771   1.053   1.956  1.00  0.00    -0.014 A 
BRANCH  30  31
ATOM     31  C   UNL     1       6.875   0.377   1.307  1.00  0.00     0.031 A 
ATOM     32  C   UNL     1       7.460  -0.730   2.088  1.00  0.00     0.074 A 
ATOM     33  C   UNL     1       7.098   0.543  -0.018  1.00  0.00     0.049 A 
ATOM     34  N   UNL     1       8.636  -0.764   2.612  1.00  0.00    -0.248 NA
ATOM     35  C   UNL     1       6.598  -1.860   2.474  1.00  0.00     0.031 C 
ATOM     36  C   UNL     1       6.340   1.338  -0.998  1.00  0.00     0.029 A 
ATOM     37  N   UNL     1       7.994  -0.101  -0.803  1.00  0.00    -0.354 N 
ATOM     38  C   UNL     1       8.742  -1.997   3.242  1.00  0.00     0.074 A 
ATOM     39  C   UNL     1       7.406  -2.535   3.295  1.00  0.00     0.031 C 
ATOM     40  C   UNL     1       6.662   0.938  -2.251  1.00  0.00     0.029 A 
ATOM     41  C   UNL     1       7.743  -0.028  -2.168  1.00  0.00     0.049 A 
ATOM     42  H   UNL     1       8.768  -0.585  -0.434  1.00  0.00     0.167 HD
ATOM     43  C   UNL     1       9.953  -2.570   3.482  1.00  0.00     0.031 A 
ATOM     44  C   UNL     1       8.347  -0.766  -3.137  1.00  0.00     0.031 A 
ATOM     45  C   UNL     1      11.029  -1.659   3.175  1.00  0.00     0.049 A 
ATOM     46  C   UNL     1       9.621  -1.269  -2.549  1.00  0.00     0.074 A 
ATOM     47  C   UNL     1      11.431  -0.441   3.685  1.00  0.00     0.029 A 
ATOM     48  N   UNL     1      11.582  -1.751   1.915  1.00  0.00    -0.354 N 
ATOM     49  N   UNL     1      10.593  -0.475  -2.186  1.00  0.00    -0.248 NA
ATOM     50  C   UNL     1       9.604  -2.565  -1.883  1.00  0.00     0.031 C 
ATOM     51  C   UNL     1      11.783   0.332   2.540  1.00  0.00     0.029 A 
ATOM     52  C   UNL     1      11.667  -0.478   1.406  1.00  0.00     0.049 A 
ATOM     53  H   UNL     1      11.864  -2.579   1.463  1.00  0.00     0.167 HD
ATOM     54  C   UNL     1      11.026  -0.970  -0.961  1.00  0.00     0.074 A 
ATOM     55  C   UNL     1      10.446  -2.312  -0.872  1.00  0.00     0.031 C 
ATOM     56  C   UNL     1      11.553  -0.147  -0.003  1.00  0.00     0.031 A 
BRANCH  43  57
ATOM     57  C   UNL     1      10.192  -4.043   3.659  1.00  0.00    -0.014 A 
ATOM     58  C   UNL     1      11.486  -4.474   4.015  1.00  0.00     0.010 A 
ATOM     59  C   UNL     1       9.273  -5.032   3.258  1.00  0.00     0.010 A 
ATOM     60  C   UNL     1      11.861  -5.818   3.903  1.00  0.00     0.020 A 
ATOM     61  C   UNL     1       9.624  -6.382   3.184  1.00  0.00     0.020 A 
ATOM     62  C   UNL     1      10.928  -6.760   3.470  1.00  0.00     0.054 A 
BRANCH  62  63
ATOM     63  S   UNL     1      11.460  -8.469   3.208  1.00  0.00     0.124 S 
ATOM     64  O   UNL     1      12.406  -8.325   2.106  1.00  0.00    -0.237 OA
ATOM     65  O   UNL     1      12.041  -8.815   4.502  1.00  0.00    -0.237 OA
ATOM     66  O   UNL     1      10.219  -9.168   2.880  1.00  0.00    -0.744 OA
ENDBRANCH  62  63
ENDBRANCH  43  57
BRANCH  44  67
ATOM     67  C   UNL     1       7.710  -1.345  -4.354  1.00  0.00    -0.014 A 
ATOM     68  C   UNL     1       8.466  -1.937  -5.385  1.00  0.00     0.010 A 
ATOM     69  C   UNL     1       6.314  -1.556  -4.379  1.00  0.00     0.010 A 
ATOM     70  C   UNL     1       7.857  -2.758  -6.357  1.00  0.00     0.020 A 
ATOM     71  C   UNL     1       5.700  -2.365  -5.343  1.00  0.00     0.020 A 
ATOM     72  C   UNL     1       6.478  -2.986  -6.315  1.00  0.00     0.054 A 
BRANCH  72  73
ATOM     73  S   UNL     1       5.722  -4.198  -7.442  1.00  0.00     0.124 S 
ATOM     74  O   UNL     1       5.797  -3.518  -8.731  1.00  0.00    -0.237 OA
ATOM     75  O   UNL     1       6.592  -5.361  -7.289  1.00  0.00    -0.237 OA
ATOM     76  O   UNL     1       4.370  -4.369  -6.910  1.00  0.00    -0.744 OA
ENDBRANCH  72  73
ENDBRANCH  44  67
BRANCH  56  77
ATOM     77  C   UNL     1      11.824   1.302  -0.367  1.00  0.00    -0.014 A 
ATOM     78  C   UNL     1      10.818   2.209  -0.761  1.00  0.00     0.010 A 
ATOM     79  C   UNL     1      13.110   1.809  -0.121  1.00  0.00     0.010 A 
ATOM     80  C   UNL     1      11.098   3.574  -0.933  1.00  0.00     0.020 A 
ATOM     81  C   UNL     1      13.393   3.170  -0.271  1.00  0.00     0.020 A 
ATOM     82  C   UNL     1      12.390   4.045  -0.688  1.00  0.00     0.054 A 
BRANCH  82  83
ATOM     83  S   UNL     1      12.747   5.815  -0.878  1.00  0.00     0.124 S 
ATOM     84  O   UNL     1      12.662   6.001  -2.324  1.00  0.00    -0.237 OA
ATOM     85  O   UNL     1      11.686   6.449  -0.099  1.00  0.00    -0.237 OA
ATOM     86  O   UNL     1      14.089   5.962  -0.315  1.00  0.00    -0.744 OA
ENDBRANCH  82  83
ENDBRANCH  56  77
ENDBRANCH  30  31
ENDBRANCH  22  25
ENDBRANCH  20  21
ENDBRANCH  19  20
ENDBRANCH   1  19
TORSDOF 18
