REMARK SMILES C[C@]1(C(=O)NCCCCCCNC(=O)c2ccc(-c3c4nc(c(-c5ccc(S(=O)(=O)[O-])cc5)c5ccc([nH]5)c(-c5ccc(S(=O)(=O)[O-])cc5)c5nc(c(-c6ccc(S(=O)(=O)[O-])cc6)c6ccc3[nH]6)C=C5)C=C4)cc2)[NH2+]C2(C(=O)c3ccccc3C2=O)[C@@H]2C(=O)N(c3ccccc3)C(=O)[C@H]21
REMARK SMILES IDX 9 1 8 2 7 3 6 4 5 5 3 6 4 7 2 9 1 10 75 11 99 12 76 13 87 16
REMARK SMILES IDX 97 17 77 18 85 19 88 20 90 21 98 22 78 23 79 24 84 25 86 26
REMARK SMILES IDX 89 27 80 28 83 29 81 30 82 31 91 32 92 33 96 34 93 35 95 36
REMARK SMILES IDX 94 37 10 38 11 39 12 40 13 41 14 43 15 44 16 45 74 46 17 47
REMARK SMILES IDX 73 48 18 49 19 50 20 51 67 52 21 53 72 54 66 55 68 56 22 57
REMARK SMILES IDX 71 58 65 59 64 60 23 62 53 63 34 64 52 65 35 66 38 67 51 68
REMARK SMILES IDX 69 69 36 70 37 71 50 73 70 74 39 75 24 76 25 77 33 78 26 79
REMARK SMILES IDX 32 80 27 81 28 82 29 83 30 84 31 85 54 86 55 87 63 88 56 89
REMARK SMILES IDX 62 90 57 91 58 92 59 93 60 94 61 95 40 96 41 97 49 98 42 99
REMARK SMILES IDX 48 100 43 101 44 102 45 103 46 104 47 105
REMARK H PARENT 5 8 75 14 75 15 12 42 68 61 38 72
REMARK Flexibility Score: inf
ROOT
ATOM      1  C   UNL     1      -3.251  -3.760  -4.953  1.00  0.00     0.002 C 
ENDROOT
BRANCH   1   2
ATOM      2  C   UNL     1      -3.985  -2.971  -3.861  1.00  0.00     0.002 C 
BRANCH   2   3
ATOM      3  C   UNL     1      -3.338  -2.920  -2.480  1.00  0.00     0.021 C 
BRANCH   3   4
ATOM      4  C   UNL     1      -1.881  -2.484  -2.426  1.00  0.00     0.116 C 
BRANCH   4   5
ATOM      5  N   UNL     1      -1.596  -1.116  -2.111  1.00  0.00    -0.351 N 
ATOM      6  C   UNL     1      -0.615  -0.570  -1.335  1.00  0.00     0.281 C 
ATOM      7  O   UNL     1      -0.715   0.661  -1.210  1.00  0.00    -0.268 OA
ATOM      8  H   UNL     1      -2.209  -0.463  -2.520  1.00  0.00     0.163 HD
BRANCH   6   9
ATOM      9  C   UNL     1       0.582  -1.347  -0.612  1.00  0.00     0.186 C 
ATOM     10  C   UNL     1       1.399  -0.243   0.116  1.00  0.00     0.091 C 
ATOM     11  N   UNL     1       0.120  -2.355   0.428  1.00  0.00    -0.314 N 
ATOM     12  C   UNL     1       1.551  -2.170  -1.415  1.00  0.00     0.170 C 
ATOM     13  C   UNL     1       0.549  -3.759  -0.006  1.00  0.00     0.236 C 
ATOM     14  H   UNL     1      -0.896  -2.319   0.511  1.00  0.00     0.348 HD
ATOM     15  H   UNL     1       0.539  -2.132   1.331  1.00  0.00     0.348 HD
ATOM     16  C   UNL     1       0.979  -3.570  -1.429  1.00  0.00     0.177 C 
ATOM     17  C   UNL     1       1.897  -1.986  -2.845  1.00  0.00     0.244 C 
ATOM     18  C   UNL     1       1.592  -4.386   0.924  1.00  0.00     0.232 C 
ATOM     19  C   UNL     1      -0.658  -4.699   0.191  1.00  0.00     0.232 C 
ATOM     20  C   UNL     1       1.987  -4.237  -2.304  1.00  0.00     0.245 C 
ATOM     21  N   UNL     1       2.301  -3.258  -3.253  1.00  0.00    -0.250 N 
ATOM     22  O   UNL     1       1.847  -0.936  -3.457  1.00  0.00    -0.273 OA
ATOM     23  O   UNL     1       2.692  -3.933   1.184  1.00  0.00    -0.286 OA
ATOM     24  C   UNL     1       1.019  -5.606   1.524  1.00  0.00     0.036 A 
ATOM     25  C   UNL     1      -0.295  -5.755   1.113  1.00  0.00     0.036 A 
ATOM     26  O   UNL     1      -1.780  -4.650  -0.279  1.00  0.00    -0.286 OA
ATOM     27  O   UNL     1       2.272  -5.421  -2.254  1.00  0.00    -0.273 OA
ATOM     28  C   UNL     1       1.581  -6.524   2.391  1.00  0.00     0.013 A 
ATOM     29  C   UNL     1      -1.117  -6.780   1.552  1.00  0.00     0.013 A 
ATOM     30  C   UNL     1       0.775  -7.586   2.836  1.00  0.00     0.001 A 
ATOM     31  C   UNL     1      -0.566  -7.708   2.427  1.00  0.00     0.001 A 
BRANCH  21  32
ATOM     32  C   UNL     1       2.705  -3.499  -4.578  1.00  0.00     0.052 A 
ATOM     33  C   UNL     1       3.730  -2.736  -5.149  1.00  0.00     0.027 A 
ATOM     34  C   UNL     1       1.968  -4.378  -5.380  1.00  0.00     0.027 A 
ATOM     35  C   UNL     1       4.024  -2.857  -6.508  1.00  0.00     0.002 A 
ATOM     36  C   UNL     1       2.230  -4.455  -6.750  1.00  0.00     0.002 A 
ATOM     37  C   UNL     1       3.260  -3.701  -7.311  1.00  0.00     0.000 A 
ENDBRANCH  21  32
ENDBRANCH   6   9
ENDBRANCH   4   5
ENDBRANCH   3   4
ENDBRANCH   2   3
ENDBRANCH   1   2
BRANCH   1  38
ATOM     38  C   UNL     1      -2.773  -5.177  -4.620  1.00  0.00     0.021 C 
BRANCH  38  39
ATOM     39  C   UNL     1      -3.809  -6.146  -4.056  1.00  0.00     0.116 C 
BRANCH  39  40
ATOM     40  N   UNL     1      -5.002  -6.269  -4.879  1.00  0.00    -0.352 N 
ATOM     41  C   UNL     1      -5.589  -7.372  -5.450  1.00  0.00     0.251 C 
ATOM     42  H   UNL     1      -5.467  -5.419  -5.056  1.00  0.00     0.163 HD
ATOM     43  O   UNL     1      -6.557  -7.226  -6.192  1.00  0.00    -0.269 OA
BRANCH  41  44
ATOM     44  C   UNL     1      -5.042  -8.728  -5.216  1.00  0.00     0.039 A 
ATOM     45  C   UNL     1      -4.662  -9.150  -3.942  1.00  0.00     0.014 A 
ATOM     46  C   UNL     1      -4.913  -9.599  -6.304  1.00  0.00     0.014 A 
ATOM     47  C   UNL     1      -3.997 -10.365  -3.785  1.00  0.00     0.010 A 
ATOM     48  C   UNL     1      -4.319 -10.854  -6.130  1.00  0.00     0.010 A 
ATOM     49  C   UNL     1      -3.807 -11.226  -4.878  1.00  0.00    -0.014 A 
BRANCH  49  50
ATOM     50  C   UNL     1      -3.064 -12.503  -4.694  1.00  0.00     0.031 A 
ATOM     51  C   UNL     1      -1.742 -12.729  -5.382  1.00  0.00     0.074 A 
ATOM     52  C   UNL     1      -3.556 -13.442  -3.860  1.00  0.00     0.049 A 
ATOM     53  N   UNL     1      -0.947 -13.766  -5.311  1.00  0.00    -0.248 NA
ATOM     54  C   UNL     1      -1.246 -11.658  -6.263  1.00  0.00     0.031 C 
ATOM     55  C   UNL     1      -4.816 -13.331  -3.122  1.00  0.00     0.029 A 
ATOM     56  N   UNL     1      -3.049 -14.657  -3.470  1.00  0.00    -0.354 N 
ATOM     57  C   UNL     1       0.132 -13.480  -6.140  1.00  0.00     0.074 A 
ATOM     58  C   UNL     1      -0.123 -12.187  -6.733  1.00  0.00     0.031 C 
ATOM     59  C   UNL     1      -4.955 -14.402  -2.328  1.00  0.00     0.029 A 
ATOM     60  C   UNL     1      -3.833 -15.311  -2.547  1.00  0.00     0.049 A 
ATOM     61  H   UNL     1      -2.204 -15.025  -3.817  1.00  0.00     0.167 HD
ATOM     62  C   UNL     1       1.240 -14.222  -6.372  1.00  0.00     0.031 A 
ATOM     63  C   UNL     1      -3.680 -16.509  -1.948  1.00  0.00     0.031 A 
ATOM     64  C   UNL     1       1.497 -15.502  -5.763  1.00  0.00     0.049 A 
ATOM     65  C   UNL     1      -2.464 -17.334  -2.259  1.00  0.00     0.074 A 
ATOM     66  C   UNL     1       2.607 -16.314  -5.920  1.00  0.00     0.029 A 
ATOM     67  N   UNL     1       0.647 -16.154  -4.883  1.00  0.00    -0.354 N 
ATOM     68  N   UNL     1      -1.448 -17.037  -3.034  1.00  0.00    -0.248 NA
ATOM     69  C   UNL     1      -2.368 -18.654  -1.619  1.00  0.00     0.031 C 
ATOM     70  C   UNL     1       2.399 -17.485  -5.190  1.00  0.00     0.029 A 
ATOM     71  C   UNL     1       1.194 -17.372  -4.515  1.00  0.00     0.049 A 
ATOM     72  H   UNL     1      -0.217 -15.803  -4.567  1.00  0.00     0.167 HD
ATOM     73  C   UNL     1      -0.589 -18.127  -2.968  1.00  0.00     0.074 A 
ATOM     74  C   UNL     1      -1.190 -19.081  -2.059  1.00  0.00     0.031 C 
ATOM     75  C   UNL     1       0.589 -18.318  -3.611  1.00  0.00     0.031 A 
BRANCH  62  76
ATOM     76  C   UNL     1       2.285 -13.685  -7.317  1.00  0.00    -0.014 A 
ATOM     77  C   UNL     1       2.527 -14.345  -8.537  1.00  0.00     0.010 A 
ATOM     78  C   UNL     1       3.125 -12.622  -6.938  1.00  0.00     0.010 A 
ATOM     79  C   UNL     1       3.611 -13.982  -9.340  1.00  0.00     0.020 A 
ATOM     80  C   UNL     1       4.194 -12.237  -7.753  1.00  0.00     0.020 A 
ATOM     81  C   UNL     1       4.447 -12.938  -8.935  1.00  0.00     0.054 A 
BRANCH  81  82
ATOM     82  S   UNL     1       5.877 -12.511  -9.967  1.00  0.00     0.124 S 
ATOM     83  O   UNL     1       6.797 -13.609  -9.688  1.00  0.00    -0.237 OA
ATOM     84  O   UNL     1       5.306 -12.491 -11.312  1.00  0.00    -0.237 OA
ATOM     85  O   UNL     1       6.288 -11.204  -9.457  1.00  0.00    -0.744 OA
ENDBRANCH  81  82
ENDBRANCH  62  76
BRANCH  63  86
ATOM     86  C   UNL     1      -4.714 -16.973  -0.981  1.00  0.00    -0.014 A 
ATOM     87  C   UNL     1      -6.020 -17.260  -1.422  1.00  0.00     0.010 A 
ATOM     88  C   UNL     1      -4.428 -17.041   0.393  1.00  0.00     0.010 A 
ATOM     89  C   UNL     1      -7.035 -17.540  -0.505  1.00  0.00     0.020 A 
ATOM     90  C   UNL     1      -5.435 -17.355   1.313  1.00  0.00     0.020 A 
ATOM     91  C   UNL     1      -6.739 -17.569   0.860  1.00  0.00     0.054 A 
BRANCH  91  92
ATOM     92  S   UNL     1      -8.084 -17.873   2.038  1.00  0.00     0.124 S 
ATOM     93  O   UNL     1      -8.762 -16.579   2.055  1.00  0.00    -0.237 OA
ATOM     94  O   UNL     1      -8.823 -18.962   1.405  1.00  0.00    -0.237 OA
ATOM     95  O   UNL     1      -7.385 -18.230   3.269  1.00  0.00    -0.744 OA
ENDBRANCH  91  92
ENDBRANCH  63  86
BRANCH  75  96
ATOM     96  C   UNL     1       1.330 -19.608  -3.375  1.00  0.00    -0.014 A 
ATOM     97  C   UNL     1       2.571 -19.589  -2.712  1.00  0.00     0.010 A 
ATOM     98  C   UNL     1       0.871 -20.813  -3.936  1.00  0.00     0.010 A 
ATOM     99  C   UNL     1       3.361 -20.740  -2.652  1.00  0.00     0.020 A 
ATOM    100  C   UNL     1       1.645 -21.974  -3.852  1.00  0.00     0.020 A 
ATOM    101  C   UNL     1       2.898 -21.922  -3.235  1.00  0.00     0.054 A 
BRANCH 101 102
ATOM    102  S   UNL     1       3.958 -23.393  -3.187  1.00  0.00     0.124 S 
ATOM    103  O   UNL     1       4.954 -23.087  -4.209  1.00  0.00    -0.237 OA
ATOM    104  O   UNL     1       4.446 -23.393  -1.810  1.00  0.00    -0.237 OA
ATOM    105  O   UNL     1       3.043 -24.485  -3.514  1.00  0.00    -0.744 OA
ENDBRANCH 101 102
ENDBRANCH  75  96
ENDBRANCH  49  50
ENDBRANCH  41  44
ENDBRANCH  39  40
ENDBRANCH  38  39
ENDBRANCH   1  38
TORSDOF 17
