REMARK SMILES O=C(CSCc1ccc(Cl)s1)Nc1ccsc1C(=O)NCCCCCCNC(=O)c1ccc(-c2c3nc(c(-c4ccc(S(=O)(=O)[O-])cc4)c4ccc([nH]4)c(-c4ccc(S(=O)(=O)[O-])cc4)c4nc(c(-c5ccc(S(=O)(=O)[O-])cc5)c5ccc2[nH]5)C=C4)C=C3)cc1
REMARK SMILES IDX 22 1 21 2 20 3 18 4 19 5 17 7 13 8 14 9 15 10 16 11 12 12
REMARK SMILES IDX 1 13 2 14 3 16 4 17 5 18 6 19 7 20 11 21 8 22 9 23 10 24
REMARK SMILES IDX 23 25 24 26 25 27 26 28 27 29 28 30 29 32 30 33 31 34 89 35
REMARK SMILES IDX 32 36 88 37 33 38 34 39 35 40 82 41 36 42 87 43 81 44 83 45
REMARK SMILES IDX 37 46 86 47 80 48 79 49 38 51 68 52 49 53 67 54 50 55 53 56
REMARK SMILES IDX 66 57 84 58 51 59 52 60 65 62 85 63 54 64 39 65 40 66 48 67
REMARK SMILES IDX 41 68 47 69 42 70 43 71 44 72 45 73 46 74 69 75 70 76 78 77
REMARK SMILES IDX 71 78 77 79 72 80 73 81 74 82 75 83 76 84 55 85 56 86 64 87
REMARK SMILES IDX 57 88 63 89 58 90 59 91 60 92 61 93 62 94
REMARK H PARENT 20 6 12 15 27 31 83 50 53 61
REMARK Flexibility Score: inf
ROOT
ATOM      1  C   UNL     1       4.889   0.833  -2.231  1.00  0.00     0.021 C 
ENDROOT
BRANCH   1   2
ATOM      2  C   UNL     1       5.224   1.931  -1.224  1.00  0.00     0.116 C 
BRANCH   2   3
ATOM      3  N   UNL     1       4.663   3.187  -1.635  1.00  0.00    -0.351 N 
ATOM      4  C   UNL     1       3.595   3.959  -1.282  1.00  0.00     0.263 C 
ATOM      5  O   UNL     1       3.633   5.050  -1.872  1.00  0.00    -0.268 OA
ATOM      6  H   UNL     1       5.186   3.599  -2.361  1.00  0.00     0.163 HD
BRANCH   4   7
ATOM      7  C   UNL     1       2.509   3.613  -0.355  1.00  0.00     0.115 A 
ATOM      8  C   UNL     1       1.904   2.477   0.195  1.00  0.00     0.065 A 
ATOM      9  C   UNL     1       0.675   2.815   0.880  1.00  0.00     0.038 A 
ATOM     10  C   UNL     1       0.385   4.152   0.891  1.00  0.00     0.068 A 
ATOM     11  S   UNL     1       1.584   5.041   0.106  1.00  0.00    -0.137 S 
BRANCH   8  12
ATOM     12  N   UNL     1       2.335   1.146   0.170  1.00  0.00    -0.324 N 
ATOM     13  O   UNL     1       0.265   0.157  -0.151  1.00  0.00    -0.274 OA
ATOM     14  C   UNL     1       1.450   0.075   0.172  1.00  0.00     0.234 C 
ATOM     15  H   UNL     1       3.301   0.962   0.150  1.00  0.00     0.170 HD
BRANCH  14  16
ATOM     16  C   UNL     1       2.036  -1.255   0.600  1.00  0.00     0.170 C 
BRANCH  16  17
ATOM     17  S   UNL     1       3.105  -2.045  -0.630  1.00  0.00    -0.146 SA
BRANCH  17  18
ATOM     18  C   UNL     1       2.191  -1.773  -2.189  1.00  0.00     0.116 C 
BRANCH  18  19
ATOM     19  C   UNL     1       1.342  -2.943  -2.552  1.00  0.00     0.016 A 
ATOM     20  C   UNL     1       1.738  -4.178  -3.039  1.00  0.00     0.018 A 
ATOM     21  S   UNL     1      -0.368  -2.832  -2.455  1.00  0.00    -0.128 S 
ATOM     22  C   UNL     1       0.631  -5.033  -3.318  1.00  0.00     0.033 A 
ATOM     23  C   UNL     1      -0.556  -4.405  -3.044  1.00  0.00     0.093 A 
ATOM     24  Cl  UNL     1      -2.132  -5.054  -3.250  1.00  0.00    -0.072 Cl
ENDBRANCH  18  19
ENDBRANCH  17  18
ENDBRANCH  16  17
ENDBRANCH  14  16
ENDBRANCH   8  12
ENDBRANCH   4   7
ENDBRANCH   2   3
ENDBRANCH   1   2
BRANCH   1  25
ATOM     25  C   UNL     1       6.075   0.348  -3.072  1.00  0.00     0.002 C 
BRANCH  25  26
ATOM     26  C   UNL     1       7.253  -0.233  -2.279  1.00  0.00     0.002 C 
BRANCH  26  27
ATOM     27  C   UNL     1       6.920  -1.393  -1.335  1.00  0.00     0.021 C 
BRANCH  27  28
ATOM     28  C   UNL     1       6.381  -2.654  -2.010  1.00  0.00     0.116 C 
BRANCH  28  29
ATOM     29  N   UNL     1       7.338  -3.236  -2.932  1.00  0.00    -0.352 N 
ATOM     30  C   UNL     1       7.848  -4.504  -3.004  1.00  0.00     0.251 C 
ATOM     31  H   UNL     1       7.675  -2.618  -3.619  1.00  0.00     0.163 HD
ATOM     32  O   UNL     1       8.792  -4.715  -3.771  1.00  0.00    -0.269 OA
BRANCH  30  33
ATOM     33  C   UNL     1       7.308  -5.619  -2.190  1.00  0.00     0.039 A 
ATOM     34  C   UNL     1       8.206  -6.583  -1.717  1.00  0.00     0.014 A 
ATOM     35  C   UNL     1       5.938  -5.788  -1.964  1.00  0.00     0.014 A 
ATOM     36  C   UNL     1       7.739  -7.698  -1.017  1.00  0.00     0.010 A 
ATOM     37  C   UNL     1       5.477  -6.872  -1.210  1.00  0.00     0.010 A 
ATOM     38  C   UNL     1       6.369  -7.853  -0.751  1.00  0.00    -0.014 A 
BRANCH  38  39
ATOM     39  C   UNL     1       5.873  -9.064  -0.044  1.00  0.00     0.031 A 
ATOM     40  C   UNL     1       5.016 -10.071  -0.769  1.00  0.00     0.074 A 
ATOM     41  C   UNL     1       6.193  -9.266   1.250  1.00  0.00     0.049 A 
ATOM     42  N   UNL     1       4.519 -11.200  -0.330  1.00  0.00    -0.248 NA
ATOM     43  C   UNL     1       4.657  -9.764  -2.163  1.00  0.00     0.031 C 
ATOM     44  C   UNL     1       6.987  -8.356   2.078  1.00  0.00     0.029 A 
ATOM     45  N   UNL     1       5.895 -10.308   2.094  1.00  0.00    -0.354 N 
ATOM     46  C   UNL     1       3.783 -11.729  -1.384  1.00  0.00     0.074 A 
ATOM     47  C   UNL     1       3.858 -10.776  -2.470  1.00  0.00     0.031 C 
ATOM     48  C   UNL     1       7.136  -8.892   3.301  1.00  0.00     0.029 A 
ATOM     49  C   UNL     1       6.428 -10.168   3.355  1.00  0.00     0.049 A 
ATOM     50  H   UNL     1       5.351 -11.082   1.823  1.00  0.00     0.167 HD
ATOM     51  C   UNL     1       3.121 -12.910  -1.454  1.00  0.00     0.031 A 
ATOM     52  C   UNL     1       6.361 -10.976   4.431  1.00  0.00     0.031 A 
ATOM     53  C   UNL     1       3.060 -13.869  -0.383  1.00  0.00     0.049 A 
ATOM     54  C   UNL     1       5.631 -12.288   4.323  1.00  0.00     0.074 A 
ATOM     55  C   UNL     1       2.455 -15.115  -0.377  1.00  0.00     0.029 A 
ATOM     56  N   UNL     1       3.626 -13.695   0.870  1.00  0.00    -0.354 N 
ATOM     57  N   UNL     1       4.994 -12.796   3.295  1.00  0.00    -0.248 NA
ATOM     58  C   UNL     1       5.633 -13.147   5.516  1.00  0.00     0.031 C 
ATOM     59  C   UNL     1       2.618 -15.675   0.895  1.00  0.00     0.029 A 
ATOM     60  C   UNL     1       3.374 -14.803   1.662  1.00  0.00     0.049 A 
ATOM     61  H   UNL     1       4.133 -12.900   1.156  1.00  0.00     0.167 HD
ATOM     62  C   UNL     1       4.551 -14.049   3.707  1.00  0.00     0.074 A 
ATOM     63  C   UNL     1       5.004 -14.226   5.070  1.00  0.00     0.031 C 
ATOM     64  C   UNL     1       3.835 -14.971   3.016  1.00  0.00     0.031 A 
BRANCH  51  65
ATOM     65  C   UNL     1       2.405 -13.236  -2.739  1.00  0.00    -0.014 A 
ATOM     66  C   UNL     1       3.121 -13.559  -3.907  1.00  0.00     0.010 A 
ATOM     67  C   UNL     1       0.999 -13.275  -2.766  1.00  0.00     0.010 A 
ATOM     68  C   UNL     1       2.443 -13.881  -5.086  1.00  0.00     0.020 A 
ATOM     69  C   UNL     1       0.318 -13.624  -3.936  1.00  0.00     0.020 A 
ATOM     70  C   UNL     1       1.046 -13.911  -5.093  1.00  0.00     0.054 A 
BRANCH  70  71
ATOM     71  S   UNL     1       0.193 -14.367  -6.628  1.00  0.00     0.124 S 
ATOM     72  O   UNL     1       0.387 -13.171  -7.445  1.00  0.00    -0.237 OA
ATOM     73  O   UNL     1       0.931 -15.550  -7.065  1.00  0.00    -0.237 OA
ATOM     74  O   UNL     1      -1.180 -14.615  -6.203  1.00  0.00    -0.744 OA
ENDBRANCH  70  71
ENDBRANCH  51  65
BRANCH  52  75
ATOM     75  C   UNL     1       7.021 -10.579   5.705  1.00  0.00    -0.014 A 
ATOM     76  C   UNL     1       8.160 -11.262   6.168  1.00  0.00     0.010 A 
ATOM     77  C   UNL     1       6.502  -9.520   6.471  1.00  0.00     0.010 A 
ATOM     78  C   UNL     1       8.748 -10.915   7.388  1.00  0.00     0.020 A 
ATOM     79  C   UNL     1       7.105  -9.150   7.677  1.00  0.00     0.020 A 
ATOM     80  C   UNL     1       8.215  -9.861   8.135  1.00  0.00     0.054 A 
BRANCH  80  81
ATOM     81  S   UNL     1       9.012  -9.404   9.700  1.00  0.00     0.124 S 
ATOM     82  O   UNL     1       8.576 -10.478  10.587  1.00  0.00    -0.237 OA
ATOM     83  O   UNL     1      10.429  -9.408   9.347  1.00  0.00    -0.237 OA
ATOM     84  O   UNL     1       8.455  -8.085   9.992  1.00  0.00    -0.744 OA
ENDBRANCH  80  81
ENDBRANCH  52  75
BRANCH  64  85
ATOM     85  C   UNL     1       3.542 -16.278   3.705  1.00  0.00    -0.014 A 
ATOM     86  C   UNL     1       2.626 -16.360   4.768  1.00  0.00     0.010 A 
ATOM     87  C   UNL     1       4.178 -17.451   3.257  1.00  0.00     0.010 A 
ATOM     88  C   UNL     1       2.389 -17.582   5.404  1.00  0.00     0.020 A 
ATOM     89  C   UNL     1       3.922 -18.679   3.870  1.00  0.00     0.020 A 
ATOM     90  C   UNL     1       3.044 -18.733   4.954  1.00  0.00     0.054 A 
BRANCH  90  91
ATOM     91  S   UNL     1       2.711 -20.311   5.785  1.00  0.00     0.124 S 
ATOM     92  O   UNL     1       3.468 -20.166   7.025  1.00  0.00    -0.237 OA
ATOM     93  O   UNL     1       1.257 -20.298   5.930  1.00  0.00    -0.237 OA
ATOM     94  O   UNL     1       3.228 -21.309   4.851  1.00  0.00    -0.744 OA
ENDBRANCH  90  91
ENDBRANCH  64  85
ENDBRANCH  38  39
ENDBRANCH  30  33
ENDBRANCH  28  29
ENDBRANCH  27  28
ENDBRANCH  26  27
ENDBRANCH  25  26
ENDBRANCH   1  25
TORSDOF 21
