REMARK SMILES C[C@H](C(=O)NCCCCCCNC(=O)c1ccc(-c2c3nc(c(-c4ccc(S(=O)(=O)[O-])cc4)c4ccc([nH]4)c(-c4ccc(S(=O)(=O)[O-])cc4)c4nc(c(-c5ccc(S(=O)(=O)[O-])cc5)c5ccc2[nH]5)C=C4)C=C3)cc1)[C@@H](C)[NH2+]Cc1ccc(F)c(F)c1
REMARK SMILES IDX 8 1 7 2 6 3 5 4 3 5 4 6 2 8 1 9 75 10 76 11 77 12 78 15
REMARK SMILES IDX 79 16 80 17 86 18 81 19 84 20 82 21 85 22 83 23 9 24 10 25
REMARK SMILES IDX 11 26 12 27 13 28 14 30 15 31 16 32 74 33 17 34 73 35 18 36
REMARK SMILES IDX 19 37 20 38 67 39 21 40 72 41 66 42 68 43 22 44 71 45 65 46
REMARK SMILES IDX 64 47 23 49 53 50 34 51 52 52 35 53 38 54 51 55 69 56 36 57
REMARK SMILES IDX 37 58 50 60 70 61 39 62 24 63 25 64 33 65 26 66 32 67 27 68
REMARK SMILES IDX 28 69 29 70 30 71 31 72 54 73 55 74 63 75 56 76 62 77 57 78
REMARK SMILES IDX 58 79 59 80 60 81 61 82 40 83 41 84 49 85 42 86 48 87 43 88
REMARK SMILES IDX 44 89 45 90 46 91 47 92
REMARK H PARENT 5 7 77 13 77 14 12 29 68 48 38 59
REMARK Flexibility Score: inf
ROOT
ATOM      1  C   UNL     1      -0.522  -2.297  -3.326  1.00  0.00     0.002 C 
ENDROOT
BRANCH   1   2
ATOM      2  C   UNL     1      -0.905  -2.257  -1.847  1.00  0.00     0.021 C 
BRANCH   2   3
ATOM      3  C   UNL     1       0.270  -2.175  -0.866  1.00  0.00     0.116 C 
BRANCH   3   4
ATOM      4  N   UNL     1       0.851  -0.839  -0.837  1.00  0.00    -0.356 N 
ATOM      5  C   UNL     1       0.876   0.109   0.149  1.00  0.00     0.228 C 
ATOM      6  O   UNL     1       1.359   1.209  -0.130  1.00  0.00    -0.275 OA
ATOM      7  H   UNL     1       1.303  -0.573  -1.670  1.00  0.00     0.163 HD
BRANCH   5   8
ATOM      8  C   UNL     1       0.320  -0.200   1.544  1.00  0.00     0.133 C 
ATOM      9  C   UNL     1       1.161   0.561   2.586  1.00  0.00     0.024 C 
BRANCH   8  10
ATOM     10  C   UNL     1      -1.190   0.155   1.731  1.00  0.00     0.191 C 
ATOM     11  C   UNL     1      -2.022  -0.076   0.476  1.00  0.00     0.076 C 
BRANCH  10  12
ATOM     12  N   UNL     1      -1.696  -0.527   2.947  1.00  0.00    -0.340 N 
ATOM     13  H   UNL     1      -1.370   0.009   3.751  1.00  0.00     0.346 HD
ATOM     14  H   UNL     1      -1.338  -1.479   2.866  1.00  0.00     0.346 HD
BRANCH  12  15
ATOM     15  C   UNL     1      -3.145  -0.701   3.101  1.00  0.00     0.297 C 
BRANCH  15  16
ATOM     16  C   UNL     1      -3.708  -1.859   2.296  1.00  0.00     0.009 A 
ATOM     17  C   UNL     1      -4.735  -1.641   1.357  1.00  0.00     0.013 A 
ATOM     18  C   UNL     1      -3.163  -3.149   2.409  1.00  0.00     0.052 A 
ATOM     19  C   UNL     1      -5.125  -2.655   0.478  1.00  0.00     0.043 A 
ATOM     20  C   UNL     1      -3.559  -4.154   1.530  1.00  0.00     0.159 A 
ATOM     21  C   UNL     1      -4.517  -3.902   0.556  1.00  0.00     0.158 A 
ATOM     22  F   UNL     1      -2.971  -5.355   1.604  1.00  0.00    -0.204 F 
ATOM     23  F   UNL     1      -4.843  -4.849  -0.333  1.00  0.00    -0.204 F 
ENDBRANCH  15  16
ENDBRANCH  12  15
ENDBRANCH  10  12
ENDBRANCH   8  10
ENDBRANCH   5   8
ENDBRANCH   3   4
ENDBRANCH   2   3
ENDBRANCH   1   2
BRANCH   1  24
ATOM     24  C   UNL     1       0.095  -3.613  -3.799  1.00  0.00     0.002 C 
BRANCH  24  25
ATOM     25  C   UNL     1      -0.730  -4.869  -3.502  1.00  0.00     0.021 C 
BRANCH  25  26
ATOM     26  C   UNL     1      -2.179  -4.825  -3.989  1.00  0.00     0.116 C 
BRANCH  26  27
ATOM     27  N   UNL     1      -2.264  -4.710  -5.437  1.00  0.00    -0.352 N 
ATOM     28  C   UNL     1      -2.734  -5.618  -6.354  1.00  0.00     0.251 C 
ATOM     29  H   UNL     1      -1.938  -3.861  -5.814  1.00  0.00     0.163 HD
ATOM     30  O   UNL     1      -2.514  -5.454  -7.553  1.00  0.00    -0.269 OA
BRANCH  28  31
ATOM     31  C   UNL     1      -3.488  -6.802  -5.894  1.00  0.00     0.039 A 
ATOM     32  C   UNL     1      -3.132  -8.064  -6.375  1.00  0.00     0.014 A 
ATOM     33  C   UNL     1      -4.537  -6.667  -4.979  1.00  0.00     0.014 A 
ATOM     34  C   UNL     1      -3.772  -9.200  -5.874  1.00  0.00     0.010 A 
ATOM     35  C   UNL     1      -5.130  -7.804  -4.434  1.00  0.00     0.010 A 
ATOM     36  C   UNL     1      -4.743  -9.082  -4.864  1.00  0.00    -0.014 A 
BRANCH  36  37
ATOM     37  C   UNL     1      -5.307 -10.286  -4.198  1.00  0.00     0.031 A 
ATOM     38  C   UNL     1      -6.773 -10.606  -4.306  1.00  0.00     0.074 A 
ATOM     39  C   UNL     1      -4.502 -11.045  -3.426  1.00  0.00     0.049 A 
ATOM     40  N   UNL     1      -7.445 -11.574  -3.736  1.00  0.00    -0.248 NA
ATOM     41  C   UNL     1      -7.596  -9.719  -5.144  1.00  0.00     0.031 C 
ATOM     42  C   UNL     1      -3.072 -10.808  -3.204  1.00  0.00     0.029 A 
ATOM     43  N   UNL     1      -4.769 -12.160  -2.670  1.00  0.00    -0.354 N 
ATOM     44  C   UNL     1      -8.767 -11.403  -4.128  1.00  0.00     0.074 A 
ATOM     45  C   UNL     1      -8.810 -10.223  -4.964  1.00  0.00     0.031 C 
ATOM     46  C   UNL     1      -2.589 -11.753  -2.382  1.00  0.00     0.029 A 
ATOM     47  C   UNL     1      -3.679 -12.633  -1.977  1.00  0.00     0.049 A 
ATOM     48  H   UNL     1      -5.658 -12.581  -2.628  1.00  0.00     0.167 HD
ATOM     49  C   UNL     1      -9.843 -12.166  -3.824  1.00  0.00     0.031 A 
ATOM     50  C   UNL     1      -3.569 -13.645  -1.093  1.00  0.00     0.031 A 
ATOM     51  C   UNL     1      -9.790 -13.348  -3.004  1.00  0.00     0.049 A 
ATOM     52  C   UNL     1      -4.790 -14.460  -0.760  1.00  0.00     0.074 A 
ATOM     53  C   UNL     1     -10.813 -14.236  -2.716  1.00  0.00     0.029 A 
ATOM     54  N   UNL     1      -8.667 -13.800  -2.330  1.00  0.00    -0.354 N 
ATOM     55  N   UNL     1      -6.008 -14.349  -1.234  1.00  0.00    -0.248 NA
ATOM     56  C   UNL     1      -4.623 -15.539   0.224  1.00  0.00     0.031 C 
ATOM     57  C   UNL     1     -10.327 -15.181  -1.808  1.00  0.00     0.029 A 
ATOM     58  C   UNL     1      -8.984 -14.924  -1.585  1.00  0.00     0.049 A 
ATOM     59  H   UNL     1      -7.775 -13.384  -2.375  1.00  0.00     0.167 HD
ATOM     60  C   UNL     1      -6.746 -15.352  -0.617  1.00  0.00     0.074 A 
ATOM     61  C   UNL     1      -5.833 -16.080   0.239  1.00  0.00     0.031 C 
ATOM     62  C   UNL     1      -8.065 -15.639  -0.738  1.00  0.00     0.031 A 
BRANCH  49  63
ATOM     63  C   UNL     1     -11.188 -11.757  -4.365  1.00  0.00    -0.014 A 
ATOM     64  C   UNL     1     -11.508 -11.919  -5.724  1.00  0.00     0.010 A 
ATOM     65  C   UNL     1     -12.187 -11.318  -3.474  1.00  0.00     0.010 A 
ATOM     66  C   UNL     1     -12.799 -11.644  -6.184  1.00  0.00     0.020 A 
ATOM     67  C   UNL     1     -13.485 -11.066  -3.926  1.00  0.00     0.020 A 
ATOM     68  C   UNL     1     -13.782 -11.227  -5.280  1.00  0.00     0.054 A 
BRANCH  68  69
ATOM     69  S   UNL     1     -15.468 -10.959  -5.894  1.00  0.00     0.124 S 
ATOM     70  O   UNL     1     -15.308  -9.751  -6.699  1.00  0.00    -0.237 OA
ATOM     71  O   UNL     1     -15.732 -12.183  -6.645  1.00  0.00    -0.237 OA
ATOM     72  O   UNL     1     -16.260 -10.795  -4.677  1.00  0.00    -0.744 OA
ENDBRANCH  68  69
ENDBRANCH  49  63
BRANCH  50  73
ATOM     73  C   UNL     1      -2.267 -13.924  -0.422  1.00  0.00    -0.014 A 
ATOM     74  C   UNL     1      -1.578 -15.127  -0.655  1.00  0.00     0.010 A 
ATOM     75  C   UNL     1      -1.728 -12.996   0.488  1.00  0.00     0.010 A 
ATOM     76  C   UNL     1      -0.400 -15.415   0.041  1.00  0.00     0.020 A 
ATOM     77  C   UNL     1      -0.532 -13.264   1.159  1.00  0.00     0.020 A 
ATOM     78  C   UNL     1       0.113 -14.483   0.947  1.00  0.00     0.054 A 
BRANCH  78  79
ATOM     79  S   UNL     1       1.644 -14.875   1.837  1.00  0.00     0.124 S 
ATOM     80  O   UNL     1       1.190 -15.878   2.795  1.00  0.00    -0.237 OA
ATOM     81  O   UNL     1       2.513 -15.365   0.770  1.00  0.00    -0.237 OA
ATOM     82  O   UNL     1       2.042 -13.592   2.414  1.00  0.00    -0.744 OA
ENDBRANCH  78  79
ENDBRANCH  50  73
BRANCH  62  83
ATOM     83  C   UNL     1      -8.602 -16.796   0.061  1.00  0.00    -0.014 A 
ATOM     84  C   UNL     1      -8.747 -16.706   1.457  1.00  0.00     0.010 A 
ATOM     85  C   UNL     1      -9.029 -17.963  -0.598  1.00  0.00     0.010 A 
ATOM     86  C   UNL     1      -9.286 -17.771   2.182  1.00  0.00     0.020 A 
ATOM     87  C   UNL     1      -9.598 -19.018   0.119  1.00  0.00     0.020 A 
ATOM     88  C   UNL     1      -9.713 -18.919   1.507  1.00  0.00     0.054 A 
BRANCH  88  89
ATOM     89  S   UNL     1     -10.464 -20.263   2.467  1.00  0.00     0.124 S 
ATOM     90  O   UNL     1      -9.313 -20.807   3.181  1.00  0.00    -0.237 OA
ATOM     91  O   UNL     1     -11.441 -19.557   3.293  1.00  0.00    -0.237 OA
ATOM     92  O   UNL     1     -11.036 -21.140   1.448  1.00  0.00    -0.744 OA
ENDBRANCH  88  89
ENDBRANCH  62  83
ENDBRANCH  36  37
ENDBRANCH  28  31
ENDBRANCH  26  27
ENDBRANCH  25  26
ENDBRANCH  24  25
ENDBRANCH   1  24
TORSDOF 20
