REMARK SMILES CCOC(=O)C1=NN(c2ccc(F)cc2F)[C@@H](C(=O)NCCCCCCNC(=O)c2ccc(-c3c4nc(c(-c5ccc(S(=O)(=O)[O-])cc5)c5ccc([nH]5)c(-c5ccc(S(=O)(=O)[O-])cc5)c5nc(c(-c6ccc(S(=O)(=O)[O-])cc6)c6ccc3[nH]6)C=C5)C=C4)cc2)C1
REMARK SMILES IDX 23 1 22 2 21 3 20 4 18 5 19 6 17 8 6 9 7 10 90 11 8 12 4 13
REMARK SMILES IDX 5 14 3 15 2 16 1 17 9 18 10 19 15 20 11 21 14 22 16 23 12 24
REMARK SMILES IDX 13 25 24 26 25 27 26 28 27 29 28 30 29 32 30 33 31 34 89 35
REMARK SMILES IDX 32 36 88 37 33 38 34 39 35 40 82 41 36 42 87 43 81 44 83 45
REMARK SMILES IDX 37 46 86 47 80 48 79 49 38 51 68 52 49 53 67 54 50 55 53 56
REMARK SMILES IDX 66 57 84 58 51 59 52 60 65 62 85 63 54 64 39 65 40 66 48 67
REMARK SMILES IDX 41 68 47 69 42 70 43 71 44 72 45 73 46 74 69 75 70 76 78 77
REMARK SMILES IDX 71 78 77 79 72 80 73 81 74 82 75 83 76 84 55 85 56 86 64 87
REMARK SMILES IDX 57 88 63 89 58 90 59 91 60 92 61 93 62 94
REMARK H PARENT 20 7 27 31 83 50 53 61
REMARK Flexibility Score: inf
ROOT
ATOM      1  C   UNL     1       1.273   9.969   4.772  1.00  0.00     0.002 C 
ENDROOT
BRANCH   1   2
ATOM      2  C   UNL     1       2.502   9.051   4.795  1.00  0.00     0.021 C 
BRANCH   2   3
ATOM      3  C   UNL     1       2.313   7.683   4.140  1.00  0.00     0.116 C 
BRANCH   3   4
ATOM      4  N   UNL     1       2.021   7.795   2.724  1.00  0.00    -0.354 N 
ATOM      5  C   UNL     1       2.426   7.010   1.679  1.00  0.00     0.245 C 
ATOM      6  O   UNL     1       1.951   7.271   0.572  1.00  0.00    -0.273 OA
ATOM      7  H   UNL     1       1.442   8.552   2.476  1.00  0.00     0.163 HD
BRANCH   5   8
ATOM      8  C   UNL     1       3.388   5.841   1.942  1.00  0.00     0.203 C 
ATOM      9  C   UNL     1       3.064   3.650   1.304  1.00  0.00     0.148 C 
ATOM     10  N   UNL     1       3.873   4.109   0.400  1.00  0.00    -0.169 NA
ATOM     11  C   UNL     1       2.601   4.602   2.354  1.00  0.00     0.103 C 
ATOM     12  N   UNL     1       4.079   5.417   0.721  1.00  0.00    -0.249 N 
BRANCH   9  13
ATOM     13  C   UNL     1       2.615   2.220   1.363  1.00  0.00     0.354 C 
ATOM     14  O   UNL     1       3.358   1.318   1.712  1.00  0.00    -0.245 OA
BRANCH  13  15
ATOM     15  O   UNL     1       1.304   2.156   1.063  1.00  0.00    -0.461 OA
BRANCH  15  16
ATOM     16  C   UNL     1       0.717   0.852   1.176  1.00  0.00     0.230 C 
ATOM     17  C   UNL     1       0.948   0.050  -0.091  1.00  0.00     0.049 C 
ENDBRANCH  15  16
ENDBRANCH  13  15
ENDBRANCH   9  13
BRANCH  12  18
ATOM     18  C   UNL     1       5.011   6.182   0.026  1.00  0.00     0.096 A 
ATOM     19  C   UNL     1       5.893   7.044   0.703  1.00  0.00     0.034 A 
ATOM     20  C   UNL     1       5.122   6.124  -1.377  1.00  0.00     0.151 A 
ATOM     21  C   UNL     1       6.842   7.803   0.010  1.00  0.00     0.041 A 
ATOM     22  C   UNL     1       6.048   6.895  -2.077  1.00  0.00     0.080 A 
ATOM     23  F   UNL     1       4.291   5.353  -2.097  1.00  0.00    -0.205 F 
ATOM     24  C   UNL     1       6.904   7.725  -1.374  1.00  0.00     0.126 A 
ATOM     25  F   UNL     1       7.806   8.462  -2.036  1.00  0.00    -0.207 F 
ENDBRANCH  12  18
ENDBRANCH   5   8
ENDBRANCH   3   4
ENDBRANCH   2   3
ENDBRANCH   1   2
BRANCH   1  26
ATOM     26  C   UNL     1       0.001   9.396   5.404  1.00  0.00     0.002 C 
BRANCH  26  27
ATOM     27  C   UNL     1       0.135   8.915   6.851  1.00  0.00     0.021 C 
BRANCH  27  28
ATOM     28  C   UNL     1       0.656   9.949   7.846  1.00  0.00     0.116 C 
BRANCH  28  29
ATOM     29  N   UNL     1      -0.220  11.101   7.976  1.00  0.00    -0.352 N 
ATOM     30  C   UNL     1      -0.576  11.792   9.109  1.00  0.00     0.251 C 
ATOM     31  H   UNL     1      -0.613  11.431   7.137  1.00  0.00     0.163 HD
ATOM     32  O   UNL     1      -1.430  12.671   9.045  1.00  0.00    -0.269 OA
BRANCH  30  33
ATOM     33  C   UNL     1       0.045  11.458  10.412  1.00  0.00     0.039 A 
ATOM     34  C   UNL     1      -0.781  11.301  11.528  1.00  0.00     0.014 A 
ATOM     35  C   UNL     1       1.430  11.314  10.539  1.00  0.00     0.014 A 
ATOM     36  C   UNL     1      -0.227  10.938  12.759  1.00  0.00     0.010 A 
ATOM     37  C   UNL     1       1.977  10.911  11.757  1.00  0.00     0.010 A 
ATOM     38  C   UNL     1       1.153  10.713  12.876  1.00  0.00    -0.014 A 
BRANCH  38  39
ATOM     39  C   UNL     1       1.755  10.263  14.156  1.00  0.00     0.031 A 
ATOM     40  C   UNL     1       2.659  11.178  14.932  1.00  0.00     0.074 A 
ATOM     41  C   UNL     1       1.546   9.002  14.584  1.00  0.00     0.049 A 
ATOM     42  N   UNL     1       3.356  10.927  16.011  1.00  0.00    -0.248 NA
ATOM     43  C   UNL     1       2.817  12.547  14.415  1.00  0.00     0.031 C 
ATOM     44  C   UNL     1       0.715   8.003  13.908  1.00  0.00     0.029 A 
ATOM     45  N   UNL     1       2.032   8.342  15.684  1.00  0.00    -0.354 N 
ATOM     46  C   UNL     1       4.056  12.095  16.288  1.00  0.00     0.074 A 
ATOM     47  C   UNL     1       3.713  13.048  15.253  1.00  0.00     0.031 C 
ATOM     48  C   UNL     1       0.743   6.860  14.613  1.00  0.00     0.029 A 
ATOM     49  C   UNL     1       1.613   7.036  15.773  1.00  0.00     0.049 A 
ATOM     50  H   UNL     1       2.624   8.764  16.348  1.00  0.00     0.167 HD
ATOM     51  C   UNL     1       4.903  12.353  17.313  1.00  0.00     0.031 A 
ATOM     52  C   UNL     1       1.903   6.083  16.678  1.00  0.00     0.031 A 
ATOM     53  C   UNL     1       5.229  11.418  18.355  1.00  0.00     0.049 A 
ATOM     54  C   UNL     1       2.818   6.402  17.825  1.00  0.00     0.074 A 
ATOM     55  C   UNL     1       6.048  11.605  19.456  1.00  0.00     0.029 A 
ATOM     56  N   UNL     1       4.747  10.121  18.432  1.00  0.00    -0.354 N 
ATOM     57  N   UNL     1       3.448   7.522  18.085  1.00  0.00    -0.248 NA
ATOM     58  C   UNL     1       3.054   5.333  18.805  1.00  0.00     0.031 C 
ATOM     59  C   UNL     1       6.076  10.412  20.189  1.00  0.00     0.029 A 
ATOM     60  C   UNL     1       5.253   9.494  19.558  1.00  0.00     0.049 A 
ATOM     61  H   UNL     1       4.135   9.707  17.781  1.00  0.00     0.167 HD
ATOM     62  C   UNL     1       4.141   7.298  19.268  1.00  0.00     0.074 A 
ATOM     63  C   UNL     1       3.849   5.939  19.677  1.00  0.00     0.031 C 
ATOM     64  C   UNL     1       4.948   8.144  19.953  1.00  0.00     0.031 A 
BRANCH  51  65
ATOM     65  C   UNL     1       5.546  13.711  17.343  1.00  0.00    -0.014 A 
ATOM     66  C   UNL     1       4.819  14.845  17.745  1.00  0.00     0.010 A 
ATOM     67  C   UNL     1       6.896  13.852  16.976  1.00  0.00     0.010 A 
ATOM     68  C   UNL     1       5.419  16.107  17.736  1.00  0.00     0.020 A 
ATOM     69  C   UNL     1       7.504  15.110  16.984  1.00  0.00     0.020 A 
ATOM     70  C   UNL     1       6.755  16.233  17.343  1.00  0.00     0.054 A 
BRANCH  70  71
ATOM     71  S   UNL     1       7.519  17.878  17.335  1.00  0.00     0.124 S 
ATOM     72  O   UNL     1       7.053  18.416  16.059  1.00  0.00    -0.237 OA
ATOM     73  O   UNL     1       6.952  18.508  18.525  1.00  0.00    -0.237 OA
ATOM     74  O   UNL     1       8.949  17.592  17.408  1.00  0.00    -0.744 OA
ENDBRANCH  70  71
ENDBRANCH  51  65
BRANCH  52  75
ATOM     75  C   UNL     1       1.303   4.732  16.539  1.00  0.00    -0.014 A 
ATOM     76  C   UNL     1       0.210   4.357  17.339  1.00  0.00     0.010 A 
ATOM     77  C   UNL     1       1.802   3.827  15.586  1.00  0.00     0.010 A 
ATOM     78  C   UNL     1      -0.372   3.096  17.193  1.00  0.00     0.020 A 
ATOM     79  C   UNL     1       1.212   2.571  15.426  1.00  0.00     0.020 A 
ATOM     80  C   UNL     1       0.132   2.210  16.236  1.00  0.00     0.054 A 
BRANCH  80  81
ATOM     81  S   UNL     1      -0.680   0.604  16.002  1.00  0.00     0.124 S 
ATOM     82  O   UNL     1      -0.064  -0.202  17.051  1.00  0.00    -0.237 OA
ATOM     83  O   UNL     1      -2.092   0.925  16.195  1.00  0.00    -0.237 OA
ATOM     84  O   UNL     1      -0.315   0.242  14.633  1.00  0.00    -0.744 OA
ENDBRANCH  80  81
ENDBRANCH  52  75
BRANCH  64  85
ATOM     85  C   UNL     1       5.549   7.636  21.232  1.00  0.00    -0.014 A 
ATOM     86  C   UNL     1       6.671   6.790  21.216  1.00  0.00     0.010 A 
ATOM     87  C   UNL     1       5.016   8.053  22.465  1.00  0.00     0.010 A 
ATOM     88  C   UNL     1       7.239   6.351  22.415  1.00  0.00     0.020 A 
ATOM     89  C   UNL     1       5.590   7.627  23.665  1.00  0.00     0.020 A 
ATOM     90  C   UNL     1       6.692   6.769  23.632  1.00  0.00     0.054 A 
BRANCH  90  91
ATOM     91  S   UNL     1       7.470   6.231  25.180  1.00  0.00     0.124 S 
ATOM     92  O   UNL     1       6.904   4.896  25.355  1.00  0.00    -0.237 OA
ATOM     93  O   UNL     1       8.896   6.272  24.860  1.00  0.00    -0.237 OA
ATOM     94  O   UNL     1       7.029   7.230  26.150  1.00  0.00    -0.744 OA
ENDBRANCH  90  91
ENDBRANCH  64  85
ENDBRANCH  38  39
ENDBRANCH  30  33
ENDBRANCH  28  29
ENDBRANCH  27  28
ENDBRANCH  26  27
ENDBRANCH   1  26
TORSDOF 20
