REMARK SMILES CCc1ccc(C[NH+]2CCC(Oc3ccccc3OC)(C(=O)NCCCCCCNC(=O)c3ccc(-c4c5nc(c(-c6ccc(S(=O)(=O)[O-])cc6)c6ccc([nH]6)c(-c6ccc(S(=O)(=O)[O-])cc6)c6nc(c(-c7ccc(S(=O)(=O)[O-])cc7)c7ccc4[nH]7)C=C6)C=C5)cc3)CC2)nc1
REMARK SMILES IDX 26 1 25 2 24 3 23 4 21 5 22 6 11 8 8 9 9 10 94 11 10 13
REMARK SMILES IDX 93 14 7 15 6 16 3 17 4 18 96 19 5 20 95 21 2 22 1 23 12 24
REMARK SMILES IDX 13 25 14 26 18 27 15 28 17 29 16 30 19 31 20 32 27 33 28 34
REMARK SMILES IDX 29 35 30 36 31 37 32 39 33 40 34 41 92 42 35 43 91 44 36 45
REMARK SMILES IDX 37 46 38 47 85 48 39 49 90 50 84 51 86 52 40 53 89 54 83 55
REMARK SMILES IDX 82 56 41 58 71 59 52 60 70 61 53 62 56 63 69 64 87 65 54 66
REMARK SMILES IDX 55 67 68 69 88 70 57 71 42 72 43 73 51 74 44 75 50 76 45 77
REMARK SMILES IDX 46 78 47 79 48 80 49 81 72 82 73 83 81 84 74 85 80 86 75 87
REMARK SMILES IDX 76 88 77 89 78 90 79 91 58 92 59 93 67 94 60 95 66 96 61 97
REMARK SMILES IDX 62 98 63 99 64 100 65 101
REMARK H PARENT 23 7 8 12 30 38 86 57 56 68
REMARK Flexibility Score: inf
ROOT
ATOM      1  C   UNL     1      -5.157  -1.076   5.380  1.00  0.00     0.002 C 
ENDROOT
BRANCH   1   2
ATOM      2  C   UNL     1      -4.293  -0.659   6.571  1.00  0.00     0.021 C 
BRANCH   2   3
ATOM      3  C   UNL     1      -3.754  -1.818   7.407  1.00  0.00     0.116 C 
BRANCH   3   4
ATOM      4  N   UNL     1      -2.691  -2.536   6.722  1.00  0.00    -0.353 N 
ATOM      5  C   UNL     1      -1.370  -2.697   7.047  1.00  0.00     0.264 C 
ATOM      6  O   UNL     1      -0.743  -3.509   6.356  1.00  0.00    -0.270 OA
ATOM      7  H   UNL     1      -2.966  -2.979   5.887  1.00  0.00     0.163 HD
BRANCH   5   8
ATOM      8  C   UNL     1      -0.698  -1.899   8.208  1.00  0.00     0.197 C 
ATOM      9  N   UNL     1       1.587  -0.394   7.094  1.00  0.00    -0.330 N 
ATOM     10  C   UNL     1       0.214  -0.008   6.765  1.00  0.00     0.267 C 
ATOM     11  C   UNL     1       1.687  -1.852   7.233  1.00  0.00     0.267 C 
ATOM     12  H   UNL     1       1.823   0.026   7.993  1.00  0.00     0.348 HD
ATOM     13  C   UNL     1      -0.716  -0.396   7.904  1.00  0.00     0.120 C 
ATOM     14  C   UNL     1       0.775  -2.348   8.367  1.00  0.00     0.120 C 
BRANCH   9  15
ATOM     15  C   UNL     1       2.574   0.148   6.127  1.00  0.00     0.319 C 
BRANCH  15  16
ATOM     16  C   UNL     1       2.232  -0.018   4.655  1.00  0.00     0.095 A 
ATOM     17  C   UNL     1       1.226  -0.480   2.127  1.00  0.00    -0.030 A 
ATOM     18  C   UNL     1       1.113   0.791   2.690  1.00  0.00     0.007 A 
ATOM     19  C   UNL     1       1.893  -1.448   2.872  1.00  0.00     0.115 A 
ATOM     20  C   UNL     1       1.624   1.030   3.962  1.00  0.00     0.030 A 
ATOM     21  N   UNL     1       2.407  -1.243   4.104  1.00  0.00    -0.255 NA
BRANCH  17  22
ATOM     22  C   UNL     1       0.591  -0.826   0.809  1.00  0.00     0.034 C 
ATOM     23  C   UNL     1       1.069   0.046  -0.341  1.00  0.00     0.009 C 
ENDBRANCH  17  22
ENDBRANCH  15  16
ENDBRANCH   9  15
BRANCH   8  24
ATOM     24  O   UNL     1      -1.581  -2.208   9.322  1.00  0.00    -0.473 OA
BRANCH  24  25
ATOM     25  C   UNL     1      -1.151  -2.089  10.608  1.00  0.00     0.162 A 
ATOM     26  C   UNL     1      -0.360  -3.109  11.145  1.00  0.00     0.050 A 
ATOM     27  C   UNL     1      -1.686  -1.121  11.468  1.00  0.00     0.160 A 
ATOM     28  C   UNL     1      -0.004  -3.100  12.494  1.00  0.00     0.004 A 
ATOM     29  C   UNL     1      -1.314  -1.100  12.817  1.00  0.00     0.050 A 
ATOM     30  C   UNL     1      -0.458  -2.079  13.325  1.00  0.00     0.004 A 
BRANCH  27  31
ATOM     31  O   UNL     1      -2.760  -0.343  11.120  1.00  0.00    -0.493 OA
ATOM     32  C   UNL     1      -2.407   0.858  10.450  1.00  0.00     0.278 C 
ENDBRANCH  27  31
ENDBRANCH  24  25
ENDBRANCH   8  24
ENDBRANCH   5   8
ENDBRANCH   3   4
ENDBRANCH   2   3
ENDBRANCH   1   2
BRANCH   1  33
ATOM     33  C   UNL     1      -6.398  -1.905   5.726  1.00  0.00     0.002 C 
BRANCH  33  34
ATOM     34  C   UNL     1      -7.321  -1.309   6.795  1.00  0.00     0.021 C 
BRANCH  34  35
ATOM     35  C   UNL     1      -7.856   0.089   6.491  1.00  0.00     0.116 C 
BRANCH  35  36
ATOM     36  N   UNL     1      -8.635   0.124   5.266  1.00  0.00    -0.352 N 
ATOM     37  C   UNL     1      -9.909   0.580   5.040  1.00  0.00     0.251 C 
ATOM     38  H   UNL     1      -8.176  -0.237   4.473  1.00  0.00     0.163 HD
ATOM     39  O   UNL     1     -10.451   0.334   3.966  1.00  0.00    -0.269 OA
BRANCH  37  40
ATOM     40  C   UNL     1     -10.637   1.352   6.073  1.00  0.00     0.039 A 
ATOM     41  C   UNL     1     -12.000   1.100   6.253  1.00  0.00     0.014 A 
ATOM     42  C   UNL     1     -10.011   2.354   6.822  1.00  0.00     0.014 A 
ATOM     43  C   UNL     1     -12.723   1.821   7.207  1.00  0.00     0.010 A 
ATOM     44  C   UNL     1     -10.720   3.029   7.818  1.00  0.00     0.010 A 
ATOM     45  C   UNL     1     -12.085   2.776   8.015  1.00  0.00    -0.014 A 
BRANCH  45  46
ATOM     46  C   UNL     1     -12.845   3.497   9.070  1.00  0.00     0.031 A 
ATOM     47  C   UNL     1     -13.079   4.983   8.975  1.00  0.00     0.074 A 
ATOM     48  C   UNL     1     -13.310   2.810  10.133  1.00  0.00     0.049 A 
ATOM     49  N   UNL     1     -13.759   5.761   9.778  1.00  0.00    -0.248 NA
ATOM     50  C   UNL     1     -12.454   5.691   7.846  1.00  0.00     0.031 C 
ATOM     51  C   UNL     1     -13.103   1.379  10.372  1.00  0.00     0.029 A 
ATOM     52  N   UNL     1     -14.057   3.219  11.209  1.00  0.00    -0.354 N 
ATOM     53  C   UNL     1     -13.631   7.047   9.264  1.00  0.00     0.074 A 
ATOM     54  C   UNL     1     -12.776   6.952   8.102  1.00  0.00     0.031 C 
ATOM     55  C   UNL     1     -13.742   1.023  11.498  1.00  0.00     0.029 A 
ATOM     56  C   UNL     1     -14.379   2.202  12.078  1.00  0.00     0.049 A 
ATOM     57  H   UNL     1     -14.338   4.153  11.347  1.00  0.00     0.167 HD
ATOM     58  C   UNL     1     -14.187   8.199   9.710  1.00  0.00     0.031 A 
ATOM     59  C   UNL     1     -15.110   2.213  13.208  1.00  0.00     0.031 A 
ATOM     60  C   UNL     1     -15.059   8.288  10.853  1.00  0.00     0.049 A 
ATOM     61  C   UNL     1     -15.735   3.503  13.665  1.00  0.00     0.074 A 
ATOM     62  C   UNL     1     -15.741   9.395  11.330  1.00  0.00     0.029 A 
ATOM     63  N   UNL     1     -15.365   7.235  11.700  1.00  0.00    -0.354 N 
ATOM     64  N   UNL     1     -15.682   4.688  13.106  1.00  0.00    -0.248 NA
ATOM     65  C   UNL     1     -16.533   3.450  14.898  1.00  0.00     0.031 C 
ATOM     66  C   UNL     1     -16.418   9.023  12.496  1.00  0.00     0.029 A 
ATOM     67  C   UNL     1     -16.201   7.672  12.715  1.00  0.00     0.049 A 
ATOM     68  H   UNL     1     -15.037   6.312  11.597  1.00  0.00     0.167 HD
ATOM     69  C   UNL     1     -16.462   5.516  13.906  1.00  0.00     0.074 A 
ATOM     70  C   UNL     1     -16.992   4.691  14.973  1.00  0.00     0.031 C 
ATOM     71  C   UNL     1     -16.716   6.841  13.772  1.00  0.00     0.031 A 
BRANCH  58  72
ATOM     72  C   UNL     1     -13.872   9.470   8.964  1.00  0.00    -0.014 A 
ATOM     73  C   UNL     1     -14.412   9.719   7.690  1.00  0.00     0.010 A 
ATOM     74  C   UNL     1     -13.086  10.461   9.580  1.00  0.00     0.010 A 
ATOM     75  C   UNL     1     -14.150  10.926   7.034  1.00  0.00     0.020 A 
ATOM     76  C   UNL     1     -12.842  11.679   8.938  1.00  0.00     0.020 A 
ATOM     77  C   UNL     1     -13.366  11.898   7.662  1.00  0.00     0.054 A 
BRANCH  77  78
ATOM     78  S   UNL     1     -13.081  13.473   6.808  1.00  0.00     0.124 S 
ATOM     79  O   UNL     1     -12.134  13.083   5.766  1.00  0.00    -0.237 OA
ATOM     80  O   UNL     1     -14.418  13.830   6.339  1.00  0.00    -0.237 OA
ATOM     81  O   UNL     1     -12.537  14.341   7.850  1.00  0.00    -0.744 OA
ENDBRANCH  77  78
ENDBRANCH  58  72
BRANCH  59  82
ATOM     82  C   UNL     1     -15.317   0.958  13.982  1.00  0.00    -0.014 A 
ATOM     83  C   UNL     1     -16.585   0.351  14.033  1.00  0.00     0.010 A 
ATOM     84  C   UNL     1     -14.251   0.374  14.690  1.00  0.00     0.010 A 
ATOM     85  C   UNL     1     -16.792  -0.794  14.807  1.00  0.00     0.020 A 
ATOM     86  C   UNL     1     -14.447  -0.787  15.442  1.00  0.00     0.020 A 
ATOM     87  C   UNL     1     -15.722  -1.353  15.511  1.00  0.00     0.054 A 
BRANCH  87  88
ATOM     88  S   UNL     1     -16.006  -2.850  16.496  1.00  0.00     0.124 S 
ATOM     89  O   UNL     1     -16.690  -2.316  17.669  1.00  0.00    -0.237 OA
ATOM     90  O   UNL     1     -16.824  -3.668  15.603  1.00  0.00    -0.237 OA
ATOM     91  O   UNL     1     -14.658  -3.361  16.734  1.00  0.00    -0.744 OA
ENDBRANCH  87  88
ENDBRANCH  59  82
BRANCH  71  92
ATOM     92  C   UNL     1     -17.630   7.471  14.790  1.00  0.00    -0.014 A 
ATOM     93  C   UNL     1     -17.211   7.673  16.117  1.00  0.00     0.010 A 
ATOM     94  C   UNL     1     -18.920   7.878  14.408  1.00  0.00     0.010 A 
ATOM     95  C   UNL     1     -18.086   8.225  17.057  1.00  0.00     0.020 A 
ATOM     96  C   UNL     1     -19.787   8.458  15.337  1.00  0.00     0.020 A 
ATOM     97  C   UNL     1     -19.372   8.608  16.662  1.00  0.00     0.054 A 
BRANCH  97  98
ATOM     98  S   UNL     1     -20.487   9.331  17.895  1.00  0.00     0.124 S 
ATOM     99  O   UNL     1     -20.911   8.154  18.648  1.00  0.00    -0.237 OA
ATOM    100  O   UNL     1     -19.616  10.258  18.614  1.00  0.00    -0.237 OA
ATOM    101  O   UNL     1     -21.529   9.964  17.089  1.00  0.00    -0.744 OA
ENDBRANCH  97  98
ENDBRANCH  71  92
ENDBRANCH  45  46
ENDBRANCH  37  40
ENDBRANCH  35  36
ENDBRANCH  34  35
ENDBRANCH  33  34
ENDBRANCH   1  33
TORSDOF 22
