REMARK SMILES Cc1ccc(C(=O)NC2(CC(=O)NCCCCCCNC(=O)c3ccc(-c4c5nc(c(-c6ccc(S(=O)(=O)[O-])cc6)c6ccc([nH]6)c(-c6ccc(S(=O)(=O)[O-])cc6)c6nc(c(-c7ccc(S(=O)(=O)[O-])cc7)c7ccc4[nH]7)C=C6)C=C5)cc3)CCC2)cc1
REMARK SMILES IDX 16 1 15 2 14 3 13 4 11 5 12 6 10 8 9 9 83 10 85 11 84 12
REMARK SMILES IDX 8 13 6 14 7 15 5 17 1 18 2 19 3 20 87 21 4 22 86 23 17 24
REMARK SMILES IDX 18 25 19 26 20 27 21 28 22 30 23 31 24 32 82 33 25 34 81 35
REMARK SMILES IDX 26 36 27 37 28 38 75 39 29 40 80 41 74 42 76 43 30 44 79 45
REMARK SMILES IDX 73 46 72 47 31 49 61 50 42 51 60 52 43 53 46 54 59 55 77 56
REMARK SMILES IDX 44 57 45 58 58 60 78 61 47 62 32 63 33 64 41 65 34 66 40 67
REMARK SMILES IDX 35 68 36 69 37 70 38 71 39 72 62 73 63 74 71 75 64 76 70 77
REMARK SMILES IDX 65 78 66 79 67 80 68 81 69 82 48 83 49 84 57 85 50 86 56 87
REMARK SMILES IDX 51 88 52 89 53 90 54 91 55 92
REMARK H PARENT 13 7 8 16 20 29 76 48 46 59
REMARK Flexibility Score: inf
ROOT
ATOM      1  C   UNL     1       0.635   0.011   3.524  1.00  0.00     0.002 C 
ENDROOT
BRANCH   1   2
ATOM      2  C   UNL     1      -0.402   1.010   3.051  1.00  0.00     0.021 C 
BRANCH   2   3
ATOM      3  C   UNL     1      -0.086   1.580   1.691  1.00  0.00     0.116 C 
BRANCH   3   4
ATOM      4  N   UNL     1      -0.389   0.562   0.427  1.00  0.00    -0.356 N 
ATOM      5  C   UNL     1      -1.293   0.606  -1.328  1.00  0.00     0.222 C 
ATOM      6  O   UNL     1      -1.155  -0.123  -2.349  1.00  0.00    -0.275 OA
ATOM      7  H   UNL     1      -0.006  -0.328   0.598  1.00  0.00     0.163 HD
BRANCH   5   8
ATOM      8  C   UNL     1      -2.660   1.848  -1.761  1.00  0.00     0.128 C 
BRANCH   8   9
ATOM      9  C   UNL     1      -3.735   2.540  -0.660  1.00  0.00     0.049 C 
ATOM     10  C   UNL     1      -4.453   3.864  -1.096  1.00  0.00     0.029 C 
ATOM     11  C   UNL     1      -3.626   3.391   0.804  1.00  0.00     0.029 C 
ATOM     12  C   UNL     1      -3.658   4.662  -0.015  1.00  0.00     0.005 C 
BRANCH   9  13
ATOM     13  N   UNL     1      -4.527   1.415  -0.193  1.00  0.00    -0.346 N 
ATOM     14  C   UNL     1      -3.828   0.523   0.571  1.00  0.00     0.251 C 
ATOM     15  O   UNL     1      -4.350  -0.408   1.161  1.00  0.00    -0.269 OA
ATOM     16  H   UNL     1      -5.481   1.304  -0.408  1.00  0.00     0.164 HD
BRANCH  14  17
ATOM     17  C   UNL     1      -2.342   0.678   0.422  1.00  0.00     0.039 A 
ATOM     18  C   UNL     1       2.414   0.028  -1.145  1.00  0.00     0.044 C 
ATOM     19  C   UNL     1       0.917   0.240  -1.145  1.00  0.00    -0.051 A 
ATOM     20  C   UNL     1      -0.079  -1.198  -0.692  1.00  0.00     0.004 A 
ATOM     21  C   UNL     1       0.309   1.919  -0.924  1.00  0.00     0.004 A 
ATOM     22  C   UNL     1      -1.685  -0.982   0.079  1.00  0.00     0.014 A 
ATOM     23  C   UNL     1      -1.310   2.184  -0.106  1.00  0.00     0.014 A 
ENDBRANCH  14  17
ENDBRANCH   9  13
ENDBRANCH   8   9
ENDBRANCH   5   8
ENDBRANCH   3   4
ENDBRANCH   2   3
ENDBRANCH   1   2
BRANCH   1  24
ATOM     24  C   UNL     1       2.095   0.343   3.161  1.00  0.00     0.002 C 
BRANCH  24  25
ATOM     25  C   UNL     1       2.587   1.785   3.358  1.00  0.00     0.021 C 
BRANCH  25  26
ATOM     26  C   UNL     1       2.452   2.278   4.766  1.00  0.00     0.116 C 
BRANCH  26  27
ATOM     27  N   UNL     1       3.598   1.919   5.565  1.00  0.00    -0.352 N 
ATOM     28  C   UNL     1       4.019   2.654   6.659  1.00  0.00     0.251 C 
ATOM     29  H   UNL     1       4.105   1.111   5.320  1.00  0.00     0.163 HD
ATOM     30  O   UNL     1       5.161   3.050   6.830  1.00  0.00    -0.269 OA
BRANCH  28  31
ATOM     31  C   UNL     1       2.982   2.842   7.691  1.00  0.00     0.039 A 
ATOM     32  C   UNL     1       3.091   2.069   8.851  1.00  0.00     0.014 A 
ATOM     33  C   UNL     1       1.771   3.390   7.282  1.00  0.00     0.014 A 
ATOM     34  C   UNL     1       1.933   1.664   9.489  1.00  0.00     0.010 A 
ATOM     35  C   UNL     1       0.636   2.807   7.758  1.00  0.00     0.010 A 
ATOM     36  C   UNL     1       0.730   1.947   8.855  1.00  0.00    -0.014 A 
BRANCH  36  37
ATOM     37  C   UNL     1      -0.573   1.609   9.363  1.00  0.00     0.031 A 
ATOM     38  C   UNL     1      -1.170   2.683  10.184  1.00  0.00     0.074 A 
ATOM     39  C   UNL     1      -1.168   0.527   8.813  1.00  0.00     0.049 A 
ATOM     40  N   UNL     1      -2.156   2.524  10.978  1.00  0.00    -0.248 NA
ATOM     41  C   UNL     1      -0.649   4.062  10.226  1.00  0.00     0.031 C 
ATOM     42  C   UNL     1      -2.569   0.136   8.786  1.00  0.00     0.029 A 
ATOM     43  N   UNL     1      -0.509  -0.588   8.293  1.00  0.00    -0.354 N 
ATOM     44  C   UNL     1      -2.623   3.784  11.303  1.00  0.00     0.074 A 
ATOM     45  C   UNL     1      -1.581   4.700  10.940  1.00  0.00     0.031 C 
ATOM     46  C   UNL     1      -2.648  -1.195   8.576  1.00  0.00     0.029 A 
ATOM     47  C   UNL     1      -1.287  -1.721   8.580  1.00  0.00     0.049 A 
ATOM     48  H   UNL     1       0.349  -0.581   7.811  1.00  0.00     0.167 HD
ATOM     49  C   UNL     1      -3.928   3.893  11.662  1.00  0.00     0.031 A 
ATOM     50  C   UNL     1      -0.811  -2.620   9.499  1.00  0.00     0.031 A 
ATOM     51  C   UNL     1      -4.518   2.558  11.689  1.00  0.00     0.049 A 
ATOM     52  C   UNL     1      -1.583  -2.502  10.799  1.00  0.00     0.074 A 
ATOM     53  C   UNL     1      -5.212   1.844  10.728  1.00  0.00     0.029 A 
ATOM     54  N   UNL     1      -4.018   1.638  12.597  1.00  0.00    -0.354 N 
ATOM     55  N   UNL     1      -2.149  -1.399  11.215  1.00  0.00    -0.248 NA
ATOM     56  C   UNL     1      -1.869  -3.644  11.665  1.00  0.00     0.031 C 
ATOM     57  C   UNL     1      -5.020   0.463  11.009  1.00  0.00     0.029 A 
ATOM     58  C   UNL     1      -4.221   0.352  12.136  1.00  0.00     0.049 A 
ATOM     59  H   UNL     1      -3.580   1.868  13.448  1.00  0.00     0.167 HD
ATOM     60  C   UNL     1      -2.918  -1.675  12.312  1.00  0.00     0.074 A 
ATOM     61  C   UNL     1      -2.687  -3.085  12.574  1.00  0.00     0.031 C 
ATOM     62  C   UNL     1      -3.738  -0.770  12.920  1.00  0.00     0.031 A 
BRANCH  49  63
ATOM     63  C   UNL     1      -4.759   5.146  11.718  1.00  0.00    -0.014 A 
ATOM     64  C   UNL     1      -6.161   4.983  11.744  1.00  0.00     0.010 A 
ATOM     65  C   UNL     1      -4.283   6.471  11.716  1.00  0.00     0.010 A 
ATOM     66  C   UNL     1      -7.044   6.063  11.738  1.00  0.00     0.020 A 
ATOM     67  C   UNL     1      -5.164   7.572  11.711  1.00  0.00     0.020 A 
ATOM     68  C   UNL     1      -6.541   7.357  11.720  1.00  0.00     0.054 A 
BRANCH  68  69
ATOM     69  S   UNL     1      -7.726   8.726  11.727  1.00  0.00     0.124 S 
ATOM     70  O   UNL     1      -8.465   8.505  10.487  1.00  0.00    -0.237 OA
ATOM     71  O   UNL     1      -8.475   8.485  12.957  1.00  0.00    -0.237 OA
ATOM     72  O   UNL     1      -6.880   9.918  11.739  1.00  0.00    -0.744 OA
ENDBRANCH  68  69
ENDBRANCH  49  63
BRANCH  50  73
ATOM     73  C   UNL     1       0.672  -2.827   9.357  1.00  0.00    -0.014 A 
ATOM     74  C   UNL     1       1.110  -3.471   8.174  1.00  0.00     0.010 A 
ATOM     75  C   UNL     1       1.579  -1.997  10.039  1.00  0.00     0.010 A 
ATOM     76  C   UNL     1       2.325  -3.120   7.574  1.00  0.00     0.020 A 
ATOM     77  C   UNL     1       2.809  -1.662   9.447  1.00  0.00     0.020 A 
ATOM     78  C   UNL     1       3.136  -2.165   8.184  1.00  0.00     0.054 A 
BRANCH  78  79
ATOM     79  S   UNL     1       4.511  -1.459   7.226  1.00  0.00     0.124 S 
ATOM     80  O   UNL     1       5.348  -2.626   6.970  1.00  0.00    -0.237 OA
ATOM     81  O   UNL     1       3.826  -0.900   6.058  1.00  0.00    -0.237 OA
ATOM     82  O   UNL     1       5.080  -0.462   8.125  1.00  0.00    -0.744 OA
ENDBRANCH  78  79
ENDBRANCH  50  73
BRANCH  62  83
ATOM     83  C   UNL     1      -4.238  -0.909  14.331  1.00  0.00    -0.014 A 
ATOM     84  C   UNL     1      -3.613  -1.727  15.281  1.00  0.00     0.010 A 
ATOM     85  C   UNL     1      -5.282  -0.067  14.784  1.00  0.00     0.010 A 
ATOM     86  C   UNL     1      -4.085  -1.793  16.592  1.00  0.00     0.020 A 
ATOM     87  C   UNL     1      -5.705  -0.062  16.109  1.00  0.00     0.020 A 
ATOM     88  C   UNL     1      -5.136  -0.967  16.992  1.00  0.00     0.054 A 
BRANCH  88  89
ATOM     89  S   UNL     1      -5.747  -1.093  18.683  1.00  0.00     0.124 S 
ATOM     90  O   UNL     1      -6.543  -2.316  18.615  1.00  0.00    -0.237 OA
ATOM     91  O   UNL     1      -4.515  -1.187  19.463  1.00  0.00    -0.237 OA
ATOM     92  O   UNL     1      -6.506   0.140  18.871  1.00  0.00    -0.744 OA
ENDBRANCH  88  89
ENDBRANCH  62  83
ENDBRANCH  36  37
ENDBRANCH  28  31
ENDBRANCH  26  27
ENDBRANCH  25  26
ENDBRANCH  24  25
ENDBRANCH   1  24
TORSDOF 19
