REMARK SMILES O=C(NCCCCCCNC(=O)c1cc(Cl)cc(Cl)c1NC(=S)NC(=O)c1cccc2ccccc12)c1ccc(-c2c3nc(c(-c4ccc(S(=O)(=O)[O-])cc4)c4ccc([nH]4)c(-c4ccc(S(=O)(=O)[O-])cc4)c4nc(c(-c5ccc(S(=O)(=O)[O-])cc5)c5ccc2[nH]5)C=C4)C=C3)cc1
REMARK SMILES IDX 7 1 6 2 5 3 4 4 3 5 1 6 2 7 37 9 38 10 96 11 39 12 95 13
REMARK SMILES IDX 40 14 41 15 42 16 89 17 43 18 94 19 88 20 90 21 44 22 93 23
REMARK SMILES IDX 87 24 86 25 45 27 75 28 56 29 74 30 57 31 60 32 73 33 91 34
REMARK SMILES IDX 58 35 59 36 72 38 92 39 61 40 46 41 47 42 55 43 48 44 54 45
REMARK SMILES IDX 49 46 50 47 51 48 52 49 53 50 76 51 77 52 85 53 78 54 84 55
REMARK SMILES IDX 79 56 80 57 81 58 82 59 83 60 62 61 63 62 71 63 64 64 70 65
REMARK SMILES IDX 65 66 66 67 67 68 68 69 69 70 8 71 9 72 10 73 11 74 12 76
REMARK SMILES IDX 13 77 14 78 20 79 15 80 18 81 16 82 17 83 19 84 21 85 22 87
REMARK SMILES IDX 23 88 24 89 25 90 26 92 27 93 28 94 36 95 29 96 31 97 35 98
REMARK SMILES IDX 30 99 32 100 34 101 33 102
REMARK H PARENT 3 8 90 26 60 37 10 75 21 86 24 91
REMARK Flexibility Score: inf
ROOT
ATOM      1  C   UNL     1       4.594   0.661   4.134  1.00  0.00     0.002 C 
ENDROOT
BRANCH   1   2
ATOM      2  C   UNL     1       4.105   1.788   3.219  1.00  0.00     0.002 C 
BRANCH   2   3
ATOM      3  C   UNL     1       4.670   1.742   1.799  1.00  0.00     0.021 C 
BRANCH   3   4
ATOM      4  C   UNL     1       4.451   0.413   1.091  1.00  0.00     0.116 C 
BRANCH   4   5
ATOM      5  N   UNL     1       3.038   0.087   0.979  1.00  0.00    -0.352 N 
ATOM      6  O   UNL     1       1.087  -0.233  -0.107  1.00  0.00    -0.269 OA
ATOM      7  C   UNL     1       2.311  -0.189  -0.151  1.00  0.00     0.251 C 
ATOM      8  H   UNL     1       2.538   0.060   1.826  1.00  0.00     0.163 HD
BRANCH   7   9
ATOM      9  C   UNL     1       3.030  -0.415  -1.419  1.00  0.00     0.039 A 
ATOM     10  C   UNL     1       4.159  -1.239  -1.442  1.00  0.00     0.014 A 
ATOM     11  C   UNL     1       2.583   0.211  -2.583  1.00  0.00     0.014 A 
ATOM     12  C   UNL     1       4.917  -1.332  -2.599  1.00  0.00     0.010 A 
ATOM     13  C   UNL     1       3.293   0.035  -3.772  1.00  0.00     0.010 A 
ATOM     14  C   UNL     1       4.474  -0.725  -3.785  1.00  0.00    -0.014 A 
BRANCH  14  15
ATOM     15  C   UNL     1       5.207  -0.985  -5.047  1.00  0.00     0.031 A 
ATOM     16  C   UNL     1       5.878   0.123  -5.805  1.00  0.00     0.074 A 
ATOM     17  C   UNL     1       5.261  -2.254  -5.498  1.00  0.00     0.049 A 
ATOM     18  N   UNL     1       6.546   0.058  -6.928  1.00  0.00    -0.248 NA
ATOM     19  C   UNL     1       5.786   1.478  -5.239  1.00  0.00     0.031 C 
ATOM     20  C   UNL     1       4.642  -3.410  -4.839  1.00  0.00     0.029 A 
ATOM     21  N   UNL     1       5.868  -2.792  -6.601  1.00  0.00    -0.354 N 
ATOM     22  C   UNL     1       6.938   1.359  -7.216  1.00  0.00     0.074 A 
ATOM     23  C   UNL     1       6.411   2.199  -6.161  1.00  0.00     0.031 C 
ATOM     24  C   UNL     1       4.939  -4.521  -5.525  1.00  0.00     0.029 A 
ATOM     25  C   UNL     1       5.697  -4.151  -6.713  1.00  0.00     0.049 A 
ATOM     26  H   UNL     1       6.378  -2.257  -7.252  1.00  0.00     0.167 HD
ATOM     27  C   UNL     1       7.670   1.807  -8.265  1.00  0.00     0.031 A 
ATOM     28  C   UNL     1       6.077  -5.007  -7.679  1.00  0.00     0.031 A 
ATOM     29  C   UNL     1       8.175   0.959  -9.315  1.00  0.00     0.049 A 
ATOM     30  C   UNL     1       6.837  -4.473  -8.857  1.00  0.00     0.074 A 
ATOM     31  C   UNL     1       8.950   1.311 -10.407  1.00  0.00     0.029 A 
ATOM     32  N   UNL     1       7.945  -0.407  -9.415  1.00  0.00    -0.354 N 
ATOM     33  N   UNL     1       7.232  -3.244  -9.091  1.00  0.00    -0.248 NA
ATOM     34  C   UNL     1       7.202  -5.438  -9.900  1.00  0.00     0.031 C 
ATOM     35  C   UNL     1       9.132   0.173 -11.200  1.00  0.00     0.029 A 
ATOM     36  C   UNL     1       8.535  -0.904 -10.566  1.00  0.00     0.049 A 
ATOM     37  H   UNL     1       7.438  -0.943  -8.763  1.00  0.00     0.167 HD
ATOM     38  C   UNL     1       7.914  -3.293 -10.300  1.00  0.00     0.074 A 
ATOM     39  C   UNL     1       7.894  -4.675 -10.735  1.00  0.00     0.031 C 
ATOM     40  C   UNL     1       8.502  -2.283 -10.988  1.00  0.00     0.031 A 
BRANCH  27  41
ATOM     41  C   UNL     1       7.945   3.288  -8.351  1.00  0.00    -0.014 A 
ATOM     42  C   UNL     1       8.813   3.925  -7.446  1.00  0.00     0.010 A 
ATOM     43  C   UNL     1       7.370   4.043  -9.390  1.00  0.00     0.010 A 
ATOM     44  C   UNL     1       9.068   5.295  -7.555  1.00  0.00     0.020 A 
ATOM     45  C   UNL     1       7.646   5.408  -9.520  1.00  0.00     0.020 A 
ATOM     46  C   UNL     1       8.482   6.029  -8.591  1.00  0.00     0.054 A 
BRANCH  46  47
ATOM     47  S   UNL     1       8.849   7.801  -8.716  1.00  0.00     0.124 S 
ATOM     48  O   UNL     1       8.137   8.337  -7.559  1.00  0.00    -0.237 OA
ATOM     49  O   UNL     1      10.306   7.831  -8.626  1.00  0.00    -0.237 OA
ATOM     50  O   UNL     1       8.299   8.180 -10.015  1.00  0.00    -0.744 OA
ENDBRANCH  46  47
ENDBRANCH  27  41
BRANCH  28  51
ATOM     51  C   UNL     1       5.718  -6.446  -7.573  1.00  0.00    -0.014 A 
ATOM     52  C   UNL     1       6.709  -7.421  -7.374  1.00  0.00     0.010 A 
ATOM     53  C   UNL     1       4.369  -6.846  -7.642  1.00  0.00     0.010 A 
ATOM     54  C   UNL     1       6.361  -8.771  -7.265  1.00  0.00     0.020 A 
ATOM     55  C   UNL     1       4.014  -8.188  -7.498  1.00  0.00     0.020 A 
ATOM     56  C   UNL     1       5.015  -9.144  -7.324  1.00  0.00     0.054 A 
BRANCH  56  57
ATOM     57  S   UNL     1       4.587 -10.896  -7.133  1.00  0.00     0.124 S 
ATOM     58  O   UNL     1       5.057 -11.462  -8.393  1.00  0.00    -0.237 OA
ATOM     59  O   UNL     1       5.346 -11.277  -5.944  1.00  0.00    -0.237 OA
ATOM     60  O   UNL     1       3.136 -10.876  -6.957  1.00  0.00    -0.744 OA
ENDBRANCH  56  57
ENDBRANCH  28  51
BRANCH  40  61
ATOM     61  C   UNL     1       9.207  -2.642 -12.269  1.00  0.00    -0.014 A 
ATOM     62  C   UNL     1       8.489  -3.019 -13.418  1.00  0.00     0.010 A 
ATOM     63  C   UNL     1      10.609  -2.549 -12.337  1.00  0.00     0.010 A 
ATOM     64  C   UNL     1       9.163  -3.325 -14.603  1.00  0.00     0.020 A 
ATOM     65  C   UNL     1      11.284  -2.821 -13.528  1.00  0.00     0.020 A 
ATOM     66  C   UNL     1      10.557  -3.220 -14.651  1.00  0.00     0.054 A 
BRANCH  66  67
ATOM     67  S   UNL     1      11.403  -3.569 -16.217  1.00  0.00     0.124 S 
ATOM     68  O   UNL     1      11.259  -5.018 -16.323  1.00  0.00    -0.237 OA
ATOM     69  O   UNL     1      10.629  -2.788 -17.178  1.00  0.00    -0.237 OA
ATOM     70  O   UNL     1      12.765  -3.094 -15.989  1.00  0.00    -0.744 OA
ENDBRANCH  66  67
ENDBRANCH  40  61
ENDBRANCH  14  15
ENDBRANCH   7   9
ENDBRANCH   4   5
ENDBRANCH   3   4
ENDBRANCH   2   3
ENDBRANCH   1   2
BRANCH   1  71
ATOM     71  C   UNL     1       6.114   0.579   4.276  1.00  0.00     0.021 C 
BRANCH  71  72
ATOM     72  C   UNL     1       6.742   1.878   4.765  1.00  0.00     0.116 C 
BRANCH  72  73
ATOM     73  N   UNL     1       6.240   2.237   6.093  1.00  0.00    -0.352 N 
ATOM     74  C   UNL     1       6.878   2.136   7.309  1.00  0.00     0.253 C 
ATOM     75  H   UNL     1       5.324   2.599   6.120  1.00  0.00     0.163 HD
ATOM     76  O   UNL     1       6.282   2.194   8.375  1.00  0.00    -0.269 OA
BRANCH  74  77
ATOM     77  C   UNL     1       8.335   2.009   7.291  1.00  0.00     0.066 A 
ATOM     78  C   UNL     1       9.069   2.905   6.517  1.00  0.00     0.036 A 
ATOM     79  C   UNL     1       9.001   0.937   7.837  1.00  0.00     0.072 A 
ATOM     80  C   UNL     1      10.458   2.642   6.173  1.00  0.00     0.043 A 
ATOM     81  C   UNL     1       9.832   0.315   6.962  1.00  0.00     0.066 A 
ATOM     82  Cl  UNL     1      12.351   4.230   6.103  1.00  0.00    -0.084 Cl
ATOM     83  C   UNL     1      10.492   1.137   6.062  1.00  0.00     0.043 A 
ATOM     84  Cl  UNL     1      10.238  -1.347   7.118  1.00  0.00    -0.082 Cl
BRANCH  79  85
ATOM     85  N   UNL     1       9.351   1.041   9.204  1.00  0.00    -0.330 N 
ATOM     86  H   UNL     1       8.620   1.353   9.786  1.00  0.00     0.169 HD
BRANCH  85  87
ATOM     87  C   UNL     1      10.511   0.788   9.855  1.00  0.00     0.177 C 
ATOM     88  S   UNL     1      10.399   0.372  11.477  1.00  0.00    -0.040 S 
BRANCH  87  89
ATOM     89  N   UNL     1      11.797   0.883   9.328  1.00  0.00    -0.299 N 
ATOM     90  C   UNL     1      12.656   1.345   8.285  1.00  0.00     0.258 C 
ATOM     91  H   UNL     1      12.383   0.419   9.969  1.00  0.00     0.172 HD
ATOM     92  O   UNL     1      13.784   0.869   8.178  1.00  0.00    -0.269 OA
BRANCH  90  93
ATOM     93  C   UNL     1      12.243   2.391   7.336  1.00  0.00     0.048 A 
ATOM     94  C   UNL     1      11.178   3.716   7.956  1.00  0.00     0.014 A 
ATOM     95  C   UNL     1      12.521   2.131   5.514  1.00  0.00    -0.006 A 
ATOM     96  C   UNL     1      10.339   4.818   6.797  1.00  0.00     0.001 A 
ATOM     97  C   UNL     1      11.509   3.128   4.355  1.00  0.00    -0.018 A 
ATOM     98  C   UNL     1      13.365   1.211   4.875  1.00  0.00     0.009 A 
ATOM     99  C   UNL     1      10.452   4.473   5.007  1.00  0.00     0.009 A 
ATOM    100  C   UNL     1      11.572   2.784   3.016  1.00  0.00     0.009 A 
ATOM    101  C   UNL     1      13.274   1.017   3.481  1.00  0.00     0.001 A 
ATOM    102  C   UNL     1      12.407   1.736   2.612  1.00  0.00     0.001 A 
ENDBRANCH  90  93
ENDBRANCH  87  89
ENDBRANCH  85  87
ENDBRANCH  79  85
ENDBRANCH  74  77
ENDBRANCH  72  73
ENDBRANCH  71  72
ENDBRANCH   1  71
TORSDOF 20
