REMARK SMILES Cc1cccc(Cl)c1Nc1ccccc1CC(=O)NCCCCCCNC(=O)c1ccc(-c2c3nc(c(-c4ccc(S(=O)(=O)[O-])cc4)c4ccc([nH]4)c(-c4ccc(S(=O)(=O)[O-])cc4)c4nc(c(-c5ccc(S(=O)(=O)[O-])cc5)c5ccc2[nH]5)C=C4)C=C3)cc1
REMARK SMILES IDX 22 1 21 2 20 3 19 4 17 5 18 6 16 8 15 9 10 10 11 11 12 12
REMARK SMILES IDX 14 13 13 14 9 15 8 17 1 18 2 19 3 20 4 21 6 22 5 23 7 24
REMARK SMILES IDX 23 25 24 26 25 27 26 28 27 29 28 31 29 32 30 33 88 34 31 35
REMARK SMILES IDX 87 36 32 37 33 38 34 39 81 40 35 41 86 42 80 43 82 44 36 45
REMARK SMILES IDX 85 46 79 47 78 48 37 50 67 51 48 52 66 53 49 54 52 55 65 56
REMARK SMILES IDX 83 57 50 58 51 59 64 61 84 62 53 63 38 64 39 65 47 66 40 67
REMARK SMILES IDX 46 68 41 69 42 70 43 71 44 72 45 73 68 74 69 75 77 76 70 77
REMARK SMILES IDX 76 78 71 79 72 80 73 81 74 82 75 83 54 84 55 85 63 86 56 87
REMARK SMILES IDX 62 88 57 89 58 90 59 91 60 92 61 93
REMARK H PARENT 19 7 9 16 26 30 82 49 52 60
REMARK Flexibility Score: inf
ROOT
ATOM      1  C   UNL     1       0.644   6.113  -3.625  1.00  0.00     0.002 C 
ENDROOT
BRANCH   1   2
ATOM      2  C   UNL     1       0.696   5.122  -2.456  1.00  0.00     0.021 C 
BRANCH   2   3
ATOM      3  C   UNL     1       0.129   3.744  -2.800  1.00  0.00     0.116 C 
BRANCH   3   4
ATOM      4  N   UNL     1       1.012   3.033  -3.702  1.00  0.00    -0.356 N 
ATOM      5  C   UNL     1       1.894   2.033  -3.406  1.00  0.00     0.224 C 
ATOM      6  O   UNL     1       2.672   1.653  -4.285  1.00  0.00    -0.275 OA
ATOM      7  H   UNL     1       0.971   3.304  -4.648  1.00  0.00     0.163 HD
BRANCH   5   8
ATOM      8  C   UNL     1       1.851   1.371  -2.038  1.00  0.00     0.137 C 
BRANCH   8   9
ATOM      9  C   UNL     1       2.355   2.235  -0.900  1.00  0.00    -0.015 A 
ATOM     10  C   UNL     1       1.589   2.520   0.253  1.00  0.00     0.042 A 
ATOM     11  C   UNL     1       2.113   3.415   1.205  1.00  0.00     0.026 A 
ATOM     12  C   UNL     1       3.373   3.992   1.049  1.00  0.00     0.002 A 
ATOM     13  C   UNL     1       3.640   2.804  -1.026  1.00  0.00     0.006 A 
ATOM     14  C   UNL     1       4.143   3.675  -0.061  1.00  0.00     0.000 A 
BRANCH  10  15
ATOM     15  N   UNL     1       0.341   1.935   0.553  1.00  0.00    -0.354 N 
ATOM     16  H   UNL     1      -0.317   2.573   0.913  1.00  0.00     0.167 HD
BRANCH  15  17
ATOM     17  C   UNL     1      -0.154   0.614   0.439  1.00  0.00     0.060 A 
ATOM     18  C   UNL     1      -2.475   1.608   0.013  1.00  0.00     0.046 C 
ATOM     19  C   UNL     1      -1.533   0.438   0.143  1.00  0.00    -0.026 A 
ATOM     20  C   UNL     1      -2.049  -0.852  -0.077  1.00  0.00     0.005 A 
ATOM     21  C   UNL     1      -1.229  -1.972   0.000  1.00  0.00     0.002 A 
ATOM     22  C   UNL     1       0.651  -0.545   0.544  1.00  0.00     0.064 A 
ATOM     23  C   UNL     1       0.115  -1.819   0.317  1.00  0.00     0.023 A 
ATOM     24  Cl  UNL     1       2.306  -0.508   1.058  1.00  0.00    -0.082 Cl
ENDBRANCH  15  17
ENDBRANCH  10  15
ENDBRANCH   8   9
ENDBRANCH   5   8
ENDBRANCH   3   4
ENDBRANCH   2   3
ENDBRANCH   1   2
BRANCH   1  25
ATOM     25  C   UNL     1      -0.760   6.386  -4.175  1.00  0.00     0.002 C 
BRANCH  25  26
ATOM     26  C   UNL     1      -1.770   6.889  -3.140  1.00  0.00     0.021 C 
BRANCH  26  27
ATOM     27  C   UNL     1      -1.386   8.205  -2.470  1.00  0.00     0.116 C 
BRANCH  27  28
ATOM     28  N   UNL     1      -1.289   9.293  -3.431  1.00  0.00    -0.352 N 
ATOM     29  C   UNL     1      -1.907  10.514  -3.428  1.00  0.00     0.251 C 
ATOM     30  H   UNL     1      -0.692   9.126  -4.196  1.00  0.00     0.163 HD
ATOM     31  O   UNL     1      -1.876  11.217  -4.442  1.00  0.00    -0.269 OA
BRANCH  29  32
ATOM     32  C   UNL     1      -2.619  10.988  -2.224  1.00  0.00     0.039 A 
ATOM     33  C   UNL     1      -3.855  11.622  -2.374  1.00  0.00     0.014 A 
ATOM     34  C   UNL     1      -2.061  10.833  -0.951  1.00  0.00     0.014 A 
ATOM     35  C   UNL     1      -4.551  12.058  -1.246  1.00  0.00     0.010 A 
ATOM     36  C   UNL     1      -2.788  11.205   0.178  1.00  0.00     0.010 A 
ATOM     37  C   UNL     1      -4.037  11.829   0.042  1.00  0.00    -0.014 A 
BRANCH  37  38
ATOM     38  C   UNL     1      -4.799  12.237   1.249  1.00  0.00     0.031 A 
ATOM     39  C   UNL     1      -4.257  13.294   2.174  1.00  0.00     0.074 A 
ATOM     40  C   UNL     1      -5.962  11.620   1.537  1.00  0.00     0.049 A 
ATOM     41  N   UNL     1      -4.780  13.770   3.275  1.00  0.00    -0.248 NA
ATOM     42  C   UNL     1      -2.949  13.874   1.831  1.00  0.00     0.031 C 
ATOM     43  C   UNL     1      -6.567  10.543   0.748  1.00  0.00     0.029 A 
ATOM     44  N   UNL     1      -6.844  11.807   2.571  1.00  0.00    -0.354 N 
ATOM     45  C   UNL     1      -3.861  14.693   3.763  1.00  0.00     0.074 A 
ATOM     46  C   UNL     1      -2.727  14.672   2.866  1.00  0.00     0.031 C 
ATOM     47  C   UNL     1      -7.734  10.189   1.310  1.00  0.00     0.029 A 
ATOM     48  C   UNL     1      -7.944  10.986   2.514  1.00  0.00     0.049 A 
ATOM     49  H   UNL     1      -6.702  12.469   3.287  1.00  0.00     0.167 HD
ATOM     50  C   UNL     1      -3.961  15.499   4.848  1.00  0.00     0.031 A 
ATOM     51  C   UNL     1      -9.006  10.883   3.337  1.00  0.00     0.031 A 
ATOM     52  C   UNL     1      -5.095  15.523   5.733  1.00  0.00     0.049 A 
ATOM     53  C   UNL     1      -9.100  11.796   4.528  1.00  0.00     0.074 A 
ATOM     54  C   UNL     1      -5.319  16.346   6.823  1.00  0.00     0.029 A 
ATOM     55  N   UNL     1      -6.196  14.686   5.633  1.00  0.00    -0.354 N 
ATOM     56  N   UNL     1      -8.254  12.715   4.930  1.00  0.00    -0.248 NA
ATOM     57  C   UNL     1     -10.300  11.670   5.366  1.00  0.00     0.031 C 
ATOM     58  C   UNL     1      -6.531  15.971   7.413  1.00  0.00     0.029 A 
ATOM     59  C   UNL     1      -7.091  14.955   6.656  1.00  0.00     0.049 A 
ATOM     60  H   UNL     1      -6.323  14.001   4.937  1.00  0.00     0.167 HD
ATOM     61  C   UNL     1      -8.831  13.293   6.056  1.00  0.00     0.074 A 
ATOM     62  C   UNL     1     -10.106  12.633   6.256  1.00  0.00     0.031 C 
ATOM     63  C   UNL     1      -8.350  14.281   6.850  1.00  0.00     0.031 A 
BRANCH  50  64
ATOM     64  C   UNL     1      -2.802  16.418   5.141  1.00  0.00    -0.014 A 
ATOM     65  C   UNL     1      -2.514  17.514   4.308  1.00  0.00     0.010 A 
ATOM     66  C   UNL     1      -2.013  16.204   6.286  1.00  0.00     0.010 A 
ATOM     67  C   UNL     1      -1.431  18.352   4.588  1.00  0.00     0.020 A 
ATOM     68  C   UNL     1      -0.947  17.058   6.587  1.00  0.00     0.020 A 
ATOM     69  C   UNL     1      -0.652  18.116   5.725  1.00  0.00     0.054 A 
BRANCH  69  70
ATOM     70  S   UNL     1       0.735  19.231   6.075  1.00  0.00     0.124 S 
ATOM     71  O   UNL     1       1.706  18.831   5.059  1.00  0.00    -0.237 OA
ATOM     72  O   UNL     1       0.140  20.552   5.889  1.00  0.00    -0.237 OA
ATOM     73  O   UNL     1       1.104  18.905   7.450  1.00  0.00    -0.744 OA
ENDBRANCH  69  70
ENDBRANCH  50  64
BRANCH  51  74
ATOM     74  C   UNL     1     -10.075   9.889   3.047  1.00  0.00    -0.014 A 
ATOM     75  C   UNL     1     -11.341  10.308   2.602  1.00  0.00     0.010 A 
ATOM     76  C   UNL     1      -9.822   8.513   3.194  1.00  0.00     0.010 A 
ATOM     77  C   UNL     1     -12.340   9.371   2.325  1.00  0.00     0.020 A 
ATOM     78  C   UNL     1     -10.810   7.572   2.892  1.00  0.00     0.020 A 
ATOM     79  C   UNL     1     -12.067   8.007   2.469  1.00  0.00     0.054 A 
BRANCH  79  80
ATOM     80  S   UNL     1     -13.359   6.805   2.049  1.00  0.00     0.124 S 
ATOM     81  O   UNL     1     -14.272   6.933   3.180  1.00  0.00    -0.237 OA
ATOM     82  O   UNL     1     -13.857   7.310   0.771  1.00  0.00    -0.237 OA
ATOM     83  O   UNL     1     -12.633   5.539   1.968  1.00  0.00    -0.744 OA
ENDBRANCH  79  80
ENDBRANCH  51  74
BRANCH  63  84
ATOM     84  C   UNL     1      -9.219  14.725   7.997  1.00  0.00    -0.014 A 
ATOM     85  C   UNL     1      -9.421  13.904   9.121  1.00  0.00     0.010 A 
ATOM     86  C   UNL     1      -9.820  15.997   7.961  1.00  0.00     0.010 A 
ATOM     87  C   UNL     1     -10.245  14.328  10.167  1.00  0.00     0.020 A 
ATOM     88  C   UNL     1     -10.619  16.437   9.019  1.00  0.00     0.020 A 
ATOM     89  C   UNL     1     -10.843  15.591  10.107  1.00  0.00     0.054 A 
BRANCH  89  90
ATOM     90  S   UNL     1     -11.893  16.127  11.485  1.00  0.00     0.124 S 
ATOM     91  O   UNL     1     -13.104  15.341  11.267  1.00  0.00    -0.237 OA
ATOM     92  O   UNL     1     -11.103  15.753  12.655  1.00  0.00    -0.237 OA
ATOM     93  O   UNL     1     -12.036  17.565  11.271  1.00  0.00    -0.744 OA
ENDBRANCH  89  90
ENDBRANCH  63  84
ENDBRANCH  37  38
ENDBRANCH  29  32
ENDBRANCH  27  28
ENDBRANCH  26  27
ENDBRANCH  25  26
ENDBRANCH   1  25
TORSDOF 19
