REMARK SMILES CC(C)[C@H](NC(=O)[C@H](C)NC(=O)C[NH3+])C(=O)NCCCCCCNC(=O)c1ccc(-c2c3nc(c(-c4ccc(S(=O)(=O)[O-])cc4)c4ccc([nH]4)c(-c4ccc(S(=O)(=O)[O-])cc4)c4nc(c(-c5ccc(S(=O)(=O)[O-])cc5)c5ccc2[nH]5)C=C4)C=C3)cc1
REMARK SMILES IDX 19 1 18 2 17 3 15 4 16 5 4 7 2 8 1 9 3 10 5 11 6 12 7 14
REMARK SMILES IDX 8 15 9 16 10 17 11 18 12 20 13 21 14 22 20 26 21 27 22 28
REMARK SMILES IDX 23 29 24 30 25 31 26 33 27 34 28 35 86 36 29 37 85 38 30 39
REMARK SMILES IDX 31 40 32 41 79 42 33 43 84 44 78 45 80 46 34 47 83 48 77 49
REMARK SMILES IDX 76 50 35 52 65 53 46 54 64 55 47 56 50 57 63 58 81 59 48 60
REMARK SMILES IDX 49 61 62 63 82 64 51 65 36 66 37 67 45 68 38 69 44 70 39 71
REMARK SMILES IDX 40 72 41 73 42 74 43 75 66 76 67 77 75 78 68 79 74 80 69 81
REMARK SMILES IDX 70 82 71 83 72 84 73 85 52 86 53 87 61 88 54 89 60 90 55 91
REMARK SMILES IDX 56 92 57 93 58 94 59 95
REMARK H PARENT 17 6 5 13 10 19 14 23 14 24 14 25 24 32 80 51 50 62
REMARK Flexibility Score: inf
ROOT
ATOM      1  C   UNL     1       2.899  -0.029   4.568  1.00  0.00     0.021 C 
ENDROOT
BRANCH   1   2
ATOM      2  C   UNL     1       2.074  -1.121   5.280  1.00  0.00     0.116 C 
BRANCH   2   3
ATOM      3  N   UNL     1       0.738  -0.701   5.743  1.00  0.00    -0.354 N 
ATOM      4  C   UNL     1      -0.310  -1.581   6.054  1.00  0.00     0.242 C 
ATOM      5  O   UNL     1      -0.131  -2.573   6.760  1.00  0.00    -0.273 OA
ATOM      6  H   UNL     1       0.570   0.264   5.841  1.00  0.00     0.163 HD
BRANCH   4   7
ATOM      7  C   UNL     1      -1.749  -1.188   5.538  1.00  0.00     0.173 C 
BRANCH   7   8
ATOM      8  C   UNL     1      -2.791  -2.256   5.023  1.00  0.00     0.015 C 
ATOM      9  C   UNL     1      -4.192  -1.905   5.565  1.00  0.00     0.010 C 
ATOM     10  C   UNL     1      -3.022  -2.427   3.506  1.00  0.00     0.010 C 
ENDBRANCH   7   8
BRANCH   7  11
ATOM     11  N   UNL     1      -1.711   0.007   4.739  1.00  0.00    -0.342 N 
ATOM     12  C   UNL     1      -1.112   0.270   3.562  1.00  0.00     0.242 C 
ATOM     13  H   UNL     1      -2.211   0.765   5.119  1.00  0.00     0.164 HD
ATOM     14  O   UNL     1      -1.173   1.473   3.262  1.00  0.00    -0.273 OA
BRANCH  12  15
ATOM     15  C   UNL     1      -0.200  -0.724   2.735  1.00  0.00     0.168 C 
ATOM     16  C   UNL     1      -0.181  -0.041   1.338  1.00  0.00     0.041 C 
BRANCH  15  17
ATOM     17  N   UNL     1      -0.378  -2.184   2.456  1.00  0.00    -0.340 N 
ATOM     18  C   UNL     1       0.073  -3.428   2.764  1.00  0.00     0.275 C 
ATOM     19  H   UNL     1      -1.101  -2.280   1.794  1.00  0.00     0.164 HD
ATOM     20  O   UNL     1      -0.054  -4.242   1.834  1.00  0.00    -0.268 OA
BRANCH  18  21
ATOM     21  C   UNL     1       0.604  -3.972   4.091  1.00  0.00     0.360 C 
BRANCH  21  22
ATOM     22  N   UNL     1       1.933  -4.591   3.984  1.00  0.00    -0.350 N 
ATOM     23  H   UNL     1       1.885  -5.393   3.355  1.00  0.00     0.344 HD
ATOM     24  H   UNL     1       2.240  -4.900   4.906  1.00  0.00     0.344 HD
ATOM     25  H   UNL     1       2.597  -3.910   3.615  1.00  0.00     0.344 HD
ENDBRANCH  21  22
ENDBRANCH  18  21
ENDBRANCH  15  17
ENDBRANCH  12  15
ENDBRANCH   7  11
ENDBRANCH   4   7
ENDBRANCH   2   3
ENDBRANCH   1   2
BRANCH   1  26
ATOM     26  C   UNL     1       4.118  -0.546   3.760  1.00  0.00     0.002 C 
BRANCH  26  27
ATOM     27  C   UNL     1       3.916  -1.540   2.599  1.00  0.00     0.002 C 
BRANCH  27  28
ATOM     28  C   UNL     1       3.285  -1.049   1.293  1.00  0.00     0.021 C 
BRANCH  28  29
ATOM     29  C   UNL     1       3.867   0.199   0.633  1.00  0.00     0.116 C 
BRANCH  29  30
ATOM     30  N   UNL     1       5.294   0.092   0.392  1.00  0.00    -0.352 N 
ATOM     31  C   UNL     1       6.033   0.284  -0.750  1.00  0.00     0.251 C 
ATOM     32  H   UNL     1       5.823  -0.160   1.183  1.00  0.00     0.163 HD
ATOM     33  O   UNL     1       7.226  -0.009  -0.738  1.00  0.00    -0.269 OA
BRANCH  31  34
ATOM     34  C   UNL     1       5.423   0.816  -1.992  1.00  0.00     0.039 A 
ATOM     35  C   UNL     1       5.826   0.270  -3.217  1.00  0.00     0.014 A 
ATOM     36  C   UNL     1       4.514   1.877  -1.978  1.00  0.00     0.014 A 
ATOM     37  C   UNL     1       5.276   0.741  -4.413  1.00  0.00     0.010 A 
ATOM     38  C   UNL     1       3.919   2.306  -3.168  1.00  0.00     0.010 A 
ATOM     39  C   UNL     1       4.290   1.740  -4.397  1.00  0.00    -0.014 A 
BRANCH  39  40
ATOM     40  C   UNL     1       3.620   2.175  -5.653  1.00  0.00     0.031 A 
ATOM     41  C   UNL     1       3.779   3.582  -6.163  1.00  0.00     0.074 A 
ATOM     42  C   UNL     1       2.817   1.310  -6.304  1.00  0.00     0.049 A 
ATOM     43  N   UNL     1       3.235   4.144  -7.213  1.00  0.00    -0.248 NA
ATOM     44  C   UNL     1       4.644   4.481  -5.383  1.00  0.00     0.031 C 
ATOM     45  C   UNL     1       2.550  -0.070  -5.890  1.00  0.00     0.029 A 
ATOM     46  N   UNL     1       2.070   1.462  -7.446  1.00  0.00    -0.354 N 
ATOM     47  C   UNL     1       3.678   5.462  -7.212  1.00  0.00     0.074 A 
ATOM     48  C   UNL     1       4.501   5.627  -6.033  1.00  0.00     0.031 C 
ATOM     49  C   UNL     1       1.720  -0.643  -6.776  1.00  0.00     0.029 A 
ATOM     50  C   UNL     1       1.360   0.337  -7.796  1.00  0.00     0.049 A 
ATOM     51  H   UNL     1       2.045   2.298  -7.966  1.00  0.00     0.167 HD
ATOM     52  C   UNL     1       3.433   6.441  -8.117  1.00  0.00     0.031 A 
ATOM     53  C   UNL     1       0.506   0.117  -8.815  1.00  0.00     0.031 A 
ATOM     54  C   UNL     1       2.614   6.271  -9.290  1.00  0.00     0.049 A 
ATOM     55  C   UNL     1       0.234   1.225  -9.794  1.00  0.00     0.074 A 
ATOM     56  C   UNL     1       2.357   7.182 -10.300  1.00  0.00     0.029 A 
ATOM     57  N   UNL     1       1.911   5.117  -9.606  1.00  0.00    -0.354 N 
ATOM     58  N   UNL     1       0.726   2.441  -9.818  1.00  0.00    -0.248 NA
ATOM     59  C   UNL     1      -0.702   0.929 -10.888  1.00  0.00     0.031 C 
ATOM     60  C   UNL     1       1.451   6.601 -11.193  1.00  0.00     0.029 A 
ATOM     61  C   UNL     1       1.192   5.306 -10.774  1.00  0.00     0.049 A 
ATOM     62  H   UNL     1       1.923   4.287  -9.077  1.00  0.00     0.167 HD
ATOM     63  C   UNL     1       0.170   3.051 -10.937  1.00  0.00     0.074 A 
ATOM     64  C   UNL     1      -0.675   2.063 -11.576  1.00  0.00     0.031 C 
ATOM     65  C   UNL     1       0.342   4.317 -11.391  1.00  0.00     0.031 A 
BRANCH  52  66
ATOM     66  C   UNL     1       4.048   7.795  -7.867  1.00  0.00    -0.014 A 
ATOM     67  C   UNL     1       5.436   7.997  -7.975  1.00  0.00     0.010 A 
ATOM     68  C   UNL     1       3.222   8.893  -7.562  1.00  0.00     0.010 A 
ATOM     69  C   UNL     1       5.991   9.258  -7.739  1.00  0.00     0.020 A 
ATOM     70  C   UNL     1       3.770  10.163  -7.354  1.00  0.00     0.020 A 
ATOM     71  C   UNL     1       5.154  10.333  -7.426  1.00  0.00     0.054 A 
BRANCH  71  72
ATOM     72  S   UNL     1       5.902  11.961  -7.140  1.00  0.00     0.124 S 
ATOM     73  O   UNL     1       6.545  11.774  -5.843  1.00  0.00    -0.237 OA
ATOM     74  O   UNL     1       6.807  12.102  -8.276  1.00  0.00    -0.237 OA
ATOM     75  O   UNL     1       4.758  12.873  -7.141  1.00  0.00    -0.744 OA
ENDBRANCH  71  72
ENDBRANCH  52  66
BRANCH  53  76
ATOM     76  C   UNL     1      -0.153  -1.211  -8.955  1.00  0.00    -0.014 A 
ATOM     77  C   UNL     1       0.200  -2.078 -10.004  1.00  0.00     0.010 A 
ATOM     78  C   UNL     1      -1.121  -1.627  -8.022  1.00  0.00     0.010 A 
ATOM     79  C   UNL     1      -0.411  -3.329 -10.125  1.00  0.00     0.020 A 
ATOM     80  C   UNL     1      -1.713  -2.889  -8.123  1.00  0.00     0.020 A 
ATOM     81  C   UNL     1      -1.361  -3.729  -9.180  1.00  0.00     0.054 A 
BRANCH  81  82
ATOM     82  S   UNL     1      -2.096  -5.382  -9.324  1.00  0.00     0.124 S 
ATOM     83  O   UNL     1      -2.987  -5.220 -10.468  1.00  0.00    -0.237 OA
ATOM     84  O   UNL     1      -0.927  -6.228  -9.546  1.00  0.00    -0.237 OA
ATOM     85  O   UNL     1      -2.759  -5.574  -8.035  1.00  0.00    -0.744 OA
ENDBRANCH  81  82
ENDBRANCH  53  76
BRANCH  65  86
ATOM     86  C   UNL     1      -0.394   4.706 -12.646  1.00  0.00    -0.014 A 
ATOM     87  C   UNL     1      -1.787   4.900 -12.639  1.00  0.00     0.010 A 
ATOM     88  C   UNL     1       0.324   4.934 -13.835  1.00  0.00     0.010 A 
ATOM     89  C   UNL     1      -2.452   5.286 -13.806  1.00  0.00     0.020 A 
ATOM     90  C   UNL     1      -0.334   5.348 -14.996  1.00  0.00     0.020 A 
ATOM     91  C   UNL     1      -1.721   5.509 -14.977  1.00  0.00     0.054 A 
BRANCH  91  92
ATOM     92  S   UNL     1      -2.603   6.056 -16.464  1.00  0.00     0.124 S 
ATOM     93  O   UNL     1      -3.300   4.838 -16.869  1.00  0.00    -0.237 OA
ATOM     94  O   UNL     1      -3.455   7.128 -15.955  1.00  0.00    -0.237 OA
ATOM     95  O   UNL     1      -1.535   6.490 -17.361  1.00  0.00    -0.744 OA
ENDBRANCH  91  92
ENDBRANCH  65  86
ENDBRANCH  39  40
ENDBRANCH  31  34
ENDBRANCH  29  30
ENDBRANCH  28  29
ENDBRANCH  27  28
ENDBRANCH  26  27
ENDBRANCH   1  26
TORSDOF 22
