REMARK SMILES CC(C)[C@H](NC(=O)OCc1ccccc1)C(=O)NCC(=O)NCCCCCCNC(=O)c1ccc(-c2c3nc(c(-c4ccc(S(=O)(=O)[O-])cc4)c4ccc([nH]4)c(-c4ccc(S(=O)(=O)[O-])cc4)c4nc(c(-c5ccc(S(=O)(=O)[O-])cc5)c5ccc2[nH]5)C=C4)C=C3)cc1
REMARK SMILES IDX 24 1 23 2 22 3 20 4 21 5 19 7 18 8 16 9 17 10 4 12 2 13 1 14
REMARK SMILES IDX 3 15 5 16 6 17 7 19 8 20 9 21 10 22 11 23 15 24 12 25 14 26
REMARK SMILES IDX 13 27 25 28 26 29 27 30 28 31 29 32 30 33 31 35 32 36 33 37
REMARK SMILES IDX 91 38 34 39 90 40 35 41 36 42 37 43 84 44 38 45 89 46 83 47
REMARK SMILES IDX 85 48 39 49 88 50 82 51 81 52 40 54 70 55 51 56 69 57 52 58
REMARK SMILES IDX 55 59 68 60 86 61 53 62 54 63 67 65 87 66 56 67 41 68 42 69
REMARK SMILES IDX 50 70 43 71 49 72 44 73 45 74 46 75 47 76 48 77 71 78 72 79
REMARK SMILES IDX 80 80 73 81 79 82 74 83 75 84 76 85 77 86 78 87 57 88 58 89
REMARK SMILES IDX 66 90 59 91 65 92 60 93 61 94 62 95 63 96 64 97
REMARK H PARENT 22 6 18 11 5 18 29 34 85 53 55 64
REMARK Flexibility Score: inf
ROOT
ATOM      1  C   UNL     1       2.424   2.968  -2.726  1.00  0.00     0.021 C 
ENDROOT
BRANCH   1   2
ATOM      2  C   UNL     1       2.459   3.289  -1.235  1.00  0.00     0.116 C 
BRANCH   2   3
ATOM      3  N   UNL     1       2.094   4.678  -0.998  1.00  0.00    -0.355 N 
ATOM      4  C   UNL     1       0.839   5.201  -0.822  1.00  0.00     0.239 C 
ATOM      5  O   UNL     1       0.682   6.422  -0.866  1.00  0.00    -0.273 OA
ATOM      6  H   UNL     1       2.839   5.321  -0.960  1.00  0.00     0.163 HD
BRANCH   4   7
ATOM      7  C   UNL     1      -0.336   4.249  -0.587  1.00  0.00     0.216 C 
BRANCH   7   8
ATOM      8  N   UNL     1      -0.924   3.700  -1.786  1.00  0.00    -0.345 N 
ATOM      9  C   UNL     1      -1.446   2.479  -2.056  1.00  0.00     0.243 C 
ATOM     10  O   UNL     1      -2.086   2.404  -3.114  1.00  0.00    -0.273 OA
ATOM     11  H   UNL     1      -0.950   4.327  -2.544  1.00  0.00     0.164 HD
BRANCH   9  12
ATOM     12  C   UNL     1      -1.233   1.194  -1.199  1.00  0.00     0.177 C 
BRANCH  12  13
ATOM     13  C   UNL     1      -1.721   1.144   0.283  1.00  0.00     0.015 C 
ATOM     14  C   UNL     1      -0.785   1.643   1.393  1.00  0.00     0.010 C 
ATOM     15  C   UNL     1      -3.108   1.762   0.459  1.00  0.00     0.010 C 
ENDBRANCH  12  13
BRANCH  12  16
ATOM     16  N   UNL     1       0.089   0.584  -1.362  1.00  0.00    -0.309 N 
ATOM     17  C   UNL     1       0.564  -0.023  -2.489  1.00  0.00     0.408 C 
ATOM     18  H   UNL     1       0.693   0.615  -0.585  1.00  0.00     0.167 HD
ATOM     19  O   UNL     1       1.502  -0.826  -2.385  1.00  0.00    -0.225 OA
BRANCH  17  20
ATOM     20  O   UNL     1      -0.012   0.359  -3.649  1.00  0.00    -0.445 OA
BRANCH  20  21
ATOM     21  C   UNL     1       0.421  -0.332  -4.842  1.00  0.00     0.270 C 
BRANCH  21  22
ATOM     22  C   UNL     1       0.858   0.568  -5.990  1.00  0.00    -0.011 A 
ATOM     23  C   UNL     1       1.037   0.013  -7.268  1.00  0.00     0.007 A 
ATOM     24  C   UNL     1       1.240   1.898  -5.806  1.00  0.00     0.007 A 
ATOM     25  C   UNL     1       1.663   0.739  -8.292  1.00  0.00     0.000 A 
ATOM     26  C   UNL     1       1.901   2.613  -6.814  1.00  0.00     0.000 A 
ATOM     27  C   UNL     1       2.138   2.023  -8.050  1.00  0.00     0.000 A 
ENDBRANCH  21  22
ENDBRANCH  20  21
ENDBRANCH  17  20
ENDBRANCH  12  16
ENDBRANCH   9  12
ENDBRANCH   7   8
ENDBRANCH   4   7
ENDBRANCH   2   3
ENDBRANCH   1   2
BRANCH   1  28
ATOM     28  C   UNL     1       3.712   3.236  -3.513  1.00  0.00     0.002 C 
BRANCH  28  29
ATOM     29  C   UNL     1       4.830   2.175  -3.456  1.00  0.00     0.002 C 
BRANCH  29  30
ATOM     30  C   UNL     1       4.506   0.682  -3.677  1.00  0.00     0.021 C 
BRANCH  30  31
ATOM     31  C   UNL     1       4.434   0.106  -5.104  1.00  0.00     0.116 C 
BRANCH  31  32
ATOM     32  N   UNL     1       5.650   0.222  -5.893  1.00  0.00    -0.352 N 
ATOM     33  C   UNL     1       6.136  -0.580  -6.907  1.00  0.00     0.251 C 
ATOM     34  H   UNL     1       6.216   0.995  -5.668  1.00  0.00     0.163 HD
ATOM     35  O   UNL     1       7.188  -0.260  -7.460  1.00  0.00    -0.269 OA
BRANCH  33  36
ATOM     36  C   UNL     1       5.455  -1.834  -7.339  1.00  0.00     0.039 A 
ATOM     37  C   UNL     1       6.215  -2.993  -7.521  1.00  0.00     0.014 A 
ATOM     38  C   UNL     1       4.098  -1.877  -7.657  1.00  0.00     0.014 A 
ATOM     39  C   UNL     1       5.606  -4.190  -7.938  1.00  0.00     0.010 A 
ATOM     40  C   UNL     1       3.478  -3.080  -8.043  1.00  0.00     0.010 A 
ATOM     41  C   UNL     1       4.218  -4.265  -8.164  1.00  0.00    -0.014 A 
BRANCH  41  42
ATOM     42  C   UNL     1       3.549  -5.588  -8.396  1.00  0.00     0.031 A 
ATOM     43  C   UNL     1       2.809  -5.923  -9.672  1.00  0.00     0.074 A 
ATOM     44  C   UNL     1       3.568  -6.507  -7.405  1.00  0.00     0.049 A 
ATOM     45  N   UNL     1       2.208  -7.041 -10.007  1.00  0.00    -0.248 NA
ATOM     46  C   UNL     1       2.712  -4.870 -10.694  1.00  0.00     0.031 C 
ATOM     47  C   UNL     1       4.178  -6.311  -6.087  1.00  0.00     0.029 A 
ATOM     48  N   UNL     1       3.066  -7.787  -7.344  1.00  0.00    -0.354 N 
ATOM     49  C   UNL     1       1.662  -6.831 -11.271  1.00  0.00     0.074 A 
ATOM     50  C   UNL     1       1.967  -5.458 -11.623  1.00  0.00     0.031 C 
ATOM     51  C   UNL     1       4.055  -7.438  -5.369  1.00  0.00     0.029 A 
ATOM     52  C   UNL     1       3.320  -8.427  -6.151  1.00  0.00     0.049 A 
ATOM     53  H   UNL     1       2.572  -8.207  -8.085  1.00  0.00     0.167 HD
ATOM     54  C   UNL     1       0.987  -7.696 -12.071  1.00  0.00     0.031 A 
ATOM     55  C   UNL     1       3.005  -9.665  -5.719  1.00  0.00     0.031 A 
ATOM     56  C   UNL     1       0.680  -9.066 -11.730  1.00  0.00     0.049 A 
ATOM     57  C   UNL     1       2.260 -10.606  -6.627  1.00  0.00     0.074 A 
ATOM     58  C   UNL     1       0.056 -10.027 -12.511  1.00  0.00     0.029 A 
ATOM     59  N   UNL     1       0.967  -9.672 -10.517  1.00  0.00    -0.354 N 
ATOM     60  N   UNL     1       1.836 -10.406  -7.851  1.00  0.00    -0.248 NA
ATOM     61  C   UNL     1       1.966 -11.947  -6.099  1.00  0.00     0.031 C 
ATOM     62  C   UNL     1      -0.082 -11.194 -11.753  1.00  0.00     0.029 A 
ATOM     63  C   UNL     1       0.514 -10.983 -10.522  1.00  0.00     0.049 A 
ATOM     64  H   UNL     1       1.425  -9.236  -9.763  1.00  0.00     0.167 HD
ATOM     65  C   UNL     1       1.254 -11.606  -8.248  1.00  0.00     0.074 A 
ATOM     66  C   UNL     1       1.395 -12.530  -7.144  1.00  0.00     0.031 C 
ATOM     67  C   UNL     1       0.657 -11.909  -9.427  1.00  0.00     0.031 A 
BRANCH  54  68
ATOM     68  C   UNL     1       0.532  -7.206 -13.427  1.00  0.00    -0.014 A 
ATOM     69  C   UNL     1       1.462  -6.963 -14.455  1.00  0.00     0.010 A 
ATOM     70  C   UNL     1      -0.842  -7.089 -13.714  1.00  0.00     0.010 A 
ATOM     71  C   UNL     1       1.030  -6.581 -15.729  1.00  0.00     0.020 A 
ATOM     72  C   UNL     1      -1.280  -6.735 -14.995  1.00  0.00     0.020 A 
ATOM     73  C   UNL     1      -0.339  -6.469 -15.992  1.00  0.00     0.054 A 
BRANCH  73  74
ATOM     74  S   UNL     1      -0.868  -6.009 -17.666  1.00  0.00     0.124 S 
ATOM     75  O   UNL     1      -0.481  -4.601 -17.727  1.00  0.00    -0.237 OA
ATOM     76  O   UNL     1      -0.086  -6.911 -18.508  1.00  0.00    -0.237 OA
ATOM     77  O   UNL     1      -2.307  -6.259 -17.659  1.00  0.00    -0.744 OA
ENDBRANCH  73  74
ENDBRANCH  54  68
BRANCH  55  78
ATOM     78  C   UNL     1       3.406 -10.101  -4.351  1.00  0.00    -0.014 A 
ATOM     79  C   UNL     1       4.386 -11.095  -4.175  1.00  0.00     0.010 A 
ATOM     80  C   UNL     1       2.801  -9.531  -3.217  1.00  0.00     0.010 A 
ATOM     81  C   UNL     1       4.729 -11.533  -2.892  1.00  0.00     0.020 A 
ATOM     82  C   UNL     1       3.165  -9.942  -1.932  1.00  0.00     0.020 A 
ATOM     83  C   UNL     1       4.114 -10.953  -1.778  1.00  0.00     0.054 A 
BRANCH  83  84
ATOM     84  S   UNL     1       4.594 -11.515  -0.121  1.00  0.00     0.124 S 
ATOM     85  O   UNL     1       3.947 -12.822  -0.046  1.00  0.00    -0.237 OA
ATOM     86  O   UNL     1       6.052 -11.533  -0.203  1.00  0.00    -0.237 OA
ATOM     87  O   UNL     1       4.040 -10.490   0.761  1.00  0.00    -0.744 OA
ENDBRANCH  83  84
ENDBRANCH  55  78
BRANCH  67  88
ATOM     88  C   UNL     1       0.145 -13.316  -9.611  1.00  0.00    -0.014 A 
ATOM     89  C   UNL     1      -0.987 -13.783  -8.919  1.00  0.00     0.010 A 
ATOM     90  C   UNL     1       0.784 -14.172 -10.527  1.00  0.00     0.010 A 
ATOM     91  C   UNL     1      -1.450 -15.088  -9.115  1.00  0.00     0.020 A 
ATOM     92  C   UNL     1       0.307 -15.468 -10.748  1.00  0.00     0.020 A 
ATOM     93  C   UNL     1      -0.800 -15.922 -10.030  1.00  0.00     0.054 A 
BRANCH  93  94
ATOM     94  S   UNL     1      -1.447 -17.596 -10.299  1.00  0.00     0.124 S 
ATOM     95  O   UNL     1      -1.054 -18.277  -9.068  1.00  0.00    -0.237 OA
ATOM     96  O   UNL     1      -2.880 -17.364 -10.458  1.00  0.00    -0.237 OA
ATOM     97  O   UNL     1      -0.757 -18.046 -11.506  1.00  0.00    -0.744 OA
ENDBRANCH  93  94
ENDBRANCH  67  88
ENDBRANCH  41  42
ENDBRANCH  33  36
ENDBRANCH  31  32
ENDBRANCH  30  31
ENDBRANCH  29  30
ENDBRANCH  28  29
ENDBRANCH   1  28
TORSDOF 23
