REMARK SMILES CN(C)C(=O)[C@@H]1CC=CC[C@H]1C(=O)N(c1ccccc1)c1ccccc1C(=O)NCCCCCCNC(=O)c1ccc(-c2c3nc(c(-c4ccc(S(=O)(=O)[O-])cc4)c4ccc([nH]4)c(-c4ccc(S(=O)(=O)[O-])cc4)c4nc(c(-c5ccc(S(=O)(=O)[O-])cc5)c5ccc2[nH]5)C=C4)C=C3)cc1
REMARK SMILES IDX 32 1 31 2 30 3 29 4 27 5 28 6 26 8 21 9 22 10 23 11 25 12
REMARK SMILES IDX 24 13 14 14 12 15 13 16 11 17 6 18 7 19 8 20 10 21 9 22 4 23
REMARK SMILES IDX 1 24 2 25 3 26 5 27 15 28 16 29 20 30 17 31 19 32 18 33
REMARK SMILES IDX 33 34 34 35 35 36 36 37 37 38 38 40 39 41 40 42 98 43 41 44
REMARK SMILES IDX 97 45 42 46 43 47 44 48 91 49 45 50 96 51 90 52 92 53 46 54
REMARK SMILES IDX 95 55 89 56 88 57 47 59 77 60 58 61 76 62 59 63 62 64 75 65
REMARK SMILES IDX 93 66 60 67 61 68 74 70 94 71 63 72 48 73 49 74 57 75 50 76
REMARK SMILES IDX 56 77 51 78 52 79 53 80 54 81 55 82 78 83 79 84 87 85 80 86
REMARK SMILES IDX 86 87 81 88 82 89 83 90 84 91 85 92 64 93 65 94 73 95 66 96
REMARK SMILES IDX 72 97 67 98 68 99 69 100 70 101 71 102
REMARK H PARENT 29 7 36 39 92 58 62 69
REMARK Flexibility Score: inf
ROOT
ATOM      1  C   UNL     1       4.186   1.267  -6.428  1.00  0.00     0.002 C 
ENDROOT
BRANCH   1   2
ATOM      2  C   UNL     1       4.227   0.320  -5.205  1.00  0.00     0.021 C 
BRANCH   2   3
ATOM      3  C   UNL     1       2.994  -0.462  -4.755  1.00  0.00     0.116 C 
BRANCH   3   4
ATOM      4  N   UNL     1       2.802  -1.778  -5.286  1.00  0.00    -0.352 N 
ATOM      5  C   UNL     1       2.120  -2.866  -4.784  1.00  0.00     0.253 C 
ATOM      6  O   UNL     1       1.865  -3.732  -5.635  1.00  0.00    -0.269 OA
ATOM      7  H   UNL     1       3.231  -1.933  -6.159  1.00  0.00     0.163 HD
BRANCH   5   8
ATOM      8  C   UNL     1       1.811  -3.205  -3.338  1.00  0.00     0.063 A 
ATOM      9  C   UNL     1       1.382  -2.451  -2.216  1.00  0.00     0.062 A 
ATOM     10  C   UNL     1       1.129  -3.159  -0.994  1.00  0.00     0.027 A 
ATOM     11  C   UNL     1       1.329  -4.526  -0.834  1.00  0.00     0.002 A 
ATOM     12  C   UNL     1       2.018  -4.606  -3.122  1.00  0.00     0.016 A 
ATOM     13  C   UNL     1       1.792  -5.255  -1.904  1.00  0.00     0.001 A 
BRANCH   9  14
ATOM     14  N   UNL     1       1.131  -1.026  -2.131  1.00  0.00    -0.280 N 
BRANCH  14  15
ATOM     15  C   UNL     1       0.397  -0.344  -3.107  1.00  0.00     0.235 C 
ATOM     16  O   UNL     1      -0.260  -0.954  -3.961  1.00  0.00    -0.274 OA
BRANCH  15  17
ATOM     17  C   UNL     1       0.498   1.218  -3.253  1.00  0.00     0.096 C 
ATOM     18  C   UNL     1      -0.700   2.027  -2.723  1.00  0.00     0.095 C 
ATOM     19  C   UNL     1      -0.507   3.549  -2.803  1.00  0.00     0.041 C 
ATOM     20  C   UNL     1       0.792   3.971  -2.191  1.00  0.00    -0.030 C 
ATOM     21  C   UNL     1       1.875   1.855  -2.910  1.00  0.00     0.041 C 
ATOM     22  C   UNL     1       1.873   3.187  -2.234  1.00  0.00    -0.030 C 
BRANCH  18  23
ATOM     23  C   UNL     1      -2.061   1.541  -3.222  1.00  0.00     0.226 C 
ATOM     24  C   UNL     1      -3.990   1.628  -4.694  1.00  0.00     0.146 C 
ATOM     25  N   UNL     1      -2.600   1.967  -4.423  1.00  0.00    -0.349 N 
ATOM     26  C   UNL     1      -1.928   2.691  -5.488  1.00  0.00     0.146 C 
ATOM     27  O   UNL     1      -2.676   0.756  -2.489  1.00  0.00    -0.275 OA
ENDBRANCH  18  23
ENDBRANCH  15  17
ENDBRANCH  14  15
BRANCH  14  28
ATOM     28  C   UNL     1       1.605  -0.413  -0.921  1.00  0.00     0.049 A 
ATOM     29  C   UNL     1       2.952  -0.568  -0.541  1.00  0.00     0.027 A 
ATOM     30  C   UNL     1       0.778   0.402  -0.147  1.00  0.00     0.027 A 
ATOM     31  C   UNL     1       3.482   0.193   0.503  1.00  0.00     0.002 A 
ATOM     32  C   UNL     1       1.310   1.170   0.889  1.00  0.00     0.002 A 
ATOM     33  C   UNL     1       2.667   1.085   1.196  1.00  0.00     0.000 A 
ENDBRANCH  14  28
ENDBRANCH   9  14
ENDBRANCH   5   8
ENDBRANCH   3   4
ENDBRANCH   2   3
ENDBRANCH   1   2
BRANCH   1  34
ATOM     34  C   UNL     1       2.905   1.913  -6.984  1.00  0.00     0.002 C 
BRANCH  34  35
ATOM     35  C   UNL     1       2.150   3.044  -6.261  1.00  0.00     0.021 C 
BRANCH  35  36
ATOM     36  C   UNL     1       2.910   4.158  -5.530  1.00  0.00     0.116 C 
BRANCH  36  37
ATOM     37  N   UNL     1       3.214   5.287  -6.387  1.00  0.00    -0.352 N 
ATOM     38  C   UNL     1       2.917   6.628  -6.277  1.00  0.00     0.251 C 
ATOM     39  H   UNL     1       3.726   5.053  -7.194  1.00  0.00     0.163 HD
ATOM     40  O   UNL     1       3.122   7.329  -7.270  1.00  0.00    -0.269 OA
BRANCH  38  41
ATOM     41  C   UNL     1       2.368   7.281  -5.045  1.00  0.00     0.039 A 
ATOM     42  C   UNL     1       1.570   8.423  -5.224  1.00  0.00     0.014 A 
ATOM     43  C   UNL     1       2.709   6.919  -3.738  1.00  0.00     0.014 A 
ATOM     44  C   UNL     1       1.128   9.182  -4.128  1.00  0.00     0.010 A 
ATOM     45  C   UNL     1       2.224   7.657  -2.634  1.00  0.00     0.010 A 
ATOM     46  C   UNL     1       1.445   8.812  -2.812  1.00  0.00    -0.014 A 
BRANCH  46  47
ATOM     47  C   UNL     1       0.966   9.659  -1.669  1.00  0.00     0.031 A 
ATOM     48  C   UNL     1       1.927  10.447  -0.806  1.00  0.00     0.074 A 
ATOM     49  C   UNL     1      -0.357   9.775  -1.421  1.00  0.00     0.049 A 
ATOM     50  N   UNL     1       1.664  11.345   0.116  1.00  0.00    -0.248 NA
ATOM     51  C   UNL     1       3.361  10.186  -0.987  1.00  0.00     0.031 C 
ATOM     52  C   UNL     1      -1.415   9.052  -2.127  1.00  0.00     0.029 A 
ATOM     53  N   UNL     1      -1.040  10.564  -0.521  1.00  0.00    -0.354 N 
ATOM     54  C   UNL     1       2.894  11.757   0.619  1.00  0.00     0.074 A 
ATOM     55  C   UNL     1       3.901  10.972  -0.065  1.00  0.00     0.031 C 
ATOM     56  C   UNL     1      -2.610   9.463  -1.671  1.00  0.00     0.029 A 
ATOM     57  C   UNL     1      -2.409  10.466  -0.627  1.00  0.00     0.049 A 
ATOM     58  H   UNL     1      -0.590  11.143   0.136  1.00  0.00     0.167 HD
ATOM     59  C   UNL     1       3.173  12.710   1.545  1.00  0.00     0.031 A 
ATOM     60  C   UNL     1      -3.398  11.119   0.017  1.00  0.00     0.031 A 
ATOM     61  C   UNL     1       2.187  13.503   2.237  1.00  0.00     0.049 A 
ATOM     62  C   UNL     1      -3.069  12.187   1.025  1.00  0.00     0.074 A 
ATOM     63  C   UNL     1       2.390  14.527   3.149  1.00  0.00     0.029 A 
ATOM     64  N   UNL     1       0.815  13.363   2.104  1.00  0.00    -0.354 N 
ATOM     65  N   UNL     1      -1.894  12.616   1.419  1.00  0.00    -0.248 NA
ATOM     66  C   UNL     1      -4.205  12.875   1.657  1.00  0.00     0.031 C 
ATOM     67  C   UNL     1       1.142  14.973   3.602  1.00  0.00     0.029 A 
ATOM     68  C   UNL     1       0.161  14.264   2.931  1.00  0.00     0.049 A 
ATOM     69  H   UNL     1       0.369  12.717   1.508  1.00  0.00     0.167 HD
ATOM     70  C   UNL     1      -2.151  13.640   2.326  1.00  0.00     0.074 A 
ATOM     71  C   UNL     1      -3.590  13.780   2.405  1.00  0.00     0.031 C 
ATOM     72  C   UNL     1      -1.270  14.396   3.028  1.00  0.00     0.031 A 
BRANCH  59  73
ATOM     73  C   UNL     1       4.625  12.956   1.875  1.00  0.00    -0.014 A 
ATOM     74  C   UNL     1       5.480  13.590   0.954  1.00  0.00     0.010 A 
ATOM     75  C   UNL     1       5.129  12.601   3.140  1.00  0.00     0.010 A 
ATOM     76  C   UNL     1       6.821  13.819   1.274  1.00  0.00     0.020 A 
ATOM     77  C   UNL     1       6.463  12.853   3.474  1.00  0.00     0.020 A 
ATOM     78  C   UNL     1       7.306  13.443   2.530  1.00  0.00     0.054 A 
BRANCH  78  79
ATOM     79  S   UNL     1       9.049  13.761   2.921  1.00  0.00     0.124 S 
ATOM     80  O   UNL     1       9.725  12.730   2.138  1.00  0.00    -0.237 OA
ATOM     81  O   UNL     1       9.240  15.131   2.454  1.00  0.00    -0.237 OA
ATOM     82  O   UNL     1       9.116  13.586   4.371  1.00  0.00    -0.744 OA
ENDBRANCH  78  79
ENDBRANCH  59  73
BRANCH  60  83
ATOM     83  C   UNL     1      -4.819  10.808  -0.305  1.00  0.00    -0.014 A 
ATOM     84  C   UNL     1      -5.609  11.725  -1.022  1.00  0.00     0.010 A 
ATOM     85  C   UNL     1      -5.388   9.588   0.105  1.00  0.00     0.010 A 
ATOM     86  C   UNL     1      -6.946  11.434  -1.310  1.00  0.00     0.020 A 
ATOM     87  C   UNL     1      -6.715   9.283  -0.205  1.00  0.00     0.020 A 
ATOM     88  C   UNL     1      -7.489  10.213  -0.902  1.00  0.00     0.054 A 
BRANCH  88  89
ATOM     89  S   UNL     1      -9.207   9.826  -1.343  1.00  0.00     0.124 S 
ATOM     90  O   UNL     1      -9.955  10.638  -0.389  1.00  0.00    -0.237 OA
ATOM     91  O   UNL     1      -9.281  10.257  -2.737  1.00  0.00    -0.237 OA
ATOM     92  O   UNL     1      -9.291   8.382  -1.141  1.00  0.00    -0.744 OA
ENDBRANCH  88  89
ENDBRANCH  60  83
BRANCH  72  93
ATOM     93  C   UNL     1      -1.840  15.461   3.932  1.00  0.00    -0.014 A 
ATOM     94  C   UNL     1      -2.531  15.128   5.111  1.00  0.00     0.010 A 
ATOM     95  C   UNL     1      -1.682  16.818   3.596  1.00  0.00     0.010 A 
ATOM     96  C   UNL     1      -3.103  16.127   5.905  1.00  0.00     0.020 A 
ATOM     97  C   UNL     1      -2.228  17.822   4.402  1.00  0.00     0.020 A 
ATOM     98  C   UNL     1      -2.957  17.468   5.539  1.00  0.00     0.054 A 
BRANCH  98  99
ATOM     99  S   UNL     1      -3.713  18.750   6.578  1.00  0.00     0.124 S 
ATOM    100  O   UNL     1      -5.120  18.659   6.196  1.00  0.00    -0.237 OA
ATOM    101  O   UNL     1      -3.400  18.296   7.931  1.00  0.00    -0.237 OA
ATOM    102  O   UNL     1      -3.033  19.975   6.166  1.00  0.00    -0.744 OA
ENDBRANCH  98  99
ENDBRANCH  72  93
ENDBRANCH  46  47
ENDBRANCH  38  41
ENDBRANCH  36  37
ENDBRANCH  35  36
ENDBRANCH  34  35
ENDBRANCH   1  34
TORSDOF 21
