REMARK SMILES C[C@H]1[C@@H](C(=O)NCCCCCCNC(=O)c2ccc(-c3c4nc(c(-c5ccc(S(=O)(=O)[O-])cc5)c5ccc([nH]5)c(-c5ccc(S(=O)(=O)[O-])cc5)c5nc(c(-c6ccc(S(=O)(=O)[O-])cc6)c6ccc3[nH]6)C=C5)C=C4)cc2)CCN1C(=O)c1cc2cc(F)ccc2s1
REMARK SMILES IDX 10 1 9 2 8 3 7 4 6 5 4 6 5 7 3 9 1 10 2 11 78 12 76 13 77 14
REMARK SMILES IDX 79 15 80 16 81 17 82 18 90 19 83 20 89 21 84 22 88 23 85 24
REMARK SMILES IDX 87 25 86 26 11 27 12 28 13 29 14 30 15 32 16 33 17 34 75 35
REMARK SMILES IDX 18 36 74 37 19 38 20 39 21 40 68 41 22 42 73 43 67 44 69 45
REMARK SMILES IDX 23 46 72 47 66 48 65 49 24 51 54 52 35 53 53 54 36 55 39 56
REMARK SMILES IDX 52 57 70 58 37 59 38 60 51 62 71 63 40 64 25 65 26 66 34 67
REMARK SMILES IDX 27 68 33 69 28 70 29 71 30 72 31 73 32 74 55 75 56 76 64 77
REMARK SMILES IDX 57 78 63 79 58 80 59 81 60 82 61 83 62 84 41 85 42 86 50 87
REMARK SMILES IDX 43 88 49 89 44 90 45 91 46 92 47 93 48 94
REMARK H PARENT 6 8 13 31 69 50 39 61
REMARK Flexibility Score: inf
ROOT
ATOM      1  C   UNL     1       5.736   2.096  -2.800  1.00  0.00     0.002 C 
ENDROOT
BRANCH   1   2
ATOM      2  C   UNL     1       4.437   1.413  -3.235  1.00  0.00     0.002 C 
BRANCH   2   3
ATOM      3  C   UNL     1       3.576   0.911  -2.075  1.00  0.00     0.021 C 
BRANCH   3   4
ATOM      4  C   UNL     1       2.768   2.014  -1.385  1.00  0.00     0.116 C 
BRANCH   4   5
ATOM      5  N   UNL     1       1.423   2.003  -1.920  1.00  0.00    -0.356 N 
ATOM      6  C   UNL     1       0.280   1.460  -1.425  1.00  0.00     0.225 C 
ATOM      7  O   UNL     1      -0.661   1.367  -2.217  1.00  0.00    -0.275 OA
ATOM      8  H   UNL     1       1.319   2.464  -2.784  1.00  0.00     0.163 HD
BRANCH   6   9
ATOM      9  C   UNL     1       0.140   1.117   0.064  1.00  0.00     0.102 C 
ATOM     10  C   UNL     1       1.869  -0.868   0.096  1.00  0.00     0.032 C 
ATOM     11  C   UNL     1       0.566  -0.276   0.586  1.00  0.00     0.094 C 
ATOM     12  N   UNL     1      -0.597  -1.152   0.400  1.00  0.00    -0.334 N 
ATOM     13  C   UNL     1      -1.364   1.073   0.404  1.00  0.00     0.037 C 
ATOM     14  C   UNL     1      -1.745  -0.349   0.011  1.00  0.00     0.121 C 
BRANCH  12  15
ATOM     15  C   UNL     1      -0.820  -2.158   1.338  1.00  0.00     0.264 C 
ATOM     16  O   UNL     1      -1.640  -1.997   2.243  1.00  0.00    -0.268 OA
BRANCH  15  17
ATOM     17  C   UNL     1      -0.093  -3.403   1.199  1.00  0.00     0.093 A 
ATOM     18  C   UNL     1       0.376  -4.186   2.233  1.00  0.00     0.034 A 
ATOM     19  S   UNL     1       0.036  -4.214  -0.296  1.00  0.00    -0.130 S 
ATOM     20  C   UNL     1       0.448  -5.567   1.865  1.00  0.00    -0.004 A 
ATOM     21  C   UNL     1       0.232  -5.739   0.493  1.00  0.00     0.035 A 
ATOM     22  C   UNL     1       0.588  -6.715   2.678  1.00  0.00     0.048 A 
ATOM     23  C   UNL     1       0.149  -7.022  -0.085  1.00  0.00     0.022 A 
ATOM     24  C   UNL     1       0.421  -7.976   2.115  1.00  0.00     0.123 A 
ATOM     25  C   UNL     1       0.203  -8.137   0.756  1.00  0.00     0.041 A 
ATOM     26  F   UNL     1       0.426  -9.052   2.913  1.00  0.00    -0.207 F 
ENDBRANCH  15  17
ENDBRANCH  12  15
ENDBRANCH   6   9
ENDBRANCH   4   5
ENDBRANCH   3   4
ENDBRANCH   2   3
ENDBRANCH   1   2
BRANCH   1  27
ATOM     27  C   UNL     1       6.649   1.262  -1.891  1.00  0.00     0.021 C 
BRANCH  27  28
ATOM     28  C   UNL     1       6.956  -0.151  -2.388  1.00  0.00     0.116 C 
BRANCH  28  29
ATOM     29  N   UNL     1       7.650  -0.140  -3.664  1.00  0.00    -0.352 N 
ATOM     30  C   UNL     1       8.928  -0.536  -3.970  1.00  0.00     0.251 C 
ATOM     31  H   UNL     1       7.125   0.204  -4.423  1.00  0.00     0.163 HD
ATOM     32  O   UNL     1       9.412  -0.242  -5.058  1.00  0.00    -0.269 OA
BRANCH  30  33
ATOM     33  C   UNL     1       9.725  -1.306  -2.989  1.00  0.00     0.039 A 
ATOM     34  C   UNL     1      11.054  -0.936  -2.765  1.00  0.00     0.014 A 
ATOM     35  C   UNL     1       9.183  -2.411  -2.327  1.00  0.00     0.014 A 
ATOM     36  C   UNL     1      11.825  -1.642  -1.838  1.00  0.00     0.010 A 
ATOM     37  C   UNL     1       9.937  -3.083  -1.365  1.00  0.00     0.010 A 
ATOM     38  C   UNL     1      11.265  -2.707  -1.114  1.00  0.00    -0.014 A 
BRANCH  38  39
ATOM     39  C   UNL     1      12.058  -3.442  -0.095  1.00  0.00     0.031 A 
ATOM     40  C   UNL     1      12.438  -4.879  -0.322  1.00  0.00     0.074 A 
ATOM     41  C   UNL     1      12.388  -2.832   1.060  1.00  0.00     0.049 A 
ATOM     42  N   UNL     1      13.073  -5.699   0.476  1.00  0.00    -0.248 NA
ATOM     43  C   UNL     1      12.034  -5.478  -1.604  1.00  0.00     0.031 C 
ATOM     44  C   UNL     1      12.051  -1.452   1.417  1.00  0.00     0.029 A 
ATOM     45  N   UNL     1      13.073  -3.300   2.153  1.00  0.00    -0.354 N 
ATOM     46  C   UNL     1      13.129  -6.914  -0.197  1.00  0.00     0.074 A 
ATOM     47  C   UNL     1      12.433  -6.733  -1.453  1.00  0.00     0.031 C 
ATOM     48  C   UNL     1      12.546  -1.181   2.635  1.00  0.00     0.029 A 
ATOM     49  C   UNL     1      13.206  -2.373   3.159  1.00  0.00     0.049 A 
ATOM     50  H   UNL     1      13.436  -4.214   2.210  1.00  0.00     0.167 HD
ATOM     51  C   UNL     1      13.717  -8.073   0.189  1.00  0.00     0.031 A 
ATOM     52  C   UNL     1      13.789  -2.471   4.369  1.00  0.00     0.031 A 
ATOM     53  C   UNL     1      14.422  -8.251   1.430  1.00  0.00     0.049 A 
ATOM     54  C   UNL     1      14.441  -3.764   4.773  1.00  0.00     0.074 A 
ATOM     55  C   UNL     1      15.095  -9.371   1.885  1.00  0.00     0.029 A 
ATOM     56  N   UNL     1      14.547  -7.282   2.413  1.00  0.00    -0.354 N 
ATOM     57  N   UNL     1      14.525  -4.887   4.101  1.00  0.00    -0.248 NA
ATOM     58  C   UNL     1      15.082  -3.799   6.094  1.00  0.00     0.031 C 
ATOM     59  C   UNL     1      15.599  -9.090   3.161  1.00  0.00     0.029 A 
ATOM     60  C   UNL     1      15.272  -7.782   3.481  1.00  0.00     0.049 A 
ATOM     61  H   UNL     1      14.174  -6.372   2.361  1.00  0.00     0.167 HD
ATOM     62  C   UNL     1      15.245  -5.757   4.911  1.00  0.00     0.074 A 
ATOM     63  C   UNL     1      15.582  -5.027   6.116  1.00  0.00     0.031 C 
ATOM     64  C   UNL     1      15.595  -7.045   4.676  1.00  0.00     0.031 A 
BRANCH  51  65
ATOM     65  C   UNL     1      13.611  -9.244  -0.750  1.00  0.00    -0.014 A 
ATOM     66  C   UNL     1      14.352  -9.282  -1.945  1.00  0.00     0.010 A 
ATOM     67  C   UNL     1      12.775 -10.327  -0.426  1.00  0.00     0.010 A 
ATOM     68  C   UNL     1      14.222 -10.361  -2.823  1.00  0.00     0.020 A 
ATOM     69  C   UNL     1      12.660 -11.419  -1.292  1.00  0.00     0.020 A 
ATOM     70  C   UNL     1      13.369 -11.419  -2.495  1.00  0.00     0.054 A 
BRANCH  70  71
ATOM     71  S   UNL     1      13.217 -12.810  -3.650  1.00  0.00     0.124 S 
ATOM     72  O   UNL     1      12.332 -12.255  -4.671  1.00  0.00    -0.237 OA
ATOM     73  O   UNL     1      14.598 -13.034  -4.071  1.00  0.00    -0.237 OA
ATOM     74  O   UNL     1      12.639 -13.874  -2.833  1.00  0.00    -0.744 OA
ENDBRANCH  70  71
ENDBRANCH  51  65
BRANCH  52  75
ATOM     75  C   UNL     1      13.797  -1.297   5.279  1.00  0.00    -0.014 A 
ATOM     76  C   UNL     1      14.973  -0.550   5.463  1.00  0.00     0.010 A 
ATOM     77  C   UNL     1      12.622  -0.903   5.944  1.00  0.00     0.010 A 
ATOM     78  C   UNL     1      14.977   0.568   6.302  1.00  0.00     0.020 A 
ATOM     79  C   UNL     1      12.617   0.225   6.768  1.00  0.00     0.020 A 
ATOM     80  C   UNL     1      13.797   0.949   6.949  1.00  0.00     0.054 A 
BRANCH  80  81
ATOM     81  S   UNL     1      13.803   2.444   7.977  1.00  0.00     0.124 S 
ATOM     82  O   UNL     1      14.422   1.964   9.207  1.00  0.00    -0.237 OA
ATOM     83  O   UNL     1      14.603   3.374   7.185  1.00  0.00    -0.237 OA
ATOM     84  O   UNL     1      12.385   2.789   8.079  1.00  0.00    -0.744 OA
ENDBRANCH  80  81
ENDBRANCH  52  75
BRANCH  64  85
ATOM     85  C   UNL     1      16.403  -7.742   5.735  1.00  0.00    -0.014 A 
ATOM     86  C   UNL     1      15.799  -8.202   6.919  1.00  0.00     0.010 A 
ATOM     87  C   UNL     1      17.771  -7.984   5.520  1.00  0.00     0.010 A 
ATOM     88  C   UNL     1      16.558  -8.869   7.883  1.00  0.00     0.020 A 
ATOM     89  C   UNL     1      18.529  -8.669   6.474  1.00  0.00     0.020 A 
ATOM     90  C   UNL     1      17.920  -9.096   7.656  1.00  0.00     0.054 A 
BRANCH  90  91
ATOM     91  S   UNL     1      18.878 -10.004   8.901  1.00  0.00     0.124 S 
ATOM     92  O   UNL     1      19.116  -8.975   9.909  1.00  0.00    -0.237 OA
ATOM     93  O   UNL     1      17.964 -11.073   9.297  1.00  0.00    -0.237 OA
ATOM     94  O   UNL     1      20.062 -10.446   8.168  1.00  0.00    -0.744 OA
ENDBRANCH  90  91
ENDBRANCH  64  85
ENDBRANCH  38  39
ENDBRANCH  30  33
ENDBRANCH  28  29
ENDBRANCH  27  28
ENDBRANCH   1  27
TORSDOF 18
