REMARK SMILES O=C(NCCCCCCNC(=O)c1ccc(-c2c3nc(c(-c4ccc(S(=O)(=O)[O-])cc4)c4ccc([nH]4)c(-c4ccc(S(=O)(=O)[O-])cc4)c4nc(c(-c5ccc(S(=O)(=O)[O-])cc5)c5ccc2[nH]5)C=C4)C=C3)cc1)C1=Cc2c(ccc(Cl)c2Oc2ccccc2)O[C@H]1C(F)(F)F
REMARK SMILES IDX 7 1 6 2 5 3 4 4 3 5 1 6 2 7 73 9 74 10 90 11 75 12 89 13
REMARK SMILES IDX 76 14 81 15 77 16 79 17 78 18 80 19 91 20 92 21 93 22 94 23
REMARK SMILES IDX 82 24 83 25 84 26 88 27 85 28 87 29 86 30 8 31 9 32 10 33
REMARK SMILES IDX 11 34 12 36 13 37 14 38 72 39 15 40 71 41 16 42 17 43 18 44
REMARK SMILES IDX 65 45 19 46 70 47 64 48 66 49 20 50 69 51 63 52 62 53 21 55
REMARK SMILES IDX 51 56 32 57 50 58 33 59 36 60 49 61 67 62 34 63 35 64 48 66
REMARK SMILES IDX 68 67 37 68 22 69 23 70 31 71 24 72 30 73 25 74 26 75 27 76
REMARK SMILES IDX 28 77 29 78 52 79 53 80 61 81 54 82 60 83 55 84 56 85 57 86
REMARK SMILES IDX 58 87 59 88 38 89 39 90 47 91 40 92 46 93 41 94 42 95 43 96
REMARK SMILES IDX 44 97 45 98
REMARK H PARENT 3 8 10 35 66 54 36 65
REMARK Flexibility Score: inf
ROOT
ATOM      1  C   UNL     1       4.239   1.647   4.238  1.00  0.00     0.002 C 
ENDROOT
BRANCH   1   2
ATOM      2  C   UNL     1       3.679   2.825   3.429  1.00  0.00     0.002 C 
BRANCH   2   3
ATOM      3  C   UNL     1       4.127   2.941   1.969  1.00  0.00     0.021 C 
BRANCH   3   4
ATOM      4  C   UNL     1       3.789   1.746   1.081  1.00  0.00     0.116 C 
BRANCH   4   5
ATOM      5  N   UNL     1       2.617   1.957   0.242  1.00  0.00    -0.352 N 
ATOM      6  O   UNL     1       1.351   1.763  -1.620  1.00  0.00    -0.270 OA
ATOM      7  C   UNL     1       2.341   1.419  -0.989  1.00  0.00     0.251 C 
ATOM      8  H   UNL     1       1.934   2.565   0.606  1.00  0.00     0.163 HD
BRANCH   7   9
ATOM      9  C   UNL     1       3.272   0.423  -1.563  1.00  0.00     0.067 C 
ATOM     10  C   UNL     1       3.370  -0.742  -0.915  1.00  0.00     0.029 C 
ATOM     11  C   UNL     1       4.364   0.915  -2.457  1.00  0.00     0.314 C 
ATOM     12  C   UNL     1       4.718  -1.068  -0.415  1.00  0.00     0.061 A 
ATOM     13  O   UNL     1       5.693   0.512  -2.026  1.00  0.00    -0.475 OA
ATOM     14  C   UNL     1       5.806  -0.383  -0.991  1.00  0.00     0.131 A 
ATOM     15  C   UNL     1       4.920  -1.879   0.727  1.00  0.00     0.156 A 
ATOM     16  C   UNL     1       7.085  -0.506  -0.451  1.00  0.00     0.049 A 
ATOM     17  C   UNL     1       6.212  -1.956   1.278  1.00  0.00     0.084 A 
ATOM     18  C   UNL     1       7.286  -1.281   0.690  1.00  0.00     0.028 A 
ATOM     19  Cl  UNL     1       6.516  -2.829   2.739  1.00  0.00    -0.080 Cl
BRANCH  11  20
ATOM     20  C   UNL     1       4.124   0.446  -3.901  1.00  0.00     0.429 C 
ATOM     21  F   UNL     1       2.874   0.735  -4.332  1.00  0.00    -0.167 F 
ATOM     22  F   UNL     1       4.982   1.046  -4.760  1.00  0.00    -0.167 F 
ATOM     23  F   UNL     1       4.291  -0.893  -4.034  1.00  0.00    -0.167 F 
ENDBRANCH  11  20
BRANCH  15  24
ATOM     24  O   UNL     1       3.920  -2.496   1.471  1.00  0.00    -0.455 OA
BRANCH  24  25
ATOM     25  C   UNL     1       2.791  -2.944   0.836  1.00  0.00     0.127 A 
ATOM     26  C   UNL     1       1.582  -2.305   1.129  1.00  0.00     0.047 A 
ATOM     27  C   UNL     1       2.836  -3.991  -0.085  1.00  0.00     0.047 A 
ATOM     28  C   UNL     1       0.431  -2.648   0.421  1.00  0.00     0.004 A 
ATOM     29  C   UNL     1       1.677  -4.340  -0.782  1.00  0.00     0.004 A 
ATOM     30  C   UNL     1       0.482  -3.657  -0.542  1.00  0.00     0.000 A 
ENDBRANCH  24  25
ENDBRANCH  15  24
ENDBRANCH   7   9
ENDBRANCH   4   5
ENDBRANCH   3   4
ENDBRANCH   2   3
ENDBRANCH   1   2
BRANCH   1  31
ATOM     31  C   UNL     1       5.747   1.385   4.156  1.00  0.00     0.021 C 
BRANCH  31  32
ATOM     32  C   UNL     1       6.677   2.553   4.487  1.00  0.00     0.116 C 
BRANCH  32  33
ATOM     33  N   UNL     1       6.498   3.078   5.827  1.00  0.00    -0.352 N 
ATOM     34  C   UNL     1       7.424   3.453   6.771  1.00  0.00     0.251 C 
ATOM     35  H   UNL     1       5.560   3.181   6.107  1.00  0.00     0.163 HD
ATOM     36  O   UNL     1       7.025   3.811   7.879  1.00  0.00    -0.269 OA
BRANCH  34  37
ATOM     37  C   UNL     1       8.886   3.409   6.504  1.00  0.00     0.039 A 
ATOM     38  C   UNL     1       9.730   2.984   7.539  1.00  0.00     0.014 A 
ATOM     39  C   UNL     1       9.447   3.827   5.294  1.00  0.00     0.014 A 
ATOM     40  C   UNL     1      11.114   2.921   7.345  1.00  0.00     0.010 A 
ATOM     41  C   UNL     1      10.827   3.721   5.084  1.00  0.00     0.010 A 
ATOM     42  C   UNL     1      11.675   3.264   6.106  1.00  0.00    -0.014 A 
BRANCH  42  43
ATOM     43  C   UNL     1      13.138   3.144   5.867  1.00  0.00     0.031 A 
ATOM     44  C   UNL     1      13.988   4.371   5.674  1.00  0.00     0.074 A 
ATOM     45  C   UNL     1      13.706   1.925   5.783  1.00  0.00     0.049 A 
ATOM     46  N   UNL     1      15.263   4.454   5.388  1.00  0.00    -0.248 NA
ATOM     47  C   UNL     1      13.314   5.672   5.805  1.00  0.00     0.031 C 
ATOM     48  C   UNL     1      13.001   0.650   5.929  1.00  0.00     0.029 A 
ATOM     49  N   UNL     1      15.008   1.560   5.547  1.00  0.00    -0.354 N 
ATOM     50  C   UNL     1      15.542   5.811   5.282  1.00  0.00     0.074 A 
ATOM     51  C   UNL     1      14.297   6.514   5.515  1.00  0.00     0.031 C 
ATOM     52  C   UNL     1      13.882  -0.356   5.797  1.00  0.00     0.029 A 
ATOM     53  C   UNL     1      15.206   0.200   5.528  1.00  0.00     0.049 A 
ATOM     54  H   UNL     1      15.733   2.211   5.404  1.00  0.00     0.167 HD
ATOM     55  C   UNL     1      16.724   6.421   5.024  1.00  0.00     0.031 A 
ATOM     56  C   UNL     1      16.322  -0.523   5.315  1.00  0.00     0.031 A 
ATOM     57  C   UNL     1      17.971   5.735   4.808  1.00  0.00     0.049 A 
ATOM     58  C   UNL     1      17.625   0.173   5.052  1.00  0.00     0.074 A 
ATOM     59  C   UNL     1      19.221   6.277   4.559  1.00  0.00     0.029 A 
ATOM     60  N   UNL     1      18.129   4.359   4.824  1.00  0.00    -0.354 N 
ATOM     61  N   UNL     1      17.867   1.458   4.967  1.00  0.00    -0.248 NA
ATOM     62  C   UNL     1      18.808  -0.680   4.863  1.00  0.00     0.031 C 
ATOM     63  C   UNL     1      20.133   5.225   4.407  1.00  0.00     0.029 A 
ATOM     64  C   UNL     1      19.454   4.032   4.588  1.00  0.00     0.049 A 
ATOM     65  H   UNL     1      17.406   3.709   4.981  1.00  0.00     0.167 HD
ATOM     66  C   UNL     1      19.232   1.570   4.727  1.00  0.00     0.074 A 
ATOM     67  C   UNL     1      19.765   0.223   4.691  1.00  0.00     0.031 C 
ATOM     68  C   UNL     1      19.974   2.690   4.553  1.00  0.00     0.031 A 
BRANCH  55  69
ATOM     69  C   UNL     1      16.715   7.922   4.950  1.00  0.00    -0.014 A 
ATOM     70  C   UNL     1      16.652   8.700   6.119  1.00  0.00     0.010 A 
ATOM     71  C   UNL     1      16.782   8.561   3.699  1.00  0.00     0.010 A 
ATOM     72  C   UNL     1      16.609  10.095   6.036  1.00  0.00     0.020 A 
ATOM     73  C   UNL     1      16.757   9.956   3.614  1.00  0.00     0.020 A 
ATOM     74  C   UNL     1      16.648  10.713   4.783  1.00  0.00     0.054 A 
BRANCH  74  75
ATOM     75  S   UNL     1      16.582  12.524   4.691  1.00  0.00     0.124 S 
ATOM     76  O   UNL     1      15.148  12.776   4.806  1.00  0.00    -0.237 OA
ATOM     77  O   UNL     1      17.386  12.939   5.838  1.00  0.00    -0.237 OA
ATOM     78  O   UNL     1      17.167  12.822   3.386  1.00  0.00    -0.744 OA
ENDBRANCH  74  75
ENDBRANCH  55  69
BRANCH  56  79
ATOM     79  C   UNL     1      16.251  -2.006   5.359  1.00  0.00    -0.014 A 
ATOM     80  C   UNL     1      16.691  -2.702   6.497  1.00  0.00     0.010 A 
ATOM     81  C   UNL     1      15.713  -2.724   4.276  1.00  0.00     0.010 A 
ATOM     82  C   UNL     1      16.596  -4.095   6.553  1.00  0.00     0.020 A 
ATOM     83  C   UNL     1      15.602  -4.115   4.335  1.00  0.00     0.020 A 
ATOM     84  C   UNL     1      16.051  -4.793   5.471  1.00  0.00     0.054 A 
BRANCH  84  85
ATOM     85  S   UNL     1      15.861  -6.594   5.587  1.00  0.00     0.124 S 
ATOM     86  O   UNL     1      17.191  -7.063   5.214  1.00  0.00    -0.237 OA
ATOM     87  O   UNL     1      15.489  -6.790   6.986  1.00  0.00    -0.237 OA
ATOM     88  O   UNL     1      14.799  -6.881   4.625  1.00  0.00    -0.744 OA
ENDBRANCH  84  85
ENDBRANCH  56  79
BRANCH  68  89
ATOM     89  C   UNL     1      21.448   2.510   4.325  1.00  0.00    -0.014 A 
ATOM     90  C   UNL     1      21.942   2.138   3.063  1.00  0.00     0.010 A 
ATOM     91  C   UNL     1      22.351   2.760   5.374  1.00  0.00     0.010 A 
ATOM     92  C   UNL     1      23.318   1.997   2.858  1.00  0.00     0.020 A 
ATOM     93  C   UNL     1      23.727   2.634   5.168  1.00  0.00     0.020 A 
ATOM     94  C   UNL     1      24.202   2.241   3.914  1.00  0.00     0.054 A 
BRANCH  94  95
ATOM     95  S   UNL     1      25.987   2.099   3.621  1.00  0.00     0.124 S 
ATOM     96  O   UNL     1      26.201   0.660   3.745  1.00  0.00    -0.237 OA
ATOM     97  O   UNL     1      26.142   2.643   2.274  1.00  0.00    -0.237 OA
ATOM     98  O   UNL     1      26.574   2.912   4.684  1.00  0.00    -0.744 OA
ENDBRANCH  94  95
ENDBRANCH  68  89
ENDBRANCH  42  43
ENDBRANCH  34  37
ENDBRANCH  32  33
ENDBRANCH  31  32
ENDBRANCH   1  31
TORSDOF 19
