REMARK SMILES Cc1nn(-c2ccccc2)c(C)c1CNC(=O)[C@@H]1[C@@H](C(=O)NCCCCCCNC(=O)c2ccc(-c3c4nc(c(-c5ccc(S(=O)(=O)[O-])cc5)c5ccc([nH]5)c(-c5ccc(S(=O)(=O)[O-])cc5)c5nc(c(-c6ccc(S(=O)(=O)[O-])cc6)c6ccc3[nH]6)C=C5)C=C4)cc2)[C@@H]2C=C[C@H]1C2
REMARK SMILES IDX 25 1 24 2 23 3 22 4 20 5 21 6 19 8 18 9 95 10 92 11 94 12
REMARK SMILES IDX 96 13 93 14 16 15 15 16 17 18 14 19 13 20 1 21 2 22 3 23
REMARK SMILES IDX 4 24 11 25 12 26 5 27 6 28 10 29 7 30 9 31 8 32 26 33 27 34
REMARK SMILES IDX 28 35 29 36 30 37 31 39 32 40 33 41 91 42 34 43 90 44 35 45
REMARK SMILES IDX 36 46 37 47 84 48 38 49 89 50 83 51 85 52 39 53 88 54 82 55
REMARK SMILES IDX 81 56 40 58 70 59 51 60 69 61 52 62 55 63 68 64 86 65 53 66
REMARK SMILES IDX 54 67 67 69 87 70 56 71 41 72 42 73 50 74 43 75 49 76 44 77
REMARK SMILES IDX 45 78 46 79 47 80 48 81 71 82 72 83 80 84 73 85 79 86 74 87
REMARK SMILES IDX 75 88 76 89 77 90 78 91 57 92 58 93 66 94 59 95 65 96 60 97
REMARK SMILES IDX 61 98 62 99 63 100 64 101
REMARK H PARENT 22 7 15 17 29 38 85 57 55 68
REMARK Flexibility Score: inf
ROOT
ATOM      1  C   UNL     1       6.414  10.488  -2.607  1.00  0.00     0.002 C 
ENDROOT
BRANCH   1   2
ATOM      2  C   UNL     1       5.121   9.650  -2.476  1.00  0.00     0.021 C 
BRANCH   2   3
ATOM      3  C   UNL     1       5.158   8.212  -3.040  1.00  0.00     0.116 C 
BRANCH   3   4
ATOM      4  N   UNL     1       6.362   7.534  -2.608  1.00  0.00    -0.356 N 
ATOM      5  C   UNL     1       6.518   6.494  -1.760  1.00  0.00     0.224 C 
ATOM      6  O   UNL     1       7.411   6.648  -0.920  1.00  0.00    -0.275 OA
ATOM      7  H   UNL     1       7.197   7.885  -2.994  1.00  0.00     0.163 HD
BRANCH   5   8
ATOM      8  C   UNL     1       5.837   5.140  -1.997  1.00  0.00     0.098 C 
ATOM      9  C   UNL     1       4.478   4.818  -1.252  1.00  0.00     0.098 C 
ATOM     10  C   UNL     1       4.896   3.694  -0.265  1.00  0.00     0.025 C 
ATOM     11  C   UNL     1       6.803   4.106  -1.334  1.00  0.00     0.025 C 
ATOM     12  C   UNL     1       5.282   2.436  -1.026  1.00  0.00    -0.027 C 
ATOM     13  C   UNL     1       6.304   4.126   0.120  1.00  0.00     0.017 C 
ATOM     14  C   UNL     1       6.398   2.707  -1.708  1.00  0.00    -0.027 C 
BRANCH   9  15
ATOM     15  C   UNL     1       3.349   4.506  -2.252  1.00  0.00     0.224 C 
ATOM     16  N   UNL     1       2.325   3.634  -2.038  1.00  0.00    -0.352 N 
ATOM     17  H   UNL     1       1.576   3.765  -2.664  1.00  0.00     0.163 HD
ATOM     18  O   UNL     1       3.277   5.162  -3.301  1.00  0.00    -0.275 OA
BRANCH  16  19
ATOM     19  C   UNL     1       2.089   2.556  -1.095  1.00  0.00     0.155 C 
BRANCH  19  20
ATOM     20  C   UNL     1       0.885   2.760  -0.254  1.00  0.00     0.016 A 
ATOM     21  C   UNL     1       0.404   0.265   0.377  1.00  0.00     0.069 C 
ATOM     22  C   UNL     1       0.162   1.732   0.421  1.00  0.00     0.065 A 
ATOM     23  N   UNL     1      -0.780   2.227   1.229  1.00  0.00    -0.173 NA
ATOM     24  N   UNL     1      -0.752   3.563   1.007  1.00  0.00    -0.237 N 
ATOM     25  C   UNL     1       0.338   3.931   0.236  1.00  0.00     0.046 A 
ATOM     26  C   UNL     1       0.828   5.336   0.154  1.00  0.00     0.067 C 
BRANCH  24  27
ATOM     27  C   UNL     1      -1.710   4.426   1.581  1.00  0.00     0.065 A 
ATOM     28  C   UNL     1      -2.084   4.256   2.916  1.00  0.00     0.028 A 
ATOM     29  C   UNL     1      -2.210   5.497   0.828  1.00  0.00     0.028 A 
ATOM     30  C   UNL     1      -2.890   5.222   3.519  1.00  0.00     0.002 A 
ATOM     31  C   UNL     1      -3.042   6.435   1.429  1.00  0.00     0.002 A 
ATOM     32  C   UNL     1      -3.361   6.310   2.780  1.00  0.00     0.000 A 
ENDBRANCH  24  27
ENDBRANCH  19  20
ENDBRANCH  16  19
ENDBRANCH   9  15
ENDBRANCH   5   8
ENDBRANCH   3   4
ENDBRANCH   2   3
ENDBRANCH   1   2
BRANCH   1  33
ATOM     33  C   UNL     1       7.050  10.587  -4.003  1.00  0.00     0.002 C 
BRANCH  33  34
ATOM     34  C   UNL     1       6.222  11.285  -5.089  1.00  0.00     0.021 C 
BRANCH  34  35
ATOM     35  C   UNL     1       5.977  12.768  -4.847  1.00  0.00     0.116 C 
BRANCH  35  36
ATOM     36  N   UNL     1       7.194  13.593  -4.926  1.00  0.00    -0.352 N 
ATOM     37  C   UNL     1       7.338  14.951  -4.676  1.00  0.00     0.251 C 
ATOM     38  H   UNL     1       8.015  13.119  -5.191  1.00  0.00     0.163 HD
ATOM     39  O   UNL     1       8.283  15.582  -5.155  1.00  0.00    -0.269 OA
BRANCH  37  40
ATOM     40  C   UNL     1       6.354  15.625  -3.811  1.00  0.00     0.039 A 
ATOM     41  C   UNL     1       5.941  16.954  -3.969  1.00  0.00     0.014 A 
ATOM     42  C   UNL     1       5.813  14.845  -2.801  1.00  0.00     0.014 A 
ATOM     43  C   UNL     1       4.944  17.451  -3.123  1.00  0.00     0.010 A 
ATOM     44  C   UNL     1       4.652  15.226  -2.209  1.00  0.00     0.010 A 
ATOM     45  C   UNL     1       4.310  16.567  -2.242  1.00  0.00    -0.014 A 
BRANCH  45  46
ATOM     46  C   UNL     1       3.240  16.932  -1.326  1.00  0.00     0.031 A 
ATOM     47  C   UNL     1       1.961  17.263  -1.992  1.00  0.00     0.074 A 
ATOM     48  C   UNL     1       3.318  16.612  -0.011  1.00  0.00     0.049 A 
ATOM     49  N   UNL     1       1.410  18.424  -2.111  1.00  0.00    -0.248 NA
ATOM     50  C   UNL     1       1.304  16.206  -2.781  1.00  0.00     0.031 C 
ATOM     51  C   UNL     1       4.415  15.912   0.683  1.00  0.00     0.029 A 
ATOM     52  N   UNL     1       2.371  16.698   0.959  1.00  0.00    -0.354 N 
ATOM     53  C   UNL     1       0.203  18.189  -2.760  1.00  0.00     0.074 A 
ATOM     54  C   UNL     1       0.333  16.897  -3.380  1.00  0.00     0.031 C 
ATOM     55  C   UNL     1       3.977  15.442   1.873  1.00  0.00     0.029 A 
ATOM     56  C   UNL     1       2.636  15.945   2.102  1.00  0.00     0.049 A 
ATOM     57  H   UNL     1       1.561  17.250   0.862  1.00  0.00     0.167 HD
ATOM     58  C   UNL     1      -0.916  18.909  -2.459  1.00  0.00     0.031 A 
ATOM     59  C   UNL     1       1.802  15.728   3.151  1.00  0.00     0.031 A 
ATOM     60  C   UNL     1      -0.598  20.029  -1.605  1.00  0.00     0.049 A 
ATOM     61  C   UNL     1       0.761  16.781   3.094  1.00  0.00     0.074 A 
ATOM     62  C   UNL     1       0.208  21.144  -1.707  1.00  0.00     0.029 A 
ATOM     63  N   UNL     1      -0.843  19.846  -0.262  1.00  0.00    -0.354 N 
ATOM     64  N   UNL     1       1.020  18.049   3.254  1.00  0.00    -0.248 NA
ATOM     65  C   UNL     1      -0.485  16.487   2.405  1.00  0.00     0.031 C 
ATOM     66  C   UNL     1       0.756  21.326  -0.403  1.00  0.00     0.029 A 
ATOM     67  C   UNL     1       0.204  20.367   0.451  1.00  0.00     0.049 A 
ATOM     68  H   UNL     1      -1.639  19.412   0.122  1.00  0.00     0.167 HD
ATOM     69  C   UNL     1       0.230  18.694   2.313  1.00  0.00     0.074 A 
ATOM     70  C   UNL     1      -0.765  17.700   1.917  1.00  0.00     0.031 C 
ATOM     71  C   UNL     1       0.642  19.864   1.739  1.00  0.00     0.031 A 
BRANCH  58  72
ATOM     72  C   UNL     1      -2.326  18.362  -2.534  1.00  0.00    -0.014 A 
ATOM     73  C   UNL     1      -3.394  19.219  -2.198  1.00  0.00     0.010 A 
ATOM     74  C   UNL     1      -2.629  16.990  -2.651  1.00  0.00     0.010 A 
ATOM     75  C   UNL     1      -4.668  18.717  -1.901  1.00  0.00     0.020 A 
ATOM     76  C   UNL     1      -3.905  16.483  -2.402  1.00  0.00     0.020 A 
ATOM     77  C   UNL     1      -4.907  17.346  -1.987  1.00  0.00     0.054 A 
BRANCH  77  78
ATOM     78  S   UNL     1      -6.513  16.689  -1.478  1.00  0.00     0.124 S 
ATOM     79  O   UNL     1      -6.513  16.979  -0.048  1.00  0.00    -0.237 OA
ATOM     80  O   UNL     1      -7.439  17.476  -2.287  1.00  0.00    -0.237 OA
ATOM     81  O   UNL     1      -6.429  15.274  -1.831  1.00  0.00    -0.744 OA
ENDBRANCH  77  78
ENDBRANCH  58  72
BRANCH  59  82
ATOM     82  C   UNL     1       1.696  14.537   4.033  1.00  0.00    -0.014 A 
ATOM     83  C   UNL     1       1.051  14.596   5.283  1.00  0.00     0.010 A 
ATOM     84  C   UNL     1       1.996  13.260   3.515  1.00  0.00     0.010 A 
ATOM     85  C   UNL     1       0.672  13.422   5.963  1.00  0.00     0.020 A 
ATOM     86  C   UNL     1       1.624  12.087   4.186  1.00  0.00     0.020 A 
ATOM     87  C   UNL     1       0.944  12.173   5.398  1.00  0.00     0.054 A 
BRANCH  87  88
ATOM     88  S   UNL     1       0.307  10.665   6.195  1.00  0.00     0.124 S 
ATOM     89  O   UNL     1       1.118  10.585   7.406  1.00  0.00    -0.237 OA
ATOM     90  O   UNL     1      -1.103  10.982   6.398  1.00  0.00    -0.237 OA
ATOM     91  O   UNL     1       0.566   9.619   5.206  1.00  0.00    -0.744 OA
ENDBRANCH  87  88
ENDBRANCH  59  82
BRANCH  71  92
ATOM     92  C   UNL     1       1.797  20.598   2.386  1.00  0.00    -0.014 A 
ATOM     93  C   UNL     1       3.108  20.087   2.473  1.00  0.00     0.010 A 
ATOM     94  C   UNL     1       1.566  21.921   2.799  1.00  0.00     0.010 A 
ATOM     95  C   UNL     1       4.152  20.874   2.987  1.00  0.00     0.020 A 
ATOM     96  C   UNL     1       2.603  22.714   3.294  1.00  0.00     0.020 A 
ATOM     97  C   UNL     1       3.889  22.184   3.396  1.00  0.00     0.054 A 
BRANCH  97  98
ATOM     98  S   UNL     1       5.244  23.214   4.029  1.00  0.00     0.124 S 
ATOM     99  O   UNL     1       5.551  22.582   5.309  1.00  0.00    -0.237 OA
ATOM    100  O   UNL     1       6.268  23.076   2.996  1.00  0.00    -0.237 OA
ATOM    101  O   UNL     1       4.651  24.547   4.126  1.00  0.00    -0.744 OA
ENDBRANCH  97  98
ENDBRANCH  71  92
ENDBRANCH  45  46
ENDBRANCH  37  40
ENDBRANCH  35  36
ENDBRANCH  34  35
ENDBRANCH  33  34
ENDBRANCH   1  33
TORSDOF 20
