REMARK SMILES COCc1cccc(C(=O)N2C[C@@H](O)C[C@@H]2C(=O)NCCCCCCNC(=O)c2ccc(-c3c4nc(c(-c5ccc(S(=O)(=O)[O-])cc5)c5ccc([nH]5)c(-c5ccc(S(=O)(=O)[O-])cc5)c5nc(c(-c6ccc(S(=O)(=O)[O-])cc6)c6ccc3[nH]6)C=C5)C=C4)cc2)c1
REMARK SMILES IDX 22 1 21 2 20 3 19 4 17 5 18 6 16 8 11 9 12 10 13 11 15 12
REMARK SMILES IDX 9 13 10 14 8 15 4 16 5 17 89 18 6 19 7 20 3 21 2 22 1 23
REMARK SMILES IDX 14 24 23 26 24 27 25 28 26 29 27 30 28 32 29 33 30 34 88 35
REMARK SMILES IDX 31 36 87 37 32 38 33 39 34 40 81 41 35 42 86 43 80 44 82 45
REMARK SMILES IDX 36 46 85 47 79 48 78 49 37 51 67 52 48 53 66 54 49 55 52 56
REMARK SMILES IDX 65 57 83 58 50 59 51 60 64 62 84 63 53 64 38 65 39 66 47 67
REMARK SMILES IDX 40 68 46 69 41 70 42 71 43 72 44 73 45 74 68 75 69 76 77 77
REMARK SMILES IDX 70 78 76 79 71 80 72 81 73 82 74 83 75 84 54 85 55 86 63 87
REMARK SMILES IDX 56 88 62 89 57 90 58 91 59 92 60 93 61 94
REMARK H PARENT 19 7 14 25 26 31 82 50 52 61
REMARK Flexibility Score: inf
ROOT
ATOM      1  C   UNL     1       3.032  -0.852  -5.613  1.00  0.00     0.002 C 
ENDROOT
BRANCH   1   2
ATOM      2  C   UNL     1       1.619  -1.242  -5.186  1.00  0.00     0.021 C 
BRANCH   2   3
ATOM      3  C   UNL     1       0.470  -0.622  -5.973  1.00  0.00     0.116 C 
BRANCH   3   4
ATOM      4  N   UNL     1       0.027  -1.382  -7.112  1.00  0.00    -0.354 N 
ATOM      5  C   UNL     1      -1.234  -1.629  -7.567  1.00  0.00     0.242 C 
ATOM      6  O   UNL     1      -1.295  -2.131  -8.701  1.00  0.00    -0.273 OA
ATOM      7  H   UNL     1       0.748  -1.786  -7.647  1.00  0.00     0.163 HD
BRANCH   5   8
ATOM      8  C   UNL     1      -2.571  -1.358  -6.791  1.00  0.00     0.177 C 
ATOM      9  N   UNL     1      -2.658  -0.843  -5.410  1.00  0.00    -0.324 N 
ATOM     10  C   UNL     1      -3.521  -1.694  -4.605  1.00  0.00     0.152 C 
ATOM     11  C   UNL     1      -3.353  -3.059  -5.247  1.00  0.00     0.136 C 
ATOM     12  C   UNL     1      -3.347  -2.699  -6.730  1.00  0.00     0.069 C 
BRANCH   9  13
ATOM     13  C   UNL     1      -2.462   0.501  -5.120  1.00  0.00     0.254 C 
ATOM     14  O   UNL     1      -2.601   1.371  -5.975  1.00  0.00    -0.269 OA
BRANCH  13  15
ATOM     15  C   UNL     1      -1.807   0.850  -3.803  1.00  0.00     0.040 A 
ATOM     16  C   UNL     1      -0.313   0.196  -1.962  1.00  0.00    -0.022 A 
ATOM     17  C   UNL     1      -0.042   1.546  -1.724  1.00  0.00     0.006 A 
ATOM     18  C   UNL     1      -1.214  -0.132  -2.986  1.00  0.00     0.020 A 
ATOM     19  C   UNL     1      -0.647   2.537  -2.501  1.00  0.00     0.001 A 
ATOM     20  C   UNL     1      -1.518   2.192  -3.540  1.00  0.00     0.014 A 
BRANCH  16  21
ATOM     21  C   UNL     1       0.418  -0.909  -1.236  1.00  0.00     0.195 C 
BRANCH  21  22
ATOM     22  O   UNL     1      -0.042  -1.082   0.096  1.00  0.00    -0.380 OA
ATOM     23  C   UNL     1       0.760  -0.410   1.056  1.00  0.00     0.195 C 
ENDBRANCH  21  22
ENDBRANCH  16  21
ENDBRANCH  13  15
ENDBRANCH   9  13
BRANCH  11  24
ATOM     24  O   UNL     1      -4.383  -3.971  -4.920  1.00  0.00    -0.391 OA
ATOM     25  H   UNL     1      -5.239  -3.599  -5.183  1.00  0.00     0.211 HD
ENDBRANCH  11  24
ENDBRANCH   5   8
ENDBRANCH   3   4
ENDBRANCH   2   3
ENDBRANCH   1   2
BRANCH   1  26
ATOM     26  C   UNL     1       3.349   0.646  -5.692  1.00  0.00     0.002 C 
BRANCH  26  27
ATOM     27  C   UNL     1       2.916   1.535  -4.519  1.00  0.00     0.021 C 
BRANCH  27  28
ATOM     28  C   UNL     1       3.432   1.161  -3.129  1.00  0.00     0.116 C 
BRANCH  28  29
ATOM     29  N   UNL     1       4.877   1.189  -3.026  1.00  0.00    -0.352 N 
ATOM     30  C   UNL     1       5.701   1.743  -2.078  1.00  0.00     0.251 C 
ATOM     31  H   UNL     1       5.348   0.733  -3.761  1.00  0.00     0.163 HD
ATOM     32  O   UNL     1       6.915   1.722  -2.277  1.00  0.00    -0.269 OA
BRANCH  30  33
ATOM     33  C   UNL     1       5.182   2.378  -0.838  1.00  0.00     0.039 A 
ATOM     34  C   UNL     1       5.849   3.513  -0.359  1.00  0.00     0.014 A 
ATOM     35  C   UNL     1       4.131   1.841  -0.087  1.00  0.00     0.014 A 
ATOM     36  C   UNL     1       5.455   4.117   0.841  1.00  0.00     0.010 A 
ATOM     37  C   UNL     1       3.704   2.477   1.089  1.00  0.00     0.010 A 
ATOM     38  C   UNL     1       4.369   3.614   1.574  1.00  0.00    -0.014 A 
BRANCH  38  39
ATOM     39  C   UNL     1       3.952   4.274   2.845  1.00  0.00     0.031 A 
ATOM     40  C   UNL     1       4.120   3.582   4.173  1.00  0.00     0.074 A 
ATOM     41  C   UNL     1       3.412   5.509   2.813  1.00  0.00     0.049 A 
ATOM     42  N   UNL     1       3.861   4.032   5.376  1.00  0.00    -0.248 NA
ATOM     43  C   UNL     1       4.628   2.203   4.146  1.00  0.00     0.031 C 
ATOM     44  C   UNL     1       3.147   6.284   1.600  1.00  0.00     0.029 A 
ATOM     45  N   UNL     1       2.990   6.330   3.831  1.00  0.00    -0.354 N 
ATOM     46  C   UNL     1       4.170   2.994   6.249  1.00  0.00     0.074 A 
ATOM     47  C   UNL     1       4.586   1.874   5.430  1.00  0.00     0.031 C 
ATOM     48  C   UNL     1       2.627   7.473   1.944  1.00  0.00     0.029 A 
ATOM     49  C   UNL     1       2.502   7.540   3.398  1.00  0.00     0.049 A 
ATOM     50  H   UNL     1       3.033   6.075   4.781  1.00  0.00     0.167 HD
ATOM     51  C   UNL     1       4.133   2.975   7.604  1.00  0.00     0.031 A 
ATOM     52  C   UNL     1       2.014   8.592   4.086  1.00  0.00     0.031 A 
ATOM     53  C   UNL     1       3.719   4.082   8.428  1.00  0.00     0.049 A 
ATOM     54  C   UNL     1       1.992   8.557   5.589  1.00  0.00     0.074 A 
ATOM     55  C   UNL     1       3.697   4.167   9.810  1.00  0.00     0.029 A 
ATOM     56  N   UNL     1       3.248   5.295   7.949  1.00  0.00    -0.354 N 
ATOM     57  N   UNL     1       2.363   7.592   6.395  1.00  0.00    -0.248 NA
ATOM     58  C   UNL     1       1.506   9.764   6.274  1.00  0.00     0.031 C 
ATOM     59  C   UNL     1       3.171   5.414  10.167  1.00  0.00     0.029 A 
ATOM     60  C   UNL     1       2.913   6.126   9.007  1.00  0.00     0.049 A 
ATOM     61  H   UNL     1       3.163   5.531   6.997  1.00  0.00     0.167 HD
ATOM     62  C   UNL     1       2.175   8.083   7.684  1.00  0.00     0.074 A 
ATOM     63  C   UNL     1       1.673   9.435   7.548  1.00  0.00     0.031 C 
ATOM     64  C   UNL     1       2.402   7.466   8.870  1.00  0.00     0.031 A 
BRANCH  51  65
ATOM     65  C   UNL     1       4.547   1.695   8.285  1.00  0.00    -0.014 A 
ATOM     66  C   UNL     1       5.890   1.276   8.285  1.00  0.00     0.010 A 
ATOM     67  C   UNL     1       3.586   0.909   8.946  1.00  0.00     0.010 A 
ATOM     68  C   UNL     1       6.254   0.065   8.880  1.00  0.00     0.020 A 
ATOM     69  C   UNL     1       3.951  -0.290   9.567  1.00  0.00     0.020 A 
ATOM     70  C   UNL     1       5.279  -0.716   9.507  1.00  0.00     0.054 A 
BRANCH  70  71
ATOM     71  S   UNL     1       5.774  -2.293  10.256  1.00  0.00     0.124 S 
ATOM     72  O   UNL     1       5.936  -3.143   9.079  1.00  0.00    -0.237 OA
ATOM     73  O   UNL     1       7.009  -1.946  10.954  1.00  0.00    -0.237 OA
ATOM     74  O   UNL     1       4.647  -2.634  11.120  1.00  0.00    -0.744 OA
ENDBRANCH  70  71
ENDBRANCH  51  65
BRANCH  52  75
ATOM     75  C   UNL     1       1.523   9.784   3.343  1.00  0.00    -0.014 A 
ATOM     76  C   UNL     1       2.272  10.973   3.319  1.00  0.00     0.010 A 
ATOM     77  C   UNL     1       0.317   9.717   2.622  1.00  0.00     0.010 A 
ATOM     78  C   UNL     1       1.821  12.077   2.590  1.00  0.00     0.020 A 
ATOM     79  C   UNL     1      -0.124  10.810   1.873  1.00  0.00     0.020 A 
ATOM     80  C   UNL     1       0.628  11.986   1.866  1.00  0.00     0.054 A 
BRANCH  80  81
ATOM     81  S   UNL     1       0.103  13.402   0.859  1.00  0.00     0.124 S 
ATOM     82  O   UNL     1      -0.413  14.318   1.870  1.00  0.00    -0.237 OA
ATOM     83  O   UNL     1       1.347  13.808   0.211  1.00  0.00    -0.237 OA
ATOM     84  O   UNL     1      -0.898  12.827  -0.038  1.00  0.00    -0.744 OA
ENDBRANCH  80  81
ENDBRANCH  52  75
BRANCH  64  85
ATOM     85  C   UNL     1       2.128   8.255  10.125  1.00  0.00    -0.014 A 
ATOM     86  C   UNL     1       0.814   8.537  10.538  1.00  0.00     0.010 A 
ATOM     87  C   UNL     1       3.204   8.690  10.921  1.00  0.00     0.010 A 
ATOM     88  C   UNL     1       0.581   9.273  11.704  1.00  0.00     0.020 A 
ATOM     89  C   UNL     1       2.974   9.405  12.101  1.00  0.00     0.020 A 
ATOM     90  C   UNL     1       1.663   9.706  12.476  1.00  0.00     0.054 A 
BRANCH  90  91
ATOM     91  S   UNL     1       1.337  10.636  14.000  1.00  0.00     0.124 S 
ATOM     92  O   UNL     1       0.984  11.954  13.481  1.00  0.00    -0.237 OA
ATOM     93  O   UNL     1       0.241   9.885  14.608  1.00  0.00    -0.237 OA
ATOM     94  O   UNL     1       2.605  10.570  14.723  1.00  0.00    -0.744 OA
ENDBRANCH  90  91
ENDBRANCH  64  85
ENDBRANCH  38  39
ENDBRANCH  30  33
ENDBRANCH  28  29
ENDBRANCH  27  28
ENDBRANCH  26  27
ENDBRANCH   1  26
TORSDOF 21
