REMARK SMILES Cc1cc2c(c(C)c1Br)C=C(C(=O)NCCCCCCNC(=O)c1ccc(-c3c4nc(c(-c5ccc(S(=O)(=O)[O-])cc5)c5ccc([nH]5)c(-c5ccc(S(=O)(=O)[O-])cc5)c5nc(c(-c6ccc(S(=O)(=O)[O-])cc6)c6ccc3[nH]6)C=C5)C=C4)cc1)[C@@H](C(F)(F)F)O2
REMARK SMILES IDX 18 1 17 2 16 3 15 4 14 5 12 6 13 7 11 9 1 10 2 11 3 12 8 13
REMARK SMILES IDX 4 14 6 15 9 16 5 17 89 18 7 19 10 20 84 21 85 22 86 23 87 24
REMARK SMILES IDX 88 25 19 26 20 27 21 28 22 29 23 31 24 32 25 33 83 34 26 35
REMARK SMILES IDX 82 36 27 37 28 38 29 39 76 40 30 41 81 42 75 43 77 44 31 45
REMARK SMILES IDX 80 46 74 47 73 48 32 50 62 51 43 52 61 53 44 54 47 55 60 56
REMARK SMILES IDX 78 57 45 58 46 59 59 61 79 62 48 63 33 64 34 65 42 66 35 67
REMARK SMILES IDX 41 68 36 69 37 70 38 71 39 72 40 73 63 74 64 75 72 76 65 77
REMARK SMILES IDX 71 78 66 79 67 80 68 81 69 82 70 83 49 84 50 85 58 86 51 87
REMARK SMILES IDX 57 88 52 89 53 90 54 91 55 92 56 93
REMARK H PARENT 14 8 21 30 77 49 47 60
REMARK Flexibility Score: inf
ROOT
ATOM      1  C   UNL     1      -6.993   8.073   3.793  1.00  0.00     0.002 C 
ENDROOT
BRANCH   1   2
ATOM      2  C   UNL     1      -5.630   7.948   4.488  1.00  0.00     0.002 C 
BRANCH   2   3
ATOM      3  C   UNL     1      -4.884   6.639   4.219  1.00  0.00     0.021 C 
BRANCH   3   4
ATOM      4  C   UNL     1      -4.671   6.354   2.737  1.00  0.00     0.116 C 
BRANCH   4   5
ATOM      5  N   UNL     1      -3.501   7.042   2.222  1.00  0.00    -0.352 N 
ATOM      6  C   UNL     1      -2.334   6.704   1.626  1.00  0.00     0.251 C 
ATOM      7  O   UNL     1      -1.603   7.653   1.322  1.00  0.00    -0.270 OA
ATOM      8  H   UNL     1      -3.577   8.017   2.337  1.00  0.00     0.163 HD
BRANCH   6   9
ATOM      9  C   UNL     1      -1.893   5.308   1.327  1.00  0.00     0.067 C 
ATOM     10  C   UNL     1       1.204  -0.231  -0.113  1.00  0.00     0.046 C 
ATOM     11  C   UNL     1       0.814   1.206   0.110  1.00  0.00    -0.033 A 
ATOM     12  C   UNL     1      -0.434   1.445   0.689  1.00  0.00     0.051 A 
ATOM     13  C   UNL     1       1.604   2.309  -0.278  1.00  0.00     0.024 A 
ATOM     14  C   UNL     1      -0.881   2.742   0.905  1.00  0.00     0.128 A 
ATOM     15  C   UNL     1       1.169   3.641  -0.042  1.00  0.00    -0.026 A 
ATOM     16  Br  UNL     1       3.277   1.966  -1.144  1.00  0.00    -0.050 Br
ATOM     17  C   UNL     1      -0.095   3.846   0.569  1.00  0.00     0.021 A 
ATOM     18  O   UNL     1      -2.103   2.830   1.498  1.00  0.00    -0.475 OA
ATOM     19  C   UNL     1       2.000   4.846  -0.416  1.00  0.00     0.046 C 
ATOM     20  C   UNL     1      -0.620   5.173   0.909  1.00  0.00     0.026 C 
ATOM     21  C   UNL     1      -2.782   4.106   1.434  1.00  0.00     0.314 C 
BRANCH  21  22
ATOM     22  C   UNL     1      -3.854   4.057   0.330  1.00  0.00     0.429 C 
ATOM     23  F   UNL     1      -4.843   3.194   0.667  1.00  0.00    -0.167 F 
ATOM     24  F   UNL     1      -4.447   5.256   0.126  1.00  0.00    -0.167 F 
ATOM     25  F   UNL     1      -3.351   3.659  -0.860  1.00  0.00    -0.167 F 
ENDBRANCH  21  22
ENDBRANCH   6   9
ENDBRANCH   4   5
ENDBRANCH   3   4
ENDBRANCH   2   3
ENDBRANCH   1   2
BRANCH   1  26
ATOM     26  C   UNL     1      -7.931   6.877   3.978  1.00  0.00     0.021 C 
BRANCH  26  27
ATOM     27  C   UNL     1      -8.237   6.537   5.432  1.00  0.00     0.116 C 
BRANCH  27  28
ATOM     28  N   UNL     1      -8.874   7.647   6.119  1.00  0.00    -0.352 N 
ATOM     29  C   UNL     1     -10.110   7.702   6.709  1.00  0.00     0.251 C 
ATOM     30  H   UNL     1      -8.344   8.476   6.168  1.00  0.00     0.163 HD
ATOM     31  O   UNL     1     -10.589   8.786   7.036  1.00  0.00    -0.269 OA
BRANCH  29  32
ATOM     32  C   UNL     1     -10.863   6.454   6.938  1.00  0.00     0.039 A 
ATOM     33  C   UNL     1     -12.217   6.407   6.606  1.00  0.00     0.014 A 
ATOM     34  C   UNL     1     -10.229   5.334   7.487  1.00  0.00     0.014 A 
ATOM     35  C   UNL     1     -12.928   5.220   6.784  1.00  0.00     0.010 A 
ATOM     36  C   UNL     1     -10.919   4.132   7.594  1.00  0.00     0.010 A 
ATOM     37  C   UNL     1     -12.279   4.068   7.258  1.00  0.00    -0.014 A 
BRANCH  37  38
ATOM     38  C   UNL     1     -13.020   2.796   7.440  1.00  0.00     0.031 A 
ATOM     39  C   UNL     1     -13.215   2.235   8.822  1.00  0.00     0.074 A 
ATOM     40  C   UNL     1     -13.494   2.138   6.364  1.00  0.00     0.049 A 
ATOM     41  N   UNL     1     -13.815   1.131   9.185  1.00  0.00    -0.248 NA
ATOM     42  C   UNL     1     -12.646   3.005   9.943  1.00  0.00     0.031 C 
ATOM     43  C   UNL     1     -13.349   2.573   4.973  1.00  0.00     0.029 A 
ATOM     44  N   UNL     1     -14.201   0.966   6.272  1.00  0.00    -0.354 N 
ATOM     45  C   UNL     1     -13.697   1.075  10.569  1.00  0.00     0.074 A 
ATOM     46  C   UNL     1     -12.915   2.220  10.976  1.00  0.00     0.031 C 
ATOM     47  C   UNL     1     -13.984   1.702   4.172  1.00  0.00     0.029 A 
ATOM     48  C   UNL     1     -14.544   0.627   4.984  1.00  0.00     0.049 A 
ATOM     49  H   UNL     1     -14.441   0.419   7.055  1.00  0.00     0.167 HD
ATOM     50  C   UNL     1     -14.219   0.168  11.427  1.00  0.00     0.031 A 
ATOM     51  C   UNL     1     -15.232  -0.431   4.511  1.00  0.00     0.031 A 
ATOM     52  C   UNL     1     -15.004  -0.966  11.018  1.00  0.00     0.049 A 
ATOM     53  C   UNL     1     -15.760  -1.452   5.482  1.00  0.00     0.074 A 
ATOM     54  C   UNL     1     -15.605  -1.925  11.813  1.00  0.00     0.029 A 
ATOM     55  N   UNL     1     -15.298  -1.291   9.703  1.00  0.00    -0.354 N 
ATOM     56  N   UNL     1     -15.677  -1.462   6.792  1.00  0.00    -0.248 NA
ATOM     57  C   UNL     1     -16.477  -2.601   4.913  1.00  0.00     0.031 C 
ATOM     58  C   UNL     1     -16.216  -2.862  10.975  1.00  0.00     0.029 A 
ATOM     59  C   UNL     1     -16.049  -2.454   9.662  1.00  0.00     0.049 A 
ATOM     60  H   UNL     1     -15.016  -0.773   8.915  1.00  0.00     0.167 HD
ATOM     61  C   UNL     1     -16.349  -2.608   7.204  1.00  0.00     0.074 A 
ATOM     62  C   UNL     1     -16.849  -3.254   6.007  1.00  0.00     0.031 C 
ATOM     63  C   UNL     1     -16.532  -3.085   8.460  1.00  0.00     0.031 A 
BRANCH  50  64
ATOM     64  C   UNL     1     -13.966   0.369  12.897  1.00  0.00    -0.014 A 
ATOM     65  C   UNL     1     -14.585   1.421  13.597  1.00  0.00     0.010 A 
ATOM     66  C   UNL     1     -13.150  -0.534  13.601  1.00  0.00     0.010 A 
ATOM     67  C   UNL     1     -14.370   1.583  14.967  1.00  0.00     0.020 A 
ATOM     68  C   UNL     1     -12.955  -0.393  14.978  1.00  0.00     0.020 A 
ATOM     69  C   UNL     1     -13.558   0.673  15.650  1.00  0.00     0.054 A 
BRANCH  69  70
ATOM     70  S   UNL     1     -13.333   0.887  17.437  1.00  0.00     0.124 S 
ATOM     71  O   UNL     1     -12.533   2.108  17.496  1.00  0.00    -0.237 OA
ATOM     72  O   UNL     1     -14.707   1.012  17.917  1.00  0.00    -0.237 OA
ATOM     73  O   UNL     1     -12.640  -0.331  17.849  1.00  0.00    -0.744 OA
ENDBRANCH  69  70
ENDBRANCH  50  64
BRANCH  51  74
ATOM     74  C   UNL     1     -15.480  -0.564   3.049  1.00  0.00    -0.014 A 
ATOM     75  C   UNL     1     -16.776  -0.405   2.529  1.00  0.00     0.010 A 
ATOM     76  C   UNL     1     -14.419  -0.835   2.165  1.00  0.00     0.010 A 
ATOM     77  C   UNL     1     -17.010  -0.526   1.156  1.00  0.00     0.020 A 
ATOM     78  C   UNL     1     -14.643  -0.929   0.789  1.00  0.00     0.020 A 
ATOM     79  C   UNL     1     -15.941  -0.783   0.294  1.00  0.00     0.054 A 
BRANCH  79  80
ATOM     80  S   UNL     1     -16.263  -0.883  -1.489  1.00  0.00     0.124 S 
ATOM     81  O   UNL     1     -17.016  -2.130  -1.592  1.00  0.00    -0.237 OA
ATOM     82  O   UNL     1     -17.023   0.339  -1.738  1.00  0.00    -0.237 OA
ATOM     83  O   UNL     1     -14.926  -0.909  -2.078  1.00  0.00    -0.744 OA
ENDBRANCH  79  80
ENDBRANCH  51  74
BRANCH  63  84
ATOM     84  C   UNL     1     -17.313  -4.363   8.614  1.00  0.00    -0.014 A 
ATOM     85  C   UNL     1     -16.754  -5.599   8.246  1.00  0.00     0.010 A 
ATOM     86  C   UNL     1     -18.586  -4.335   9.212  1.00  0.00     0.010 A 
ATOM     87  C   UNL     1     -17.463  -6.784   8.456  1.00  0.00     0.020 A 
ATOM     88  C   UNL     1     -19.286  -5.521   9.450  1.00  0.00     0.020 A 
ATOM     89  C   UNL     1     -18.723  -6.738   9.062  1.00  0.00     0.054 A 
BRANCH  89  90
ATOM     90  S   UNL     1     -19.592  -8.298   9.377  1.00  0.00     0.124 S 
ATOM     91  O   UNL     1     -19.949  -8.726   8.027  1.00  0.00    -0.237 OA
ATOM     92  O   UNL     1     -18.570  -9.102  10.042  1.00  0.00    -0.237 OA
ATOM     93  O   UNL     1     -20.716  -7.905  10.223  1.00  0.00    -0.744 OA
ENDBRANCH  89  90
ENDBRANCH  63  84
ENDBRANCH  37  38
ENDBRANCH  29  32
ENDBRANCH  27  28
ENDBRANCH  26  27
ENDBRANCH   1  26
TORSDOF 17
