REMARK SMILES Cc1[nH]c2ccccc2c1/N=N\c1ccccc1C(=O)NCCCCCCNC(=O)c1ccc(-c2c3nc(c(-c4ccc(S(=O)(=O)[O-])cc4)c4ccc([nH]4)c(-c4ccc(S(=O)(=O)[O-])cc4)c4nc(c(-c5ccc(S(=O)(=O)[O-])cc5)c5ccc2[nH]5)C=C4)C=C3)cc1
REMARK SMILES IDX 25 1 24 2 23 3 22 4 21 5 19 6 20 7 18 9 13 10 14 11 15 12
REMARK SMILES IDX 17 13 16 14 12 15 11 16 10 17 1 18 2 19 3 20 4 21 9 23 5 24
REMARK SMILES IDX 8 25 6 26 7 27 26 28 27 29 28 30 29 31 30 33 31 34 32 35
REMARK SMILES IDX 90 36 33 37 89 38 34 39 35 40 36 41 83 42 37 43 88 44 82 45
REMARK SMILES IDX 84 46 38 47 87 48 81 49 80 50 39 52 69 53 50 54 68 55 51 56
REMARK SMILES IDX 54 57 67 58 85 59 52 60 53 61 66 63 86 64 55 65 40 66 41 67
REMARK SMILES IDX 49 68 42 69 48 70 43 71 44 72 45 73 46 74 47 75 70 76 71 77
REMARK SMILES IDX 79 78 72 79 78 80 73 81 74 82 75 83 76 84 77 85 56 86 57 87
REMARK SMILES IDX 65 88 58 89 64 90 59 91 60 92 61 93 62 94 63 95
REMARK H PARENT 21 8 3 22 28 32 84 51 54 62
REMARK Flexibility Score: inf
ROOT
ATOM      1  C   UNL     1       1.141  -4.201  -1.448  1.00  0.00     0.002 C 
ENDROOT
BRANCH   1   2
ATOM      2  C   UNL     1       0.224  -4.395  -2.658  1.00  0.00     0.002 C 
BRANCH   2   3
ATOM      3  C   UNL     1      -1.279  -4.485  -2.380  1.00  0.00     0.021 C 
BRANCH   3   4
ATOM      4  C   UNL     1      -1.855  -3.384  -1.499  1.00  0.00     0.116 C 
BRANCH   4   5
ATOM      5  N   UNL     1      -1.782  -2.062  -2.085  1.00  0.00    -0.352 N 
ATOM      6  C   UNL     1      -2.605  -0.980  -1.887  1.00  0.00     0.253 C 
ATOM      7  O   UNL     1      -2.382   0.062  -2.506  1.00  0.00    -0.269 OA
ATOM      8  H   UNL     1      -1.038  -1.918  -2.714  1.00  0.00     0.163 HD
BRANCH   6   9
ATOM      9  C   UNL     1      -3.808  -1.048  -1.019  1.00  0.00     0.067 A 
ATOM     10  C   UNL     1      -3.818  -1.571   0.287  1.00  0.00     0.098 A 
ATOM     11  C   UNL     1      -5.040  -1.601   0.985  1.00  0.00     0.031 A 
ATOM     12  C   UNL     1      -6.200  -1.036   0.445  1.00  0.00     0.002 A 
ATOM     13  C   UNL     1      -4.971  -0.447  -1.539  1.00  0.00     0.016 A 
ATOM     14  C   UNL     1      -6.159  -0.435  -0.808  1.00  0.00     0.001 A 
BRANCH  10  15
ATOM     15  N   UNL     1      -2.662  -2.084   0.923  1.00  0.00    -0.150 NA
ATOM     16  N   UNL     1      -2.123  -1.311   1.752  1.00  0.00    -0.148 NA
BRANCH  16  17
ATOM     17  C   UNL     1      -1.432  -0.221   1.195  1.00  0.00     0.114 A 
ATOM     18  C   UNL     1      -3.299   1.591   1.375  1.00  0.00     0.067 C 
ATOM     19  C   UNL     1      -1.971   1.036   1.030  1.00  0.00     0.041 A 
ATOM     20  N   UNL     1      -1.011   1.794   0.408  1.00  0.00    -0.357 N 
ATOM     21  C   UNL     1       0.176   1.101   0.326  1.00  0.00     0.048 A 
ATOM     22  H   UNL     1      -1.152   2.706   0.067  1.00  0.00     0.166 HD
ATOM     23  C   UNL     1      -0.059  -0.187   0.815  1.00  0.00     0.027 A 
ATOM     24  C   UNL     1       1.428   1.528  -0.134  1.00  0.00     0.027 A 
ATOM     25  C   UNL     1       1.022  -1.092   0.846  1.00  0.00     0.012 A 
ATOM     26  C   UNL     1       2.485   0.617  -0.076  1.00  0.00     0.002 A 
ATOM     27  C   UNL     1       2.287  -0.675   0.404  1.00  0.00     0.001 A 
ENDBRANCH  16  17
ENDBRANCH  10  15
ENDBRANCH   6   9
ENDBRANCH   4   5
ENDBRANCH   3   4
ENDBRANCH   2   3
ENDBRANCH   1   2
BRANCH   1  28
ATOM     28  C   UNL     1       0.970  -5.178  -0.284  1.00  0.00     0.021 C 
BRANCH  28  29
ATOM     29  C   UNL     1       1.015  -6.657  -0.648  1.00  0.00     0.116 C 
BRANCH  29  30
ATOM     30  N   UNL     1       2.241  -7.038  -1.327  1.00  0.00    -0.352 N 
ATOM     31  C   UNL     1       3.072  -8.110  -1.095  1.00  0.00     0.251 C 
ATOM     32  H   UNL     1       2.518  -6.442  -2.061  1.00  0.00     0.163 HD
ATOM     33  O   UNL     1       4.133  -8.205  -1.693  1.00  0.00    -0.269 OA
BRANCH  31  34
ATOM     34  C   UNL     1       2.688  -9.126  -0.090  1.00  0.00     0.039 A 
ATOM     35  C   UNL     1       3.636  -9.528   0.855  1.00  0.00     0.014 A 
ATOM     36  C   UNL     1       1.398  -9.663  -0.064  1.00  0.00     0.014 A 
ATOM     37  C   UNL     1       3.267 -10.409   1.874  1.00  0.00     0.010 A 
ATOM     38  C   UNL     1       1.013 -10.486   0.991  1.00  0.00     0.010 A 
ATOM     39  C   UNL     1       1.941 -10.859   1.975  1.00  0.00    -0.014 A 
BRANCH  39  40
ATOM     40  C   UNL     1       1.491 -11.690   3.120  1.00  0.00     0.031 A 
ATOM     41  C   UNL     1       1.006 -13.094   2.896  1.00  0.00     0.074 A 
ATOM     42  C   UNL     1       1.448 -11.148   4.354  1.00  0.00     0.049 A 
ATOM     43  N   UNL     1       0.509 -13.943   3.759  1.00  0.00    -0.248 NA
ATOM     44  C   UNL     1       1.068 -13.602   1.517  1.00  0.00     0.031 C 
ATOM     45  C   UNL     1       1.870  -9.788   4.697  1.00  0.00     0.029 A 
ATOM     46  N   UNL     1       1.024 -11.674   5.548  1.00  0.00    -0.354 N 
ATOM     47  C   UNL     1       0.189 -15.080   3.027  1.00  0.00     0.074 A 
ATOM     48  C   UNL     1       0.498 -14.791   1.643  1.00  0.00     0.031 C 
ATOM     49  C   UNL     1       1.717  -9.600   6.017  1.00  0.00     0.029 A 
ATOM     50  C   UNL     1       1.139 -10.804   6.606  1.00  0.00     0.049 A 
ATOM     51  H   UNL     1       0.671 -12.589   5.639  1.00  0.00     0.167 HD
ATOM     52  C   UNL     1      -0.302 -16.264   3.469  1.00  0.00     0.031 A 
ATOM     53  C   UNL     1       0.809 -10.952   7.904  1.00  0.00     0.031 A 
ATOM     54  C   UNL     1      -0.622 -16.539   4.845  1.00  0.00     0.049 A 
ATOM     55  C   UNL     1       0.209 -12.252   8.362  1.00  0.00     0.074 A 
ATOM     56  C   UNL     1      -1.086 -17.717   5.403  1.00  0.00     0.029 A 
ATOM     57  N   UNL     1      -0.522 -15.620   5.880  1.00  0.00    -0.354 N 
ATOM     58  N   UNL     1      -0.035 -13.337   7.667  1.00  0.00    -0.248 NA
ATOM     59  C   UNL     1      -0.161 -12.346   9.781  1.00  0.00     0.031 C 
ATOM     60  C   UNL     1      -1.323 -17.492   6.764  1.00  0.00     0.029 A 
ATOM     61  C   UNL     1      -0.948 -16.192   7.067  1.00  0.00     0.049 A 
ATOM     62  H   UNL     1      -0.196 -14.696   5.784  1.00  0.00     0.167 HD
ATOM     63  C   UNL     1      -0.566 -14.252   8.568  1.00  0.00     0.074 A 
ATOM     64  C   UNL     1      -0.597 -13.597   9.860  1.00  0.00     0.031 C 
ATOM     65  C   UNL     1      -0.986 -15.522   8.344  1.00  0.00     0.031 A 
BRANCH  52  66
ATOM     66  C   UNL     1      -0.543 -17.335   2.436  1.00  0.00    -0.014 A 
ATOM     67  C   UNL     1       0.529 -17.948   1.760  1.00  0.00     0.010 A 
ATOM     68  C   UNL     1      -1.858 -17.730   2.129  1.00  0.00     0.010 A 
ATOM     69  C   UNL     1       0.288 -18.881   0.748  1.00  0.00     0.020 A 
ATOM     70  C   UNL     1      -2.101 -18.688   1.139  1.00  0.00     0.020 A 
ATOM     71  C   UNL     1      -1.027 -19.235   0.435  1.00  0.00     0.054 A 
BRANCH  71  72
ATOM     72  S   UNL     1      -1.312 -20.425  -0.903  1.00  0.00     0.124 S 
ATOM     73  O   UNL     1      -1.028 -19.618  -2.087  1.00  0.00    -0.237 OA
ATOM     74  O   UNL     1      -0.340 -21.476  -0.613  1.00  0.00    -0.237 OA
ATOM     75  O   UNL     1      -2.711 -20.810  -0.733  1.00  0.00    -0.744 OA
ENDBRANCH  71  72
ENDBRANCH  52  66
BRANCH  53  76
ATOM     76  C   UNL     1       1.071  -9.844   8.862  1.00  0.00    -0.014 A 
ATOM     77  C   UNL     1       2.107  -9.960   9.806  1.00  0.00     0.010 A 
ATOM     78  C   UNL     1       0.323  -8.654   8.809  1.00  0.00     0.010 A 
ATOM     79  C   UNL     1       2.391  -8.906  10.679  1.00  0.00     0.020 A 
ATOM     80  C   UNL     1       0.621  -7.588   9.664  1.00  0.00     0.020 A 
ATOM     81  C   UNL     1       1.651  -7.723  10.597  1.00  0.00     0.054 A 
BRANCH  81  82
ATOM     82  S   UNL     1       2.092  -6.343  11.688  1.00  0.00     0.124 S 
ATOM     83  O   UNL     1       1.630  -6.822  12.987  1.00  0.00    -0.237 OA
ATOM     84  O   UNL     1       3.541  -6.262  11.522  1.00  0.00    -0.237 OA
ATOM     85  O   UNL     1       1.345  -5.216  11.134  1.00  0.00    -0.744 OA
ENDBRANCH  81  82
ENDBRANCH  53  76
BRANCH  65  86
ATOM     86  C   UNL     1      -1.503 -16.299   9.526  1.00  0.00    -0.014 A 
ATOM     87  C   UNL     1      -2.758 -16.012  10.092  1.00  0.00     0.010 A 
ATOM     88  C   UNL     1      -0.751 -17.374  10.035  1.00  0.00     0.010 A 
ATOM     89  C   UNL     1      -3.244 -16.776  11.156  1.00  0.00     0.020 A 
ATOM     90  C   UNL     1      -1.245 -18.157  11.081  1.00  0.00     0.020 A 
ATOM     91  C   UNL     1      -2.486 -17.847  11.641  1.00  0.00     0.054 A 
BRANCH  91  92
ATOM     92  S   UNL     1      -3.169 -18.863  12.980  1.00  0.00     0.124 S 
ATOM     93  O   UNL     1      -3.049 -17.971  14.130  1.00  0.00    -0.237 OA
ATOM     94  O   UNL     1      -4.533 -19.119  12.523  1.00  0.00    -0.237 OA
ATOM     95  O   UNL     1      -2.297 -20.035  13.006  1.00  0.00    -0.744 OA
ENDBRANCH  91  92
ENDBRANCH  65  86
ENDBRANCH  39  40
ENDBRANCH  31  34
ENDBRANCH  29  30
ENDBRANCH  28  29
ENDBRANCH   1  28
TORSDOF 18
