REMARK SMILES O=C(NCCCCCCNC(=O)[C@]1(CCc2ccccc2)C[C@H]2CC[C@@H]1O2)c1ccc(-c2c3nc(c(-c4ccc(S(=O)(=O)[O-])cc4)c4ccc([nH]4)c(-c4ccc(S(=O)(=O)[O-])cc4)c4nc(c(-c5ccc(S(=O)(=O)[O-])cc5)c5ccc2[nH]5)C=C4)C=C3)cc1
REMARK SMILES IDX 6 1 5 2 4 3 3 4 1 5 2 6 28 8 29 9 87 10 30 11 86 12 31 13
REMARK SMILES IDX 32 14 33 15 80 16 34 17 85 18 79 19 81 20 35 21 84 22 78 23
REMARK SMILES IDX 77 24 36 26 66 27 47 28 65 29 48 30 51 31 64 32 82 33 49 34
REMARK SMILES IDX 50 35 63 37 83 38 52 39 37 40 38 41 46 42 39 43 45 44 40 45
REMARK SMILES IDX 41 46 42 47 43 48 44 49 67 50 68 51 76 52 69 53 75 54 70 55
REMARK SMILES IDX 71 56 72 57 73 58 74 59 53 60 54 61 62 62 55 63 61 64 56 65
REMARK SMILES IDX 57 66 58 67 59 68 60 69 7 70 8 71 9 72 10 73 11 74 12 76
REMARK SMILES IDX 13 77 22 78 26 79 23 80 25 81 27 82 24 83 14 84 15 85 16 86
REMARK SMILES IDX 17 87 21 88 18 89 20 90 19 91
REMARK H PARENT 3 7 81 25 51 36 10 75
REMARK Flexibility Score: inf
ROOT
ATOM      1  C   UNL     1       4.864  -1.840  -2.873  1.00  0.00     0.002 C 
ENDROOT
BRANCH   1   2
ATOM      2  C   UNL     1       5.218  -1.555  -1.424  1.00  0.00     0.021 C 
BRANCH   2   3
ATOM      3  C   UNL     1       4.640  -0.282  -0.842  1.00  0.00     0.116 C 
BRANCH   3   4
ATOM      4  N   UNL     1       3.186  -0.215  -0.847  1.00  0.00    -0.352 N 
ATOM      5  O   UNL     1       1.139   0.248   0.010  1.00  0.00    -0.269 OA
ATOM      6  C   UNL     1       2.354   0.290   0.135  1.00  0.00     0.251 C 
ATOM      7  H   UNL     1       2.740  -0.573  -1.648  1.00  0.00     0.163 HD
BRANCH   6   8
ATOM      8  C   UNL     1       2.968   0.833   1.369  1.00  0.00     0.039 A 
ATOM      9  C   UNL     1       4.065   1.689   1.283  1.00  0.00     0.014 A 
ATOM     10  C   UNL     1       2.515   0.392   2.615  1.00  0.00     0.014 A 
ATOM     11  C   UNL     1       4.840   1.916   2.410  1.00  0.00     0.010 A 
ATOM     12  C   UNL     1       3.226   0.736   3.771  1.00  0.00     0.010 A 
ATOM     13  C   UNL     1       4.426   1.457   3.673  1.00  0.00    -0.014 A 
BRANCH  13  14
ATOM     14  C   UNL     1       5.253   1.797   4.861  1.00  0.00     0.031 A 
ATOM     15  C   UNL     1       5.886   0.731   5.717  1.00  0.00     0.074 A 
ATOM     16  C   UNL     1       5.486   3.099   5.121  1.00  0.00     0.049 A 
ATOM     17  N   UNL     1       6.670   0.874   6.757  1.00  0.00    -0.248 NA
ATOM     18  C   UNL     1       5.603  -0.672   5.374  1.00  0.00     0.031 C 
ATOM     19  C   UNL     1       4.928   4.222   4.358  1.00  0.00     0.029 A 
ATOM     20  N   UNL     1       6.284   3.703   6.056  1.00  0.00    -0.354 N 
ATOM     21  C   UNL     1       6.935  -0.411   7.219  1.00  0.00     0.074 A 
ATOM     22  C   UNL     1       6.226  -1.323   6.348  1.00  0.00     0.031 C 
ATOM     23  C   UNL     1       5.476   5.364   4.790  1.00  0.00     0.029 A 
ATOM     24  C   UNL     1       6.347   5.070   5.920  1.00  0.00     0.049 A 
ATOM     25  H   UNL     1       6.766   3.207   6.757  1.00  0.00     0.167 HD
ATOM     26  C   UNL     1       7.694  -0.792   8.277  1.00  0.00     0.031 A 
ATOM     27  C   UNL     1       7.016   5.995   6.632  1.00  0.00     0.031 A 
ATOM     28  C   UNL     1       8.412   0.124   9.128  1.00  0.00     0.049 A 
ATOM     29  C   UNL     1       7.846   5.546   7.796  1.00  0.00     0.074 A 
ATOM     30  C   UNL     1       9.228  -0.163  10.209  1.00  0.00     0.029 A 
ATOM     31  N   UNL     1       8.402   1.505   8.993  1.00  0.00    -0.354 N 
ATOM     32  N   UNL     1       8.077   4.326   8.217  1.00  0.00    -0.248 NA
ATOM     33  C   UNL     1       8.492   6.598   8.588  1.00  0.00     0.031 C 
ATOM     34  C   UNL     1       9.676   1.046  10.754  1.00  0.00     0.029 A 
ATOM     35  C   UNL     1       9.180   2.084   9.982  1.00  0.00     0.049 A 
ATOM     36  H   UNL     1       7.913   2.000   8.296  1.00  0.00     0.167 HD
ATOM     37  C   UNL     1       8.900   4.462   9.326  1.00  0.00     0.074 A 
ATOM     38  C   UNL     1       9.148   5.882   9.491  1.00  0.00     0.031 C 
ATOM     39  C   UNL     1       9.401   3.500  10.138  1.00  0.00     0.031 A 
BRANCH  26  40
ATOM     40  C   UNL     1       7.752  -2.263   8.604  1.00  0.00    -0.014 A 
ATOM     41  C   UNL     1       8.476  -3.168   7.808  1.00  0.00     0.010 A 
ATOM     42  C   UNL     1       7.098  -2.740   9.756  1.00  0.00     0.010 A 
ATOM     43  C   UNL     1       8.507  -4.529   8.132  1.00  0.00     0.020 A 
ATOM     44  C   UNL     1       7.147  -4.096  10.097  1.00  0.00     0.020 A 
ATOM     45  C   UNL     1       7.835  -4.985   9.270  1.00  0.00     0.054 A 
BRANCH  45  46
ATOM     46  S   UNL     1       7.894  -6.754   9.672  1.00  0.00     0.124 S 
ATOM     47  O   UNL     1       6.964  -7.314   8.693  1.00  0.00    -0.237 OA
ATOM     48  O   UNL     1       9.300  -7.087   9.461  1.00  0.00    -0.237 OA
ATOM     49  O   UNL     1       7.445  -6.810  11.061  1.00  0.00    -0.744 OA
ENDBRANCH  45  46
ENDBRANCH  26  40
BRANCH  27  50
ATOM     50  C   UNL     1       6.904   7.430   6.261  1.00  0.00    -0.014 A 
ATOM     51  C   UNL     1       7.995   8.106   5.691  1.00  0.00     0.010 A 
ATOM     52  C   UNL     1       5.683   8.111   6.424  1.00  0.00     0.010 A 
ATOM     53  C   UNL     1       7.867   9.439   5.289  1.00  0.00     0.020 A 
ATOM     54  C   UNL     1       5.543   9.432   5.997  1.00  0.00     0.020 A 
ATOM     55  C   UNL     1       6.639  10.091   5.440  1.00  0.00     0.054 A 
BRANCH  55  56
ATOM     56  S   UNL     1       6.469  11.795   4.839  1.00  0.00     0.124 S 
ATOM     57  O   UNL     1       7.129  12.555   5.896  1.00  0.00    -0.237 OA
ATOM     58  O   UNL     1       7.169  11.751   3.557  1.00  0.00    -0.237 OA
ATOM     59  O   UNL     1       5.022  11.977   4.742  1.00  0.00    -0.744 OA
ENDBRANCH  55  56
ENDBRANCH  27  50
BRANCH  39  60
ATOM     60  C   UNL     1      10.283   3.960  11.265  1.00  0.00    -0.014 A 
ATOM     61  C   UNL     1       9.740   4.595  12.396  1.00  0.00     0.010 A 
ATOM     62  C   UNL     1      11.670   3.744  11.194  1.00  0.00     0.010 A 
ATOM     63  C   UNL     1      10.577   5.044  13.420  1.00  0.00     0.020 A 
ATOM     64  C   UNL     1      12.507   4.170  12.227  1.00  0.00     0.020 A 
ATOM     65  C   UNL     1      11.957   4.834  13.326  1.00  0.00     0.054 A 
BRANCH  65  66
ATOM     66  S   UNL     1      13.025   5.408  14.674  1.00  0.00     0.124 S 
ATOM     67  O   UNL     1      13.096   6.843  14.414  1.00  0.00    -0.237 OA
ATOM     68  O   UNL     1      12.275   5.022  15.867  1.00  0.00    -0.237 OA
ATOM     69  O   UNL     1      14.270   4.673  14.464  1.00  0.00    -0.744 OA
ENDBRANCH  65  66
ENDBRANCH  39  60
ENDBRANCH  13  14
ENDBRANCH   6   8
ENDBRANCH   3   4
ENDBRANCH   2   3
ENDBRANCH   1   2
BRANCH   1  70
ATOM     70  C   UNL     1       5.080  -0.718  -3.888  1.00  0.00     0.002 C 
BRANCH  70  71
ATOM     71  C   UNL     1       6.503  -0.165  -4.024  1.00  0.00     0.021 C 
BRANCH  71  72
ATOM     72  C   UNL     1       7.589  -1.126  -4.518  1.00  0.00     0.116 C 
BRANCH  72  73
ATOM     73  N   UNL     1       7.254  -1.787  -5.772  1.00  0.00    -0.356 N 
ATOM     74  C   UNL     1       7.802  -2.847  -6.445  1.00  0.00     0.228 C 
ATOM     75  H   UNL     1       6.477  -1.391  -6.229  1.00  0.00     0.163 HD
ATOM     76  O   UNL     1       7.166  -3.244  -7.426  1.00  0.00    -0.274 OA
BRANCH  74  77
ATOM     77  C   UNL     1       9.106  -3.532  -5.998  1.00  0.00     0.078 C 
ATOM     78  C   UNL     1      10.213  -2.456  -5.784  1.00  0.00     0.051 C 
ATOM     79  C   UNL     1       9.741  -4.238  -7.249  1.00  0.00     0.134 C 
ATOM     80  C   UNL     1      11.134  -2.605  -7.004  1.00  0.00     0.120 C 
ATOM     81  C   UNL     1      11.080  -4.953  -6.951  1.00  0.00     0.036 C 
ATOM     82  O   UNL     1      10.233  -3.104  -8.008  1.00  0.00    -0.374 OA
ATOM     83  C   UNL     1      12.063  -3.791  -6.833  1.00  0.00     0.035 C 
BRANCH  77  84
ATOM     84  C   UNL     1       8.940  -4.610  -4.880  1.00  0.00     0.024 C 
BRANCH  84  85
ATOM     85  C   UNL     1       7.750  -4.681  -3.910  1.00  0.00     0.037 C 
BRANCH  85  86
ATOM     86  C   UNL     1       6.439  -5.285  -4.373  1.00  0.00    -0.048 A 
ATOM     87  C   UNL     1       5.439  -4.501  -4.958  1.00  0.00     0.004 A 
ATOM     88  C   UNL     1       6.124  -6.619  -4.087  1.00  0.00     0.004 A 
ATOM     89  C   UNL     1       4.153  -4.989  -5.191  1.00  0.00     0.000 A 
ATOM     90  C   UNL     1       4.838  -7.121  -4.329  1.00  0.00     0.000 A 
ATOM     91  C   UNL     1       3.848  -6.300  -4.865  1.00  0.00     0.000 A 
ENDBRANCH  85  86
ENDBRANCH  84  85
ENDBRANCH  77  84
ENDBRANCH  74  77
ENDBRANCH  72  73
ENDBRANCH  71  72
ENDBRANCH  70  71
ENDBRANCH   1  70
TORSDOF 19
