REMARK SMILES C[C@@H]1[C@H](C(=O)NCCCCCCNC(=O)c2ccc(-c3c4nc(c(-c5ccc(S(=O)(=O)[O-])cc5)c5ccc([nH]5)c(-c5ccc(S(=O)(=O)[O-])cc5)c5nc(c(-c6ccc(S(=O)(=O)[O-])cc6)c6ccc3[nH]6)C=C5)C=C4)cc2)CC[N@@H+]1[C@@H](C)c1cccc(C(F)(F)F)c1
REMARK SMILES IDX 9 1 8 2 7 3 6 4 4 5 5 6 3 8 1 9 2 10 78 11 76 12 77 13 79 15
REMARK SMILES IDX 80 16 81 17 82 18 90 19 83 20 85 21 84 22 86 23 87 24 88 25
REMARK SMILES IDX 89 26 10 27 11 28 12 29 13 30 14 31 15 33 16 34 17 35 75 36
REMARK SMILES IDX 18 37 74 38 19 39 20 40 21 41 68 42 22 43 73 44 67 45 69 46
REMARK SMILES IDX 23 47 72 48 66 49 65 50 24 52 54 53 35 54 53 55 36 56 39 57
REMARK SMILES IDX 52 58 70 59 37 60 38 61 51 63 71 64 40 65 25 66 26 67 34 68
REMARK SMILES IDX 27 69 33 70 28 71 29 72 30 73 31 74 32 75 55 76 56 77 64 78
REMARK SMILES IDX 57 79 63 80 58 81 59 82 60 83 61 84 62 85 41 86 42 87 50 88
REMARK SMILES IDX 43 89 49 90 44 91 45 92 46 93 47 94 48 95
REMARK H PARENT 6 7 78 14 13 32 69 51 39 62
REMARK Flexibility Score: inf
ROOT
ATOM      1  C   UNL     1       3.569   2.872   3.107  1.00  0.00     0.002 C 
ENDROOT
BRANCH   1   2
ATOM      2  C   UNL     1       2.893   1.691   2.408  1.00  0.00     0.021 C 
BRANCH   2   3
ATOM      3  C   UNL     1       1.430   1.924   2.030  1.00  0.00     0.116 C 
BRANCH   3   4
ATOM      4  N   UNL     1       1.317   2.666   0.793  1.00  0.00    -0.356 N 
ATOM      5  C   UNL     1       0.719   2.347  -0.383  1.00  0.00     0.229 C 
ATOM      6  O   UNL     1       0.863   3.150  -1.312  1.00  0.00    -0.275 OA
ATOM      7  H   UNL     1       1.746   3.552   0.807  1.00  0.00     0.163 HD
BRANCH   5   8
ATOM      8  C   UNL     1      -0.114   1.087  -0.599  1.00  0.00     0.142 C 
ATOM      9  C   UNL     1       2.093  -0.333  -0.546  1.00  0.00     0.076 C 
ATOM     10  C   UNL     1       0.580  -0.286  -0.712  1.00  0.00     0.194 C 
ATOM     11  N   UNL     1      -0.250  -1.206   0.070  1.00  0.00    -0.326 N 
ATOM     12  C   UNL     1      -1.279   0.900   0.367  1.00  0.00     0.081 C 
ATOM     13  C   UNL     1      -1.532  -0.597   0.378  1.00  0.00     0.264 C 
ATOM     14  H   UNL     1      -0.360  -1.985  -0.580  1.00  0.00     0.348 HD
BRANCH  11  15
ATOM     15  C   UNL     1       0.283  -2.240   0.953  1.00  0.00     0.212 C 
ATOM     16  C   UNL     1       0.718  -1.711   2.328  1.00  0.00     0.081 C 
BRANCH  15  17
ATOM     17  C   UNL     1      -0.679  -3.433   1.050  1.00  0.00     0.010 A 
ATOM     18  C   UNL     1      -1.340  -3.794   2.236  1.00  0.00     0.010 A 
ATOM     19  C   UNL     1      -0.907  -4.217  -0.097  1.00  0.00     0.023 A 
ATOM     20  C   UNL     1      -2.172  -4.913   2.286  1.00  0.00     0.001 A 
ATOM     21  C   UNL     1      -1.753  -5.339  -0.063  1.00  0.00     0.056 A 
ATOM     22  C   UNL     1      -2.375  -5.684   1.145  1.00  0.00     0.013 A 
BRANCH  21  23
ATOM     23  C   UNL     1      -1.992  -6.176  -1.293  1.00  0.00     0.416 C 
ATOM     24  F   UNL     1      -1.524  -7.449  -1.160  1.00  0.00    -0.166 F 
ATOM     25  F   UNL     1      -3.316  -6.298  -1.592  1.00  0.00    -0.166 F 
ATOM     26  F   UNL     1      -1.405  -5.681  -2.419  1.00  0.00    -0.166 F 
ENDBRANCH  21  23
ENDBRANCH  15  17
ENDBRANCH  11  15
ENDBRANCH   5   8
ENDBRANCH   3   4
ENDBRANCH   2   3
ENDBRANCH   1   2
BRANCH   1  27
ATOM     27  C   UNL     1       2.990   3.243   4.475  1.00  0.00     0.002 C 
BRANCH  27  28
ATOM     28  C   UNL     1       2.858   2.093   5.479  1.00  0.00     0.021 C 
BRANCH  28  29
ATOM     29  C   UNL     1       4.131   1.288   5.733  1.00  0.00     0.116 C 
BRANCH  29  30
ATOM     30  N   UNL     1       5.218   2.115   6.228  1.00  0.00    -0.352 N 
ATOM     31  C   UNL     1       5.962   1.996   7.371  1.00  0.00     0.251 C 
ATOM     32  H   UNL     1       5.457   2.877   5.652  1.00  0.00     0.163 HD
ATOM     33  O   UNL     1       6.718   2.915   7.697  1.00  0.00    -0.269 OA
BRANCH  31  34
ATOM     34  C   UNL     1       5.859   0.793   8.225  1.00  0.00     0.039 A 
ATOM     35  C   UNL     1       5.823   0.958   9.612  1.00  0.00     0.014 A 
ATOM     36  C   UNL     1       5.849  -0.493   7.675  1.00  0.00     0.014 A 
ATOM     37  C   UNL     1       5.738  -0.161  10.445  1.00  0.00     0.010 A 
ATOM     38  C   UNL     1       5.702  -1.605   8.504  1.00  0.00     0.010 A 
ATOM     39  C   UNL     1       5.657  -1.451   9.898  1.00  0.00    -0.014 A 
BRANCH  39  40
ATOM     40  C   UNL     1       5.544  -2.643  10.778  1.00  0.00     0.031 A 
ATOM     41  C   UNL     1       6.664  -3.647  10.846  1.00  0.00     0.074 A 
ATOM     42  C   UNL     1       4.418  -2.840  11.493  1.00  0.00     0.049 A 
ATOM     43  N   UNL     1       6.740  -4.749  11.549  1.00  0.00    -0.248 NA
ATOM     44  C   UNL     1       7.841  -3.391  10.002  1.00  0.00     0.031 C 
ATOM     45  C   UNL     1       3.246  -1.962  11.485  1.00  0.00     0.029 A 
ATOM     46  N   UNL     1       4.077  -3.841  12.366  1.00  0.00    -0.354 N 
ATOM     47  C   UNL     1       7.964  -5.322  11.223  1.00  0.00     0.074 A 
ATOM     48  C   UNL     1       8.576  -4.472  10.225  1.00  0.00     0.031 C 
ATOM     49  C   UNL     1       2.327  -2.449  12.335  1.00  0.00     0.029 A 
ATOM     50  C   UNL     1       2.829  -3.686  12.924  1.00  0.00     0.049 A 
ATOM     51  H   UNL     1       4.669  -4.600  12.574  1.00  0.00     0.167 HD
ATOM     52  C   UNL     1       8.538  -6.444  11.723  1.00  0.00     0.031 A 
ATOM     53  C   UNL     1       2.164  -4.452  13.810  1.00  0.00     0.031 A 
ATOM     54  C   UNL     1       7.936  -7.282  12.725  1.00  0.00     0.049 A 
ATOM     55  C   UNL     1       2.822  -5.691  14.352  1.00  0.00     0.074 A 
ATOM     56  C   UNL     1       8.462  -8.409  13.334  1.00  0.00     0.029 A 
ATOM     57  N   UNL     1       6.675  -7.087  13.267  1.00  0.00    -0.354 N 
ATOM     58  N   UNL     1       4.007  -6.180  14.078  1.00  0.00    -0.248 NA
ATOM     59  C   UNL     1       2.056  -6.472  15.333  1.00  0.00     0.031 C 
ATOM     60  C   UNL     1       7.500  -8.919  14.213  1.00  0.00     0.029 A 
ATOM     61  C   UNL     1       6.396  -8.083  14.187  1.00  0.00     0.049 A 
ATOM     62  H   UNL     1       6.067  -6.349  13.031  1.00  0.00     0.167 HD
ATOM     63  C   UNL     1       4.138  -7.317  14.868  1.00  0.00     0.074 A 
ATOM     64  C   UNL     1       2.919  -7.431  15.643  1.00  0.00     0.031 C 
ATOM     65  C   UNL     1       5.175  -8.187  14.945  1.00  0.00     0.031 A 
BRANCH  52  66
ATOM     66  C   UNL     1       9.892  -6.829  11.186  1.00  0.00    -0.014 A 
ATOM     67  C   UNL     1      11.039  -6.082  11.510  1.00  0.00     0.010 A 
ATOM     68  C   UNL     1      10.025  -7.970  10.374  1.00  0.00     0.010 A 
ATOM     69  C   UNL     1      12.287  -6.443  10.997  1.00  0.00     0.020 A 
ATOM     70  C   UNL     1      11.277  -8.350   9.880  1.00  0.00     0.020 A 
ATOM     71  C   UNL     1      12.397  -7.572  10.180  1.00  0.00     0.054 A 
BRANCH  71  72
ATOM     72  S   UNL     1      14.032  -8.027   9.538  1.00  0.00     0.124 S 
ATOM     73  O   UNL     1      14.233  -7.026   8.493  1.00  0.00    -0.237 OA
ATOM     74  O   UNL     1      14.889  -7.889  10.713  1.00  0.00    -0.237 OA
ATOM     75  O   UNL     1      13.849  -9.396   9.062  1.00  0.00    -0.744 OA
ENDBRANCH  71  72
ENDBRANCH  52  66
BRANCH  53  76
ATOM     76  C   UNL     1       0.802  -4.053  14.258  1.00  0.00    -0.014 A 
ATOM     77  C   UNL     1       0.595  -3.557  15.557  1.00  0.00     0.010 A 
ATOM     78  C   UNL     1      -0.293  -4.156  13.381  1.00  0.00     0.010 A 
ATOM     79  C   UNL     1      -0.685  -3.184  15.976  1.00  0.00     0.020 A 
ATOM     80  C   UNL     1      -1.570  -3.761  13.789  1.00  0.00     0.020 A 
ATOM     81  C   UNL     1      -1.760  -3.288  15.088  1.00  0.00     0.054 A 
BRANCH  81  82
ATOM     82  S   UNL     1      -3.404  -2.746  15.633  1.00  0.00     0.124 S 
ATOM     83  O   UNL     1      -3.817  -3.851  16.492  1.00  0.00    -0.237 OA
ATOM     84  O   UNL     1      -3.113  -1.487  16.315  1.00  0.00    -0.237 OA
ATOM     85  O   UNL     1      -4.148  -2.610  14.383  1.00  0.00    -0.744 OA
ENDBRANCH  81  82
ENDBRANCH  53  76
BRANCH  65  86
ATOM     86  C   UNL     1       5.045  -9.329  15.916  1.00  0.00    -0.014 A 
ATOM     87  C   UNL     1       4.193 -10.415  15.649  1.00  0.00     0.010 A 
ATOM     88  C   UNL     1       5.821  -9.336  17.090  1.00  0.00     0.010 A 
ATOM     89  C   UNL     1       4.095 -11.474  16.555  1.00  0.00     0.020 A 
ATOM     90  C   UNL     1       5.744 -10.405  17.986  1.00  0.00     0.020 A 
ATOM     91  C   UNL     1       4.869 -11.461  17.719  1.00  0.00     0.054 A 
BRANCH  91  92
ATOM     92  S   UNL     1       4.753 -12.865  18.862  1.00  0.00     0.124 S 
ATOM     93  O   UNL     1       3.477 -12.611  19.526  1.00  0.00    -0.237 OA
ATOM     94  O   UNL     1       4.776 -14.016  17.963  1.00  0.00    -0.237 OA
ATOM     95  O   UNL     1       5.936 -12.720  19.708  1.00  0.00    -0.744 OA
ENDBRANCH  91  92
ENDBRANCH  65  86
ENDBRANCH  39  40
ENDBRANCH  31  34
ENDBRANCH  29  30
ENDBRANCH  28  29
ENDBRANCH  27  28
ENDBRANCH   1  27
TORSDOF 19
