REMARK SMILES CCN1CC(=O)N(C[C@@H]([NH3+])C(=O)NCCCCCCNC(=O)c2ccc(-c3c4nc(c(-c5ccc(S(=O)(=O)[O-])cc5)c5ccc([nH]5)c(-c5ccc(S(=O)(=O)[O-])cc5)c5nc(c(-c6ccc(S(=O)(=O)[O-])cc6)c6ccc3[nH]6)C=C5)C=C4)cc2)CC1=O
REMARK SMILES IDX 16 1 15 2 14 3 13 4 11 5 12 6 9 8 8 9 7 10 3 11 4 12 84 13
REMARK SMILES IDX 5 14 83 15 85 16 6 17 2 18 1 19 10 20 17 24 18 25 19 26
REMARK SMILES IDX 20 27 21 28 22 30 23 31 24 32 82 33 25 34 81 35 26 36 27 37
REMARK SMILES IDX 28 38 75 39 29 40 80 41 74 42 76 43 30 44 79 45 73 46 72 47
REMARK SMILES IDX 31 49 61 50 42 51 60 52 43 53 46 54 59 55 77 56 44 57 45 58
REMARK SMILES IDX 58 60 78 61 47 62 32 63 33 64 41 65 34 66 40 67 35 68 36 69
REMARK SMILES IDX 37 70 38 71 39 72 62 73 63 74 71 75 64 76 70 77 65 78 66 79
REMARK SMILES IDX 67 80 68 81 69 82 48 83 49 84 57 85 50 86 56 87 51 88 52 89
REMARK SMILES IDX 53 90 54 91 55 92
REMARK H PARENT 13 7 10 21 10 22 10 23 20 29 76 48 46 59
REMARK Flexibility Score: inf
ROOT
ATOM      1  C   UNL     1       1.285   9.559   4.934  1.00  0.00     0.002 C 
ENDROOT
BRANCH   1   2
ATOM      2  C   UNL     1       1.095   8.335   4.029  1.00  0.00     0.021 C 
BRANCH   2   3
ATOM      3  C   UNL     1       0.961   8.688   2.547  1.00  0.00     0.116 C 
BRANCH   3   4
ATOM      4  N   UNL     1       2.235   9.151   2.024  1.00  0.00    -0.351 N 
ATOM      5  C   UNL     1       3.079   8.569   1.126  1.00  0.00     0.280 C 
ATOM      6  O   UNL     1       4.140   9.145   0.871  1.00  0.00    -0.268 OA
ATOM      7  H   UNL     1       2.536  10.021   2.373  1.00  0.00     0.163 HD
BRANCH   5   8
ATOM      8  C   UNL     1       2.689   7.271   0.389  1.00  0.00     0.290 C 
BRANCH   8   9
ATOM      9  C   UNL     1       2.601   6.084   1.376  1.00  0.00     0.195 C 
BRANCH   9  10
ATOM     10  N   UNL     1       2.178   4.800   0.813  1.00  0.00    -0.325 N 
ATOM     11  N   UNL     1       1.043   2.268   0.683  1.00  0.00    -0.332 N 
ATOM     12  C   UNL     1       2.441   2.421   0.277  1.00  0.00     0.219 C 
ATOM     13  C   UNL     1       0.166   3.336   0.533  1.00  0.00     0.242 C 
ATOM     14  C   UNL     1       3.062   3.734   0.751  1.00  0.00     0.242 C 
ATOM     15  C   UNL     1       0.842   4.670   0.223  1.00  0.00     0.220 C 
ATOM     16  O   UNL     1      -1.056   3.217   0.521  1.00  0.00    -0.273 OA
ATOM     17  O   UNL     1       4.270   3.847   0.947  1.00  0.00    -0.273 OA
BRANCH  11  18
ATOM     18  C   UNL     1       0.534   0.944   1.021  1.00  0.00     0.116 C 
ATOM     19  C   UNL     1       0.789  -0.094  -0.060  1.00  0.00     0.027 C 
ENDBRANCH  11  18
ENDBRANCH   9  10
ENDBRANCH   8   9
BRANCH   8  20
ATOM     20  N   UNL     1       1.479   7.537  -0.432  1.00  0.00    -0.346 N 
ATOM     21  H   UNL     1       0.717   7.839   0.175  1.00  0.00     0.345 HD
ATOM     22  H   UNL     1       1.206   6.686  -0.922  1.00  0.00     0.345 HD
ATOM     23  H   UNL     1       1.683   8.270  -1.111  1.00  0.00     0.345 HD
ENDBRANCH   8  20
ENDBRANCH   5   8
ENDBRANCH   3   4
ENDBRANCH   2   3
ENDBRANCH   1   2
BRANCH   1  24
ATOM     24  C   UNL     1       0.151  10.587   4.860  1.00  0.00     0.002 C 
BRANCH  24  25
ATOM     25  C   UNL     1      -1.241  10.023   5.152  1.00  0.00     0.021 C 
BRANCH  25  26
ATOM     26  C   UNL     1      -1.384   9.402   6.537  1.00  0.00     0.116 C 
BRANCH  26  27
ATOM     27  N   UNL     1      -1.182  10.384   7.591  1.00  0.00    -0.352 N 
ATOM     28  C   UNL     1      -2.016  10.724   8.626  1.00  0.00     0.251 C 
ATOM     29  H   UNL     1      -0.329  10.873   7.557  1.00  0.00     0.163 HD
ATOM     30  O   UNL     1      -1.791  11.733   9.292  1.00  0.00    -0.269 OA
BRANCH  28  31
ATOM     31  C   UNL     1      -3.190   9.880   8.924  1.00  0.00     0.039 A 
ATOM     32  C   UNL     1      -4.420  10.489   9.181  1.00  0.00     0.014 A 
ATOM     33  C   UNL     1      -3.075   8.486   8.946  1.00  0.00     0.014 A 
ATOM     34  C   UNL     1      -5.547   9.697   9.406  1.00  0.00     0.010 A 
ATOM     35  C   UNL     1      -4.213   7.701   9.089  1.00  0.00     0.010 A 
ATOM     36  C   UNL     1      -5.460   8.297   9.330  1.00  0.00    -0.014 A 
BRANCH  36  37
ATOM     37  C   UNL     1      -6.659   7.439   9.504  1.00  0.00     0.031 A 
ATOM     38  C   UNL     1      -6.737   6.472  10.653  1.00  0.00     0.074 A 
ATOM     39  C   UNL     1      -7.651   7.488   8.594  1.00  0.00     0.049 A 
ATOM     40  N   UNL     1      -7.682   5.616  10.949  1.00  0.00    -0.248 NA
ATOM     41  C   UNL     1      -5.592   6.445  11.578  1.00  0.00     0.031 C 
ATOM     42  C   UNL     1      -7.678   8.360   7.417  1.00  0.00     0.029 A 
ATOM     43  N   UNL     1      -8.829   6.789   8.515  1.00  0.00    -0.354 N 
ATOM     44  C   UNL     1      -7.240   4.941  12.081  1.00  0.00     0.074 A 
ATOM     45  C   UNL     1      -5.918   5.444  12.382  1.00  0.00     0.031 C 
ATOM     46  C   UNL     1      -8.832   8.171   6.757  1.00  0.00     0.029 A 
ATOM     47  C   UNL     1      -9.604   7.135   7.434  1.00  0.00     0.049 A 
ATOM     48  H   UNL     1      -9.094   6.104   9.171  1.00  0.00     0.167 HD
ATOM     49  C   UNL     1      -7.884   4.003  12.818  1.00  0.00     0.031 A 
ATOM     50  C   UNL     1     -10.802   6.669   7.030  1.00  0.00     0.031 A 
ATOM     51  C   UNL     1      -9.197   3.501  12.508  1.00  0.00     0.049 A 
ATOM     52  C   UNL     1     -11.485   5.602   7.841  1.00  0.00     0.074 A 
ATOM     53  C   UNL     1      -9.957   2.585  13.213  1.00  0.00     0.029 A 
ATOM     54  N   UNL     1      -9.941   3.864  11.395  1.00  0.00    -0.354 N 
ATOM     55  N   UNL     1     -11.081   5.021   8.946  1.00  0.00    -0.248 NA
ATOM     56  C   UNL     1     -12.790   5.136   7.355  1.00  0.00     0.031 C 
ATOM     57  C   UNL     1     -11.132   2.346  12.493  1.00  0.00     0.029 A 
ATOM     58  C   UNL     1     -11.139   3.168  11.377  1.00  0.00     0.049 A 
ATOM     59  H   UNL     1      -9.660   4.521  10.717  1.00  0.00     0.167 HD
ATOM     60  C   UNL     1     -12.096   4.142   9.305  1.00  0.00     0.074 A 
ATOM     61  C   UNL     1     -13.137   4.278   8.305  1.00  0.00     0.031 C 
ATOM     62  C   UNL     1     -12.163   3.304  10.370  1.00  0.00     0.031 A 
BRANCH  49  63
ATOM     63  C   UNL     1      -7.156   3.449  14.017  1.00  0.00    -0.014 A 
ATOM     64  C   UNL     1      -6.866   4.256  15.134  1.00  0.00     0.010 A 
ATOM     65  C   UNL     1      -6.754   2.101  14.030  1.00  0.00     0.010 A 
ATOM     66  C   UNL     1      -6.130   3.746  16.207  1.00  0.00     0.020 A 
ATOM     67  C   UNL     1      -6.049   1.576  15.117  1.00  0.00     0.020 A 
ATOM     68  C   UNL     1      -5.719   2.410  16.187  1.00  0.00     0.054 A 
BRANCH  68  69
ATOM     69  S   UNL     1      -4.750   1.779  17.584  1.00  0.00     0.124 S 
ATOM     70  O   UNL     1      -3.460   2.434  17.374  1.00  0.00    -0.237 OA
ATOM     71  O   UNL     1      -5.510   2.248  18.739  1.00  0.00    -0.237 OA
ATOM     72  O   UNL     1      -4.753   0.332  17.384  1.00  0.00    -0.744 OA
ENDBRANCH  68  69
ENDBRANCH  49  63
BRANCH  50  73
ATOM     73  C   UNL     1     -11.443   7.242   5.815  1.00  0.00    -0.014 A 
ATOM     74  C   UNL     1     -12.574   8.069   5.932  1.00  0.00     0.010 A 
ATOM     75  C   UNL     1     -10.902   7.002   4.538  1.00  0.00     0.010 A 
ATOM     76  C   UNL     1     -13.154   8.642   4.797  1.00  0.00     0.020 A 
ATOM     77  C   UNL     1     -11.462   7.596   3.404  1.00  0.00     0.020 A 
ATOM     78  C   UNL     1     -12.588   8.409   3.540  1.00  0.00     0.054 A 
BRANCH  78  79
ATOM     79  S   UNL     1     -13.312   9.230   2.093  1.00  0.00     0.124 S 
ATOM     80  O   UNL     1     -14.578   8.519   1.941  1.00  0.00    -0.237 OA
ATOM     81  O   UNL     1     -13.414  10.618   2.538  1.00  0.00    -0.237 OA
ATOM     82  O   UNL     1     -12.329   8.994   1.038  1.00  0.00    -0.744 OA
ENDBRANCH  78  79
ENDBRANCH  50  73
BRANCH  62  83
ATOM     83  C   UNL     1     -13.419   2.487  10.532  1.00  0.00    -0.014 A 
ATOM     84  C   UNL     1     -13.719   1.421   9.665  1.00  0.00     0.010 A 
ATOM     85  C   UNL     1     -14.285   2.758  11.608  1.00  0.00     0.010 A 
ATOM     86  C   UNL     1     -14.878   0.663   9.852  1.00  0.00     0.020 A 
ATOM     87  C   UNL     1     -15.428   1.982  11.817  1.00  0.00     0.020 A 
ATOM     88  C   UNL     1     -15.724   0.947  10.929  1.00  0.00     0.054 A 
BRANCH  88  89
ATOM     89  S   UNL     1     -17.197  -0.082  11.176  1.00  0.00     0.124 S 
ATOM     90  O   UNL     1     -18.057   0.347  10.077  1.00  0.00    -0.237 OA
ATOM     91  O   UNL     1     -16.662  -1.437  11.063  1.00  0.00    -0.237 OA
ATOM     92  O   UNL     1     -17.660   0.289  12.511  1.00  0.00    -0.744 OA
ENDBRANCH  88  89
ENDBRANCH  62  83
ENDBRANCH  36  37
ENDBRANCH  28  31
ENDBRANCH  26  27
ENDBRANCH  25  26
ENDBRANCH  24  25
ENDBRANCH   1  24
TORSDOF 20
