REMARK SMILES Cc1c(Cl)ccc2c1C=C(C(=O)NCCCCCCNC(=O)c1ccc(-c3c4nc(c(-c5ccc(S(=O)(=O)[O-])cc5)c5ccc([nH]5)c(-c5ccc(S(=O)(=O)[O-])cc5)c5nc(c(-c6ccc(S(=O)(=O)[O-])cc6)c6ccc3[nH]6)C=C5)C=C4)cc1)[C@@H](C(F)(F)F)O2
REMARK SMILES IDX 17 1 16 2 15 3 14 4 13 5 11 6 12 7 10 9 1 10 2 11 3 12 8 13
REMARK SMILES IDX 4 14 5 15 7 16 9 17 6 18 88 19 83 20 84 21 85 22 86 23 87 24
REMARK SMILES IDX 18 25 19 26 20 27 21 28 22 30 23 31 24 32 82 33 25 34 81 35
REMARK SMILES IDX 26 36 27 37 28 38 75 39 29 40 80 41 74 42 76 43 30 44 79 45
REMARK SMILES IDX 73 46 72 47 31 49 61 50 42 51 60 52 43 53 46 54 59 55 77 56
REMARK SMILES IDX 44 57 45 58 58 60 78 61 47 62 32 63 33 64 41 65 34 66 40 67
REMARK SMILES IDX 35 68 36 69 37 70 38 71 39 72 62 73 63 74 71 75 64 76 70 77
REMARK SMILES IDX 65 78 66 79 67 80 68 81 69 82 48 83 49 84 57 85 50 86 56 87
REMARK SMILES IDX 51 88 52 89 53 90 54 91 55 92
REMARK H PARENT 13 8 20 29 76 48 46 59
REMARK Flexibility Score: inf
ROOT
ATOM      1  C   UNL     1       8.540   6.783  -1.094  1.00  0.00     0.002 C 
ENDROOT
BRANCH   1   2
ATOM      2  C   UNL     1       8.131   6.004   0.163  1.00  0.00     0.002 C 
BRANCH   2   3
ATOM      3  C   UNL     1       6.630   5.993   0.468  1.00  0.00     0.021 C 
BRANCH   3   4
ATOM      4  C   UNL     1       5.767   5.458  -0.670  1.00  0.00     0.116 C 
BRANCH   4   5
ATOM      5  N   UNL     1       5.727   4.007  -0.675  1.00  0.00    -0.352 N 
ATOM      6  C   UNL     1       4.787   3.040  -0.583  1.00  0.00     0.251 C 
ATOM      7  O   UNL     1       5.221   1.884  -0.646  1.00  0.00    -0.270 OA
ATOM      8  H   UNL     1       6.629   3.623  -0.771  1.00  0.00     0.163 HD
BRANCH   6   9
ATOM      9  C   UNL     1       3.317   3.266  -0.422  1.00  0.00     0.067 C 
ATOM     10  C   UNL     1       0.790  -0.302  -0.012  1.00  0.00     0.047 C 
ATOM     11  C   UNL     1       0.285   1.117   0.083  1.00  0.00    -0.021 A 
ATOM     12  C   UNL     1      -1.104   1.333   0.242  1.00  0.00     0.044 A 
ATOM     13  C   UNL     1       1.134   2.245  -0.018  1.00  0.00     0.022 A 
ATOM     14  Cl  UNL     1      -2.227   0.018   0.353  1.00  0.00    -0.084 Cl
ATOM     15  C   UNL     1      -1.636   2.621   0.317  1.00  0.00     0.024 A 
ATOM     16  C   UNL     1       0.573   3.530   0.042  1.00  0.00     0.128 A 
ATOM     17  C   UNL     1       2.592   2.164  -0.148  1.00  0.00     0.026 C 
ATOM     18  C   UNL     1      -0.795   3.720   0.221  1.00  0.00     0.048 A 
ATOM     19  O   UNL     1       1.305   4.679  -0.025  1.00  0.00    -0.475 OA
ATOM     20  C   UNL     1       2.637   4.592  -0.589  1.00  0.00     0.314 C 
BRANCH  20  21
ATOM     21  C   UNL     1       2.604   5.070  -2.051  1.00  0.00     0.429 C 
ATOM     22  F   UNL     1       2.290   6.386  -2.114  1.00  0.00    -0.167 F 
ATOM     23  F   UNL     1       3.800   4.931  -2.669  1.00  0.00    -0.167 F 
ATOM     24  F   UNL     1       1.696   4.396  -2.792  1.00  0.00    -0.167 F 
ENDBRANCH  20  21
ENDBRANCH   6   9
ENDBRANCH   4   5
ENDBRANCH   3   4
ENDBRANCH   2   3
ENDBRANCH   1   2
BRANCH   1  25
ATOM     25  C   UNL     1       7.953   8.193  -1.216  1.00  0.00     0.021 C 
BRANCH  25  26
ATOM     26  C   UNL     1       8.274   9.116  -0.046  1.00  0.00     0.116 C 
BRANCH  26  27
ATOM     27  N   UNL     1       9.701   9.367   0.062  1.00  0.00    -0.352 N 
ATOM     28  C   UNL     1      10.365  10.564  -0.014  1.00  0.00     0.251 C 
ATOM     29  H   UNL     1      10.265   8.573   0.208  1.00  0.00     0.163 HD
ATOM     30  O   UNL     1      11.587  10.592  -0.126  1.00  0.00    -0.269 OA
BRANCH  28  31
ATOM     31  C   UNL     1       9.590  11.819   0.032  1.00  0.00     0.039 A 
ATOM     32  C   UNL     1       9.792  12.780  -0.960  1.00  0.00     0.014 A 
ATOM     33  C   UNL     1       8.668  12.037   1.062  1.00  0.00     0.014 A 
ATOM     34  C   UNL     1       9.036  13.953  -0.942  1.00  0.00     0.010 A 
ATOM     35  C   UNL     1       7.884  13.187   1.052  1.00  0.00     0.010 A 
ATOM     36  C   UNL     1       8.071  14.158   0.057  1.00  0.00    -0.014 A 
BRANCH  36  37
ATOM     37  C   UNL     1       7.280  15.410   0.104  1.00  0.00     0.031 A 
ATOM     38  C   UNL     1       7.549  16.414   1.189  1.00  0.00     0.074 A 
ATOM     39  C   UNL     1       6.311  15.628  -0.805  1.00  0.00     0.049 A 
ATOM     40  N   UNL     1       6.945  17.549   1.424  1.00  0.00    -0.248 NA
ATOM     41  C   UNL     1       8.628  16.097   2.140  1.00  0.00     0.031 C 
ATOM     42  C   UNL     1       5.952  14.721  -1.897  1.00  0.00     0.029 A 
ATOM     43  N   UNL     1       5.450  16.686  -0.954  1.00  0.00    -0.354 N 
ATOM     44  C   UNL     1       7.567  18.080   2.546  1.00  0.00     0.074 A 
ATOM     45  C   UNL     1       8.567  17.127   2.973  1.00  0.00     0.031 C 
ATOM     46  C   UNL     1       4.962  15.273  -2.618  1.00  0.00     0.029 A 
ATOM     47  C   UNL     1       4.597  16.557  -2.025  1.00  0.00     0.049 A 
ATOM     48  H   UNL     1       5.443  17.465  -0.352  1.00  0.00     0.167 HD
ATOM     49  C   UNL     1       7.341  19.267   3.154  1.00  0.00     0.031 A 
ATOM     50  C   UNL     1       3.631  17.380  -2.477  1.00  0.00     0.031 A 
ATOM     51  C   UNL     1       6.359  20.222   2.719  1.00  0.00     0.049 A 
ATOM     52  C   UNL     1       3.377  18.680  -1.765  1.00  0.00     0.074 A 
ATOM     53  C   UNL     1       6.082  21.468   3.252  1.00  0.00     0.029 A 
ATOM     54  N   UNL     1       5.502  20.042   1.645  1.00  0.00    -0.354 N 
ATOM     55  N   UNL     1       3.992  19.174  -0.718  1.00  0.00    -0.248 NA
ATOM     56  C   UNL     1       2.304  19.534  -2.295  1.00  0.00     0.031 C 
ATOM     57  C   UNL     1       5.030  22.028   2.521  1.00  0.00     0.029 A 
ATOM     58  C   UNL     1       4.683  21.148   1.508  1.00  0.00     0.049 A 
ATOM     59  H   UNL     1       5.480  19.246   1.067  1.00  0.00     0.167 HD
ATOM     60  C   UNL     1       3.395  20.406  -0.476  1.00  0.00     0.074 A 
ATOM     61  C   UNL     1       2.374  20.585  -1.487  1.00  0.00     0.031 C 
ATOM     62  C   UNL     1       3.673  21.308   0.495  1.00  0.00     0.031 A 
BRANCH  49  63
ATOM     63  C   UNL     1       8.180  19.615   4.349  1.00  0.00    -0.014 A 
ATOM     64  C   UNL     1       9.512  20.036   4.189  1.00  0.00     0.010 A 
ATOM     65  C   UNL     1       7.610  19.602   5.635  1.00  0.00     0.010 A 
ATOM     66  C   UNL     1      10.263  20.433   5.297  1.00  0.00     0.020 A 
ATOM     67  C   UNL     1       8.353  20.017   6.743  1.00  0.00     0.020 A 
ATOM     68  C   UNL     1       9.676  20.429   6.566  1.00  0.00     0.054 A 
BRANCH  68  69
ATOM     69  S   UNL     1      10.665  20.998   7.975  1.00  0.00     0.124 S 
ATOM     70  O   UNL     1      11.768  20.039   7.981  1.00  0.00    -0.237 OA
ATOM     71  O   UNL     1      11.018  22.359   7.581  1.00  0.00    -0.237 OA
ATOM     72  O   UNL     1       9.750  20.895   9.109  1.00  0.00    -0.744 OA
ENDBRANCH  68  69
ENDBRANCH  49  63
BRANCH  50  73
ATOM     73  C   UNL     1       2.848  17.005  -3.684  1.00  0.00    -0.014 A 
ATOM     74  C   UNL     1       3.099  17.636  -4.914  1.00  0.00     0.010 A 
ATOM     75  C   UNL     1       1.874  15.993  -3.616  1.00  0.00     0.010 A 
ATOM     76  C   UNL     1       2.387  17.262  -6.058  1.00  0.00     0.020 A 
ATOM     77  C   UNL     1       1.173  15.603  -4.761  1.00  0.00     0.020 A 
ATOM     78  C   UNL     1       1.435  16.241  -5.975  1.00  0.00     0.054 A 
BRANCH  78  79
ATOM     79  S   UNL     1       0.565  15.743  -7.487  1.00  0.00     0.124 S 
ATOM     80  O   UNL     1      -0.134  16.970  -7.859  1.00  0.00    -0.237 OA
ATOM     81  O   UNL     1       1.668  15.353  -8.362  1.00  0.00    -0.237 OA
ATOM     82  O   UNL     1      -0.292  14.645  -7.046  1.00  0.00    -0.744 OA
ENDBRANCH  78  79
ENDBRANCH  50  73
BRANCH  62  83
ATOM     83  C   UNL     1       2.881  22.585   0.517  1.00  0.00    -0.014 A 
ATOM     84  C   UNL     1       1.579  22.613   1.042  1.00  0.00     0.010 A 
ATOM     85  C   UNL     1       3.494  23.788   0.120  1.00  0.00     0.010 A 
ATOM     86  C   UNL     1       0.900  23.827   1.170  1.00  0.00     0.020 A 
ATOM     87  C   UNL     1       2.825  25.005   0.264  1.00  0.00     0.020 A 
ATOM     88  C   UNL     1       1.532  25.017   0.791  1.00  0.00     0.054 A 
BRANCH  88  89
ATOM     89  S   UNL     1       0.649  26.581   1.036  1.00  0.00     0.124 S 
ATOM     90  O   UNL     1      -0.514  26.418   0.167  1.00  0.00    -0.237 OA
ATOM     91  O   UNL     1       0.370  26.563   2.469  1.00  0.00    -0.237 OA
ATOM     92  O   UNL     1       1.608  27.596   0.603  1.00  0.00    -0.744 OA
ENDBRANCH  88  89
ENDBRANCH  62  83
ENDBRANCH  36  37
ENDBRANCH  28  31
ENDBRANCH  26  27
ENDBRANCH  25  26
ENDBRANCH   1  25
TORSDOF 17
