REMARK SMILES O=C(C[C@H]([NH2+]Cc1ccccc1C1CC1)c1cccs1)NCCCCCCNC(=O)c1ccc(-c2c3nc(c(-c4ccc(S(=O)(=O)[O-])cc4)c4ccc([nH]4)c(-c4ccc(S(=O)(=O)[O-])cc4)c4nc(c(-c5ccc(S(=O)(=O)[O-])cc5)c5ccc2[nH]5)C=C4)C=C3)cc1
REMARK SMILES IDX 23 1 22 2 21 3 1 4 2 5 3 7 4 8 16 9 17 10 20 11 18 12 19 13
REMARK SMILES IDX 5 14 6 17 7 18 8 19 12 20 9 21 11 22 10 23 13 24 14 25 15 26
REMARK SMILES IDX 24 27 25 28 26 29 27 30 28 31 29 32 30 34 31 35 32 36 90 37
REMARK SMILES IDX 33 38 89 39 34 40 35 41 36 42 83 43 37 44 88 45 82 46 84 47
REMARK SMILES IDX 38 48 87 49 81 50 80 51 39 53 69 54 50 55 68 56 51 57 54 58
REMARK SMILES IDX 67 59 85 60 52 61 53 62 66 64 86 65 55 66 40 67 41 68 49 69
REMARK SMILES IDX 42 70 48 71 43 72 44 73 45 74 46 75 47 76 70 77 71 78 79 79
REMARK SMILES IDX 72 80 78 81 73 82 74 83 75 84 76 85 77 86 56 87 57 88 65 89
REMARK SMILES IDX 58 90 64 91 59 92 60 93 61 94 62 95 63 96
REMARK H PARENT 21 6 5 15 5 16 28 33 84 52 54 63
REMARK Flexibility Score: inf
ROOT
ATOM      1  C   UNL     1       3.683   0.575   5.293  1.00  0.00     0.021 C 
ENDROOT
BRANCH   1   2
ATOM      2  C   UNL     1       3.150   0.081   3.947  1.00  0.00     0.116 C 
BRANCH   2   3
ATOM      3  N   UNL     1       3.822   0.738   2.838  1.00  0.00    -0.356 N 
ATOM      4  O   UNL     1       4.327  -1.174   1.675  1.00  0.00    -0.275 OA
ATOM      5  C   UNL     1       4.383   0.046   1.786  1.00  0.00     0.226 C 
ATOM      6  H   UNL     1       3.878   1.721   2.838  1.00  0.00     0.163 HD
BRANCH   5   7
ATOM      7  C   UNL     1       5.104   0.911   0.771  1.00  0.00     0.171 C 
BRANCH   7   8
ATOM      8  C   UNL     1       4.139   1.775  -0.056  1.00  0.00     0.233 C 
BRANCH   8   9
ATOM      9  C   UNL     1       4.851   2.953  -0.700  1.00  0.00     0.062 A 
ATOM     10  C   UNL     1       4.547   4.295  -0.556  1.00  0.00     0.021 A 
ATOM     11  S   UNL     1       6.122   2.722  -1.833  1.00  0.00    -0.143 S 
ATOM     12  C   UNL     1       5.305   5.122  -1.435  1.00  0.00     0.012 A 
ATOM     13  C   UNL     1       6.190   4.390  -2.193  1.00  0.00     0.065 A 
ENDBRANCH   8   9
BRANCH   8  14
ATOM     14  N   UNL     1       3.407   1.016  -1.091  1.00  0.00    -0.335 N 
ATOM     15  H   UNL     1       3.092   0.128  -0.698  1.00  0.00     0.347 HD
ATOM     16  H   UNL     1       4.028   0.846  -1.881  1.00  0.00     0.347 HD
BRANCH  14  17
ATOM     17  C   UNL     1       2.244   1.780  -1.552  1.00  0.00     0.298 C 
BRANCH  17  18
ATOM     18  C   UNL     1       1.273   0.977  -2.386  1.00  0.00     0.010 A 
ATOM     19  C   UNL     1       1.445   1.084  -3.791  1.00  0.00     0.010 A 
ATOM     20  C   UNL     1       0.203   0.208  -1.859  1.00  0.00    -0.036 A 
ATOM     21  C   UNL     1       0.565   0.489  -4.688  1.00  0.00     0.001 A 
ATOM     22  C   UNL     1      -0.659  -0.386  -2.818  1.00  0.00     0.004 A 
ATOM     23  C   UNL     1      -0.496  -0.247  -4.199  1.00  0.00     0.000 A 
BRANCH  20  24
ATOM     24  C   UNL     1      -0.175  -0.060  -0.401  1.00  0.00     0.020 C 
ATOM     25  C   UNL     1       0.697   0.060   0.813  1.00  0.00     0.009 C 
ATOM     26  C   UNL     1      -0.392   1.067   0.579  1.00  0.00     0.009 C 
ENDBRANCH  20  24
ENDBRANCH  17  18
ENDBRANCH  14  17
ENDBRANCH   8  14
ENDBRANCH   7   8
ENDBRANCH   5   7
ENDBRANCH   2   3
ENDBRANCH   1   2
BRANCH   1  27
ATOM     27  C   UNL     1       3.446   2.066   5.568  1.00  0.00     0.002 C 
BRANCH  27  28
ATOM     28  C   UNL     1       1.978   2.500   5.606  1.00  0.00     0.002 C 
BRANCH  28  29
ATOM     29  C   UNL     1       1.118   1.797   6.659  1.00  0.00     0.021 C 
BRANCH  29  30
ATOM     30  C   UNL     1       1.605   1.955   8.097  1.00  0.00     0.116 C 
BRANCH  30  31
ATOM     31  N   UNL     1       1.578   3.339   8.544  1.00  0.00    -0.352 N 
ATOM     32  C   UNL     1       1.044   3.870   9.692  1.00  0.00     0.251 C 
ATOM     33  H   UNL     1       2.003   3.987   7.937  1.00  0.00     0.163 HD
ATOM     34  O   UNL     1       0.957   5.092   9.815  1.00  0.00    -0.269 OA
BRANCH  32  35
ATOM     35  C   UNL     1       0.554   2.980  10.768  1.00  0.00     0.039 A 
ATOM     36  C   UNL     1      -0.652   3.284  11.404  1.00  0.00     0.014 A 
ATOM     37  C   UNL     1       1.288   1.857  11.161  1.00  0.00     0.014 A 
ATOM     38  C   UNL     1      -1.144   2.436  12.400  1.00  0.00     0.010 A 
ATOM     39  C   UNL     1       0.757   0.972  12.097  1.00  0.00     0.010 A 
ATOM     40  C   UNL     1      -0.458   1.258  12.738  1.00  0.00    -0.014 A 
BRANCH  40  41
ATOM     41  C   UNL     1      -0.974   0.334  13.783  1.00  0.00     0.031 A 
ATOM     42  C   UNL     1      -0.172   0.096  15.037  1.00  0.00     0.074 A 
ATOM     43  C   UNL     1      -2.137  -0.321  13.591  1.00  0.00     0.049 A 
ATOM     44  N   UNL     1      -0.416  -0.721  16.030  1.00  0.00    -0.248 NA
ATOM     45  C   UNL     1       1.080   0.858  15.185  1.00  0.00     0.031 C 
ATOM     46  C   UNL     1      -2.993  -0.204  12.407  1.00  0.00     0.029 A 
ATOM     47  N   UNL     1      -2.799  -1.222  14.388  1.00  0.00    -0.354 N 
ATOM     48  C   UNL     1       0.647  -0.573  16.913  1.00  0.00     0.074 A 
ATOM     49  C   UNL     1       1.572   0.361  16.310  1.00  0.00     0.031 C 
ATOM     50  C   UNL     1      -4.073  -0.987  12.566  1.00  0.00     0.029 A 
ATOM     51  C   UNL     1      -3.970  -1.692  13.839  1.00  0.00     0.049 A 
ATOM     52  H   UNL     1      -2.467  -1.506  15.271  1.00  0.00     0.167 HD
ATOM     53  C   UNL     1       0.826  -1.137  18.131  1.00  0.00     0.031 A 
ATOM     54  C   UNL     1      -4.855  -2.597  14.302  1.00  0.00     0.031 A 
ATOM     55  C   UNL     1      -0.097  -2.058  18.737  1.00  0.00     0.049 A 
ATOM     56  C   UNL     1      -4.617  -3.231  15.649  1.00  0.00     0.074 A 
ATOM     57  C   UNL     1      -0.014  -2.670  19.976  1.00  0.00     0.029 A 
ATOM     58  N   UNL     1      -1.278  -2.493  18.155  1.00  0.00    -0.354 N 
ATOM     59  N   UNL     1      -3.623  -3.045  16.485  1.00  0.00    -0.248 NA
ATOM     60  C   UNL     1      -5.633  -4.182  16.124  1.00  0.00     0.031 C 
ATOM     61  C   UNL     1      -1.123  -3.509  20.125  1.00  0.00     0.029 A 
ATOM     62  C   UNL     1      -1.929  -3.368  19.007  1.00  0.00     0.049 A 
ATOM     63  H   UNL     1      -1.605  -2.220  17.267  1.00  0.00     0.167 HD
ATOM     64  C   UNL     1      -3.918  -3.822  17.601  1.00  0.00     0.074 A 
ATOM     65  C   UNL     1      -5.187  -4.467  17.339  1.00  0.00     0.031 C 
ATOM     66  C   UNL     1      -3.204  -3.986  18.742  1.00  0.00     0.031 A 
BRANCH  53  67
ATOM     67  C   UNL     1       2.062  -0.755  18.905  1.00  0.00    -0.014 A 
ATOM     68  C   UNL     1       2.201   0.537  19.444  1.00  0.00     0.010 A 
ATOM     69  C   UNL     1       3.060  -1.713  19.159  1.00  0.00     0.010 A 
ATOM     70  C   UNL     1       3.328   0.873  20.198  1.00  0.00     0.020 A 
ATOM     71  C   UNL     1       4.175  -1.390  19.939  1.00  0.00     0.020 A 
ATOM     72  C   UNL     1       4.306  -0.095  20.445  1.00  0.00     0.054 A 
BRANCH  72  73
ATOM     73  S   UNL     1       5.728   0.357  21.475  1.00  0.00     0.124 S 
ATOM     74  O   UNL     1       6.460   1.265  20.596  1.00  0.00    -0.237 OA
ATOM     75  O   UNL     1       5.097   0.980  22.636  1.00  0.00    -0.237 OA
ATOM     76  O   UNL     1       6.387  -0.920  21.738  1.00  0.00    -0.744 OA
ENDBRANCH  72  73
ENDBRANCH  53  67
BRANCH  54  77
ATOM     77  C   UNL     1      -6.049  -2.971  13.491  1.00  0.00    -0.014 A 
ATOM     78  C   UNL     1      -7.347  -2.653  13.928  1.00  0.00     0.010 A 
ATOM     79  C   UNL     1      -5.892  -3.687  12.290  1.00  0.00     0.010 A 
ATOM     80  C   UNL     1      -8.465  -3.087  13.208  1.00  0.00     0.020 A 
ATOM     81  C   UNL     1      -7.005  -4.091  11.548  1.00  0.00     0.020 A 
ATOM     82  C   UNL     1      -8.286  -3.809  12.025  1.00  0.00     0.054 A 
BRANCH  82  83
ATOM     83  S   UNL     1      -9.748  -4.364  11.106  1.00  0.00     0.124 S 
ATOM     84  O   UNL     1     -10.243  -5.447  11.950  1.00  0.00    -0.237 OA
ATOM     85  O   UNL     1     -10.575  -3.160  11.070  1.00  0.00    -0.237 OA
ATOM     86  O   UNL     1      -9.204  -4.775   9.814  1.00  0.00    -0.744 OA
ENDBRANCH  82  83
ENDBRANCH  54  77
BRANCH  66  87
ATOM     87  C   UNL     1      -3.809  -4.837  19.828  1.00  0.00    -0.014 A 
ATOM     88  C   UNL     1      -3.929  -6.231  19.694  1.00  0.00     0.010 A 
ATOM     89  C   UNL     1      -4.223  -4.226  21.027  1.00  0.00     0.010 A 
ATOM     90  C   UNL     1      -4.493  -6.993  20.721  1.00  0.00     0.020 A 
ATOM     91  C   UNL     1      -4.755  -4.988  22.069  1.00  0.00     0.020 A 
ATOM     92  C   UNL     1      -4.903  -6.366  21.902  1.00  0.00     0.054 A 
BRANCH  92  93
ATOM     93  S   UNL     1      -5.602  -7.380  23.233  1.00  0.00     0.124 S 
ATOM     94  O   UNL     1      -6.914  -7.727  22.694  1.00  0.00    -0.237 OA
ATOM     95  O   UNL     1      -4.650  -8.484  23.328  1.00  0.00    -0.237 OA
ATOM     96  O   UNL     1      -5.620  -6.480  24.384  1.00  0.00    -0.744 OA
ENDBRANCH  92  93
ENDBRANCH  66  87
ENDBRANCH  40  41
ENDBRANCH  32  35
ENDBRANCH  30  31
ENDBRANCH  29  30
ENDBRANCH  28  29
ENDBRANCH  27  28
ENDBRANCH   1  27
TORSDOF 22
