REMARK SMILES O=C(NC1(C(=O)NCCCCCCNC(=O)c2ccc(-c3c4nc(c(-c5ccc(S(=O)(=O)[O-])cc5)c5ccc([nH]5)c(-c5ccc(S(=O)(=O)[O-])cc5)c5nc(c(-c6ccc(S(=O)(=O)[O-])cc6)c6ccc3[nH]6)C=C5)C=C4)cc2)CC[NH2+]CC1)OCC1c2ccccc2-c2ccccc21
REMARK SMILES IDX 10 1 9 2 8 3 7 4 5 5 6 6 4 8 77 9 81 10 78 11 80 12 79 13
REMARK SMILES IDX 3 16 1 17 2 18 82 20 83 21 84 22 85 23 96 24 86 25 90 26
REMARK SMILES IDX 91 27 95 28 87 29 89 30 92 31 94 32 88 33 93 34 11 35 12 36
REMARK SMILES IDX 13 37 14 38 15 39 16 41 17 42 18 43 76 44 19 45 75 46 20 47
REMARK SMILES IDX 21 48 22 49 69 50 23 51 74 52 68 53 70 54 24 55 73 56 67 57
REMARK SMILES IDX 66 58 25 60 55 61 36 62 54 63 37 64 40 65 53 66 71 67 38 68
REMARK SMILES IDX 39 69 52 71 72 72 41 73 26 74 27 75 35 76 28 77 34 78 29 79
REMARK SMILES IDX 30 80 31 81 32 82 33 83 56 84 57 85 65 86 58 87 64 88 59 89
REMARK SMILES IDX 60 90 61 91 62 92 63 93 42 94 43 95 51 96 44 97 50 98 45 99
REMARK SMILES IDX 46 100 47 101 48 102 49 103
REMARK H PARENT 7 7 79 14 79 15 3 19 14 40 70 59 40 70
REMARK Flexibility Score: inf
ROOT
ATOM      1  C   UNL     1       8.956   2.546   2.577  1.00  0.00     0.002 C 
ENDROOT
BRANCH   1   2
ATOM      2  C   UNL     1       7.693   2.758   1.711  1.00  0.00     0.021 C 
BRANCH   2   3
ATOM      3  C   UNL     1       6.638   1.642   1.808  1.00  0.00     0.116 C 
BRANCH   3   4
ATOM      4  N   UNL     1       5.200   2.053   1.593  1.00  0.00    -0.354 N 
ATOM      5  C   UNL     1       4.057   2.016   0.866  1.00  0.00     0.246 C 
ATOM      6  O   UNL     1       3.153   2.513   1.595  1.00  0.00    -0.272 OA
ATOM      7  H   UNL     1       4.989   2.633   2.360  1.00  0.00     0.163 HD
BRANCH   5   8
ATOM      8  C   UNL     1       3.471   1.497  -0.648  1.00  0.00     0.132 C 
ATOM      9  C   UNL     1       2.754   2.850  -1.096  1.00  0.00     0.100 C 
ATOM     10  C   UNL     1       3.896   0.794  -1.972  1.00  0.00     0.100 C 
ATOM     11  C   UNL     1       2.621   3.254  -2.584  1.00  0.00     0.263 C 
ATOM     12  C   UNL     1       2.999   1.011  -3.180  1.00  0.00     0.263 C 
ATOM     13  N   UNL     1       3.228   2.381  -3.561  1.00  0.00    -0.346 N 
ATOM     14  H   UNL     1       4.231   2.560  -3.602  1.00  0.00     0.346 HD
ATOM     15  H   UNL     1       2.816   2.555  -4.478  1.00  0.00     0.346 HD
BRANCH   8  16
ATOM     16  N   UNL     1       2.584   0.498  -0.017  1.00  0.00    -0.307 N 
ATOM     17  O   UNL     1       2.258  -1.431   1.116  1.00  0.00    -0.225 OA
ATOM     18  C   UNL     1       2.992  -0.753   0.403  1.00  0.00     0.408 C 
ATOM     19  H   UNL     1       1.639   0.740   0.113  1.00  0.00     0.168 HD
BRANCH  18  20
ATOM     20  O   UNL     1       4.133  -1.267  -0.159  1.00  0.00    -0.449 OA
BRANCH  20  21
ATOM     21  C   UNL     1       5.482  -0.864   0.256  1.00  0.00     0.248 C 
BRANCH  21  22
ATOM     22  C   UNL     1       6.454  -0.350  -0.920  1.00  0.00     0.088 C 
ATOM     23  C   UNL     1       7.807  -1.067  -1.057  1.00  0.00    -0.029 A 
ATOM     24  C   UNL     1       6.910   1.116  -1.345  1.00  0.00    -0.029 A 
ATOM     25  C   UNL     1       8.226  -2.299  -0.590  1.00  0.00     0.005 A 
ATOM     26  C   UNL     1       8.669  -0.283  -1.864  1.00  0.00    -0.014 A 
ATOM     27  C   UNL     1       8.088   1.012  -2.100  1.00  0.00    -0.014 A 
ATOM     28  C   UNL     1       6.383   2.408  -1.251  1.00  0.00     0.005 A 
ATOM     29  C   UNL     1       9.517  -2.725  -0.920  1.00  0.00     0.000 A 
ATOM     30  C   UNL     1       9.936  -0.714  -2.208  1.00  0.00     0.009 A 
ATOM     31  C   UNL     1       8.597   2.076  -2.855  1.00  0.00     0.009 A 
ATOM     32  C   UNL     1       6.896   3.499  -1.966  1.00  0.00     0.000 A 
ATOM     33  C   UNL     1      10.360  -1.945  -1.726  1.00  0.00     0.001 A 
ATOM     34  C   UNL     1       7.978   3.321  -2.806  1.00  0.00     0.001 A 
ENDBRANCH  21  22
ENDBRANCH  20  21
ENDBRANCH  18  20
ENDBRANCH   8  16
ENDBRANCH   5   8
ENDBRANCH   3   4
ENDBRANCH   2   3
ENDBRANCH   1   2
BRANCH   1  35
ATOM     35  C   UNL     1       9.854   1.334   2.279  1.00  0.00     0.002 C 
BRANCH  35  36
ATOM     36  C   UNL     1      10.697   1.369   0.998  1.00  0.00     0.021 C 
BRANCH  36  37
ATOM     37  C   UNL     1      11.698   2.516   0.828  1.00  0.00     0.116 C 
BRANCH  37  38
ATOM     38  N   UNL     1      12.679   2.610   1.900  1.00  0.00    -0.352 N 
ATOM     39  C   UNL     1      14.053   2.669   1.874  1.00  0.00     0.251 C 
ATOM     40  H   UNL     1      12.289   2.635   2.804  1.00  0.00     0.163 HD
ATOM     41  O   UNL     1      14.665   2.653   2.942  1.00  0.00    -0.269 OA
BRANCH  39  42
ATOM     42  C   UNL     1      14.820   2.729   0.603  1.00  0.00     0.039 A 
ATOM     43  C   UNL     1      16.016   2.003   0.510  1.00  0.00     0.014 A 
ATOM     44  C   UNL     1      14.427   3.532  -0.469  1.00  0.00     0.014 A 
ATOM     45  C   UNL     1      16.771   2.028  -0.669  1.00  0.00     0.010 A 
ATOM     46  C   UNL     1      15.149   3.510  -1.667  1.00  0.00     0.010 A 
ATOM     47  C   UNL     1      16.328   2.756  -1.784  1.00  0.00    -0.014 A 
BRANCH  47  48
ATOM     48  C   UNL     1      17.075   2.729  -3.074  1.00  0.00     0.031 A 
ATOM     49  C   UNL     1      17.703   3.984  -3.624  1.00  0.00     0.074 A 
ATOM     50  C   UNL     1      17.140   1.585  -3.785  1.00  0.00     0.049 A 
ATOM     51  N   UNL     1      18.333   4.163  -4.758  1.00  0.00    -0.248 NA
ATOM     52  C   UNL     1      17.592   5.199  -2.803  1.00  0.00     0.031 C 
ATOM     53  C   UNL     1      16.551   0.305  -3.385  1.00  0.00     0.029 A 
ATOM     54  N   UNL     1      17.723   1.314  -5.000  1.00  0.00    -0.354 N 
ATOM     55  C   UNL     1      18.675   5.511  -4.796  1.00  0.00     0.074 A 
ATOM     56  C   UNL     1      18.146   6.111  -3.590  1.00  0.00     0.031 C 
ATOM     57  C   UNL     1      16.820  -0.617  -4.324  1.00  0.00     0.029 A 
ATOM     58  C   UNL     1      17.564   0.011  -5.412  1.00  0.00     0.049 A 
ATOM     59  H   UNL     1      18.209   1.990  -5.526  1.00  0.00     0.167 HD
ATOM     60  C   UNL     1      19.379   6.186  -5.738  1.00  0.00     0.031 A 
ATOM     61  C   UNL     1      17.962  -0.611  -6.540  1.00  0.00     0.031 A 
ATOM     62  C   UNL     1      19.915   5.588  -6.934  1.00  0.00     0.049 A 
ATOM     63  C   UNL     1      18.731   0.161  -7.577  1.00  0.00     0.074 A 
ATOM     64  C   UNL     1      20.686   6.180  -7.921  1.00  0.00     0.029 A 
ATOM     65  N   UNL     1      19.738   4.264  -7.307  1.00  0.00    -0.354 N 
ATOM     66  N   UNL     1      19.092   1.422  -7.564  1.00  0.00    -0.248 NA
ATOM     67  C   UNL     1      19.156  -0.577  -8.775  1.00  0.00     0.031 C 
ATOM     68  C   UNL     1      20.931   5.227  -8.915  1.00  0.00     0.029 A 
ATOM     69  C   UNL     1      20.365   4.026  -8.519  1.00  0.00     0.049 A 
ATOM     70  H   UNL     1      19.241   3.593  -6.787  1.00  0.00     0.167 HD
ATOM     71  C   UNL     1      19.810   1.621  -8.739  1.00  0.00     0.074 A 
ATOM     72  C   UNL     1      19.844   0.349  -9.431  1.00  0.00     0.031 C 
ATOM     73  C   UNL     1      20.391   2.756  -9.200  1.00  0.00     0.031 A 
BRANCH  60  74
ATOM     74  C   UNL     1      19.603   7.661  -5.518  1.00  0.00    -0.014 A 
ATOM     75  C   UNL     1      20.465   8.123  -4.507  1.00  0.00     0.010 A 
ATOM     76  C   UNL     1      18.977   8.598  -6.361  1.00  0.00     0.010 A 
ATOM     77  C   UNL     1      20.660   9.493  -4.312  1.00  0.00     0.020 A 
ATOM     78  C   UNL     1      19.192   9.969  -6.189  1.00  0.00     0.020 A 
ATOM     79  C   UNL     1      20.018  10.408  -5.152  1.00  0.00     0.054 A 
BRANCH  79  80
ATOM     80  S   UNL     1      20.300  12.180  -4.885  1.00  0.00     0.124 S 
ATOM     81  O   UNL     1      19.532  12.426  -3.667  1.00  0.00    -0.237 OA
ATOM     82  O   UNL     1      21.751  12.255  -4.737  1.00  0.00    -0.237 OA
ATOM     83  O   UNL     1      19.767  12.803  -6.094  1.00  0.00    -0.744 OA
ENDBRANCH  79  80
ENDBRANCH  60  74
BRANCH  61  84
ATOM     84  C   UNL     1      17.651  -2.054  -6.741  1.00  0.00    -0.014 A 
ATOM     85  C   UNL     1      18.672  -3.019  -6.685  1.00  0.00     0.010 A 
ATOM     86  C   UNL     1      16.329  -2.472  -6.978  1.00  0.00     0.010 A 
ATOM     87  C   UNL     1      18.380  -4.373  -6.878  1.00  0.00     0.020 A 
ATOM     88  C   UNL     1      16.029  -3.827  -7.144  1.00  0.00     0.020 A 
ATOM     89  C   UNL     1      17.059  -4.768  -7.103  1.00  0.00     0.054 A 
BRANCH  89  90
ATOM     90  S   UNL     1      16.695  -6.536  -7.293  1.00  0.00     0.124 S 
ATOM     91  O   UNL     1      17.205  -6.808  -8.633  1.00  0.00    -0.237 OA
ATOM     92  O   UNL     1      17.448  -7.134  -6.194  1.00  0.00    -0.237 OA
ATOM     93  O   UNL     1      15.242  -6.602  -7.149  1.00  0.00    -0.744 OA
ENDBRANCH  89  90
ENDBRANCH  61  84
BRANCH  73  94
ATOM     94  C   UNL     1      21.145   2.671 -10.501  1.00  0.00    -0.014 A 
ATOM     95  C   UNL     1      20.472   2.541 -11.729  1.00  0.00     0.010 A 
ATOM     96  C   UNL     1      22.548   2.779 -10.497  1.00  0.00     0.010 A 
ATOM     97  C   UNL     1      21.191   2.490 -12.926  1.00  0.00     0.020 A 
ATOM     98  C   UNL     1      23.268   2.756 -11.694  1.00  0.00     0.020 A 
ATOM     99  C   UNL     1      22.585   2.597 -12.901  1.00  0.00     0.054 A 
BRANCH  99 100
ATOM    100  S   UNL     1      23.492   2.573 -14.472  1.00  0.00     0.124 S 
ATOM    101  O   UNL     1      23.415   1.164 -14.846  1.00  0.00    -0.237 OA
ATOM    102  O   UNL     1      22.715   3.488 -15.305  1.00  0.00    -0.237 OA
ATOM    103  O   UNL     1      24.825   3.050 -14.111  1.00  0.00    -0.744 OA
ENDBRANCH  99 100
ENDBRANCH  73  94
ENDBRANCH  47  48
ENDBRANCH  39  42
ENDBRANCH  37  38
ENDBRANCH  36  37
ENDBRANCH  35  36
ENDBRANCH   1  35
TORSDOF 20
