REMARK SMILES CC1(C)[C@](C)(C(=O)NCCCCCCNC(=O)c2ccc(-c3c4nc(c(-c5ccc(S(=O)(=O)[O-])cc5)c5ccc([nH]5)c(-c5ccc(S(=O)(=O)[O-])cc5)c5nc(c(-c6ccc(S(=O)(=O)[O-])cc6)c6ccc3[nH]6)C=C5)C=C4)cc2)CC[C@@]1(C)C(=O)N1CCc2ccccc2C1
REMARK SMILES IDX 12 1 11 2 10 3 9 4 8 5 6 6 7 7 4 9 1 10 2 11 3 12 80 13
REMARK SMILES IDX 78 14 5 15 79 16 81 17 82 18 83 19 84 20 85 21 93 22 86 23
REMARK SMILES IDX 92 24 87 25 91 26 88 27 90 28 89 29 13 30 14 31 15 32 16 33
REMARK SMILES IDX 17 35 18 36 19 37 77 38 20 39 76 40 21 41 22 42 23 43 70 44
REMARK SMILES IDX 24 45 75 46 69 47 71 48 25 49 74 50 68 51 67 52 26 54 56 55
REMARK SMILES IDX 37 56 55 57 38 58 41 59 54 60 72 61 39 62 40 63 53 65 73 66
REMARK SMILES IDX 42 67 27 68 28 69 36 70 29 71 35 72 30 73 31 74 32 75 33 76
REMARK SMILES IDX 34 77 57 78 58 79 66 80 59 81 65 82 60 83 61 84 62 85 63 86
REMARK SMILES IDX 64 87 43 88 44 89 52 90 45 91 51 92 46 93 47 94 48 95 49 96
REMARK SMILES IDX 50 97
REMARK H PARENT 8 8 15 34 71 53 41 64
REMARK Flexibility Score: inf
ROOT
ATOM      1  C   UNL     1       0.256   4.323   7.204  1.00  0.00     0.002 C 
ENDROOT
BRANCH   1   2
ATOM      2  C   UNL     1      -0.856   3.919   6.228  1.00  0.00     0.002 C 
BRANCH   2   3
ATOM      3  C   UNL     1      -0.599   4.329   4.774  1.00  0.00     0.021 C 
BRANCH   3   4
ATOM      4  C   UNL     1       0.648   3.671   4.206  1.00  0.00     0.116 C 
BRANCH   4   5
ATOM      5  N   UNL     1       0.362   2.285   3.913  1.00  0.00    -0.356 N 
ATOM      6  C   UNL     1       0.278   1.602   2.745  1.00  0.00     0.226 C 
ATOM      7  O   UNL     1       0.050   0.392   2.863  1.00  0.00    -0.274 OA
ATOM      8  H   UNL     1       0.196   1.733   4.711  1.00  0.00     0.163 HD
BRANCH   6   9
ATOM      9  C   UNL     1       0.725   2.208   1.388  1.00  0.00     0.052 C 
ATOM     10  C   UNL     1       0.442   0.022  -0.132  1.00  0.00     0.013 C 
ATOM     11  C   UNL     1      -0.028   1.458   0.143  1.00  0.00    -0.007 C 
ATOM     12  C   UNL     1      -1.546   1.296   0.563  1.00  0.00     0.013 C 
ATOM     13  C   UNL     1       0.055   2.455  -1.154  1.00  0.00     0.053 C 
ATOM     14  C   UNL     1       0.354   3.663   1.042  1.00  0.00     0.018 C 
ATOM     15  C   UNL     1       2.264   2.135   1.623  1.00  0.00     0.022 C 
ATOM     16  C   UNL     1       0.353   3.822  -0.492  1.00  0.00     0.018 C 
ATOM     17  C   UNL     1      -1.340   2.587  -1.856  1.00  0.00     0.022 C 
BRANCH  13  18
ATOM     18  C   UNL     1       1.025   2.200  -2.458  1.00  0.00     0.229 C 
ATOM     19  O   UNL     1       0.539   1.877  -3.549  1.00  0.00    -0.274 OA
BRANCH  18  20
ATOM     20  N   UNL     1       2.395   2.400  -2.392  1.00  0.00    -0.338 N 
ATOM     21  C   UNL     1       3.291   2.526  -3.570  1.00  0.00     0.124 C 
ATOM     22  C   UNL     1       3.059   2.042  -1.202  1.00  0.00     0.155 C 
ATOM     23  C   UNL     1       4.828   2.537  -3.204  1.00  0.00     0.057 C 
ATOM     24  C   UNL     1       4.104   1.008  -1.429  1.00  0.00    -0.025 A 
ATOM     25  C   UNL     1       5.139   1.373  -2.285  1.00  0.00    -0.041 A 
ATOM     26  C   UNL     1       4.087  -0.238  -0.813  1.00  0.00     0.006 A 
ATOM     27  C   UNL     1       6.319   0.640  -2.232  1.00  0.00     0.004 A 
ATOM     28  C   UNL     1       5.215  -1.034  -0.857  1.00  0.00     0.000 A 
ATOM     29  C   UNL     1       6.358  -0.553  -1.491  1.00  0.00     0.000 A 
ENDBRANCH  18  20
ENDBRANCH  13  18
ENDBRANCH   6   9
ENDBRANCH   4   5
ENDBRANCH   3   4
ENDBRANCH   2   3
ENDBRANCH   1   2
BRANCH   1  30
ATOM     30  C   UNL     1       0.642   5.803   7.153  1.00  0.00     0.021 C 
BRANCH  30  31
ATOM     31  C   UNL     1      -0.525   6.758   7.377  1.00  0.00     0.116 C 
BRANCH  31  32
ATOM     32  N   UNL     1      -1.112   6.582   8.694  1.00  0.00    -0.352 N 
ATOM     33  C   UNL     1      -1.368   7.528   9.652  1.00  0.00     0.251 C 
ATOM     34  H   UNL     1      -1.360   5.659   8.931  1.00  0.00     0.163 HD
ATOM     35  O   UNL     1      -1.661   7.185  10.795  1.00  0.00    -0.269 OA
BRANCH  33  36
ATOM     36  C   UNL     1      -1.274   8.959   9.302  1.00  0.00     0.039 A 
ATOM     37  C   UNL     1      -0.592   9.822  10.162  1.00  0.00     0.014 A 
ATOM     38  C   UNL     1      -1.861   9.444   8.129  1.00  0.00     0.014 A 
ATOM     39  C   UNL     1      -0.461  11.169   9.822  1.00  0.00     0.010 A 
ATOM     40  C   UNL     1      -1.674  10.773   7.762  1.00  0.00     0.010 A 
ATOM     41  C   UNL     1      -0.981  11.650   8.609  1.00  0.00    -0.014 A 
BRANCH  41  42
ATOM     42  C   UNL     1      -0.821  13.072   8.216  1.00  0.00     0.031 A 
ATOM     43  C   UNL     1      -2.030  13.958   8.093  1.00  0.00     0.074 A 
ATOM     44  C   UNL     1       0.404  13.548   7.917  1.00  0.00     0.049 A 
ATOM     45  N   UNL     1      -2.102  15.204   7.699  1.00  0.00    -0.248 NA
ATOM     46  C   UNL     1      -3.332  13.361   8.435  1.00  0.00     0.031 C 
ATOM     47  C   UNL     1       1.648  12.776   7.962  1.00  0.00     0.029 A 
ATOM     48  N   UNL     1       0.802  14.796   7.507  1.00  0.00    -0.354 N 
ATOM     49  C   UNL     1      -3.452  15.534   7.732  1.00  0.00     0.074 A 
ATOM     50  C   UNL     1      -4.169  14.345   8.138  1.00  0.00     0.031 C 
ATOM     51  C   UNL     1       2.672  13.572   7.611  1.00  0.00     0.029 A 
ATOM     52  C   UNL     1       2.155  14.897   7.283  1.00  0.00     0.049 A 
ATOM     53  H   UNL     1       0.178  15.547   7.385  1.00  0.00     0.167 HD
ATOM     54  C   UNL     1      -4.040  16.725   7.470  1.00  0.00     0.031 A 
ATOM     55  C   UNL     1       2.895  15.937   6.853  1.00  0.00     0.031 A 
ATOM     56  C   UNL     1      -3.323  17.909   7.080  1.00  0.00     0.049 A 
ATOM     57  C   UNL     1       2.218  17.250   6.567  1.00  0.00     0.074 A 
ATOM     58  C   UNL     1      -3.824  19.176   6.833  1.00  0.00     0.029 A 
ATOM     59  N   UNL     1      -1.952  17.976   6.887  1.00  0.00    -0.354 N 
ATOM     60  N   UNL     1       0.945  17.555   6.654  1.00  0.00    -0.248 NA
ATOM     61  C   UNL     1       3.078  18.361   6.137  1.00  0.00     0.031 C 
ATOM     62  C   UNL     1      -2.760  19.999   6.450  1.00  0.00     0.029 A 
ATOM     63  C   UNL     1      -1.590  19.258   6.510  1.00  0.00     0.049 A 
ATOM     64  H   UNL     1      -1.328  17.224   7.001  1.00  0.00     0.167 HD
ATOM     65  C   UNL     1       0.856  18.901   6.315  1.00  0.00     0.074 A 
ATOM     66  C   UNL     1       2.204  19.353   6.037  1.00  0.00     0.031 C 
ATOM     67  C   UNL     1      -0.243  19.691   6.241  1.00  0.00     0.031 A 
BRANCH  54  68
ATOM     68  C   UNL     1      -5.538  16.806   7.601  1.00  0.00    -0.014 A 
ATOM     69  C   UNL     1      -6.155  16.765   8.864  1.00  0.00     0.010 A 
ATOM     70  C   UNL     1      -6.335  16.973   6.454  1.00  0.00     0.010 A 
ATOM     71  C   UNL     1      -7.545  16.854   8.976  1.00  0.00     0.020 A 
ATOM     72  C   UNL     1      -7.724  17.089   6.564  1.00  0.00     0.020 A 
ATOM     73  C   UNL     1      -8.321  17.014   7.824  1.00  0.00     0.054 A 
BRANCH  73  74
ATOM     74  S   UNL     1     -10.120  17.159   8.003  1.00  0.00     0.124 S 
ATOM     75  O   UNL     1     -10.502  15.785   8.320  1.00  0.00    -0.237 OA
ATOM     76  O   UNL     1     -10.258  18.117   9.096  1.00  0.00    -0.237 OA
ATOM     77  O   UNL     1     -10.560  17.642   6.696  1.00  0.00    -0.744 OA
ENDBRANCH  73  74
ENDBRANCH  54  68
BRANCH  55  78
ATOM     78  C   UNL     1       4.364  15.782   6.673  1.00  0.00    -0.014 A 
ATOM     79  C   UNL     1       5.264  16.414   7.548  1.00  0.00     0.010 A 
ATOM     80  C   UNL     1       4.870  14.996   5.621  1.00  0.00     0.010 A 
ATOM     81  C   UNL     1       6.643  16.285   7.361  1.00  0.00     0.020 A 
ATOM     82  C   UNL     1       6.247  14.841   5.447  1.00  0.00     0.020 A 
ATOM     83  C   UNL     1       7.126  15.499   6.310  1.00  0.00     0.054 A 
BRANCH  83  84
ATOM     84  S   UNL     1       8.919  15.311   6.107  1.00  0.00     0.124 S 
ATOM     85  O   UNL     1       9.295  16.596   5.527  1.00  0.00    -0.237 OA
ATOM     86  O   UNL     1       9.371  15.077   7.477  1.00  0.00    -0.237 OA
ATOM     87  O   UNL     1       9.041  14.160   5.215  1.00  0.00    -0.744 OA
ENDBRANCH  83  84
ENDBRANCH  55  78
BRANCH  67  88
ATOM     88  C   UNL     1      -0.033  21.136   5.878  1.00  0.00    -0.014 A 
ATOM     89  C   UNL     1       0.290  21.518   4.564  1.00  0.00     0.010 A 
ATOM     90  C   UNL     1      -0.216  22.130   6.858  1.00  0.00     0.010 A 
ATOM     91  C   UNL     1       0.455  22.867   4.243  1.00  0.00     0.020 A 
ATOM     92  C   UNL     1      -0.078  23.481   6.534  1.00  0.00     0.020 A 
ATOM     93  C   UNL     1       0.271  23.841   5.231  1.00  0.00     0.054 A 
BRANCH  93  94
ATOM     94  S   UNL     1       0.447  25.588   4.778  1.00  0.00     0.124 S 
ATOM     95  O   UNL     1       1.896  25.729   4.667  1.00  0.00    -0.237 OA
ATOM     96  O   UNL     1      -0.291  25.671   3.520  1.00  0.00    -0.237 OA
ATOM     97  O   UNL     1      -0.165  26.299   5.899  1.00  0.00    -0.744 OA
ENDBRANCH  93  94
ENDBRANCH  67  88
ENDBRANCH  41  42
ENDBRANCH  33  36
ENDBRANCH  31  32
ENDBRANCH  30  31
ENDBRANCH   1  30
TORSDOF 18
