REMARK SMILES CC(C)(C)[NH2+]CCC(=O)N1CCO[C@@H](CC(=O)NCCCCCCNC(=O)c2ccc(-c3c4nc(c(-c5ccc(S(=O)(=O)[O-])cc5)c5ccc([nH]5)c(-c5ccc(S(=O)(=O)[O-])cc5)c5nc(c(-c6ccc(S(=O)(=O)[O-])cc6)c6ccc3[nH]6)C=C5)C=C4)cc2)C1
REMARK SMILES IDX 20 1 19 2 18 3 16 4 17 5 15 7 14 8 10 9 11 10 88 11 12 12
REMARK SMILES IDX 13 13 8 14 9 15 7 16 6 17 5 18 2 21 1 22 3 23 4 24 21 25
REMARK SMILES IDX 22 26 23 27 24 28 25 29 26 30 27 32 28 33 29 34 87 35 30 36
REMARK SMILES IDX 86 37 31 38 32 39 33 40 80 41 34 42 85 43 79 44 81 45 35 46
REMARK SMILES IDX 84 47 78 48 77 49 36 51 66 52 47 53 65 54 48 55 51 56 64 57
REMARK SMILES IDX 82 58 49 59 50 60 63 62 83 63 52 64 37 65 38 66 46 67 39 68
REMARK SMILES IDX 45 69 40 70 41 71 42 72 43 73 44 74 67 75 68 76 76 77 69 78
REMARK SMILES IDX 75 79 70 80 71 81 72 82 73 83 74 84 53 85 54 86 62 87 55 88
REMARK SMILES IDX 61 89 56 90 57 91 58 92 59 93 60 94
REMARK H PARENT 18 6 5 19 5 20 25 31 81 50 51 61
REMARK Flexibility Score: inf
ROOT
ATOM      1  C   UNL     1       2.442  -7.679   1.091  1.00  0.00     0.021 C 
ENDROOT
BRANCH   1   2
ATOM      2  C   UNL     1       1.103  -8.265   1.555  1.00  0.00     0.116 C 
BRANCH   2   3
ATOM      3  N   UNL     1       0.674  -7.601   2.778  1.00  0.00    -0.356 N 
ATOM      4  C   UNL     1      -0.276  -6.640   2.972  1.00  0.00     0.222 C 
ATOM      5  O   UNL     1      -0.307  -6.052   4.054  1.00  0.00    -0.275 OA
ATOM      6  H   UNL     1       1.143  -7.891   3.594  1.00  0.00     0.163 HD
BRANCH   4   7
ATOM      7  C   UNL     1      -1.276  -6.324   1.885  1.00  0.00     0.133 C 
BRANCH   7   8
ATOM      8  C   UNL     1      -0.962  -5.084   1.040  1.00  0.00     0.147 C 
ATOM      9  N   UNL     1       0.696  -4.219  -0.657  1.00  0.00    -0.338 N 
ATOM     10  C   UNL     1      -0.345  -4.343  -1.672  1.00  0.00     0.148 C 
ATOM     11  C   UNL     1       0.467  -5.113   0.468  1.00  0.00     0.152 C 
ATOM     12  C   UNL     1      -1.704  -4.106  -1.022  1.00  0.00     0.182 C 
ATOM     13  O   UNL     1      -1.955  -5.093  -0.014  1.00  0.00    -0.374 OA
BRANCH   9  14
ATOM     14  C   UNL     1       2.014  -4.169  -1.111  1.00  0.00     0.228 C 
ATOM     15  O   UNL     1       2.505  -5.044  -1.818  1.00  0.00    -0.275 OA
BRANCH  14  16
ATOM     16  C   UNL     1       2.809  -2.989  -0.590  1.00  0.00     0.161 C 
BRANCH  16  17
ATOM     17  C   UNL     1       2.407  -1.666  -1.249  1.00  0.00     0.270 C 
BRANCH  17  18
ATOM     18  N   UNL     1       1.034  -1.209  -1.026  1.00  0.00    -0.342 N 
ATOM     19  H   UNL     1       0.775  -0.643  -1.834  1.00  0.00     0.346 HD
ATOM     20  H   UNL     1       0.516  -2.076  -0.881  1.00  0.00     0.346 HD
BRANCH  18  21
ATOM     21  C   UNL     1       0.716  -0.417   0.169  1.00  0.00     0.088 C 
ATOM     22  C   UNL     1       1.504   0.898   0.213  1.00  0.00     0.078 C 
ATOM     23  C   UNL     1       0.920  -1.198   1.474  1.00  0.00     0.078 C 
ATOM     24  C   UNL     1      -0.784  -0.074   0.044  1.00  0.00     0.078 C 
ENDBRANCH  18  21
ENDBRANCH  17  18
ENDBRANCH  16  17
ENDBRANCH  14  16
ENDBRANCH   9  14
ENDBRANCH   7   8
ENDBRANCH   4   7
ENDBRANCH   2   3
ENDBRANCH   1   2
BRANCH   1  25
ATOM     25  C   UNL     1       3.656  -8.513   1.490  1.00  0.00     0.002 C 
BRANCH  25  26
ATOM     26  C   UNL     1       3.823  -9.802   0.681  1.00  0.00     0.002 C 
BRANCH  26  27
ATOM     27  C   UNL     1       3.897  -9.619  -0.840  1.00  0.00     0.021 C 
BRANCH  27  28
ATOM     28  C   UNL     1       4.939  -8.610  -1.318  1.00  0.00     0.116 C 
BRANCH  28  29
ATOM     29  N   UNL     1       6.284  -8.999  -0.915  1.00  0.00    -0.352 N 
ATOM     30  C   UNL     1       7.322  -9.454  -1.684  1.00  0.00     0.251 C 
ATOM     31  H   UNL     1       6.474  -8.925   0.048  1.00  0.00     0.163 HD
ATOM     32  O   UNL     1       8.295  -9.992  -1.148  1.00  0.00    -0.269 OA
BRANCH  30  33
ATOM     33  C   UNL     1       7.275  -9.307  -3.152  1.00  0.00     0.039 A 
ATOM     34  C   UNL     1       7.630 -10.390  -3.960  1.00  0.00     0.014 A 
ATOM     35  C   UNL     1       6.896  -8.092  -3.730  1.00  0.00     0.014 A 
ATOM     36  C   UNL     1       7.549 -10.272  -5.350  1.00  0.00     0.010 A 
ATOM     37  C   UNL     1       6.753  -7.997  -5.112  1.00  0.00     0.010 A 
ATOM     38  C   UNL     1       7.081  -9.084  -5.936  1.00  0.00    -0.014 A 
BRANCH  38  39
ATOM     39  C   UNL     1       6.920  -8.958  -7.407  1.00  0.00     0.031 A 
ATOM     40  C   UNL     1       7.752  -7.969  -8.176  1.00  0.00     0.074 A 
ATOM     41  C   UNL     1       5.975  -9.683  -8.037  1.00  0.00     0.049 A 
ATOM     42  N   UNL     1       7.702  -7.662  -9.447  1.00  0.00    -0.248 NA
ATOM     43  C   UNL     1       8.757  -7.209  -7.413  1.00  0.00     0.031 C 
ATOM     44  C   UNL     1       5.081 -10.651  -7.397  1.00  0.00     0.029 A 
ATOM     45  N   UNL     1       5.601  -9.711  -9.358  1.00  0.00    -0.354 N 
ATOM     46  C   UNL     1       8.653  -6.665  -9.633  1.00  0.00     0.074 A 
ATOM     47  C   UNL     1       9.233  -6.387  -8.337  1.00  0.00     0.031 C 
ATOM     48  C   UNL     1       4.278 -11.191  -8.327  1.00  0.00     0.029 A 
ATOM     49  C   UNL     1       4.567 -10.580  -9.620  1.00  0.00     0.049 A 
ATOM     50  H   UNL     1       6.031  -9.161 -10.051  1.00  0.00     0.167 HD
ATOM     51  C   UNL     1       9.021  -6.048 -10.781  1.00  0.00     0.031 A 
ATOM     52  C   UNL     1       3.916 -10.846 -10.770  1.00  0.00     0.031 A 
ATOM     53  C   UNL     1       8.445  -6.331 -12.069  1.00  0.00     0.049 A 
ATOM     54  C   UNL     1       4.329 -10.132 -12.028  1.00  0.00     0.074 A 
ATOM     55  C   UNL     1       8.787  -5.799 -13.300  1.00  0.00     0.029 A 
ATOM     56  N   UNL     1       7.406  -7.222 -12.293  1.00  0.00    -0.354 N 
ATOM     57  N   UNL     1       5.274  -9.238 -12.195  1.00  0.00    -0.248 NA
ATOM     58  C   UNL     1       3.592 -10.469 -13.254  1.00  0.00     0.031 C 
ATOM     59  C   UNL     1       7.918  -6.327 -14.260  1.00  0.00     0.029 A 
ATOM     60  C   UNL     1       7.075  -7.234 -13.637  1.00  0.00     0.049 A 
ATOM     61  H   UNL     1       6.967  -7.764 -11.598  1.00  0.00     0.167 HD
ATOM     62  C   UNL     1       5.263  -8.925 -13.550  1.00  0.00     0.074 A 
ATOM     63  C   UNL     1       4.227  -9.735 -14.158  1.00  0.00     0.031 C 
ATOM     64  C   UNL     1       6.041  -8.046 -14.228  1.00  0.00     0.031 A 
BRANCH  51  65
ATOM     65  C   UNL     1      10.096  -4.995 -10.693  1.00  0.00    -0.014 A 
ATOM     66  C   UNL     1      11.431  -5.342 -10.414  1.00  0.00     0.010 A 
ATOM     67  C   UNL     1       9.777  -3.646 -10.932  1.00  0.00     0.010 A 
ATOM     68  C   UNL     1      12.417  -4.355 -10.333  1.00  0.00     0.020 A 
ATOM     69  C   UNL     1      10.766  -2.659 -10.880  1.00  0.00     0.020 A 
ATOM     70  C   UNL     1      12.077  -3.018 -10.563  1.00  0.00     0.054 A 
BRANCH  70  71
ATOM     71  S   UNL     1      13.381  -1.761 -10.470  1.00  0.00     0.124 S 
ATOM     72  O   UNL     1      13.625  -1.687  -9.031  1.00  0.00    -0.237 OA
ATOM     73  O   UNL     1      14.457  -2.357 -11.258  1.00  0.00    -0.237 OA
ATOM     74  O   UNL     1      12.764  -0.576 -11.059  1.00  0.00    -0.744 OA
ENDBRANCH  70  71
ENDBRANCH  51  65
BRANCH  52  75
ATOM     75  C   UNL     1       2.811 -11.843 -10.783  1.00  0.00    -0.014 A 
ATOM     76  C   UNL     1       2.980 -13.086 -11.416  1.00  0.00     0.010 A 
ATOM     77  C   UNL     1       1.587 -11.559 -10.148  1.00  0.00     0.010 A 
ATOM     78  C   UNL     1       1.941 -14.022 -11.429  1.00  0.00     0.020 A 
ATOM     79  C   UNL     1       0.556 -12.503 -10.135  1.00  0.00     0.020 A 
ATOM     80  C   UNL     1       0.736 -13.725 -10.786  1.00  0.00     0.054 A 
BRANCH  80  81
ATOM     81  S   UNL     1      -0.579 -14.975 -10.771  1.00  0.00     0.124 S 
ATOM     82  O   UNL     1      -1.066 -14.920 -12.145  1.00  0.00    -0.237 OA
ATOM     83  O   UNL     1       0.144 -16.190 -10.402  1.00  0.00    -0.237 OA
ATOM     84  O   UNL     1      -1.508 -14.481  -9.756  1.00  0.00    -0.744 OA
ENDBRANCH  80  81
ENDBRANCH  52  75
BRANCH  64  85
ATOM     85  C   UNL     1       5.829  -7.933 -15.714  1.00  0.00    -0.014 A 
ATOM     86  C   UNL     1       4.695  -7.291 -16.242  1.00  0.00     0.010 A 
ATOM     87  C   UNL     1       6.815  -8.418 -16.594  1.00  0.00     0.010 A 
ATOM     88  C   UNL     1       4.539  -7.157 -17.624  1.00  0.00     0.020 A 
ATOM     89  C   UNL     1       6.676  -8.261 -17.975  1.00  0.00     0.020 A 
ATOM     90  C   UNL     1       5.532  -7.641 -18.482  1.00  0.00     0.054 A 
BRANCH  90  91
ATOM     91  S   UNL     1       5.333  -7.403 -20.269  1.00  0.00     0.124 S 
ATOM     92  O   UNL     1       4.293  -8.375 -20.592  1.00  0.00    -0.237 OA
ATOM     93  O   UNL     1       4.935  -6.000 -20.363  1.00  0.00    -0.237 OA
ATOM     94  O   UNL     1       6.657  -7.705 -20.809  1.00  0.00    -0.744 OA
ENDBRANCH  90  91
ENDBRANCH  64  85
ENDBRANCH  38  39
ENDBRANCH  30  33
ENDBRANCH  28  29
ENDBRANCH  27  28
ENDBRANCH  26  27
ENDBRANCH  25  26
ENDBRANCH   1  25
TORSDOF 22
