REMARK SMILES Cc1ccc(S(=O)(=O)n2cc(C(=O)C(=O)N[C@@H](Cc3cnc[nH]3)C(=O)NCCCCCCNC(=O)c3ccc(-c4c5nc(c(-c6ccc(S(=O)(=O)[O-])cc6)c6ccc([nH]6)c(-c6ccc(S(=O)(=O)[O-])cc6)c6nc(c(-c7ccc(S(=O)(=O)[O-])cc7)c7ccc4[nH]7)C=C6)C=C5)cc3)c3ccccc32)cc1
REMARK SMILES IDX 28 1 27 2 26 3 24 4 25 5 17 7 16 8 14 9 15 10 12 12 13 13
REMARK SMILES IDX 11 14 9 15 10 16 101 17 96 18 100 19 97 20 99 21 98 22 6 23
REMARK SMILES IDX 7 24 8 25 5 26 1 27 2 28 3 29 103 30 4 31 102 32 18 33 19 34
REMARK SMILES IDX 20 35 23 36 21 37 22 38 29 40 30 41 31 42 32 43 33 44 34 45
REMARK SMILES IDX 35 47 36 48 37 49 95 50 38 51 94 52 39 53 40 54 41 55 88 56
REMARK SMILES IDX 42 57 93 58 87 59 89 60 43 61 92 62 86 63 85 64 44 66 74 67
REMARK SMILES IDX 55 68 73 69 56 70 59 71 72 72 90 73 57 74 58 75 71 77 91 78
REMARK SMILES IDX 60 79 45 80 46 81 54 82 47 83 53 84 48 85 49 86 50 87 51 88
REMARK SMILES IDX 52 89 75 90 76 91 84 92 77 93 83 94 78 95 79 96 80 97 81 98
REMARK SMILES IDX 82 99 61 100 62 101 70 102 63 103 69 104 64 105 65 106
REMARK SMILES IDX 66 107 67 108 68 109
REMARK H PARENT 26 6 16 11 23 39 33 46 89 65 59 76
REMARK Flexibility Score: inf
ROOT
ATOM      1  C   UNL     1      -7.766   5.648   7.241  1.00  0.00     0.021 C 
ENDROOT
BRANCH   1   2
ATOM      2  C   UNL     1      -8.308   6.259   5.960  1.00  0.00     0.116 C 
BRANCH   2   3
ATOM      3  N   UNL     1      -7.362   7.071   5.233  1.00  0.00    -0.354 N 
ATOM      4  C   UNL     1      -7.296   7.297   3.890  1.00  0.00     0.242 C 
ATOM      5  O   UNL     1      -6.772   8.357   3.527  1.00  0.00    -0.273 OA
ATOM      6  H   UNL     1      -6.676   7.521   5.778  1.00  0.00     0.163 HD
BRANCH   4   7
ATOM      7  C   UNL     1      -7.940   6.353   2.843  1.00  0.00     0.177 C 
BRANCH   7   8
ATOM      8  N   UNL     1      -7.675   4.925   3.075  1.00  0.00    -0.337 N 
ATOM      9  C   UNL     1      -6.769   4.063   2.496  1.00  0.00     0.293 C 
ATOM     10  O   UNL     1      -6.611   2.962   3.016  1.00  0.00    -0.265 OA
ATOM     11  H   UNL     1      -8.244   4.513   3.765  1.00  0.00     0.164 HD
BRANCH   9  12
ATOM     12  C   UNL     1      -6.000   4.430   1.203  1.00  0.00     0.252 C 
ATOM     13  O   UNL     1      -6.110   5.567   0.756  1.00  0.00    -0.283 OA
BRANCH  12  14
ATOM     14  C   UNL     1      -5.181   3.453   0.470  1.00  0.00     0.054 A 
ATOM     15  N   UNL     1      -4.141   1.592  -0.195  1.00  0.00    -0.240 N 
ATOM     16  C   UNL     1      -4.907   2.138   0.803  1.00  0.00     0.117 A 
ATOM     17  C   UNL     1      -3.882   2.512  -1.189  1.00  0.00     0.065 A 
ATOM     18  C   UNL     1      -4.497   3.701  -0.777  1.00  0.00     0.012 A 
ATOM     19  C   UNL     1      -3.154   2.433  -2.391  1.00  0.00     0.028 A 
ATOM     20  C   UNL     1      -4.360   4.845  -1.595  1.00  0.00     0.011 A 
ATOM     21  C   UNL     1      -3.028   3.588  -3.168  1.00  0.00     0.002 A 
ATOM     22  C   UNL     1      -3.620   4.781  -2.776  1.00  0.00     0.001 A 
BRANCH  15  23
ATOM     23  S   UNL     1      -3.555  -0.007  -0.173  1.00  0.00     0.268 S 
ATOM     24  O   UNL     1      -3.854  -0.535  -1.488  1.00  0.00    -0.201 OA
ATOM     25  O   UNL     1      -4.083  -0.608   1.039  1.00  0.00    -0.201 OA
BRANCH  23  26
ATOM     26  C   UNL     1      -1.790   0.054  -0.008  1.00  0.00     0.088 A 
ATOM     27  C   UNL     1       2.509  -0.045   0.036  1.00  0.00     0.044 C 
ATOM     28  C   UNL     1       1.010  -0.005   0.044  1.00  0.00    -0.051 A 
ATOM     29  C   UNL     1       0.281  -1.197  -0.039  1.00  0.00     0.005 A 
ATOM     30  C   UNL     1       0.323   1.212   0.141  1.00  0.00     0.005 A 
ATOM     31  C   UNL     1      -1.114  -1.169  -0.071  1.00  0.00     0.022 A 
ATOM     32  C   UNL     1      -1.075   1.245   0.129  1.00  0.00     0.022 A 
ENDBRANCH  23  26
ENDBRANCH  15  23
ENDBRANCH  12  14
ENDBRANCH   9  12
ENDBRANCH   7   8
BRANCH   7  33
ATOM     33  C   UNL     1      -9.408   6.675   2.503  1.00  0.00     0.090 C 
BRANCH  33  34
ATOM     34  C   UNL     1     -10.434   6.343   3.530  1.00  0.00     0.037 A 
ATOM     35  C   UNL     1     -10.995   5.149   3.934  1.00  0.00     0.134 A 
ATOM     36  N   UNL     1     -11.079   7.298   4.283  1.00  0.00    -0.348 N 
ATOM     37  N   UNL     1     -11.892   5.351   4.947  1.00  0.00    -0.245 NA
ATOM     38  C   UNL     1     -11.925   6.649   5.137  1.00  0.00     0.196 A 
ATOM     39  H   UNL     1     -10.954   8.272   4.218  1.00  0.00     0.167 HD
ENDBRANCH  33  34
ENDBRANCH   7  33
ENDBRANCH   4   7
ENDBRANCH   2   3
ENDBRANCH   1   2
BRANCH   1  40
ATOM     40  C   UNL     1      -7.740   6.592   8.445  1.00  0.00     0.002 C 
BRANCH  40  41
ATOM     41  C   UNL     1      -9.034   7.367   8.746  1.00  0.00     0.002 C 
BRANCH  41  42
ATOM     42  C   UNL     1     -10.347   6.592   8.635  1.00  0.00     0.021 C 
BRANCH  42  43
ATOM     43  C   UNL     1     -10.463   5.417   9.581  1.00  0.00     0.116 C 
BRANCH  43  44
ATOM     44  N   UNL     1     -11.012   5.812  10.859  1.00  0.00    -0.352 N 
ATOM     45  C   UNL     1     -12.126   5.190  11.392  1.00  0.00     0.251 C 
ATOM     46  H   UNL     1     -10.582   6.541  11.361  1.00  0.00     0.163 HD
ATOM     47  O   UNL     1     -13.283   5.527  11.193  1.00  0.00    -0.269 OA
BRANCH  45  48
ATOM     48  C   UNL     1     -11.790   3.873  11.964  1.00  0.00     0.039 A 
ATOM     49  C   UNL     1     -11.168   3.853  13.220  1.00  0.00     0.014 A 
ATOM     50  C   UNL     1     -11.528   2.914  10.987  1.00  0.00     0.014 A 
ATOM     51  C   UNL     1     -10.091   3.009  13.414  1.00  0.00     0.010 A 
ATOM     52  C   UNL     1     -10.375   2.194  11.122  1.00  0.00     0.010 A 
ATOM     53  C   UNL     1      -9.646   2.289  12.312  1.00  0.00    -0.014 A 
BRANCH  53  54
ATOM     54  C   UNL     1      -8.397   1.568  12.282  1.00  0.00     0.031 A 
ATOM     55  C   UNL     1      -8.497   0.127  12.545  1.00  0.00     0.074 A 
ATOM     56  C   UNL     1      -7.296   2.250  11.906  1.00  0.00     0.049 A 
ATOM     57  N   UNL     1      -7.557  -0.601  13.023  1.00  0.00    -0.248 NA
ATOM     58  C   UNL     1      -9.760  -0.605  12.386  1.00  0.00     0.031 C 
ATOM     59  C   UNL     1      -5.985   1.759  11.508  1.00  0.00     0.029 A 
ATOM     60  N   UNL     1      -7.109   3.622  11.989  1.00  0.00    -0.354 N 
ATOM     61  C   UNL     1      -7.964  -1.910  12.866  1.00  0.00     0.074 A 
ATOM     62  C   UNL     1      -9.383  -1.855  12.651  1.00  0.00     0.031 C 
ATOM     63  C   UNL     1      -5.090   2.761  11.639  1.00  0.00     0.029 A 
ATOM     64  C   UNL     1      -5.773   3.885  12.274  1.00  0.00     0.049 A 
ATOM     65  H   UNL     1      -7.810   4.301  11.864  1.00  0.00     0.167 HD
ATOM     66  C   UNL     1      -7.012  -2.867  12.700  1.00  0.00     0.031 A 
ATOM     67  C   UNL     1      -5.440   4.374  13.510  1.00  0.00     0.031 A 
ATOM     68  C   UNL     1      -5.686  -2.270  12.860  1.00  0.00     0.049 A 
ATOM     69  C   UNL     1      -4.730   3.325  14.350  1.00  0.00     0.074 A 
ATOM     70  C   UNL     1      -4.783  -1.777  11.933  1.00  0.00     0.029 A 
ATOM     71  N   UNL     1      -5.350  -1.704  14.084  1.00  0.00    -0.354 N 
ATOM     72  N   UNL     1      -4.886   2.035  14.206  1.00  0.00    -0.248 NA
ATOM     73  C   UNL     1      -3.734   3.659  15.363  1.00  0.00     0.031 C 
ATOM     74  C   UNL     1      -3.976  -0.809  12.594  1.00  0.00     0.029 A 
ATOM     75  C   UNL     1      -4.373  -0.738  13.919  1.00  0.00     0.049 A 
ATOM     76  H   UNL     1      -5.750  -1.956  14.947  1.00  0.00     0.167 HD
ATOM     77  C   UNL     1      -4.015   1.375  15.031  1.00  0.00     0.074 A 
ATOM     78  C   UNL     1      -3.323   2.437  15.743  1.00  0.00     0.031 C 
ATOM     79  C   UNL     1      -3.893   0.014  15.070  1.00  0.00     0.031 A 
BRANCH  66  80
ATOM     80  C   UNL     1      -7.262  -4.214  12.062  1.00  0.00    -0.014 A 
ATOM     81  C   UNL     1      -6.170  -4.907  11.501  1.00  0.00     0.010 A 
ATOM     82  C   UNL     1      -8.521  -4.833  11.926  1.00  0.00     0.010 A 
ATOM     83  C   UNL     1      -6.327  -6.118  10.813  1.00  0.00     0.020 A 
ATOM     84  C   UNL     1      -8.698  -6.036  11.223  1.00  0.00     0.020 A 
ATOM     85  C   UNL     1      -7.595  -6.674  10.672  1.00  0.00     0.054 A 
BRANCH  85  86
ATOM     86  S   UNL     1      -7.770  -8.251   9.801  1.00  0.00     0.124 S 
ATOM     87  O   UNL     1      -7.241  -7.940   8.476  1.00  0.00    -0.237 OA
ATOM     88  O   UNL     1      -6.950  -9.147  10.613  1.00  0.00    -0.237 OA
ATOM     89  O   UNL     1      -9.207  -8.516   9.846  1.00  0.00    -0.744 OA
ENDBRANCH  85  86
ENDBRANCH  66  80
BRANCH  67  90
ATOM     90  C   UNL     1      -6.395   5.408  14.028  1.00  0.00    -0.014 A 
ATOM     91  C   UNL     1      -6.478   6.625  13.313  1.00  0.00     0.010 A 
ATOM     92  C   UNL     1      -7.439   5.088  14.914  1.00  0.00     0.010 A 
ATOM     93  C   UNL     1      -7.633   7.412  13.355  1.00  0.00     0.020 A 
ATOM     94  C   UNL     1      -8.600   5.885  14.968  1.00  0.00     0.020 A 
ATOM     95  C   UNL     1      -8.708   7.013  14.148  1.00  0.00     0.054 A 
BRANCH  95  96
ATOM     96  S   UNL     1     -10.305   7.849  13.890  1.00  0.00     0.124 S 
ATOM     97  O   UNL     1     -10.122   9.106  14.605  1.00  0.00    -0.237 OA
ATOM     98  O   UNL     1     -10.355   7.952  12.429  1.00  0.00    -0.237 OA
ATOM     99  O   UNL     1     -11.274   6.926  14.470  1.00  0.00    -0.744 OA
ENDBRANCH  95  96
ENDBRANCH  67  90
BRANCH  79 100
ATOM    100  C   UNL     1      -3.230  -0.754  16.188  1.00  0.00    -0.014 A 
ATOM    101  C   UNL     1      -3.029  -0.231  17.473  1.00  0.00     0.010 A 
ATOM    102  C   UNL     1      -2.929  -2.125  15.998  1.00  0.00     0.010 A 
ATOM    103  C   UNL     1      -2.470  -1.008  18.492  1.00  0.00     0.020 A 
ATOM    104  C   UNL     1      -2.439  -2.929  17.026  1.00  0.00     0.020 A 
ATOM    105  C   UNL     1      -2.174  -2.351  18.260  1.00  0.00     0.054 A 
BRANCH 105 106
ATOM    106  S   UNL     1      -1.471  -3.342  19.596  1.00  0.00     0.124 S 
ATOM    107  O   UNL     1      -0.063  -2.956  19.540  1.00  0.00    -0.237 OA
ATOM    108  O   UNL     1      -2.204  -2.870  20.768  1.00  0.00    -0.237 OA
ATOM    109  O   UNL     1      -1.761  -4.716  19.198  1.00  0.00    -0.744 OA
ENDBRANCH 105 106
ENDBRANCH  79 100
ENDBRANCH  53  54
ENDBRANCH  45  48
ENDBRANCH  43  44
ENDBRANCH  42  43
ENDBRANCH  41  42
ENDBRANCH  40  41
ENDBRANCH   1  40
TORSDOF 23
