REMARK SMILES C=CCN(CC(=O)NCCCCCCNC(=O)c1ccc(-c2c3nc(c(-c4ccc(S(=O)(=O)[O-])cc4)c4ccc([nH]4)c(-c4ccc(S(=O)(=O)[O-])cc4)c4nc(c(-c5ccc(S(=O)(=O)[O-])cc5)c5ccc2[nH]5)C=C4)C=C3)cc1)S(=O)(=O)c1ccccc1OC
REMARK SMILES IDX 11 1 10 2 9 3 8 4 6 5 7 6 5 8 4 9 3 10 2 11 1 12 78 13 79 14
REMARK SMILES IDX 80 15 81 16 82 17 86 18 83 19 85 20 84 21 87 22 88 23 12 24
REMARK SMILES IDX 13 25 14 26 15 27 16 28 17 30 18 31 19 32 77 33 20 34 76 35
REMARK SMILES IDX 21 36 22 37 23 38 70 39 24 40 75 41 69 42 71 43 25 44 74 45
REMARK SMILES IDX 68 46 67 47 26 49 56 50 37 51 55 52 38 53 41 54 54 55 72 56
REMARK SMILES IDX 39 57 40 58 53 60 73 61 42 62 27 63 28 64 36 65 29 66 35 67
REMARK SMILES IDX 30 68 31 69 32 70 33 71 34 72 57 73 58 74 66 75 59 76 65 77
REMARK SMILES IDX 60 78 61 79 62 80 63 81 64 82 43 83 44 84 52 85 45 86 51 87
REMARK SMILES IDX 46 88 47 89 48 90 49 91 50 92
REMARK H PARENT 8 7 15 29 71 48 41 59
REMARK Flexibility Score: inf
ROOT
ATOM      1  C   UNL     1      -2.330  -2.861   0.559  1.00  0.00     0.002 C 
ENDROOT
BRANCH   1   2
ATOM      2  C   UNL     1      -1.937  -1.531  -0.089  1.00  0.00     0.021 C 
BRANCH   2   3
ATOM      3  C   UNL     1      -3.099  -0.724  -0.673  1.00  0.00     0.116 C 
BRANCH   3   4
ATOM      4  N   UNL     1      -3.718   0.140   0.315  1.00  0.00    -0.355 N 
ATOM      5  C   UNL     1      -3.614   1.488   0.506  1.00  0.00     0.235 C 
ATOM      6  O   UNL     1      -4.330   2.000   1.373  1.00  0.00    -0.274 OA
ATOM      7  H   UNL     1      -4.310  -0.322   0.952  1.00  0.00     0.163 HD
BRANCH   5   8
ATOM      8  C   UNL     1      -2.715   2.359  -0.358  1.00  0.00     0.202 C 
BRANCH   8   9
ATOM      9  N   UNL     1      -1.244   2.486  -0.073  1.00  0.00    -0.185 NA
BRANCH   9  10
ATOM     10  C   UNL     1      -0.465   1.630  -0.996  1.00  0.00     0.130 C 
BRANCH  10  11
ATOM     11  C   UNL     1       1.012   1.755  -0.866  1.00  0.00    -0.018 C 
ATOM     12  C   UNL     1       1.797   0.760  -0.425  1.00  0.00     0.005 C 
ENDBRANCH  10  11
ENDBRANCH   9  10
BRANCH   9  13
ATOM     13  S   UNL     1      -0.781   2.498   1.589  1.00  0.00     0.247 S 
ATOM     14  O   UNL     1      -1.302   1.274   2.155  1.00  0.00    -0.207 OA
ATOM     15  O   UNL     1       0.624   2.827   1.693  1.00  0.00    -0.207 OA
BRANCH  13  16
ATOM     16  C   UNL     1      -1.610   3.925   2.245  1.00  0.00     0.124 A 
ATOM     17  C   UNL     1      -1.585   5.083   1.442  1.00  0.00     0.026 A 
ATOM     18  C   UNL     1      -2.126   3.991   3.541  1.00  0.00     0.138 A 
ATOM     19  C   UNL     1      -2.104   6.288   1.910  1.00  0.00     0.002 A 
ATOM     20  C   UNL     1      -2.662   5.206   3.996  1.00  0.00     0.048 A 
ATOM     21  C   UNL     1      -2.658   6.346   3.184  1.00  0.00     0.004 A 
BRANCH  18  22
ATOM     22  O   UNL     1      -1.913   3.047   4.507  1.00  0.00    -0.495 OA
ATOM     23  C   UNL     1      -2.796   1.930   4.451  1.00  0.00     0.278 C 
ENDBRANCH  18  22
ENDBRANCH  13  16
ENDBRANCH   9  13
ENDBRANCH   8   9
ENDBRANCH   5   8
ENDBRANCH   3   4
ENDBRANCH   2   3
ENDBRANCH   1   2
BRANCH   1  24
ATOM     24  C   UNL     1      -2.864  -3.932  -0.400  1.00  0.00     0.002 C 
BRANCH  24  25
ATOM     25  C   UNL     1      -2.000  -4.229  -1.631  1.00  0.00     0.021 C 
BRANCH  25  26
ATOM     26  C   UNL     1      -0.554  -4.633  -1.342  1.00  0.00     0.116 C 
BRANCH  26  27
ATOM     27  N   UNL     1      -0.466  -5.889  -0.617  1.00  0.00    -0.352 N 
ATOM     28  C   UNL     1       0.128  -7.074  -0.976  1.00  0.00     0.251 C 
ATOM     29  H   UNL     1      -0.898  -5.890   0.268  1.00  0.00     0.163 HD
ATOM     30  O   UNL     1      -0.075  -8.082  -0.302  1.00  0.00    -0.269 OA
BRANCH  28  31
ATOM     31  C   UNL     1       0.994  -7.154  -2.174  1.00  0.00     0.039 A 
ATOM     32  C   UNL     1       0.844  -8.240  -3.042  1.00  0.00     0.014 A 
ATOM     33  C   UNL     1       1.978  -6.193  -2.425  1.00  0.00     0.014 A 
ATOM     34  C   UNL     1       1.639  -8.333  -4.189  1.00  0.00     0.010 A 
ATOM     35  C   UNL     1       2.733  -6.258  -3.596  1.00  0.00     0.010 A 
ATOM     36  C   UNL     1       2.572  -7.328  -4.490  1.00  0.00    -0.014 A 
BRANCH  36  37
ATOM     37  C   UNL     1       3.384  -7.380  -5.734  1.00  0.00     0.031 A 
ATOM     38  C   UNL     1       4.876  -7.565  -5.662  1.00  0.00     0.074 A 
ATOM     39  C   UNL     1       2.787  -7.199  -6.929  1.00  0.00     0.049 A 
ATOM     40  N   UNL     1       5.754  -7.567  -6.633  1.00  0.00    -0.248 NA
ATOM     41  C   UNL     1       5.458  -7.750  -4.323  1.00  0.00     0.031 C 
ATOM     42  C   UNL     1       1.355  -6.976  -7.135  1.00  0.00     0.029 A 
ATOM     43  N   UNL     1       3.315  -7.163  -8.196  1.00  0.00    -0.354 N 
ATOM     44  C   UNL     1       6.992  -7.733  -6.023  1.00  0.00     0.074 A 
ATOM     45  C   UNL     1       6.755  -7.792  -4.596  1.00  0.00     0.031 C 
ATOM     46  C   UNL     1       1.116  -6.843  -8.450  1.00  0.00     0.029 A 
ATOM     47  C   UNL     1       2.378  -6.938  -9.177  1.00  0.00     0.049 A 
ATOM     48  H   UNL     1       4.273  -7.287  -8.384  1.00  0.00     0.167 HD
ATOM     49  C   UNL     1       8.215  -7.839  -6.597  1.00  0.00     0.031 A 
ATOM     50  C   UNL     1       2.518  -6.816 -10.511  1.00  0.00     0.031 A 
ATOM     51  C   UNL     1       8.452  -7.796  -8.015  1.00  0.00     0.049 A 
ATOM     52  C   UNL     1       3.883  -6.946 -11.127  1.00  0.00     0.074 A 
ATOM     53  C   UNL     1       9.650  -7.947  -8.694  1.00  0.00     0.029 A 
ATOM     54  N   UNL     1       7.474  -7.589  -8.975  1.00  0.00    -0.354 N 
ATOM     55  N   UNL     1       5.035  -7.153 -10.536  1.00  0.00    -0.248 NA
ATOM     56  C   UNL     1       3.964  -6.836 -12.590  1.00  0.00     0.031 C 
ATOM     57  C   UNL     1       9.400  -7.796 -10.062  1.00  0.00     0.029 A 
ATOM     58  C   UNL     1       8.041  -7.593 -10.238  1.00  0.00     0.049 A 
ATOM     59  H   UNL     1       6.516  -7.458  -8.787  1.00  0.00     0.167 HD
ATOM     60  C   UNL     1       5.976  -7.220 -11.557  1.00  0.00     0.074 A 
ATOM     61  C   UNL     1       5.257  -7.043 -12.803  1.00  0.00     0.031 C 
ATOM     62  C   UNL     1       7.314  -7.413 -11.469  1.00  0.00     0.031 A 
BRANCH  49  63
ATOM     63  C   UNL     1       9.397  -8.007  -5.679  1.00  0.00    -0.014 A 
ATOM     64  C   UNL     1       9.619  -9.217  -4.998  1.00  0.00     0.010 A 
ATOM     65  C   UNL     1      10.311  -6.950  -5.515  1.00  0.00     0.010 A 
ATOM     66  C   UNL     1      10.708  -9.353  -4.134  1.00  0.00     0.020 A 
ATOM     67  C   UNL     1      11.415  -7.091  -4.670  1.00  0.00     0.020 A 
ATOM     68  C   UNL     1      11.595  -8.285  -3.969  1.00  0.00     0.054 A 
BRANCH  68  69
ATOM     69  S   UNL     1      13.006  -8.488  -2.846  1.00  0.00     0.124 S 
ATOM     70  O   UNL     1      12.370  -8.344  -1.538  1.00  0.00    -0.237 OA
ATOM     71  O   UNL     1      13.485  -9.830  -3.167  1.00  0.00    -0.237 OA
ATOM     72  O   UNL     1      13.907  -7.402  -3.224  1.00  0.00    -0.744 OA
ENDBRANCH  68  69
ENDBRANCH  49  63
BRANCH  50  73
ATOM     73  C   UNL     1       1.320  -6.572 -11.359  1.00  0.00    -0.014 A 
ATOM     74  C   UNL     1       0.789  -7.604 -12.152  1.00  0.00     0.010 A 
ATOM     75  C   UNL     1       0.692  -5.314 -11.358  1.00  0.00     0.010 A 
ATOM     76  C   UNL     1      -0.344  -7.380 -12.938  1.00  0.00     0.020 A 
ATOM     77  C   UNL     1      -0.455  -5.093 -12.126  1.00  0.00     0.020 A 
ATOM     78  C   UNL     1      -0.961  -6.126 -12.918  1.00  0.00     0.054 A 
BRANCH  78  79
ATOM     79  S   UNL     1      -2.471  -5.873 -13.893  1.00  0.00     0.124 S 
ATOM     80  O   UNL     1      -1.938  -5.707 -15.240  1.00  0.00    -0.237 OA
ATOM     81  O   UNL     1      -3.215  -7.107 -13.653  1.00  0.00    -0.237 OA
ATOM     82  O   UNL     1      -3.061  -4.676 -13.298  1.00  0.00    -0.744 OA
ENDBRANCH  78  79
ENDBRANCH  50  73
BRANCH  62  83
ATOM     83  C   UNL     1       8.089  -7.471 -12.757  1.00  0.00    -0.014 A 
ATOM     84  C   UNL     1       8.371  -6.303 -13.487  1.00  0.00     0.010 A 
ATOM     85  C   UNL     1       8.585  -8.706 -13.215  1.00  0.00     0.010 A 
ATOM     86  C   UNL     1       9.114  -6.373 -14.668  1.00  0.00     0.020 A 
ATOM     87  C   UNL     1       9.345  -8.776 -14.384  1.00  0.00     0.020 A 
ATOM     88  C   UNL     1       9.594  -7.609 -15.111  1.00  0.00     0.054 A 
BRANCH  88  89
ATOM     89  S   UNL     1      10.594  -7.671 -16.624  1.00  0.00     0.124 S 
ATOM     90  O   UNL     1       9.576  -7.562 -17.665  1.00  0.00    -0.237 OA
ATOM     91  O   UNL     1      11.472  -6.512 -16.479  1.00  0.00    -0.237 OA
ATOM     92  O   UNL     1      11.265  -8.966 -16.541  1.00  0.00    -0.744 OA
ENDBRANCH  88  89
ENDBRANCH  62  83
ENDBRANCH  36  37
ENDBRANCH  28  31
ENDBRANCH  26  27
ENDBRANCH  25  26
ENDBRANCH  24  25
ENDBRANCH   1  24
TORSDOF 22
