REMARK SMILES CC(C)CS(=O)(=O)Cc1c(C(=O)NCCCCCCNC(=O)c2ccc(-c3c4nc(c(-c5ccc(S(=O)(=O)[O-])cc5)c5ccc([nH]5)c(-c5ccc(S(=O)(=O)[O-])cc5)c5nc(c(-c6ccc(S(=O)(=O)[O-])cc6)c6ccc3[nH]6)C=C5)C=C4)cc2)oc2ccccc12
REMARK SMILES IDX 16 1 15 2 14 3 13 4 11 5 12 6 10 8 9 9 89 10 83 11 84 12
REMARK SMILES IDX 88 13 85 14 87 15 86 16 8 17 5 18 6 19 7 20 4 21 2 22 1 23
REMARK SMILES IDX 3 24 17 25 18 26 19 27 20 28 21 29 22 31 23 32 24 33 82 34
REMARK SMILES IDX 25 35 81 36 26 37 27 38 28 39 75 40 29 41 80 42 74 43 76 44
REMARK SMILES IDX 30 45 79 46 73 47 72 48 31 50 61 51 42 52 60 53 43 54 46 55
REMARK SMILES IDX 59 56 77 57 44 58 45 59 58 61 78 62 47 63 32 64 33 65 41 66
REMARK SMILES IDX 34 67 40 68 35 69 36 70 37 71 38 72 39 73 62 74 63 75 71 76
REMARK SMILES IDX 64 77 70 78 65 79 66 80 67 81 68 82 69 83 48 84 49 85 57 86
REMARK SMILES IDX 50 87 56 88 51 89 52 90 53 91 54 92 55 93
REMARK H PARENT 13 7 20 30 76 49 46 60
REMARK Flexibility Score: inf
ROOT
ATOM      1  C   UNL     1      -5.419  -0.182   4.345  1.00  0.00     0.002 C 
ENDROOT
BRANCH   1   2
ATOM      2  C   UNL     1      -4.815   1.128   3.817  1.00  0.00     0.021 C 
BRANCH   2   3
ATOM      3  C   UNL     1      -3.382   0.986   3.303  1.00  0.00     0.116 C 
BRANCH   3   4
ATOM      4  N   UNL     1      -3.367   0.088   2.162  1.00  0.00    -0.349 N 
ATOM      5  C   UNL     1      -3.108   0.279   0.833  1.00  0.00     0.287 C 
ATOM      6  O   UNL     1      -3.398  -0.661   0.093  1.00  0.00    -0.266 OA
ATOM      7  H   UNL     1      -3.587  -0.844   2.391  1.00  0.00     0.163 HD
BRANCH   5   8
ATOM      8  C   UNL     1      -2.409   1.448   0.342  1.00  0.00     0.196 A 
ATOM      9  C   UNL     1      -1.656   1.651  -0.818  1.00  0.00     0.027 A 
ATOM     10  C   UNL     1      -1.264   3.042  -0.774  1.00  0.00     0.025 A 
ATOM     11  O   UNL     1      -2.453   2.600   1.070  1.00  0.00    -0.451 OA
ATOM     12  C   UNL     1      -1.778   3.560   0.402  1.00  0.00     0.135 A 
ATOM     13  C   UNL     1      -0.558   3.920  -1.622  1.00  0.00     0.012 A 
ATOM     14  C   UNL     1      -1.637   4.881   0.819  1.00  0.00     0.048 A 
ATOM     15  C   UNL     1      -0.402   5.261  -1.239  1.00  0.00     0.001 A 
ATOM     16  C   UNL     1      -0.931   5.732  -0.036  1.00  0.00     0.004 A 
BRANCH   9  17
ATOM     17  C   UNL     1      -1.364   0.766  -1.998  1.00  0.00     0.177 C 
BRANCH  17  18
ATOM     18  S   UNL     1      -0.966  -0.979  -1.913  1.00  0.00     0.154 S 
ATOM     19  O   UNL     1       0.181  -1.184  -2.787  1.00  0.00    -0.228 OA
ATOM     20  O   UNL     1      -2.177  -1.722  -2.217  1.00  0.00    -0.228 OA
BRANCH  18  21
ATOM     21  C   UNL     1      -0.452  -1.424  -0.252  1.00  0.00     0.140 C 
BRANCH  21  22
ATOM     22  C   UNL     1       1.058  -1.453  -0.013  1.00  0.00    -0.002 C 
ATOM     23  C   UNL     1       1.662  -0.050  -0.043  1.00  0.00     0.008 C 
ATOM     24  C   UNL     1       1.337  -2.106   1.345  1.00  0.00     0.008 C 
ENDBRANCH  21  22
ENDBRANCH  18  21
ENDBRANCH  17  18
ENDBRANCH   9  17
ENDBRANCH   5   8
ENDBRANCH   3   4
ENDBRANCH   2   3
ENDBRANCH   1   2
BRANCH   1  25
ATOM     25  C   UNL     1      -4.656  -0.825   5.507  1.00  0.00     0.002 C 
BRANCH  25  26
ATOM     26  C   UNL     1      -4.445   0.081   6.723  1.00  0.00     0.021 C 
BRANCH  26  27
ATOM     27  C   UNL     1      -5.723   0.684   7.297  1.00  0.00     0.116 C 
BRANCH  27  28
ATOM     28  N   UNL     1      -6.638  -0.325   7.801  1.00  0.00    -0.352 N 
ATOM     29  C   UNL     1      -7.436  -0.269   8.916  1.00  0.00     0.251 C 
ATOM     30  H   UNL     1      -6.692  -1.156   7.275  1.00  0.00     0.163 HD
ATOM     31  O   UNL     1      -8.050  -1.264   9.288  1.00  0.00    -0.269 OA
BRANCH  29  32
ATOM     32  C   UNL     1      -7.523   0.992   9.683  1.00  0.00     0.039 A 
ATOM     33  C   UNL     1      -7.341   0.951  11.067  1.00  0.00     0.014 A 
ATOM     34  C   UNL     1      -7.775   2.207   9.037  1.00  0.00     0.014 A 
ATOM     35  C   UNL     1      -7.361   2.139  11.801  1.00  0.00     0.010 A 
ATOM     36  C   UNL     1      -7.745   3.395   9.764  1.00  0.00     0.010 A 
ATOM     37  C   UNL     1      -7.540   3.371  11.152  1.00  0.00    -0.014 A 
BRANCH  37  38
ATOM     38  C   UNL     1      -7.526   4.644  11.912  1.00  0.00     0.031 A 
ATOM     39  C   UNL     1      -8.786   5.454  12.049  1.00  0.00     0.074 A 
ATOM     40  C   UNL     1      -6.369   5.101  12.428  1.00  0.00     0.049 A 
ATOM     41  N   UNL     1      -8.959   6.614  12.627  1.00  0.00    -0.248 NA
ATOM     42  C   UNL     1     -10.003   4.896  11.438  1.00  0.00     0.031 C 
ATOM     43  C   UNL     1      -5.071   4.429  12.326  1.00  0.00     0.029 A 
ATOM     44  N   UNL     1      -6.097   6.244  13.136  1.00  0.00    -0.354 N 
ATOM     45  C   UNL     1     -10.296   6.937  12.431  1.00  0.00     0.074 A 
ATOM     46  C   UNL     1     -10.880   5.865  11.653  1.00  0.00     0.031 C 
ATOM     47  C   UNL     1      -4.146   5.165  12.965  1.00  0.00     0.029 A 
ATOM     48  C   UNL     1      -4.777   6.368  13.498  1.00  0.00     0.049 A 
ATOM     49  H   UNL     1      -6.783   6.913  13.363  1.00  0.00     0.167 HD
ATOM     50  C   UNL     1     -10.981   8.020  12.870  1.00  0.00     0.031 A 
ATOM     51  C   UNL     1      -4.146   7.341  14.182  1.00  0.00     0.031 A 
ATOM     52  C   UNL     1     -10.408   9.075  13.661  1.00  0.00     0.049 A 
ATOM     53  C   UNL     1      -4.933   8.516  14.689  1.00  0.00     0.074 A 
ATOM     54  C   UNL     1     -11.032  10.189  14.194  1.00  0.00     0.029 A 
ATOM     55  N   UNL     1      -9.076   9.142  14.040  1.00  0.00    -0.354 N 
ATOM     56  N   UNL     1      -6.208   8.779  14.535  1.00  0.00    -0.248 NA
ATOM     57  C   UNL     1      -4.198   9.518  15.475  1.00  0.00     0.031 C 
ATOM     58  C   UNL     1     -10.070  10.944  14.876  1.00  0.00     0.029 A 
ATOM     59  C   UNL     1      -8.856  10.281  14.794  1.00  0.00     0.049 A 
ATOM     60  H   UNL     1      -8.388   8.478  13.806  1.00  0.00     0.167 HD
ATOM     61  C   UNL     1      -6.434   9.965  15.223  1.00  0.00     0.074 A 
ATOM     62  C   UNL     1      -5.167  10.364  15.801  1.00  0.00     0.031 C 
ATOM     63  C   UNL     1      -7.589  10.660  15.365  1.00  0.00     0.031 A 
BRANCH  50  64
ATOM     64  C   UNL     1     -12.434   8.113  12.494  1.00  0.00    -0.014 A 
ATOM     65  C   UNL     1     -13.393   7.288  13.109  1.00  0.00     0.010 A 
ATOM     66  C   UNL     1     -12.848   9.043  11.525  1.00  0.00     0.010 A 
ATOM     67  C   UNL     1     -14.735   7.361  12.729  1.00  0.00     0.020 A 
ATOM     68  C   UNL     1     -14.193   9.134  11.157  1.00  0.00     0.020 A 
ATOM     69  C   UNL     1     -15.125   8.277  11.747  1.00  0.00     0.054 A 
BRANCH  69  70
ATOM     70  S   UNL     1     -16.873   8.358  11.270  1.00  0.00     0.124 S 
ATOM     71  O   UNL     1     -16.991   7.211  10.373  1.00  0.00    -0.237 OA
ATOM     72  O   UNL     1     -17.567   8.228  12.549  1.00  0.00    -0.237 OA
ATOM     73  O   UNL     1     -16.995   9.666  10.630  1.00  0.00    -0.744 OA
ENDBRANCH  69  70
ENDBRANCH  50  64
BRANCH  51  74
ATOM     74  C   UNL     1      -2.689   7.225  14.453  1.00  0.00    -0.014 A 
ATOM     75  C   UNL     1      -2.233   6.862  15.731  1.00  0.00     0.010 A 
ATOM     76  C   UNL     1      -1.755   7.453  13.427  1.00  0.00     0.010 A 
ATOM     77  C   UNL     1      -0.864   6.737  15.984  1.00  0.00     0.020 A 
ATOM     78  C   UNL     1      -0.386   7.311  13.672  1.00  0.00     0.020 A 
ATOM     79  C   UNL     1       0.051   6.963  14.952  1.00  0.00     0.054 A 
BRANCH  79  80
ATOM     80  S   UNL     1       1.821   6.732  15.278  1.00  0.00     0.124 S 
ATOM     81  O   UNL     1       2.174   7.985  15.937  1.00  0.00    -0.237 OA
ATOM     82  O   UNL     1       1.839   5.542  16.126  1.00  0.00    -0.237 OA
ATOM     83  O   UNL     1       2.388   6.542  13.944  1.00  0.00    -0.744 OA
ENDBRANCH  79  80
ENDBRANCH  51  74
BRANCH  63  84
ATOM     84  C   UNL     1      -7.544  11.906  16.202  1.00  0.00    -0.014 A 
ATOM     85  C   UNL     1      -6.999  13.099  15.696  1.00  0.00     0.010 A 
ATOM     86  C   UNL     1      -8.102  11.896  17.493  1.00  0.00     0.010 A 
ATOM     87  C   UNL     1      -6.991  14.257  16.479  1.00  0.00     0.020 A 
ATOM     88  C   UNL     1      -8.111  13.056  18.271  1.00  0.00     0.020 A 
ATOM     89  C   UNL     1      -7.544  14.226  17.763  1.00  0.00     0.054 A 
BRANCH  89  90
ATOM     90  S   UNL     1      -7.567  15.751  18.746  1.00  0.00     0.124 S 
ATOM     91  O   UNL     1      -6.201  15.800  19.260  1.00  0.00    -0.237 OA
ATOM     92  O   UNL     1      -7.903  16.771  17.756  1.00  0.00    -0.237 OA
ATOM     93  O   UNL     1      -8.602  15.499  19.746  1.00  0.00    -0.744 OA
ENDBRANCH  89  90
ENDBRANCH  63  84
ENDBRANCH  37  38
ENDBRANCH  29  32
ENDBRANCH  27  28
ENDBRANCH  26  27
ENDBRANCH  25  26
ENDBRANCH   1  25
TORSDOF 20
