REMARK SMILES C[C@H](C(=O)NCCCCCCNC(=O)c1ccc(-c2c3nc(c(-c4ccc(S(=O)(=O)[O-])cc4)c4ccc([nH]4)c(-c4ccc(S(=O)(=O)[O-])cc4)c4nc(c(-c5ccc(S(=O)(=O)[O-])cc5)c5ccc2[nH]5)C=C4)C=C3)cc1)N1C(=O)C[C@@H](N2C(=O)/C(=C/c3ccccc3)SC2=S)C1=O
REMARK SMILES IDX 8 1 7 2 6 3 5 4 3 5 4 6 2 8 1 9 75 10 76 11 94 12 77 13
REMARK SMILES IDX 78 14 79 15 95 16 80 17 81 18 92 19 82 20 83 21 91 22 93 23
REMARK SMILES IDX 84 24 85 25 86 26 90 27 87 28 89 29 88 30 9 31 10 32 11 33
REMARK SMILES IDX 12 34 13 35 14 37 15 38 16 39 74 40 17 41 73 42 18 43 19 44
REMARK SMILES IDX 20 45 67 46 21 47 72 48 66 49 68 50 22 51 71 52 65 53 64 54
REMARK SMILES IDX 23 56 53 57 34 58 52 59 35 60 38 61 51 62 69 63 36 64 37 65
REMARK SMILES IDX 50 67 70 68 39 69 24 70 25 71 33 72 26 73 32 74 27 75 28 76
REMARK SMILES IDX 29 77 30 78 31 79 54 80 55 81 63 82 56 83 62 84 57 85 58 86
REMARK SMILES IDX 59 87 60 88 61 89 40 90 41 91 49 92 42 93 48 94 43 95 44 96
REMARK SMILES IDX 45 97 46 98 47 99
REMARK H PARENT 5 7 12 36 68 55 38 66
REMARK Flexibility Score: inf
ROOT
ATOM      1  C   UNL     1      -0.472  -3.914   0.635  1.00  0.00     0.002 C 
ENDROOT
BRANCH   1   2
ATOM      2  C   UNL     1      -0.769  -2.595  -0.082  1.00  0.00     0.021 C 
BRANCH   2   3
ATOM      3  C   UNL     1      -0.658  -1.363   0.820  1.00  0.00     0.116 C 
BRANCH   3   4
ATOM      4  N   UNL     1       0.667  -0.781   0.785  1.00  0.00    -0.354 N 
ATOM      5  C   UNL     1       1.228   0.264   0.128  1.00  0.00     0.243 C 
ATOM      6  O   UNL     1       2.434   0.434   0.361  1.00  0.00    -0.273 OA
ATOM      7  H   UNL     1       1.305  -1.250   1.369  1.00  0.00     0.163 HD
BRANCH   5   8
ATOM      8  C   UNL     1       0.544   1.156  -0.938  1.00  0.00     0.179 C 
ATOM      9  C   UNL     1       1.202   0.908  -2.301  1.00  0.00     0.042 C 
BRANCH   8  10
ATOM     10  N   UNL     1      -0.909   1.219  -1.034  1.00  0.00    -0.268 N 
ATOM     11  C   UNL     1      -1.643   2.312  -0.659  1.00  0.00     0.232 C 
ATOM     12  C   UNL     1      -1.689   0.282  -1.645  1.00  0.00     0.253 C 
ATOM     13  O   UNL     1      -1.219   3.321  -0.116  1.00  0.00    -0.274 OA
ATOM     14  C   UNL     1      -3.080   2.129  -1.074  1.00  0.00     0.136 C 
ATOM     15  C   UNL     1      -3.139   0.648  -1.391  1.00  0.00     0.191 C 
ATOM     16  O   UNL     1      -1.320  -0.716  -2.241  1.00  0.00    -0.272 OA
BRANCH  15  17
ATOM     17  N   UNL     1      -3.919   0.204  -2.537  1.00  0.00    -0.280 N 
ATOM     18  C   UNL     1      -3.558   0.669  -3.790  1.00  0.00     0.266 C 
ATOM     19  C   UNL     1      -4.862  -0.804  -2.503  1.00  0.00     0.149 C 
ATOM     20  O   UNL     1      -2.743   1.556  -4.008  1.00  0.00    -0.268 OA
ATOM     21  C   UNL     1      -4.248  -0.106  -4.843  1.00  0.00     0.081 C 
ATOM     22  S   UNL     1      -5.392  -1.173  -4.138  1.00  0.00    -0.054 SA
ATOM     23  S   UNL     1      -5.458  -1.606  -1.168  1.00  0.00    -0.052 S 
ATOM     24  C   UNL     1      -3.911   0.034  -6.130  1.00  0.00     0.029 C 
BRANCH  24  25
ATOM     25  C   UNL     1      -4.569  -0.618  -7.262  1.00  0.00    -0.024 A 
ATOM     26  C   UNL     1      -3.841  -1.426  -8.140  1.00  0.00     0.008 A 
ATOM     27  C   UNL     1      -5.923  -0.370  -7.513  1.00  0.00     0.008 A 
ATOM     28  C   UNL     1      -4.469  -1.986  -9.255  1.00  0.00     0.001 A 
ATOM     29  C   UNL     1      -6.548  -0.931  -8.623  1.00  0.00     0.001 A 
ATOM     30  C   UNL     1      -5.820  -1.736  -9.496  1.00  0.00     0.000 A 
ENDBRANCH  24  25
ENDBRANCH  15  17
ENDBRANCH   8  10
ENDBRANCH   5   8
ENDBRANCH   3   4
ENDBRANCH   2   3
ENDBRANCH   1   2
BRANCH   1  31
ATOM     31  C   UNL     1      -1.441  -4.256   1.773  1.00  0.00     0.002 C 
BRANCH  31  32
ATOM     32  C   UNL     1      -2.917  -4.338   1.370  1.00  0.00     0.021 C 
BRANCH  32  33
ATOM     33  C   UNL     1      -3.229  -5.419   0.338  1.00  0.00     0.116 C 
BRANCH  33  34
ATOM     34  N   UNL     1      -2.881  -6.742   0.837  1.00  0.00    -0.352 N 
ATOM     35  C   UNL     1      -3.691  -7.821   1.086  1.00  0.00     0.251 C 
ATOM     36  H   UNL     1      -1.925  -6.883   1.023  1.00  0.00     0.163 HD
ATOM     37  O   UNL     1      -3.277  -8.749   1.775  1.00  0.00    -0.269 OA
BRANCH  35  38
ATOM     38  C   UNL     1      -5.055  -7.864   0.521  1.00  0.00     0.039 A 
ATOM     39  C   UNL     1      -6.103  -8.348   1.307  1.00  0.00     0.014 A 
ATOM     40  C   UNL     1      -5.292  -7.459  -0.796  1.00  0.00     0.014 A 
ATOM     41  C   UNL     1      -7.398  -8.384   0.784  1.00  0.00     0.010 A 
ATOM     42  C   UNL     1      -6.593  -7.422  -1.287  1.00  0.00     0.010 A 
ATOM     43  C   UNL     1      -7.657  -7.896  -0.508  1.00  0.00    -0.014 A 
BRANCH  43  44
ATOM     44  C   UNL     1      -9.035  -7.883  -1.061  1.00  0.00     0.031 A 
ATOM     45  C   UNL     1      -9.372  -8.710  -2.273  1.00  0.00     0.074 A 
ATOM     46  C   UNL     1      -9.966  -7.084  -0.504  1.00  0.00     0.049 A 
ATOM     47  N   UNL     1     -10.505  -8.798  -2.921  1.00  0.00    -0.248 NA
ATOM     48  C   UNL     1      -8.290  -9.529  -2.845  1.00  0.00     0.031 C 
ATOM     49  C   UNL     1      -9.748  -6.205   0.647  1.00  0.00     0.029 A 
ATOM     50  N   UNL     1     -11.283  -6.879  -0.833  1.00  0.00    -0.354 N 
ATOM     51  C   UNL     1     -10.268  -9.664  -3.982  1.00  0.00     0.074 A 
ATOM     52  C   UNL     1      -8.872 -10.035  -3.922  1.00  0.00     0.031 C 
ATOM     53  C   UNL     1     -10.898  -5.579   0.946  1.00  0.00     0.029 A 
ATOM     54  C   UNL     1     -11.921  -5.976  -0.016  1.00  0.00     0.049 A 
ATOM     55  H   UNL     1     -11.728  -7.335  -1.583  1.00  0.00     0.167 HD
ATOM     56  C   UNL     1     -11.140 -10.125  -4.912  1.00  0.00     0.031 A 
ATOM     57  C   UNL     1     -13.185  -5.512  -0.042  1.00  0.00     0.031 A 
ATOM     58  C   UNL     1     -12.530  -9.756  -4.962  1.00  0.00     0.049 A 
ATOM     59  C   UNL     1     -14.130  -6.028  -1.092  1.00  0.00     0.074 A 
ATOM     60  C   UNL     1     -13.508 -10.208  -5.830  1.00  0.00     0.029 A 
ATOM     61  N   UNL     1     -13.139  -8.842  -4.114  1.00  0.00    -0.354 N 
ATOM     62  N   UNL     1     -13.906  -6.901  -2.046  1.00  0.00    -0.248 NA
ATOM     63  C   UNL     1     -15.504  -5.508  -1.060  1.00  0.00     0.031 C 
ATOM     64  C   UNL     1     -14.694  -9.523  -5.546  1.00  0.00     0.029 A 
ATOM     65  C   UNL     1     -14.473  -8.696  -4.455  1.00  0.00     0.049 A 
ATOM     66  H   UNL     1     -12.688  -8.368  -3.378  1.00  0.00     0.167 HD
ATOM     67  C   UNL     1     -15.118  -7.056  -2.710  1.00  0.00     0.074 A 
ATOM     68  C   UNL     1     -16.074  -6.201  -2.037  1.00  0.00     0.031 C 
ATOM     69  C   UNL     1     -15.412  -7.838  -3.778  1.00  0.00     0.031 A 
BRANCH  56  70
ATOM     70  C   UNL     1     -10.612 -11.075  -5.957  1.00  0.00    -0.014 A 
ATOM     71  C   UNL     1     -10.208 -12.380  -5.619  1.00  0.00     0.010 A 
ATOM     72  C   UNL     1     -10.561 -10.674  -7.304  1.00  0.00     0.010 A 
ATOM     73  C   UNL     1      -9.726 -13.250  -6.600  1.00  0.00     0.020 A 
ATOM     74  C   UNL     1     -10.109 -11.551  -8.294  1.00  0.00     0.020 A 
ATOM     75  C   UNL     1      -9.679 -12.829  -7.933  1.00  0.00     0.054 A 
BRANCH  75  76
ATOM     76  S   UNL     1      -9.076 -13.990  -9.189  1.00  0.00     0.124 S 
ATOM     77  O   UNL     1      -7.647 -14.046  -8.886  1.00  0.00    -0.237 OA
ATOM     78  O   UNL     1      -9.829 -15.205  -8.889  1.00  0.00    -0.237 OA
ATOM     79  O   UNL     1      -9.418 -13.344 -10.453  1.00  0.00    -0.744 OA
ENDBRANCH  75  76
ENDBRANCH  56  70
BRANCH  57  80
ATOM     80  C   UNL     1     -13.631  -4.512   0.968  1.00  0.00    -0.014 A 
ATOM     81  C   UNL     1     -14.558  -4.863   1.964  1.00  0.00     0.010 A 
ATOM     82  C   UNL     1     -13.117  -3.202   0.945  1.00  0.00     0.010 A 
ATOM     83  C   UNL     1     -14.979  -3.919   2.906  1.00  0.00     0.020 A 
ATOM     84  C   UNL     1     -13.511  -2.264   1.903  1.00  0.00     0.020 A 
ATOM     85  C   UNL     1     -14.450  -2.625   2.871  1.00  0.00     0.054 A 
BRANCH  85  86
ATOM     86  S   UNL     1     -14.975  -1.431   4.132  1.00  0.00     0.124 S 
ATOM     87  O   UNL     1     -16.344  -1.137   3.721  1.00  0.00    -0.237 OA
ATOM     88  O   UNL     1     -14.833  -2.196   5.368  1.00  0.00    -0.237 OA
ATOM     89  O   UNL     1     -14.025  -0.331   3.977  1.00  0.00    -0.744 OA
ENDBRANCH  85  86
ENDBRANCH  57  80
BRANCH  69  90
ATOM     90  C   UNL     1     -16.838  -7.837  -4.266  1.00  0.00    -0.014 A 
ATOM     91  C   UNL     1     -17.389  -6.719  -4.918  1.00  0.00     0.010 A 
ATOM     92  C   UNL     1     -17.622  -8.996  -4.112  1.00  0.00     0.010 A 
ATOM     93  C   UNL     1     -18.709  -6.748  -5.374  1.00  0.00     0.020 A 
ATOM     94  C   UNL     1     -18.931  -9.040  -4.596  1.00  0.00     0.020 A 
ATOM     95  C   UNL     1     -19.472  -7.910  -5.210  1.00  0.00     0.054 A 
BRANCH  95  96
ATOM     96  S   UNL     1     -21.170  -7.934  -5.846  1.00  0.00     0.124 S 
ATOM     97  O   UNL     1     -21.863  -7.067  -4.897  1.00  0.00    -0.237 OA
ATOM     98  O   UNL     1     -21.015  -7.393  -7.194  1.00  0.00    -0.237 OA
ATOM     99  O   UNL     1     -21.543  -9.346  -5.787  1.00  0.00    -0.744 OA
ENDBRANCH  95  96
ENDBRANCH  69  90
ENDBRANCH  43  44
ENDBRANCH  35  38
ENDBRANCH  33  34
ENDBRANCH  32  33
ENDBRANCH  31  32
ENDBRANCH   1  31
TORSDOF 19
