REMARK SMILES C[C@H](C(=O)NCCCCCCNC(=O)c1ccc(-c2c3nc(c(-c4ccc(S(=O)(=O)[O-])cc4)c4ccc([nH]4)c(-c4ccc(S(=O)(=O)[O-])cc4)c4nc(c(-c5ccc(S(=O)(=O)[O-])cc5)c5ccc2[nH]5)C=C4)C=C3)cc1)[C@H](C)[N@@H+]1CC[C@H]([NH+]2CCCCC2)C1
REMARK SMILES IDX 8 1 7 2 6 3 5 4 3 5 4 6 2 8 1 9 75 10 76 11 77 12 78 13
REMARK SMILES IDX 87 14 79 16 80 17 81 18 82 19 86 20 83 22 85 23 84 24 9 25
REMARK SMILES IDX 10 26 11 27 12 28 13 29 14 31 15 32 16 33 74 34 17 35 73 36
REMARK SMILES IDX 18 37 19 38 20 39 67 40 21 41 72 42 66 43 68 44 22 45 71 46
REMARK SMILES IDX 65 47 64 48 23 50 53 51 34 52 52 53 35 54 38 55 51 56 69 57
REMARK SMILES IDX 36 58 37 59 50 61 70 62 39 63 24 64 25 65 33 66 26 67 32 68
REMARK SMILES IDX 27 69 28 70 29 71 30 72 31 73 54 74 55 75 63 76 56 77 62 78
REMARK SMILES IDX 57 79 58 80 59 81 60 82 61 83 40 84 41 85 49 86 42 87 48 88
REMARK SMILES IDX 43 89 44 90 45 91 46 92 47 93
REMARK H PARENT 5 7 77 15 81 21 12 30 68 49 38 60
REMARK Flexibility Score: inf
ROOT
ATOM      1  C   UNL     1      -0.525   1.326  -3.567  1.00  0.00     0.002 C 
ENDROOT
BRANCH   1   2
ATOM      2  C   UNL     1      -1.391   1.428  -2.305  1.00  0.00     0.021 C 
BRANCH   2   3
ATOM      3  C   UNL     1      -2.153   0.150  -1.943  1.00  0.00     0.116 C 
BRANCH   3   4
ATOM      4  N   UNL     1      -1.263  -0.974  -1.737  1.00  0.00    -0.356 N 
ATOM      5  C   UNL     1      -0.996  -1.692  -0.613  1.00  0.00     0.228 C 
ATOM      6  O   UNL     1      -0.173  -2.606  -0.712  1.00  0.00    -0.275 OA
ATOM      7  H   UNL     1      -0.773  -1.266  -2.539  1.00  0.00     0.163 HD
BRANCH   5   8
ATOM      8  C   UNL     1      -1.659  -1.329   0.721  1.00  0.00     0.133 C 
ATOM      9  C   UNL     1      -1.568  -2.553   1.641  1.00  0.00     0.024 C 
BRANCH   8  10
ATOM     10  C   UNL     1      -1.095   0.011   1.313  1.00  0.00     0.193 C 
ATOM     11  C   UNL     1       0.353   0.280   0.890  1.00  0.00     0.076 C 
BRANCH  10  12
ATOM     12  N   UNL     1      -1.397   0.196   2.758  1.00  0.00    -0.327 N 
ATOM     13  C   UNL     1      -1.491   1.597   3.188  1.00  0.00     0.269 C 
ATOM     14  C   UNL     1      -0.460  -0.442   3.708  1.00  0.00     0.328 C 
ATOM     15  H   UNL     1      -2.302  -0.272   2.801  1.00  0.00     0.348 HD
ATOM     16  C   UNL     1      -0.151   1.965   3.804  1.00  0.00     0.132 C 
ATOM     17  C   UNL     1       0.333   0.666   4.454  1.00  0.00     0.245 C 
BRANCH  17  18
ATOM     18  N   UNL     1       1.800   0.481   4.614  1.00  0.00    -0.328 N 
ATOM     19  C   UNL     1       2.503   0.175   3.362  1.00  0.00     0.262 C 
ATOM     20  C   UNL     1       2.421   1.626   5.301  1.00  0.00     0.262 C 
ATOM     21  H   UNL     1       1.902  -0.345   5.203  1.00  0.00     0.348 HD
ATOM     22  C   UNL     1       4.002  -0.054   3.537  1.00  0.00     0.062 C 
ATOM     23  C   UNL     1       3.922   1.419   5.532  1.00  0.00     0.062 C 
ATOM     24  C   UNL     1       4.650   1.132   4.225  1.00  0.00     0.012 C 
ENDBRANCH  17  18
ENDBRANCH  10  12
ENDBRANCH   8  10
ENDBRANCH   5   8
ENDBRANCH   3   4
ENDBRANCH   2   3
ENDBRANCH   1   2
BRANCH   1  25
ATOM     25  C   UNL     1      -1.268   0.874  -4.828  1.00  0.00     0.002 C 
BRANCH  25  26
ATOM     26  C   UNL     1      -2.504   1.704  -5.181  1.00  0.00     0.021 C 
BRANCH  26  27
ATOM     27  C   UNL     1      -2.234   3.188  -5.407  1.00  0.00     0.116 C 
BRANCH  27  28
ATOM     28  N   UNL     1      -1.377   3.419  -6.559  1.00  0.00    -0.352 N 
ATOM     29  C   UNL     1      -1.616   4.165  -7.687  1.00  0.00     0.251 C 
ATOM     30  H   UNL     1      -0.498   2.977  -6.525  1.00  0.00     0.163 HD
ATOM     31  O   UNL     1      -0.853   4.083  -8.647  1.00  0.00    -0.269 OA
BRANCH  29  32
ATOM     32  C   UNL     1      -2.803   5.044  -7.756  1.00  0.00     0.039 A 
ATOM     33  C   UNL     1      -3.592   5.022  -8.909  1.00  0.00     0.014 A 
ATOM     34  C   UNL     1      -3.144   5.881  -6.689  1.00  0.00     0.014 A 
ATOM     35  C   UNL     1      -4.765   5.779  -8.959  1.00  0.00     0.010 A 
ATOM     36  C   UNL     1      -4.349   6.582  -6.714  1.00  0.00     0.010 A 
ATOM     37  C   UNL     1      -5.178   6.528  -7.844  1.00  0.00    -0.014 A 
BRANCH  37  38
ATOM     38  C   UNL     1      -6.499   7.211  -7.828  1.00  0.00     0.031 A 
ATOM     39  C   UNL     1      -6.590   8.709  -7.719  1.00  0.00     0.074 A 
ATOM     40  C   UNL     1      -7.624   6.466  -7.846  1.00  0.00     0.049 A 
ATOM     41  N   UNL     1      -7.657   9.463  -7.643  1.00  0.00    -0.248 NA
ATOM     42  C   UNL     1      -5.324   9.459  -7.672  1.00  0.00     0.031 C 
ATOM     43  C   UNL     1      -7.670   5.001  -7.905  1.00  0.00     0.029 A 
ATOM     44  N   UNL     1      -8.947   6.832  -7.808  1.00  0.00    -0.354 N 
ATOM     45  C   UNL     1      -7.194  10.769  -7.524  1.00  0.00     0.074 A 
ATOM     46  C   UNL     1      -5.750  10.703  -7.502  1.00  0.00     0.031 C 
ATOM     47  C   UNL     1      -8.950   4.599  -7.921  1.00  0.00     0.029 A 
ATOM     48  C   UNL     1      -9.818   5.767  -7.825  1.00  0.00     0.049 A 
ATOM     49  H   UNL     1      -9.245   7.770  -7.772  1.00  0.00     0.167 HD
ATOM     50  C   UNL     1      -7.910  11.916  -7.451  1.00  0.00     0.031 A 
ATOM     51  C   UNL     1     -11.164   5.729  -7.753  1.00  0.00     0.031 A 
ATOM     52  C   UNL     1      -9.348  11.978  -7.488  1.00  0.00     0.049 A 
ATOM     53  C   UNL     1     -11.928   7.022  -7.652  1.00  0.00     0.074 A 
ATOM     54  C   UNL     1     -10.156  13.102  -7.497  1.00  0.00     0.029 A 
ATOM     55  N   UNL     1     -10.192  10.879  -7.512  1.00  0.00    -0.354 N 
ATOM     56  N   UNL     1     -11.469   8.251  -7.637  1.00  0.00    -0.248 NA
ATOM     57  C   UNL     1     -13.392   6.924  -7.566  1.00  0.00     0.031 C 
ATOM     58  C   UNL     1     -11.489  12.682  -7.454  1.00  0.00     0.029 A 
ATOM     59  C   UNL     1     -11.512  11.298  -7.491  1.00  0.00     0.049 A 
ATOM     60  H   UNL     1      -9.897   9.940  -7.539  1.00  0.00     0.167 HD
ATOM     61  C   UNL     1     -12.590   9.070  -7.564  1.00  0.00     0.074 A 
ATOM     62  C   UNL     1     -13.748   8.201  -7.566  1.00  0.00     0.031 C 
ATOM     63  C   UNL     1     -12.656  10.423  -7.495  1.00  0.00     0.031 A 
BRANCH  50  64
ATOM     64  C   UNL     1      -7.160  13.217  -7.318  1.00  0.00    -0.014 A 
ATOM     65  C   UNL     1      -6.445  13.759  -8.401  1.00  0.00     0.010 A 
ATOM     66  C   UNL     1      -7.268  13.960  -6.128  1.00  0.00     0.010 A 
ATOM     67  C   UNL     1      -5.844  15.016  -8.291  1.00  0.00     0.020 A 
ATOM     68  C   UNL     1      -6.690  15.229  -6.024  1.00  0.00     0.020 A 
ATOM     69  C   UNL     1      -5.977  15.746  -7.106  1.00  0.00     0.054 A 
BRANCH  69  70
ATOM     70  S   UNL     1      -5.250  17.406  -7.023  1.00  0.00     0.124 S 
ATOM     71  O   UNL     1      -3.820  17.109  -7.001  1.00  0.00    -0.237 OA
ATOM     72  O   UNL     1      -5.743  18.031  -8.248  1.00  0.00    -0.237 OA
ATOM     73  O   UNL     1      -5.788  17.961  -5.783  1.00  0.00    -0.744 OA
ENDBRANCH  69  70
ENDBRANCH  50  64
BRANCH  51  74
ATOM     74  C   UNL     1     -11.882   4.423  -7.743  1.00  0.00    -0.014 A 
ATOM     75  C   UNL     1     -12.731   4.059  -8.804  1.00  0.00     0.010 A 
ATOM     76  C   UNL     1     -11.749   3.550  -6.648  1.00  0.00     0.010 A 
ATOM     77  C   UNL     1     -13.465   2.870  -8.749  1.00  0.00     0.020 A 
ATOM     78  C   UNL     1     -12.452   2.343  -6.606  1.00  0.00     0.020 A 
ATOM     79  C   UNL     1     -13.324   2.022  -7.648  1.00  0.00     0.054 A 
BRANCH  79  80
ATOM     80  S   UNL     1     -14.281   0.482  -7.598  1.00  0.00     0.124 S 
ATOM     81  O   UNL     1     -15.628   0.972  -7.323  1.00  0.00    -0.237 OA
ATOM     82  O   UNL     1     -14.066  -0.066  -8.935  1.00  0.00    -0.237 OA
ATOM     83  O   UNL     1     -13.656  -0.273  -6.514  1.00  0.00    -0.744 OA
ENDBRANCH  79  80
ENDBRANCH  51  74
BRANCH  63  84
ATOM     84  C   UNL     1     -14.024  11.050  -7.442  1.00  0.00    -0.014 A 
ATOM     85  C   UNL     1     -14.835  10.936  -6.299  1.00  0.00     0.010 A 
ATOM     86  C   UNL     1     -14.484  11.808  -8.535  1.00  0.00     0.010 A 
ATOM     87  C   UNL     1     -16.094  11.540  -6.263  1.00  0.00     0.020 A 
ATOM     88  C   UNL     1     -15.729  12.441  -8.490  1.00  0.00     0.020 A 
ATOM     89  C   UNL     1     -16.532  12.291  -7.358  1.00  0.00     0.054 A 
BRANCH  89  90
ATOM     90  S   UNL     1     -18.152  13.101  -7.267  1.00  0.00     0.124 S 
ATOM     91  O   UNL     1     -19.066  11.966  -7.372  1.00  0.00    -0.237 OA
ATOM     92  O   UNL     1     -18.110  13.754  -5.961  1.00  0.00    -0.237 OA
ATOM     93  O   UNL     1     -18.152  14.008  -8.412  1.00  0.00    -0.744 OA
ENDBRANCH  89  90
ENDBRANCH  63  84
ENDBRANCH  37  38
ENDBRANCH  29  32
ENDBRANCH  27  28
ENDBRANCH  26  27
ENDBRANCH  25  26
ENDBRANCH   1  25
TORSDOF 19
