REMARK SMILES CC[C@](C)(NC(=O)CCOc1ccc(Cl)c(Cl)c1)C(=O)NCCCCCCNC(=O)c1ccc(-c2c3nc(c(-c4ccc(S(=O)(=O)[O-])cc4)c4ccc([nH]4)c(-c4ccc(S(=O)(=O)[O-])cc4)c4nc(c(-c5ccc(S(=O)(=O)[O-])cc5)c5ccc2[nH]5)C=C4)C=C3)cc1
REMARK SMILES IDX 23 1 22 2 21 3 19 4 20 5 3 7 4 8 2 9 1 10 5 11 6 12 7 14
REMARK SMILES IDX 8 15 9 16 10 17 11 18 12 19 18 20 13 21 16 22 14 23 17 24
REMARK SMILES IDX 15 25 24 26 25 27 26 28 27 29 28 30 29 31 30 33 31 34 32 35
REMARK SMILES IDX 90 36 33 37 89 38 34 39 35 40 36 41 83 42 37 43 88 44 82 45
REMARK SMILES IDX 84 46 38 47 87 48 81 49 80 50 39 52 69 53 50 54 68 55 51 56
REMARK SMILES IDX 54 57 67 58 85 59 52 60 53 61 66 63 86 64 55 65 40 66 41 67
REMARK SMILES IDX 49 68 42 69 48 70 43 71 44 72 45 73 46 74 47 75 70 76 71 77
REMARK SMILES IDX 79 78 72 79 78 80 73 81 74 82 75 83 76 84 77 85 56 86 57 87
REMARK SMILES IDX 65 88 58 89 64 90 59 91 60 92 61 93 62 94 63 95
REMARK H PARENT 21 6 5 13 28 32 84 51 54 62
REMARK Flexibility Score: inf
ROOT
ATOM      1  C   UNL     1       3.223   3.347   5.120  1.00  0.00     0.021 C 
ENDROOT
BRANCH   1   2
ATOM      2  C   UNL     1       2.691   3.792   3.760  1.00  0.00     0.116 C 
BRANCH   2   3
ATOM      3  N   UNL     1       3.344   3.103   2.665  1.00  0.00    -0.354 N 
ATOM      4  C   UNL     1       2.858   2.202   1.769  1.00  0.00     0.245 C 
ATOM      5  O   UNL     1       3.613   1.864   0.853  1.00  0.00    -0.272 OA
ATOM      6  H   UNL     1       4.296   3.324   2.550  1.00  0.00     0.163 HD
BRANCH   4   7
ATOM      7  C   UNL     1       1.379   1.723   1.837  1.00  0.00     0.116 C 
ATOM      8  C   UNL     1       1.209   0.520   0.907  1.00  0.00     0.045 C 
BRANCH   7   9
ATOM      9  C   UNL     1       0.487   2.940   1.393  1.00  0.00     0.035 C 
ATOM     10  C   UNL     1      -0.255   2.816   0.068  1.00  0.00     0.007 C 
ENDBRANCH   7   9
BRANCH   7  11
ATOM     11  N   UNL     1       1.002   1.355   3.231  1.00  0.00    -0.342 N 
ATOM     12  C   UNL     1       1.540   0.502   4.142  1.00  0.00     0.224 C 
ATOM     13  H   UNL     1       0.202   1.826   3.558  1.00  0.00     0.164 HD
ATOM     14  O   UNL     1       0.980   0.424   5.240  1.00  0.00    -0.275 OA
BRANCH  12  15
ATOM     15  C   UNL     1       2.817  -0.261   3.881  1.00  0.00     0.141 C 
BRANCH  15  16
ATOM     16  C   UNL     1       2.656  -1.779   3.989  1.00  0.00     0.239 C 
BRANCH  16  17
ATOM     17  O   UNL     1       1.988  -2.395   2.878  1.00  0.00    -0.493 OA
BRANCH  17  18
ATOM     18  C   UNL     1       0.626  -2.309   2.801  1.00  0.00     0.120 A 
ATOM     19  C   UNL     1      -0.223  -1.925   3.834  1.00  0.00     0.048 A 
ATOM     20  C   UNL     1       0.085  -2.560   1.537  1.00  0.00     0.068 A 
ATOM     21  C   UNL     1      -1.553  -1.594   3.567  1.00  0.00     0.026 A 
ATOM     22  C   UNL     1      -1.259  -2.273   1.272  1.00  0.00     0.063 A 
ATOM     23  C   UNL     1      -2.068  -1.740   2.280  1.00  0.00     0.059 A 
ATOM     24  Cl  UNL     1      -1.834  -2.522  -0.338  1.00  0.00    -0.083 Cl
ATOM     25  Cl  UNL     1      -3.685  -1.210   1.995  1.00  0.00    -0.083 Cl
ENDBRANCH  17  18
ENDBRANCH  16  17
ENDBRANCH  15  16
ENDBRANCH  12  15
ENDBRANCH   7  11
ENDBRANCH   4   7
ENDBRANCH   2   3
ENDBRANCH   1   2
BRANCH   1  26
ATOM     26  C   UNL     1       4.747   3.418   5.257  1.00  0.00     0.002 C 
BRANCH  26  27
ATOM     27  C   UNL     1       5.354   4.776   4.901  1.00  0.00     0.002 C 
BRANCH  27  28
ATOM     28  C   UNL     1       4.702   5.967   5.604  1.00  0.00     0.021 C 
BRANCH  28  29
ATOM     29  C   UNL     1       4.650   5.840   7.120  1.00  0.00     0.116 C 
BRANCH  29  30
ATOM     30  N   UNL     1       5.984   5.803   7.691  1.00  0.00    -0.352 N 
ATOM     31  C   UNL     1       6.537   6.665   8.598  1.00  0.00     0.251 C 
ATOM     32  H   UNL     1       6.562   5.065   7.389  1.00  0.00     0.163 HD
ATOM     33  O   UNL     1       7.755   6.669   8.789  1.00  0.00    -0.269 OA
BRANCH  31  34
ATOM     34  C   UNL     1       5.660   7.596   9.332  1.00  0.00     0.039 A 
ATOM     35  C   UNL     1       6.028   8.938   9.432  1.00  0.00     0.014 A 
ATOM     36  C   UNL     1       4.464   7.142   9.900  1.00  0.00     0.014 A 
ATOM     37  C   UNL     1       5.174   9.834  10.073  1.00  0.00     0.010 A 
ATOM     38  C   UNL     1       3.578   8.053  10.465  1.00  0.00     0.010 A 
ATOM     39  C   UNL     1       3.931   9.405  10.572  1.00  0.00    -0.014 A 
BRANCH  39  40
ATOM     40  C   UNL     1       2.998  10.371  11.201  1.00  0.00     0.031 A 
ATOM     41  C   UNL     1       2.643  10.251  12.658  1.00  0.00     0.074 A 
ATOM     42  C   UNL     1       2.451  11.345  10.447  1.00  0.00     0.049 A 
ATOM     43  N   UNL     1       1.895  11.037  13.389  1.00  0.00    -0.248 NA
ATOM     44  C   UNL     1       3.176   9.086  13.383  1.00  0.00     0.031 C 
ATOM     45  C   UNL     1       2.677  11.530   9.011  1.00  0.00     0.029 A 
ATOM     46  N   UNL     1       1.606  12.371  10.784  1.00  0.00    -0.354 N 
ATOM     47  C   UNL     1       1.860  10.459  14.653  1.00  0.00     0.074 A 
ATOM     48  C   UNL     1       2.613   9.227  14.574  1.00  0.00     0.031 C 
ATOM     49  C   UNL     1       2.034  12.635   8.604  1.00  0.00     0.029 A 
ATOM     50  C   UNL     1       1.320  13.214   9.737  1.00  0.00     0.049 A 
ATOM     51  H   UNL     1       1.240  12.492  11.690  1.00  0.00     0.167 HD
ATOM     52  C   UNL     1       1.270  10.921  15.781  1.00  0.00     0.031 A 
ATOM     53  C   UNL     1       0.577  14.337   9.696  1.00  0.00     0.031 A 
ATOM     54  C   UNL     1       0.521  12.148  15.851  1.00  0.00     0.049 A 
ATOM     55  C   UNL     1      -0.069  14.829  10.961  1.00  0.00     0.074 A 
ATOM     56  C   UNL     1      -0.058  12.742  16.959  1.00  0.00     0.029 A 
ATOM     57  N   UNL     1       0.235  12.964  14.766  1.00  0.00    -0.354 N 
ATOM     58  N   UNL     1      -0.015  14.317  12.168  1.00  0.00    -0.248 NA
ATOM     59  C   UNL     1      -0.865  16.058  10.858  1.00  0.00     0.031 C 
ATOM     60  C   UNL     1      -0.749  13.882  16.532  1.00  0.00     0.029 A 
ATOM     61  C   UNL     1      -0.544  14.036  15.169  1.00  0.00     0.049 A 
ATOM     62  H   UNL     1       0.541  12.805  13.844  1.00  0.00     0.167 HD
ATOM     63  C   UNL     1      -0.755  15.175  12.974  1.00  0.00     0.074 A 
ATOM     64  C   UNL     1      -1.223  16.249  12.120  1.00  0.00     0.031 C 
ATOM     65  C   UNL     1      -1.024  15.082  14.301  1.00  0.00     0.031 A 
BRANCH  52  66
ATOM     66  C   UNL     1       1.395  10.078  17.026  1.00  0.00    -0.014 A 
ATOM     67  C   UNL     1       2.634   9.903  17.672  1.00  0.00     0.010 A 
ATOM     68  C   UNL     1       0.252   9.466  17.570  1.00  0.00     0.010 A 
ATOM     69  C   UNL     1       2.736   9.090  18.803  1.00  0.00     0.020 A 
ATOM     70  C   UNL     1       0.343   8.677  18.721  1.00  0.00     0.020 A 
ATOM     71  C   UNL     1       1.589   8.477  19.318  1.00  0.00     0.054 A 
BRANCH  71  72
ATOM     72  S   UNL     1       1.750   7.429  20.790  1.00  0.00     0.124 S 
ATOM     73  O   UNL     1       2.424   6.251  20.248  1.00  0.00    -0.237 OA
ATOM     74  O   UNL     1       2.554   8.256  21.686  1.00  0.00    -0.237 OA
ATOM     75  O   UNL     1       0.369   7.215  21.216  1.00  0.00    -0.744 OA
ENDBRANCH  71  72
ENDBRANCH  52  66
BRANCH  53  76
ATOM     76  C   UNL     1       0.442  15.089   8.419  1.00  0.00    -0.014 A 
ATOM     77  C   UNL     1       1.071  16.336   8.258  1.00  0.00     0.010 A 
ATOM     78  C   UNL     1      -0.290  14.548   7.346  1.00  0.00     0.010 A 
ATOM     79  C   UNL     1       0.962  17.034   7.051  1.00  0.00     0.020 A 
ATOM     80  C   UNL     1      -0.377  15.229   6.129  1.00  0.00     0.020 A 
ATOM     81  C   UNL     1       0.244  16.472   5.992  1.00  0.00     0.054 A 
BRANCH  81  82
ATOM     82  S   UNL     1       0.174  17.363   4.413  1.00  0.00     0.124 S 
ATOM     83  O   UNL     1      -0.719  18.473   4.729  1.00  0.00    -0.237 OA
ATOM     84  O   UNL     1       1.574  17.719   4.192  1.00  0.00    -0.237 OA
ATOM     85  O   UNL     1      -0.362  16.371   3.484  1.00  0.00    -0.744 OA
ENDBRANCH  81  82
ENDBRANCH  53  76
BRANCH  65  86
ATOM     86  C   UNL     1      -1.856  16.183  14.908  1.00  0.00    -0.014 A 
ATOM     87  C   UNL     1      -3.221  16.320  14.597  1.00  0.00     0.010 A 
ATOM     88  C   UNL     1      -1.266  17.083  15.814  1.00  0.00     0.010 A 
ATOM     89  C   UNL     1      -3.967  17.369  15.139  1.00  0.00     0.020 A 
ATOM     90  C   UNL     1      -2.017  18.113  16.384  1.00  0.00     0.020 A 
ATOM     91  C   UNL     1      -3.358  18.263  16.026  1.00  0.00     0.054 A 
BRANCH  91  92
ATOM     92  S   UNL     1      -4.349  19.613  16.722  1.00  0.00     0.124 S 
ATOM     93  O   UNL     1      -4.479  20.514  15.580  1.00  0.00    -0.237 OA
ATOM     94  O   UNL     1      -5.576  18.933  17.129  1.00  0.00    -0.237 OA
ATOM     95  O   UNL     1      -3.527  20.114  17.821  1.00  0.00    -0.744 OA
ENDBRANCH  91  92
ENDBRANCH  65  86
ENDBRANCH  39  40
ENDBRANCH  31  34
ENDBRANCH  29  30
ENDBRANCH  28  29
ENDBRANCH  27  28
ENDBRANCH  26  27
ENDBRANCH   1  26
TORSDOF 22
