REMARK SMILES [NH3+]C1CC[NH+](CC(=O)Nc2cc(Cl)ccc2C(=O)NCCCCCCNC(=O)c2ccc(-c3c4nc(c(-c5ccc(S(=O)(=O)[O-])cc5)c5ccc([nH]5)c(-c5ccc(S(=O)(=O)[O-])cc5)c5nc(c(-c6ccc(S(=O)(=O)[O-])cc6)c6ccc3[nH]6)C=C5)C=C4)cc2)CC1
REMARK SMILES IDX 22 1 21 2 20 3 19 4 17 5 18 6 16 8 10 9 11 10 12 11 15 12
REMARK SMILES IDX 13 13 14 14 9 15 7 16 8 17 6 19 5 20 2 21 3 22 90 23 4 24
REMARK SMILES IDX 89 25 1 27 23 31 24 32 25 33 26 34 27 35 28 37 29 38 30 39
REMARK SMILES IDX 88 40 31 41 87 42 32 43 33 44 34 45 81 46 35 47 86 48 80 49
REMARK SMILES IDX 82 50 36 51 85 52 79 53 78 54 37 56 67 57 48 58 66 59 49 60
REMARK SMILES IDX 52 61 65 62 83 63 50 64 51 65 64 67 84 68 53 69 38 70 39 71
REMARK SMILES IDX 47 72 40 73 46 74 41 75 42 76 43 77 44 78 45 79 68 80 69 81
REMARK SMILES IDX 77 82 70 83 76 84 71 85 72 86 73 87 74 88 75 89 54 90 55 91
REMARK SMILES IDX 63 92 56 93 62 94 57 95 58 96 59 97 60 98 61 99
REMARK H PARENT 19 7 9 18 5 26 1 28 1 29 1 30 26 36 82 55 52 66
REMARK Flexibility Score: inf
ROOT
ATOM      1  C   UNL     1      -5.325   4.717   2.526  1.00  0.00     0.002 C 
ENDROOT
BRANCH   1   2
ATOM      2  C   UNL     1      -5.076   4.329   1.070  1.00  0.00     0.021 C 
BRANCH   2   3
ATOM      3  C   UNL     1      -4.314   3.042   0.814  1.00  0.00     0.116 C 
BRANCH   3   4
ATOM      4  N   UNL     1      -4.944   1.786   1.158  1.00  0.00    -0.352 N 
ATOM      5  C   UNL     1      -4.747   0.487   0.733  1.00  0.00     0.253 C 
ATOM      6  O   UNL     1      -5.399  -0.367   1.345  1.00  0.00    -0.269 OA
ATOM      7  H   UNL     1      -5.658   1.875   1.830  1.00  0.00     0.163 HD
BRANCH   5   8
ATOM      8  C   UNL     1      -3.880   0.012  -0.422  1.00  0.00     0.063 A 
ATOM      9  C   UNL     1      -2.782   0.662  -1.045  1.00  0.00     0.055 A 
ATOM     10  C   UNL     1      -2.234   0.106  -2.208  1.00  0.00     0.047 A 
ATOM     11  C   UNL     1      -2.595  -1.173  -2.635  1.00  0.00     0.043 A 
ATOM     12  C   UNL     1      -4.246  -1.269  -0.907  1.00  0.00     0.017 A 
ATOM     13  Cl  UNL     1      -1.744  -1.911  -3.937  1.00  0.00    -0.084 Cl
ATOM     14  C   UNL     1      -3.584  -1.877  -1.974  1.00  0.00     0.021 A 
BRANCH   9  15
ATOM     15  N   UNL     1      -2.165   1.737  -0.391  1.00  0.00    -0.320 N 
ATOM     16  C   UNL     1      -1.316   2.767  -0.656  1.00  0.00     0.279 C 
ATOM     17  O   UNL     1      -1.190   3.579   0.274  1.00  0.00    -0.268 OA
ATOM     18  H   UNL     1      -2.429   1.752   0.557  1.00  0.00     0.170 HD
BRANCH  16  19
ATOM     19  C   UNL     1      -0.582   3.010  -1.963  1.00  0.00     0.363 C 
BRANCH  19  20
ATOM     20  N   UNL     1       0.839   2.610  -1.961  1.00  0.00    -0.327 N 
ATOM     21  C   UNL     1       1.912   1.304   0.503  1.00  0.00     0.192 C 
ATOM     22  C   UNL     1       1.841   2.833   0.376  1.00  0.00     0.126 C 
ATOM     23  C   UNL     1       0.997   0.596  -0.496  1.00  0.00     0.126 C 
ATOM     24  C   UNL     1       1.726   3.362  -1.061  1.00  0.00     0.268 C 
ATOM     25  C   UNL     1       1.121   1.184  -1.898  1.00  0.00     0.268 C 
ATOM     26  H   UNL     1       1.080   2.897  -2.909  1.00  0.00     0.348 HD
BRANCH  21  27
ATOM     27  N   UNL     1       3.282   0.814   0.344  1.00  0.00    -0.355 N 
ATOM     28  H   UNL     1       3.891   1.287   1.012  1.00  0.00     0.344 HD
ATOM     29  H   UNL     1       3.603   1.004  -0.605  1.00  0.00     0.344 HD
ATOM     30  H   UNL     1       3.305  -0.191   0.516  1.00  0.00     0.344 HD
ENDBRANCH  21  27
ENDBRANCH  19  20
ENDBRANCH  16  19
ENDBRANCH   9  15
ENDBRANCH   5   8
ENDBRANCH   3   4
ENDBRANCH   2   3
ENDBRANCH   1   2
BRANCH   1  31
ATOM     31  C   UNL     1      -4.142   4.695   3.502  1.00  0.00     0.002 C 
BRANCH  31  32
ATOM     32  C   UNL     1      -2.868   5.460   3.128  1.00  0.00     0.021 C 
BRANCH  32  33
ATOM     33  C   UNL     1      -3.032   6.890   2.624  1.00  0.00     0.116 C 
BRANCH  33  34
ATOM     34  N   UNL     1      -3.829   7.722   3.509  1.00  0.00    -0.352 N 
ATOM     35  C   UNL     1      -3.566   8.959   4.036  1.00  0.00     0.251 C 
ATOM     36  H   UNL     1      -4.694   7.335   3.773  1.00  0.00     0.163 HD
ATOM     37  O   UNL     1      -4.341   9.435   4.870  1.00  0.00    -0.269 OA
BRANCH  35  38
ATOM     38  C   UNL     1      -2.361   9.719   3.639  1.00  0.00     0.039 A 
ATOM     39  C   UNL     1      -1.630  10.380   4.631  1.00  0.00     0.014 A 
ATOM     40  C   UNL     1      -1.962   9.813   2.303  1.00  0.00     0.014 A 
ATOM     41  C   UNL     1      -0.471  11.084   4.293  1.00  0.00     0.010 A 
ATOM     42  C   UNL     1      -0.768  10.457   1.976  1.00  0.00     0.010 A 
ATOM     43  C   UNL     1      -0.011  11.102   2.966  1.00  0.00    -0.014 A 
BRANCH  43  44
ATOM     44  C   UNL     1       1.254  11.791   2.598  1.00  0.00     0.031 A 
ATOM     45  C   UNL     1       1.228  12.975   1.667  1.00  0.00     0.074 A 
ATOM     46  C   UNL     1       2.431  11.326   3.065  1.00  0.00     0.049 A 
ATOM     47  N   UNL     1       2.229  13.661   1.177  1.00  0.00    -0.248 NA
ATOM     48  C   UNL     1      -0.094  13.440   1.216  1.00  0.00     0.031 C 
ATOM     49  C   UNL     1       2.594  10.177   3.960  1.00  0.00     0.029 A 
ATOM     50  N   UNL     1       3.716  11.759   2.849  1.00  0.00    -0.354 N 
ATOM     51  C   UNL     1       1.661  14.632   0.360  1.00  0.00     0.074 A 
ATOM     52  C   UNL     1       0.231  14.411   0.374  1.00  0.00     0.031 C 
ATOM     53  C   UNL     1       3.898  10.015   4.238  1.00  0.00     0.029 A 
ATOM     54  C   UNL     1       4.669  11.014   3.505  1.00  0.00     0.049 A 
ATOM     55  H   UNL     1       3.935  12.531   2.279  1.00  0.00     0.167 HD
ATOM     56  C   UNL     1       2.269  15.634  -0.320  1.00  0.00     0.031 A 
ATOM     57  C   UNL     1       6.013  11.114   3.507  1.00  0.00     0.031 A 
ATOM     58  C   UNL     1       3.691  15.853  -0.332  1.00  0.00     0.049 A 
ATOM     59  C   UNL     1       6.667  12.201   2.692  1.00  0.00     0.074 A 
ATOM     60  C   UNL     1       4.402  16.852  -0.976  1.00  0.00     0.029 A 
ATOM     61  N   UNL     1       4.620  15.068   0.334  1.00  0.00    -0.354 N 
ATOM     62  N   UNL     1       6.106  13.133   1.958  1.00  0.00    -0.248 NA
ATOM     63  C   UNL     1       8.136  12.255   2.715  1.00  0.00     0.031 C 
ATOM     64  C   UNL     1       5.764  16.641  -0.742  1.00  0.00     0.029 A 
ATOM     65  C   UNL     1       5.898  15.550   0.103  1.00  0.00     0.049 A 
ATOM     66  H   UNL     1       4.404  14.284   0.888  1.00  0.00     0.167 HD
ATOM     67  C   UNL     1       7.153  13.908   1.469  1.00  0.00     0.074 A 
ATOM     68  C   UNL     1       8.376  13.344   1.999  1.00  0.00     0.031 C 
ATOM     69  C   UNL     1       7.106  14.990   0.653  1.00  0.00     0.031 A 
BRANCH  56  70
ATOM     70  C   UNL     1       1.396  16.581  -1.102  1.00  0.00    -0.014 A 
ATOM     71  C   UNL     1       0.554  17.495  -0.442  1.00  0.00     0.010 A 
ATOM     72  C   UNL     1       1.464  16.607  -2.507  1.00  0.00     0.010 A 
ATOM     73  C   UNL     1      -0.226  18.396  -1.172  1.00  0.00     0.020 A 
ATOM     74  C   UNL     1       0.708  17.528  -3.240  1.00  0.00     0.020 A 
ATOM     75  C   UNL     1      -0.141  18.408  -2.567  1.00  0.00     0.054 A 
BRANCH  75  76
ATOM     76  S   UNL     1      -1.133  19.620  -3.483  1.00  0.00     0.124 S 
ATOM     77  O   UNL     1      -2.487  19.106  -3.295  1.00  0.00    -0.237 OA
ATOM     78  O   UNL     1      -0.833  20.869  -2.787  1.00  0.00    -0.237 OA
ATOM     79  O   UNL     1      -0.618  19.531  -4.847  1.00  0.00    -0.744 OA
ENDBRANCH  75  76
ENDBRANCH  56  70
BRANCH  57  80
ATOM     80  C   UNL     1       6.844  10.166   4.302  1.00  0.00    -0.014 A 
ATOM     81  C   UNL     1       7.602  10.623   5.395  1.00  0.00     0.010 A 
ATOM     82  C   UNL     1       6.915   8.806   3.946  1.00  0.00     0.010 A 
ATOM     83  C   UNL     1       8.449   9.753   6.087  1.00  0.00     0.020 A 
ATOM     84  C   UNL     1       7.734   7.924   4.657  1.00  0.00     0.020 A 
ATOM     85  C   UNL     1       8.514   8.409   5.709  1.00  0.00     0.054 A 
BRANCH  85  86
ATOM     86  S   UNL     1       9.622   7.298   6.619  1.00  0.00     0.124 S 
ATOM     87  O   UNL     1      10.935   7.731   6.153  1.00  0.00    -0.237 OA
ATOM     88  O   UNL     1       9.309   7.610   8.011  1.00  0.00    -0.237 OA
ATOM     89  O   UNL     1       9.209   5.967   6.179  1.00  0.00    -0.744 OA
ENDBRANCH  85  86
ENDBRANCH  57  80
BRANCH  69  90
ATOM     90  C   UNL     1       8.406  15.678   0.331  1.00  0.00    -0.014 A 
ATOM     91  C   UNL     1       9.362  15.086  -0.513  1.00  0.00     0.010 A 
ATOM     92  C   UNL     1       8.648  16.969   0.839  1.00  0.00     0.010 A 
ATOM     93  C   UNL     1      10.549  15.759  -0.818  1.00  0.00     0.020 A 
ATOM     94  C   UNL     1       9.818  17.658   0.511  1.00  0.00     0.020 A 
ATOM     95  C   UNL     1      10.767  17.042  -0.306  1.00  0.00     0.054 A 
BRANCH  95  96
ATOM     96  S   UNL     1      12.292  17.913  -0.760  1.00  0.00     0.124 S 
ATOM     97  O   UNL     1      13.300  17.181   0.001  1.00  0.00    -0.237 OA
ATOM     98  O   UNL     1      12.344  17.733  -2.209  1.00  0.00    -0.237 OA
ATOM     99  O   UNL     1      12.053  19.285  -0.317  1.00  0.00    -0.744 OA
ENDBRANCH  95  96
ENDBRANCH  69  90
ENDBRANCH  43  44
ENDBRANCH  35  38
ENDBRANCH  33  34
ENDBRANCH  32  33
ENDBRANCH  31  32
ENDBRANCH   1  31
TORSDOF 20
