REMARK SMILES O=C(NCCCCCCNC(=O)[C@H]1C[C@H](O)CN1S(=O)(=O)c1ccc2c(c1)OCCO2)c1ccc(-c2c3nc(c(-c4ccc(S(=O)(=O)[O-])cc4)c4ccc([nH]4)c(-c4ccc(S(=O)(=O)[O-])cc4)c4nc(c(-c5ccc(S(=O)(=O)[O-])cc5)c5ccc2[nH]5)C=C4)C=C3)cc1
REMARK SMILES IDX 6 1 5 2 4 3 3 4 1 5 2 6 32 8 33 9 91 10 34 11 90 12 35 13
REMARK SMILES IDX 36 14 37 15 84 16 38 17 89 18 83 19 85 20 39 21 88 22 82 23
REMARK SMILES IDX 81 24 40 26 70 27 51 28 69 29 52 30 55 31 68 32 86 33 53 34
REMARK SMILES IDX 54 35 67 37 87 38 56 39 41 40 42 41 50 42 43 43 49 44 44 45
REMARK SMILES IDX 45 46 46 47 47 48 48 49 71 50 72 51 80 52 73 53 79 54 74 55
REMARK SMILES IDX 75 56 76 57 77 58 78 59 57 60 58 61 66 62 59 63 65 64 60 65
REMARK SMILES IDX 61 66 62 67 63 68 64 69 7 70 8 71 9 72 10 73 11 74 12 76
REMARK SMILES IDX 13 77 14 78 18 79 15 80 17 81 19 82 20 83 21 84 22 85 23 86
REMARK SMILES IDX 27 87 24 88 26 89 25 90 28 91 31 92 29 93 30 94 16 95
REMARK H PARENT 3 7 85 25 55 36 10 75 16 96
REMARK Flexibility Score: inf
ROOT
ATOM      1  C   UNL     1       3.930   3.706   1.314  1.00  0.00     0.002 C 
ENDROOT
BRANCH   1   2
ATOM      2  C   UNL     1       4.514   2.797   0.230  1.00  0.00     0.021 C 
BRANCH   2   3
ATOM      3  C   UNL     1       4.347   1.306   0.492  1.00  0.00     0.116 C 
BRANCH   3   4
ATOM      4  N   UNL     1       2.949   0.920   0.559  1.00  0.00    -0.352 N 
ATOM      5  O   UNL     1       1.085  -0.171  -0.083  1.00  0.00    -0.269 OA
ATOM      6  C   UNL     1       2.310  -0.098  -0.101  1.00  0.00     0.251 C 
ATOM      7  H   UNL     1       2.385   1.461   1.157  1.00  0.00     0.163 HD
BRANCH   6   8
ATOM      8  C   UNL     1       3.107  -1.103  -0.835  1.00  0.00     0.039 A 
ATOM      9  C   UNL     1       4.236  -1.681  -0.246  1.00  0.00     0.014 A 
ATOM     10  C   UNL     1       2.693  -1.501  -2.109  1.00  0.00     0.014 A 
ATOM     11  C   UNL     1       4.994  -2.603  -0.960  1.00  0.00     0.010 A 
ATOM     12  C   UNL     1       3.415  -2.479  -2.797  1.00  0.00     0.010 A 
ATOM     13  C   UNL     1       4.568  -3.038  -2.225  1.00  0.00    -0.014 A 
BRANCH  13  14
ATOM     14  C   UNL     1       5.252  -4.187  -2.863  1.00  0.00     0.031 A 
ATOM     15  C   UNL     1       6.031  -4.030  -4.136  1.00  0.00     0.074 A 
ATOM     16  C   UNL     1       5.138  -5.393  -2.269  1.00  0.00     0.049 A 
ATOM     17  N   UNL     1       6.669  -4.945  -4.819  1.00  0.00    -0.248 NA
ATOM     18  C   UNL     1       6.103  -2.682  -4.722  1.00  0.00     0.031 C 
ATOM     19  C   UNL     1       4.381  -5.658  -1.040  1.00  0.00     0.029 A 
ATOM     20  N   UNL     1       5.653  -6.616  -2.608  1.00  0.00    -0.354 N 
ATOM     21  C   UNL     1       7.199  -4.294  -5.926  1.00  0.00     0.074 A 
ATOM     22  C   UNL     1       6.803  -2.905  -5.829  1.00  0.00     0.031 C 
ATOM     23  C   UNL     1       4.503  -6.952  -0.716  1.00  0.00     0.029 A 
ATOM     24  C   UNL     1       5.291  -7.622  -1.742  1.00  0.00     0.049 A 
ATOM     25  H   UNL     1       6.227  -6.761  -3.395  1.00  0.00     0.167 HD
ATOM     26  C   UNL     1       7.946  -4.816  -6.929  1.00  0.00     0.031 A 
ATOM     27  C   UNL     1       5.535  -8.944  -1.785  1.00  0.00     0.031 A 
ATOM     28  C   UNL     1       8.338  -6.200  -7.006  1.00  0.00     0.049 A 
ATOM     29  C   UNL     1       6.340  -9.492  -2.926  1.00  0.00     0.074 A 
ATOM     30  C   UNL     1       9.152  -6.810  -7.946  1.00  0.00     0.029 A 
ATOM     31  N   UNL     1       7.934  -7.191  -6.125  1.00  0.00    -0.354 N 
ATOM     32  N   UNL     1       6.897  -8.846  -3.922  1.00  0.00    -0.248 NA
ATOM     33  C   UNL     1       6.545 -10.946  -2.954  1.00  0.00     0.031 C 
ATOM     34  C   UNL     1       9.191  -8.180  -7.667  1.00  0.00     0.029 A 
ATOM     35  C   UNL     1       8.446  -8.415  -6.523  1.00  0.00     0.049 A 
ATOM     36  H   UNL     1       7.367  -7.047  -5.333  1.00  0.00     0.167 HD
ATOM     37  C   UNL     1       7.521  -9.815  -4.696  1.00  0.00     0.074 A 
ATOM     38  C   UNL     1       7.301 -11.086  -4.034  1.00  0.00     0.031 C 
ATOM     39  C   UNL     1       8.205  -9.669  -5.856  1.00  0.00     0.031 A 
BRANCH  26  40
ATOM     40  C   UNL     1       8.381  -3.905  -8.046  1.00  0.00    -0.014 A 
ATOM     41  C   UNL     1       9.427  -2.983  -7.868  1.00  0.00     0.010 A 
ATOM     42  C   UNL     1       7.810  -4.057  -9.324  1.00  0.00     0.010 A 
ATOM     43  C   UNL     1       9.890  -2.224  -8.948  1.00  0.00     0.020 A 
ATOM     44  C   UNL     1       8.283  -3.313 -10.409  1.00  0.00     0.020 A 
ATOM     45  C   UNL     1       9.318  -2.397 -10.213  1.00  0.00     0.054 A 
BRANCH  45  46
ATOM     46  S   UNL     1       9.989  -1.451 -11.608  1.00  0.00     0.124 S 
ATOM     47  O   UNL     1       9.501  -0.104 -11.322  1.00  0.00    -0.237 OA
ATOM     48  O   UNL     1      11.430  -1.640 -11.460  1.00  0.00    -0.237 OA
ATOM     49  O   UNL     1       9.397  -2.092 -12.780  1.00  0.00    -0.744 OA
ENDBRANCH  45  46
ENDBRANCH  26  40
BRANCH  27  50
ATOM     50  C   UNL     1       4.961  -9.841  -0.746  1.00  0.00    -0.014 A 
ATOM     51  C   UNL     1       5.790 -10.493   0.181  1.00  0.00     0.010 A 
ATOM     52  C   UNL     1       3.570 -10.045  -0.685  1.00  0.00     0.010 A 
ATOM     53  C   UNL     1       5.240 -11.357   1.133  1.00  0.00     0.020 A 
ATOM     54  C   UNL     1       3.014 -10.883   0.284  1.00  0.00     0.020 A 
ATOM     55  C   UNL     1       3.856 -11.549   1.175  1.00  0.00     0.054 A 
BRANCH  55  56
ATOM     56  S   UNL     1       3.158 -12.657   2.431  1.00  0.00     0.124 S 
ATOM     57  O   UNL     1       3.451 -13.971   1.869  1.00  0.00    -0.237 OA
ATOM     58  O   UNL     1       3.914 -12.297   3.628  1.00  0.00    -0.237 OA
ATOM     59  O   UNL     1       1.745 -12.288   2.462  1.00  0.00    -0.744 OA
ENDBRANCH  55  56
ENDBRANCH  27  50
BRANCH  39  60
ATOM     60  C   UNL     1       8.764 -10.917  -6.479  1.00  0.00    -0.014 A 
ATOM     61  C   UNL     1       7.921 -11.841  -7.120  1.00  0.00     0.010 A 
ATOM     62  C   UNL     1      10.151 -11.148  -6.458  1.00  0.00     0.010 A 
ATOM     63  C   UNL     1       8.452 -12.992  -7.706  1.00  0.00     0.020 A 
ATOM     64  C   UNL     1      10.689 -12.285  -7.066  1.00  0.00     0.020 A 
ATOM     65  C   UNL     1       9.834 -13.206  -7.675  1.00  0.00     0.054 A 
BRANCH  65  66
ATOM     66  S   UNL     1      10.504 -14.685  -8.481  1.00  0.00     0.124 S 
ATOM     67  O   UNL     1      10.144 -15.737  -7.535  1.00  0.00    -0.237 OA
ATOM     68  O   UNL     1       9.787 -14.711  -9.753  1.00  0.00    -0.237 OA
ATOM     69  O   UNL     1      11.934 -14.403  -8.586  1.00  0.00    -0.744 OA
ENDBRANCH  65  66
ENDBRANCH  39  60
ENDBRANCH  13  14
ENDBRANCH   6   8
ENDBRANCH   3   4
ENDBRANCH   2   3
ENDBRANCH   1   2
BRANCH   1  70
ATOM     70  C   UNL     1       4.450   3.462   2.738  1.00  0.00     0.002 C 
BRANCH  70  71
ATOM     71  C   UNL     1       5.974   3.382   2.880  1.00  0.00     0.021 C 
BRANCH  71  72
ATOM     72  C   UNL     1       6.707   4.610   2.351  1.00  0.00     0.116 C 
BRANCH  72  73
ATOM     73  N   UNL     1       6.705   5.700   3.304  1.00  0.00    -0.355 N 
ATOM     74  C   UNL     1       7.673   6.571   3.691  1.00  0.00     0.238 C 
ATOM     75  H   UNL     1       5.841   5.835   3.755  1.00  0.00     0.163 HD
ATOM     76  O   UNL     1       7.339   7.417   4.531  1.00  0.00    -0.273 OA
BRANCH  74  77
ATOM     77  C   UNL     1       9.115   6.543   3.182  1.00  0.00     0.165 C 
ATOM     78  C   UNL     1       9.834   5.188   3.268  1.00  0.00     0.063 C 
ATOM     79  N   UNL     1       9.515   7.165   1.863  1.00  0.00    -0.183 NA
ATOM     80  C   UNL     1      10.331   4.921   1.856  1.00  0.00     0.131 C 
ATOM     81  C   UNL     1      10.623   6.322   1.338  1.00  0.00     0.135 C 
BRANCH  79  82
ATOM     82  S   UNL     1       8.251   7.567   0.800  1.00  0.00     0.244 S 
ATOM     83  O   UNL     1       7.751   6.328   0.239  1.00  0.00    -0.207 OA
ATOM     84  O   UNL     1       7.372   8.495   1.468  1.00  0.00    -0.207 OA
BRANCH  82  85
ATOM     85  C   UNL     1       9.031   8.440  -0.536  1.00  0.00     0.086 A 
ATOM     86  C   UNL     1       9.016   9.837  -0.585  1.00  0.00     0.026 A 
ATOM     87  C   UNL     1       9.551   7.697  -1.600  1.00  0.00     0.072 A 
ATOM     88  C   UNL     1       9.561  10.490  -1.697  1.00  0.00     0.052 A 
ATOM     89  C   UNL     1      10.145   8.352  -2.668  1.00  0.00     0.162 A 
ATOM     90  C   UNL     1      10.126   9.748  -2.736  1.00  0.00     0.161 A 
ATOM     91  O   UNL     1      10.731   7.555  -3.615  1.00  0.00    -0.486 OA
ATOM     92  O   UNL     1      10.649  10.447  -3.795  1.00  0.00    -0.486 OA
ATOM     93  C   UNL     1      11.623   8.313  -4.438  1.00  0.00     0.271 C 
ATOM     94  C   UNL     1      10.937   9.585  -4.907  1.00  0.00     0.271 C 
ENDBRANCH  82  85
ENDBRANCH  79  82
BRANCH  80  95
ATOM     95  O   UNL     1      11.463   4.069   1.842  1.00  0.00    -0.392 OA
ATOM     96  H   UNL     1      12.169   4.460   2.379  1.00  0.00     0.211 HD
ENDBRANCH  80  95
ENDBRANCH  74  77
ENDBRANCH  72  73
ENDBRANCH  71  72
ENDBRANCH  70  71
ENDBRANCH   1  70
TORSDOF 19
