REMARK SMILES C[C@H](NC(=O)c1c(C(=O)NCCCCCCNC(=O)c2ccc(-c3c4nc(c(-c5ccc(S(=O)(=O)[O-])cc5)c5ccc([nH]5)c(-c5ccc(S(=O)(=O)[O-])cc5)c5nc(c(-c6ccc(S(=O)(=O)[O-])cc6)c6ccc3[nH]6)C=C5)C=C4)cc2)cnn1C)[C@]12C[C@H]3C[C@H](C[C@H](C3)C1)C2
REMARK SMILES IDX 13 1 12 2 11 3 10 4 8 5 9 6 7 8 6 9 82 10 80 11 81 12 83 13
REMARK SMILES IDX 4 14 3 15 5 17 2 18 1 19 84 20 85 21 92 22 93 23 86 24 90 25
REMARK SMILES IDX 88 26 87 27 91 28 89 29 14 30 15 31 16 32 17 33 18 34 19 36
REMARK SMILES IDX 20 37 21 38 79 39 22 40 78 41 23 42 24 43 25 44 72 45 26 46
REMARK SMILES IDX 77 47 71 48 73 49 27 50 76 51 70 52 69 53 28 55 58 56 39 57
REMARK SMILES IDX 57 58 40 59 43 60 56 61 74 62 41 63 42 64 55 66 75 67 44 68
REMARK SMILES IDX 29 69 30 70 38 71 31 72 37 73 32 74 33 75 34 76 35 77 36 78
REMARK SMILES IDX 59 79 60 80 68 81 61 82 67 83 62 84 63 85 64 86 65 87 66 88
REMARK SMILES IDX 45 89 46 90 54 91 47 92 53 93 48 94 49 95 50 96 51 97 52 98
REMARK H PARENT 10 7 3 16 17 35 73 54 43 65
REMARK Flexibility Score: inf
ROOT
ATOM      1  C   UNL     1       6.198  -0.282   0.400  1.00  0.00     0.002 C 
ENDROOT
BRANCH   1   2
ATOM      2  C   UNL     1       4.807  -0.912   0.489  1.00  0.00     0.021 C 
BRANCH   2   3
ATOM      3  C   UNL     1       3.891  -0.725  -0.717  1.00  0.00     0.116 C 
BRANCH   3   4
ATOM      4  N   UNL     1       4.309  -1.452  -1.881  1.00  0.00    -0.352 N 
ATOM      5  C   UNL     1       3.585  -1.976  -2.915  1.00  0.00     0.255 C 
ATOM      6  O   UNL     1       4.235  -2.654  -3.717  1.00  0.00    -0.269 OA
ATOM      7  H   UNL     1       5.280  -1.598  -1.945  1.00  0.00     0.163 HD
BRANCH   5   8
ATOM      8  C   UNL     1       2.147  -1.800  -3.120  1.00  0.00     0.090 A 
ATOM      9  C   UNL     1       1.151  -0.946  -2.637  1.00  0.00     0.138 A 
ATOM     10  N   UNL     1       0.085  -1.124  -3.495  1.00  0.00    -0.262 N 
ATOM     11  C   UNL     1       1.453  -2.583  -4.089  1.00  0.00     0.149 A 
ATOM     12  N   UNL     1       0.189  -2.212  -4.274  1.00  0.00    -0.180 NA
ATOM     13  C   UNL     1      -1.012  -0.209  -3.736  1.00  0.00     0.174 C 
BRANCH   9  14
ATOM     14  C   UNL     1       1.135   0.128  -1.690  1.00  0.00     0.270 C 
ATOM     15  N   UNL     1       0.503  -0.053  -0.483  1.00  0.00    -0.348 N 
ATOM     16  H   UNL     1       0.284   0.785  -0.014  1.00  0.00     0.164 HD
ATOM     17  O   UNL     1       1.597   1.237  -1.945  1.00  0.00    -0.267 OA
BRANCH  15  18
ATOM     18  C   UNL     1       0.090  -1.273   0.240  1.00  0.00     0.085 C 
ATOM     19  C   UNL     1       0.858  -1.283   1.573  1.00  0.00     0.031 C 
BRANCH  18  20
ATOM     20  C   UNL     1      -1.471  -1.383   0.448  1.00  0.00    -0.009 C 
ATOM     21  C   UNL     1      -1.850  -2.260   1.684  1.00  0.00     0.012 C 
ATOM     22  C   UNL     1      -2.119  -2.066  -0.787  1.00  0.00     0.012 C 
ATOM     23  C   UNL     1      -2.138   0.008   0.641  1.00  0.00     0.012 C 
ATOM     24  C   UNL     1      -3.375  -2.387   1.846  1.00  0.00    -0.010 C 
ATOM     25  C   UNL     1      -3.644  -2.187  -0.639  1.00  0.00    -0.010 C 
ATOM     26  C   UNL     1      -3.664  -0.120   0.798  1.00  0.00    -0.010 C 
ATOM     27  C   UNL     1      -3.980  -0.986   2.025  1.00  0.00     0.007 C 
ATOM     28  C   UNL     1      -3.966  -3.043   0.593  1.00  0.00     0.007 C 
ATOM     29  C   UNL     1      -4.247  -0.785  -0.460  1.00  0.00     0.007 C 
ENDBRANCH  18  20
ENDBRANCH  15  18
ENDBRANCH   9  14
ENDBRANCH   5   8
ENDBRANCH   3   4
ENDBRANCH   2   3
ENDBRANCH   1   2
BRANCH   1  30
ATOM     30  C   UNL     1       6.271   1.206   0.048  1.00  0.00     0.002 C 
BRANCH  30  31
ATOM     31  C   UNL     1       5.373   2.167   0.833  1.00  0.00     0.021 C 
BRANCH  31  32
ATOM     32  C   UNL     1       5.394   2.066   2.356  1.00  0.00     0.116 C 
BRANCH  32  33
ATOM     33  N   UNL     1       6.714   2.207   2.939  1.00  0.00    -0.352 N 
ATOM     34  C   UNL     1       7.117   2.919   4.044  1.00  0.00     0.251 C 
ATOM     35  H   UNL     1       7.430   1.718   2.473  1.00  0.00     0.163 HD
ATOM     36  O   UNL     1       8.309   2.942   4.341  1.00  0.00    -0.269 OA
BRANCH  34  37
ATOM     37  C   UNL     1       6.145   3.695   4.853  1.00  0.00     0.039 A 
ATOM     38  C   UNL     1       6.492   4.998   5.226  1.00  0.00     0.014 A 
ATOM     39  C   UNL     1       4.916   3.164   5.256  1.00  0.00     0.014 A 
ATOM     40  C   UNL     1       5.582   5.794   5.927  1.00  0.00     0.010 A 
ATOM     41  C   UNL     1       3.990   3.972   5.922  1.00  0.00     0.010 A 
ATOM     42  C   UNL     1       4.308   5.300   6.246  1.00  0.00    -0.014 A 
BRANCH  42  43
ATOM     43  C   UNL     1       3.282   6.180   6.860  1.00  0.00     0.031 A 
ATOM     44  C   UNL     1       2.852   5.990   8.286  1.00  0.00     0.074 A 
ATOM     45  C   UNL     1       2.680   7.117   6.101  1.00  0.00     0.049 A 
ATOM     46  N   UNL     1       1.919   6.622   8.952  1.00  0.00    -0.248 NA
ATOM     47  C   UNL     1       3.546   4.948   9.057  1.00  0.00     0.031 C 
ATOM     48  C   UNL     1       2.972   7.381   4.690  1.00  0.00     0.029 A 
ATOM     49  N   UNL     1       1.683   8.009   6.407  1.00  0.00    -0.354 N 
ATOM     50  C   UNL     1       1.893   6.040  10.212  1.00  0.00     0.074 A 
ATOM     51  C   UNL     1       2.901   4.999  10.215  1.00  0.00     0.031 C 
ATOM     52  C   UNL     1       2.174   8.369   4.254  1.00  0.00     0.029 A 
ATOM     53  C   UNL     1       1.300   8.792   5.345  1.00  0.00     0.049 A 
ATOM     54  H   UNL     1       1.281   8.082   7.303  1.00  0.00     0.167 HD
ATOM     55  C   UNL     1       1.105   6.343  11.271  1.00  0.00     0.031 A 
ATOM     56  C   UNL     1       0.344   9.735   5.249  1.00  0.00     0.031 A 
ATOM     57  C   UNL     1       0.125   7.394  11.293  1.00  0.00     0.049 A 
ATOM     58  C   UNL     1      -0.505  10.064   6.440  1.00  0.00     0.074 A 
ATOM     59  C   UNL     1      -0.654   7.826  12.354  1.00  0.00     0.029 A 
ATOM     60  N   UNL     1      -0.220   8.175  10.202  1.00  0.00    -0.354 N 
ATOM     61  N   UNL     1      -0.469   9.542   7.642  1.00  0.00    -0.248 NA
ATOM     62  C   UNL     1      -1.525  11.107   6.261  1.00  0.00     0.031 C 
ATOM     63  C   UNL     1      -1.490   8.852  11.896  1.00  0.00     0.029 A 
ATOM     64  C   UNL     1      -1.218   9.068  10.555  1.00  0.00     0.049 A 
ATOM     65  H   UNL     1       0.185   8.106   9.307  1.00  0.00     0.167 HD
ATOM     66  C   UNL     1      -1.460  10.194   8.364  1.00  0.00     0.074 A 
ATOM     67  C   UNL     1      -2.073  11.155   7.469  1.00  0.00     0.031 C 
ATOM     68  C   UNL     1      -1.827  10.011   9.655  1.00  0.00     0.031 A 
BRANCH  55  69
ATOM     69  C   UNL     1       1.271   5.502  12.502  1.00  0.00    -0.014 A 
ATOM     70  C   UNL     1       2.296   5.771  13.425  1.00  0.00     0.010 A 
ATOM     71  C   UNL     1       0.382   4.440  12.745  1.00  0.00     0.010 A 
ATOM     72  C   UNL     1       2.454   4.966  14.555  1.00  0.00     0.020 A 
ATOM     73  C   UNL     1       0.531   3.639  13.879  1.00  0.00     0.020 A 
ATOM     74  C   UNL     1       1.579   3.895  14.767  1.00  0.00     0.054 A 
BRANCH  74  75
ATOM     75  S   UNL     1       1.794   2.850  16.235  1.00  0.00     0.124 S 
ATOM     76  O   UNL     1       2.764   1.867  15.760  1.00  0.00    -0.237 OA
ATOM     77  O   UNL     1       2.292   3.788  17.239  1.00  0.00    -0.237 OA
ATOM     78  O   UNL     1       0.451   2.334  16.484  1.00  0.00    -0.744 OA
ENDBRANCH  74  75
ENDBRANCH  55  69
BRANCH  56  79
ATOM     79  C   UNL     1       0.129  10.424   3.953  1.00  0.00    -0.014 A 
ATOM     80  C   UNL     1       0.724  11.672   3.704  1.00  0.00     0.010 A 
ATOM     81  C   UNL     1      -0.645   9.813   2.952  1.00  0.00     0.010 A 
ATOM     82  C   UNL     1       0.549  12.301   2.468  1.00  0.00     0.020 A 
ATOM     83  C   UNL     1      -0.814  10.435   1.714  1.00  0.00     0.020 A 
ATOM     84  C   UNL     1      -0.221  11.679   1.481  1.00  0.00     0.054 A 
BRANCH  84  85
ATOM     85  S   UNL     1      -0.393  12.454  -0.151  1.00  0.00     0.124 S 
ATOM     86  O   UNL     1      -1.609  13.244   0.017  1.00  0.00    -0.237 OA
ATOM     87  O   UNL     1       0.844  13.220  -0.286  1.00  0.00    -0.237 OA
ATOM     88  O   UNL     1      -0.505  11.307  -1.049  1.00  0.00    -0.744 OA
ENDBRANCH  84  85
ENDBRANCH  56  79
BRANCH  68  89
ATOM     89  C   UNL     1      -2.947  10.865  10.174  1.00  0.00    -0.014 A 
ATOM     90  C   UNL     1      -4.284  10.486   9.966  1.00  0.00     0.010 A 
ATOM     91  C   UNL     1      -2.663  12.033  10.901  1.00  0.00     0.010 A 
ATOM     92  C   UNL     1      -5.325  11.274  10.465  1.00  0.00     0.020 A 
ATOM     93  C   UNL     1      -3.702  12.819  11.408  1.00  0.00     0.020 A 
ATOM     94  C   UNL     1      -5.028  12.440  11.176  1.00  0.00     0.054 A 
BRANCH  94  95
ATOM     95  S   UNL     1      -6.381  13.440  11.857  1.00  0.00     0.124 S 
ATOM     96  O   UNL     1      -6.680  14.340  10.748  1.00  0.00    -0.237 OA
ATOM     97  O   UNL     1      -7.411  12.447  12.154  1.00  0.00    -0.237 OA
ATOM     98  O   UNL     1      -5.779  14.069  13.031  1.00  0.00    -0.744 OA
ENDBRANCH  94  95
ENDBRANCH  68  89
ENDBRANCH  42  43
ENDBRANCH  34  37
ENDBRANCH  32  33
ENDBRANCH  31  32
ENDBRANCH  30  31
ENDBRANCH   1  30
TORSDOF 19
