REMARK SMILES CC(C)(C)OC(=O)N1CC(Cc2ccc(C(=O)NCCCCCCNC(=O)c3ccc(-c4c5nc(c(-c6ccc(S(=O)(=O)[O-])cc6)c6ccc([nH]6)c(-c6ccc(S(=O)(=O)[O-])cc6)c6nc(c(-c7ccc(S(=O)(=O)[O-])cc7)c7ccc4[nH]7)C=C6)C=C5)cc3)cc2)C1
REMARK SMILES IDX 21 1 20 2 19 3 18 4 16 5 17 6 15 8 12 9 13 10 89 11 14 12
REMARK SMILES IDX 88 13 11 14 10 15 6 16 7 17 8 18 9 19 90 20 5 21 2 22 1 23
REMARK SMILES IDX 3 24 4 25 22 26 23 27 24 28 25 29 26 30 27 32 28 33 29 34
REMARK SMILES IDX 87 35 30 36 86 37 31 38 32 39 33 40 80 41 34 42 85 43 79 44
REMARK SMILES IDX 81 45 35 46 84 47 78 48 77 49 36 51 66 52 47 53 65 54 48 55
REMARK SMILES IDX 51 56 64 57 82 58 49 59 50 60 63 62 83 63 52 64 37 65 38 66
REMARK SMILES IDX 46 67 39 68 45 69 40 70 41 71 42 72 43 73 44 74 67 75 68 76
REMARK SMILES IDX 76 77 69 78 75 79 70 80 71 81 72 82 73 83 74 84 53 85 54 86
REMARK SMILES IDX 62 87 55 88 61 89 56 90 57 91 58 92 59 93 60 94
REMARK H PARENT 18 7 25 31 81 50 51 61
REMARK Flexibility Score: inf
ROOT
ATOM      1  C   UNL     1       8.548  11.180   4.597  1.00  0.00     0.002 C 
ENDROOT
BRANCH   1   2
ATOM      2  C   UNL     1       7.233  10.387   4.584  1.00  0.00     0.021 C 
BRANCH   2   3
ATOM      3  C   UNL     1       7.419   8.884   4.364  1.00  0.00     0.116 C 
BRANCH   3   4
ATOM      4  N   UNL     1       7.921   8.249   5.571  1.00  0.00    -0.352 N 
ATOM      5  C   UNL     1       7.341   7.363   6.442  1.00  0.00     0.251 C 
ATOM      6  O   UNL     1       8.023   6.904   7.357  1.00  0.00    -0.269 OA
ATOM      7  H   UNL     1       8.845   8.499   5.804  1.00  0.00     0.163 HD
BRANCH   5   8
ATOM      8  C   UNL     1       5.939   6.899   6.285  1.00  0.00     0.039 A 
ATOM      9  C   UNL     1       3.333   5.870   6.011  1.00  0.00    -0.048 A 
ATOM     10  C   UNL     1       4.378   5.038   6.422  1.00  0.00     0.004 A 
ATOM     11  C   UNL     1       3.596   7.229   5.777  1.00  0.00     0.004 A 
ATOM     12  C   UNL     1       5.670   5.551   6.563  1.00  0.00     0.014 A 
ATOM     13  C   UNL     1       4.886   7.744   5.934  1.00  0.00     0.014 A 
BRANCH   9  14
ATOM     14  C   UNL     1       1.939   5.328   5.815  1.00  0.00     0.042 C 
BRANCH  14  15
ATOM     15  C   UNL     1       1.668   5.091   4.335  1.00  0.00     0.033 C 
ATOM     16  C   UNL     1       0.136   3.248   1.995  1.00  0.00     0.410 C 
ATOM     17  O   UNL     1      -0.934   3.639   1.550  1.00  0.00    -0.224 OA
ATOM     18  N   UNL     1       0.699   3.774   3.115  1.00  0.00    -0.307 N 
ATOM     19  C   UNL     1       0.193   4.781   4.017  1.00  0.00     0.128 C 
ATOM     20  C   UNL     1       2.009   3.705   3.722  1.00  0.00     0.128 C 
BRANCH  16  21
ATOM     21  O   UNL     1       0.884   2.242   1.477  1.00  0.00    -0.444 OA
BRANCH  21  22
ATOM     22  C   UNL     1       0.484   1.567   0.252  1.00  0.00     0.106 C 
ATOM     23  C   UNL     1       1.275   0.249   0.248  1.00  0.00     0.056 C 
ATOM     24  C   UNL     1       0.910   2.417  -0.948  1.00  0.00     0.056 C 
ATOM     25  C   UNL     1      -1.010   1.216   0.183  1.00  0.00     0.056 C 
ENDBRANCH  21  22
ENDBRANCH  16  21
ENDBRANCH  14  15
ENDBRANCH   9  14
ENDBRANCH   5   8
ENDBRANCH   3   4
ENDBRANCH   2   3
ENDBRANCH   1   2
BRANCH   1  26
ATOM     26  C   UNL     1       9.293  11.231   3.257  1.00  0.00     0.002 C 
BRANCH  26  27
ATOM     27  C   UNL     1       8.489  11.788   2.077  1.00  0.00     0.021 C 
BRANCH  27  28
ATOM     28  C   UNL     1       7.980  13.216   2.258  1.00  0.00     0.116 C 
BRANCH  28  29
ATOM     29  N   UNL     1       9.065  14.182   2.310  1.00  0.00    -0.352 N 
ATOM     30  C   UNL     1       9.229  15.340   1.589  1.00  0.00     0.251 C 
ATOM     31  H   UNL     1       9.783  13.978   2.952  1.00  0.00     0.163 HD
ATOM     32  O   UNL     1      10.300  15.939   1.626  1.00  0.00    -0.269 OA
BRANCH  30  33
ATOM     33  C   UNL     1       8.121  15.855   0.754  1.00  0.00     0.039 A 
ATOM     34  C   UNL     1       8.393  16.261  -0.555  1.00  0.00     0.014 A 
ATOM     35  C   UNL     1       6.824  15.953   1.266  1.00  0.00     0.014 A 
ATOM     36  C   UNL     1       7.352  16.711  -1.372  1.00  0.00     0.010 A 
ATOM     37  C   UNL     1       5.780  16.354   0.436  1.00  0.00     0.010 A 
ATOM     38  C   UNL     1       6.033  16.736  -0.891  1.00  0.00    -0.014 A 
BRANCH  38  39
ATOM     39  C   UNL     1       4.903  17.149  -1.761  1.00  0.00     0.031 A 
ATOM     40  C   UNL     1       4.148  18.417  -1.473  1.00  0.00     0.074 A 
ATOM     41  C   UNL     1       4.509  16.345  -2.768  1.00  0.00     0.049 A 
ATOM     42  N   UNL     1       3.095  18.904  -2.078  1.00  0.00    -0.248 NA
ATOM     43  C   UNL     1       4.627  19.232  -0.345  1.00  0.00     0.031 C 
ATOM     44  C   UNL     1       5.138  15.073  -3.133  1.00  0.00     0.029 A 
ATOM     45  N   UNL     1       3.479  16.476  -3.664  1.00  0.00    -0.354 N 
ATOM     46  C   UNL     1       2.768  20.066  -1.389  1.00  0.00     0.074 A 
ATOM     47  C   UNL     1       3.718  20.195  -0.304  1.00  0.00     0.031 C 
ATOM     48  C   UNL     1       4.495  14.554  -4.192  1.00  0.00     0.029 A 
ATOM     49  C   UNL     1       3.390  15.435  -4.558  1.00  0.00     0.049 A 
ATOM     50  H   UNL     1       2.861  17.242  -3.667  1.00  0.00     0.167 HD
ATOM     51  C   UNL     1       1.772  20.950  -1.640  1.00  0.00     0.031 A 
ATOM     52  C   UNL     1       2.516  15.211  -5.557  1.00  0.00     0.031 A 
ATOM     53  C   UNL     1       0.842  20.835  -2.731  1.00  0.00     0.049 A 
ATOM     54  C   UNL     1       1.420  16.205  -5.818  1.00  0.00     0.074 A 
ATOM     55  C   UNL     1      -0.151  21.721  -3.114  1.00  0.00     0.029 A 
ATOM     56  N   UNL     1       0.786  19.767  -3.612  1.00  0.00    -0.354 N 
ATOM     57  N   UNL     1       1.165  17.329  -5.193  1.00  0.00    -0.248 NA
ATOM     58  C   UNL     1       0.497  15.901  -6.920  1.00  0.00     0.031 C 
ATOM     59  C   UNL     1      -0.832  21.168  -4.205  1.00  0.00     0.029 A 
ATOM     60  C   UNL     1      -0.239  19.957  -4.523  1.00  0.00     0.049 A 
ATOM     61  H   UNL     1       1.387  18.987  -3.594  1.00  0.00     0.167 HD
ATOM     62  C   UNL     1       0.064  17.879  -5.840  1.00  0.00     0.074 A 
ATOM     63  C   UNL     1      -0.294  16.966  -6.908  1.00  0.00     0.031 C 
ATOM     64  C   UNL     1      -0.587  19.038  -5.576  1.00  0.00     0.031 A 
BRANCH  51  65
ATOM     65  C   UNL     1       1.634  22.115  -0.698  1.00  0.00    -0.014 A 
ATOM     66  C   UNL     1       2.556  23.177  -0.714  1.00  0.00     0.010 A 
ATOM     67  C   UNL     1       0.561  22.150   0.211  1.00  0.00     0.010 A 
ATOM     68  C   UNL     1       2.438  24.227   0.200  1.00  0.00     0.020 A 
ATOM     69  C   UNL     1       0.428  23.210   1.112  1.00  0.00     0.020 A 
ATOM     70  C   UNL     1       1.382  24.230   1.116  1.00  0.00     0.054 A 
BRANCH  70  71
ATOM     71  S   UNL     1       1.253  25.598   2.302  1.00  0.00     0.124 S 
ATOM     72  O   UNL     1       2.247  25.219   3.303  1.00  0.00    -0.237 OA
ATOM     73  O   UNL     1       1.593  26.764   1.491  1.00  0.00    -0.237 OA
ATOM     74  O   UNL     1      -0.136  25.537   2.748  1.00  0.00    -0.744 OA
ENDBRANCH  70  71
ENDBRANCH  51  65
BRANCH  52  75
ATOM     75  C   UNL     1       2.665  14.002  -6.408  1.00  0.00    -0.014 A 
ATOM     76  C   UNL     1       3.194  14.115  -7.705  1.00  0.00     0.010 A 
ATOM     77  C   UNL     1       2.313  12.732  -5.916  1.00  0.00     0.010 A 
ATOM     78  C   UNL     1       3.369  12.979  -8.499  1.00  0.00     0.020 A 
ATOM     79  C   UNL     1       2.504  11.591  -6.701  1.00  0.00     0.020 A 
ATOM     80  C   UNL     1       3.026  11.723  -7.991  1.00  0.00     0.054 A 
BRANCH  80  81
ATOM     81  S   UNL     1       3.333  10.251  -9.007  1.00  0.00     0.124 S 
ATOM     82  O   UNL     1       2.212  10.288  -9.941  1.00  0.00    -0.237 OA
ATOM     83  O   UNL     1       4.647  10.531  -9.583  1.00  0.00    -0.237 OA
ATOM     84  O   UNL     1       3.309   9.159  -8.037  1.00  0.00    -0.744 OA
ENDBRANCH  80  81
ENDBRANCH  52  75
BRANCH  64  85
ATOM     85  C   UNL     1      -1.742  19.397  -6.468  1.00  0.00    -0.014 A 
ATOM     86  C   UNL     1      -2.990  18.767  -6.325  1.00  0.00     0.010 A 
ATOM     87  C   UNL     1      -1.589  20.414  -7.428  1.00  0.00     0.010 A 
ATOM     88  C   UNL     1      -4.062  19.134  -7.143  1.00  0.00     0.020 A 
ATOM     89  C   UNL     1      -2.664  20.796  -8.234  1.00  0.00     0.020 A 
ATOM     90  C   UNL     1      -3.891  20.145  -8.094  1.00  0.00     0.054 A 
BRANCH  90  91
ATOM     91  S   UNL     1      -5.309  20.642  -9.112  1.00  0.00     0.124 S 
ATOM     92  O   UNL     1      -5.346  19.583 -10.117  1.00  0.00    -0.237 OA
ATOM     93  O   UNL     1      -6.413  20.639  -8.155  1.00  0.00    -0.237 OA
ATOM     94  O   UNL     1      -4.929  21.962  -9.609  1.00  0.00    -0.744 OA
ENDBRANCH  90  91
ENDBRANCH  64  85
ENDBRANCH  38  39
ENDBRANCH  30  33
ENDBRANCH  28  29
ENDBRANCH  27  28
ENDBRANCH  26  27
ENDBRANCH   1  26
TORSDOF 20
