REMARK SMILES O=C(NCCCCCCNC(=O)c1cccc(Nc2ccnc3ccc(Cl)cc23)c1)c1ccc(-c2c3nc(c(-c4ccc(S(=O)(=O)[O-])cc4)c4ccc([nH]4)c(-c4ccc(S(=O)(=O)[O-])cc4)c4nc(c(-c5ccc(S(=O)(=O)[O-])cc5)c5ccc2[nH]5)C=C4)C=C3)cc1
REMARK SMILES IDX 6 1 5 2 4 3 3 4 1 5 2 6 31 8 32 9 90 10 33 11 89 12 34 13
REMARK SMILES IDX 35 14 36 15 83 16 37 17 88 18 82 19 84 20 38 21 87 22 81 23
REMARK SMILES IDX 80 24 39 26 69 27 50 28 68 29 51 30 54 31 67 32 85 33 52 34
REMARK SMILES IDX 53 35 66 37 86 38 55 39 40 40 41 41 49 42 42 43 48 44 43 45
REMARK SMILES IDX 44 46 45 47 46 48 47 49 70 50 71 51 79 52 72 53 78 54 73 55
REMARK SMILES IDX 74 56 75 57 76 58 77 59 56 60 57 61 65 62 58 63 64 64 59 65
REMARK SMILES IDX 60 66 61 67 62 68 63 69 7 70 8 71 9 72 10 73 11 74 12 76
REMARK SMILES IDX 13 77 14 78 30 79 15 80 17 81 16 82 18 83 19 85 20 86 29 87
REMARK SMILES IDX 21 88 23 89 28 90 22 91 24 92 26 93 25 94 27 95
REMARK H PARENT 3 7 84 25 54 36 10 75 18 84
REMARK Flexibility Score: inf
ROOT
ATOM      1  C   UNL     1       4.494  -3.049   2.544  1.00  0.00     0.002 C 
ENDROOT
BRANCH   1   2
ATOM      2  C   UNL     1       4.938  -1.636   2.158  1.00  0.00     0.021 C 
BRANCH   2   3
ATOM      3  C   UNL     1       4.656  -1.221   0.716  1.00  0.00     0.116 C 
BRANCH   3   4
ATOM      4  N   UNL     1       3.235  -1.126   0.422  1.00  0.00    -0.352 N 
ATOM      5  O   UNL     1       1.270  -0.152  -0.080  1.00  0.00    -0.269 OA
ATOM      6  C   UNL     1       2.495  -0.062  -0.038  1.00  0.00     0.251 C 
ATOM      7  H   UNL     1       2.723  -1.952   0.577  1.00  0.00     0.163 HD
BRANCH   6   8
ATOM      8  C   UNL     1       3.155   1.196  -0.460  1.00  0.00     0.039 A 
ATOM      9  C   UNL     1       4.297   1.185  -1.265  1.00  0.00     0.014 A 
ATOM     10  C   UNL     1       2.592   2.417  -0.072  1.00  0.00     0.014 A 
ATOM     11  C   UNL     1       4.947   2.380  -1.570  1.00  0.00     0.010 A 
ATOM     12  C   UNL     1       3.208   3.619  -0.435  1.00  0.00     0.010 A 
ATOM     13  C   UNL     1       4.409   3.611  -1.161  1.00  0.00    -0.014 A 
BRANCH  13  14
ATOM     14  C   UNL     1       5.091   4.881  -1.528  1.00  0.00     0.031 A 
ATOM     15  C   UNL     1       5.701   5.765  -0.473  1.00  0.00     0.074 A 
ATOM     16  C   UNL     1       5.163   5.238  -2.825  1.00  0.00     0.049 A 
ATOM     17  N   UNL     1       6.324   6.907  -0.616  1.00  0.00    -0.248 NA
ATOM     18  C   UNL     1       5.594   5.311   0.922  1.00  0.00     0.031 C 
ATOM     19  C   UNL     1       4.609   4.470  -3.943  1.00  0.00     0.029 A 
ATOM     20  N   UNL     1       5.736   6.331  -3.424  1.00  0.00    -0.354 N 
ATOM     21  C   UNL     1       6.666   7.320   0.666  1.00  0.00     0.074 A 
ATOM     22  C   UNL     1       6.162   6.314   1.578  1.00  0.00     0.031 C 
ATOM     23  C   UNL     1       4.894   5.100  -5.092  1.00  0.00     0.029 A 
ATOM     24  C   UNL     1       5.602   6.341  -4.792  1.00  0.00     0.049 A 
ATOM     25  H   UNL     1       6.199   7.041  -2.922  1.00  0.00     0.167 HD
ATOM     26  C   UNL     1       7.340   8.431   1.051  1.00  0.00     0.031 A 
ATOM     27  C   UNL     1       5.986   7.252  -5.707  1.00  0.00     0.031 A 
ATOM     28  C   UNL     1       7.837   9.434   0.144  1.00  0.00     0.049 A 
ATOM     29  C   UNL     1       6.706   8.489  -5.256  1.00  0.00     0.074 A 
ATOM     30  C   UNL     1       8.555  10.581   0.438  1.00  0.00     0.029 A 
ATOM     31  N   UNL     1       7.661   9.415  -1.232  1.00  0.00    -0.354 N 
ATOM     32  N   UNL     1       7.046   8.844  -4.040  1.00  0.00    -0.248 NA
ATOM     33  C   UNL     1       7.098   9.447  -6.299  1.00  0.00     0.031 C 
ATOM     34  C   UNL     1       8.774  11.279  -0.756  1.00  0.00     0.029 A 
ATOM     35  C   UNL     1       8.239  10.540  -1.799  1.00  0.00     0.049 A 
ATOM     36  H   UNL     1       7.195   8.707  -1.732  1.00  0.00     0.167 HD
ATOM     37  C   UNL     1       7.709  10.059  -4.173  1.00  0.00     0.074 A 
ATOM     38  C   UNL     1       7.732  10.370  -5.588  1.00  0.00     0.031 C 
ATOM     39  C   UNL     1       8.251  10.842  -3.208  1.00  0.00     0.031 A 
BRANCH  26  40
ATOM     40  C   UNL     1       7.554   8.637   2.528  1.00  0.00    -0.014 A 
ATOM     41  C   UNL     1       8.467   7.848   3.250  1.00  0.00     0.010 A 
ATOM     42  C   UNL     1       6.848   9.653   3.200  1.00  0.00     0.010 A 
ATOM     43  C   UNL     1       8.635   8.038   4.625  1.00  0.00     0.020 A 
ATOM     44  C   UNL     1       7.031   9.862   4.570  1.00  0.00     0.020 A 
ATOM     45  C   UNL     1       7.907   9.038   5.278  1.00  0.00     0.054 A 
BRANCH  45  46
ATOM     46  S   UNL     1       8.137   9.259   7.064  1.00  0.00     0.124 S 
ATOM     47  O   UNL     1       7.395   8.123   7.604  1.00  0.00    -0.237 OA
ATOM     48  O   UNL     1       9.588   9.188   7.214  1.00  0.00    -0.237 OA
ATOM     49  O   UNL     1       7.551  10.570   7.330  1.00  0.00    -0.744 OA
ENDBRANCH  45  46
ENDBRANCH  26  40
BRANCH  27  50
ATOM     50  C   UNL     1       5.685   7.013  -7.143  1.00  0.00    -0.014 A 
ATOM     51  C   UNL     1       6.708   6.659  -8.039  1.00  0.00     0.010 A 
ATOM     52  C   UNL     1       4.359   7.085  -7.609  1.00  0.00     0.010 A 
ATOM     53  C   UNL     1       6.410   6.380  -9.376  1.00  0.00     0.020 A 
ATOM     54  C   UNL     1       4.054   6.782  -8.938  1.00  0.00     0.020 A 
ATOM     55  C   UNL     1       5.084   6.436  -9.815  1.00  0.00     0.054 A 
BRANCH  55  56
ATOM     56  S   UNL     1       4.709   5.986 -11.532  1.00  0.00     0.124 S 
ATOM     57  O   UNL     1       5.156   7.168 -12.260  1.00  0.00    -0.237 OA
ATOM     58  O   UNL     1       5.513   4.781 -11.726  1.00  0.00    -0.237 OA
ATOM     59  O   UNL     1       3.265   5.764 -11.519  1.00  0.00    -0.744 OA
ENDBRANCH  55  56
ENDBRANCH  27  50
BRANCH  39  60
ATOM     60  C   UNL     1       8.945  12.102  -3.651  1.00  0.00    -0.014 A 
ATOM     61  C   UNL     1       8.214  13.224  -4.079  1.00  0.00     0.010 A 
ATOM     62  C   UNL     1      10.348  12.179  -3.585  1.00  0.00     0.010 A 
ATOM     63  C   UNL     1       8.877  14.395  -4.458  1.00  0.00     0.020 A 
ATOM     64  C   UNL     1      11.012  13.355  -3.941  1.00  0.00     0.020 A 
ATOM     65  C   UNL     1      10.273  14.452  -4.388  1.00  0.00     0.054 A 
BRANCH  65  66
ATOM     66  S   UNL     1      11.109  15.998  -4.838  1.00  0.00     0.124 S 
ATOM     67  O   UNL     1      11.032  15.971  -6.296  1.00  0.00    -0.237 OA
ATOM     68  O   UNL     1      10.287  17.012  -4.183  1.00  0.00    -0.237 OA
ATOM     69  O   UNL     1      12.451  15.839  -4.281  1.00  0.00    -0.744 OA
ENDBRANCH  65  66
ENDBRANCH  39  60
ENDBRANCH  13  14
ENDBRANCH   6   8
ENDBRANCH   3   4
ENDBRANCH   2   3
ENDBRANCH   1   2
BRANCH   1  70
ATOM     70  C   UNL     1       5.119  -4.199   1.748  1.00  0.00     0.002 C 
BRANCH  70  71
ATOM     71  C   UNL     1       6.651  -4.265   1.716  1.00  0.00     0.021 C 
BRANCH  71  72
ATOM     72  C   UNL     1       7.364  -4.223   3.069  1.00  0.00     0.116 C 
BRANCH  72  73
ATOM     73  N   UNL     1       6.973  -5.286   3.978  1.00  0.00    -0.352 N 
ATOM     74  C   UNL     1       7.768  -6.247   4.556  1.00  0.00     0.251 C 
ATOM     75  H   UNL     1       6.017  -5.324   4.210  1.00  0.00     0.163 HD
ATOM     76  O   UNL     1       7.370  -6.924   5.497  1.00  0.00    -0.269 OA
BRANCH  74  77
ATOM     77  C   UNL     1       9.100  -6.511   3.986  1.00  0.00     0.041 A 
ATOM     78  C   UNL     1       9.161  -7.246   2.799  1.00  0.00     0.014 A 
ATOM     79  C   UNL     1      10.264  -6.047   4.620  1.00  0.00     0.039 A 
ATOM     80  C   UNL     1      10.395  -7.510   2.221  1.00  0.00     0.003 A 
ATOM     81  C   UNL     1      11.507  -6.280   4.022  1.00  0.00     0.039 A 
ATOM     82  C   UNL     1      11.551  -7.020   2.825  1.00  0.00     0.026 A 
BRANCH  81  83
ATOM     83  N   UNL     1      12.683  -5.660   4.493  1.00  0.00    -0.355 N 
ATOM     84  H   UNL     1      12.857  -5.693   5.462  1.00  0.00     0.167 HD
BRANCH  83  85
ATOM     85  C   UNL     1      13.635  -4.994   3.679  1.00  0.00     0.050 A 
ATOM     86  C   UNL     1      13.171  -4.242   2.591  1.00  0.00     0.047 A 
ATOM     87  C   UNL     1      15.034  -5.122   3.869  1.00  0.00     0.025 A 
ATOM     88  C   UNL     1      14.080  -3.666   1.734  1.00  0.00     0.114 A 
ATOM     89  C   UNL     1      15.873  -4.483   2.922  1.00  0.00     0.072 A 
ATOM     90  C   UNL     1      15.637  -5.876   4.906  1.00  0.00     0.033 A 
ATOM     91  N   UNL     1      15.411  -3.778   1.881  1.00  0.00    -0.256 NA
ATOM     92  C   UNL     1      17.249  -4.597   3.043  1.00  0.00     0.030 A 
ATOM     93  C   UNL     1      17.026  -5.974   4.998  1.00  0.00     0.041 A 
ATOM     94  C   UNL     1      17.837  -5.334   4.071  1.00  0.00     0.023 A 
ATOM     95  Cl  UNL     1      17.745  -6.904   6.254  1.00  0.00    -0.084 Cl
ENDBRANCH  83  85
ENDBRANCH  81  83
ENDBRANCH  74  77
ENDBRANCH  72  73
ENDBRANCH  71  72
ENDBRANCH  70  71
ENDBRANCH   1  70
TORSDOF 18
