REMARK SMILES Cc1nn(Cc2ccc(Cl)cc2Cl)c(C)c1NC(=O)c1c(C(=O)NCCCCCCNC(=O)c2ccc(-c3c4nc(c(-c5ccc(S(=O)(=O)[O-])cc5)c5ccc([nH]5)c(-c5ccc(S(=O)(=O)[O-])cc5)c5nc(c(-c6ccc(S(=O)(=O)[O-])cc6)c6ccc3[nH]6)C=C5)C=C4)cc2)cnn1C
REMARK SMILES IDX 27 1 26 2 25 3 24 4 22 5 23 6 21 8 20 9 96 10 94 11 95 12
REMARK SMILES IDX 97 13 18 14 17 15 19 17 16 18 1 19 2 20 3 21 4 22 14 23
REMARK SMILES IDX 15 24 5 25 6 26 7 27 12 28 8 29 11 30 13 31 9 32 10 33 28 34
REMARK SMILES IDX 29 35 30 36 31 37 32 38 33 40 34 41 35 42 93 43 36 44 92 45
REMARK SMILES IDX 37 46 38 47 39 48 86 49 40 50 91 51 85 52 87 53 41 54 90 55
REMARK SMILES IDX 84 56 83 57 42 59 72 60 53 61 71 62 54 63 57 64 70 65 88 66
REMARK SMILES IDX 55 67 56 68 69 70 89 71 58 72 43 73 44 74 52 75 45 76 51 77
REMARK SMILES IDX 46 78 47 79 48 80 49 81 50 82 73 83 74 84 82 85 75 86 81 87
REMARK SMILES IDX 76 88 77 89 78 90 79 91 80 92 59 93 60 94 68 95 61 96 67 97
REMARK SMILES IDX 62 98 63 99 64 100 65 101 66 102
REMARK H PARENT 24 7 17 16 31 39 87 58 57 69
REMARK Flexibility Score: inf
ROOT
ATOM      1  C   UNL     1      -4.434  -0.192  -5.300  1.00  0.00     0.002 C 
ENDROOT
BRANCH   1   2
ATOM      2  C   UNL     1      -3.447   0.715  -6.033  1.00  0.00     0.021 C 
BRANCH   2   3
ATOM      3  C   UNL     1      -3.179   2.103  -5.434  1.00  0.00     0.116 C 
BRANCH   3   4
ATOM      4  N   UNL     1      -2.945   2.144  -3.998  1.00  0.00    -0.352 N 
ATOM      5  C   UNL     1      -2.202   3.003  -3.215  1.00  0.00     0.255 C 
ATOM      6  O   UNL     1      -2.314   2.894  -1.992  1.00  0.00    -0.269 OA
ATOM      7  H   UNL     1      -3.398   1.429  -3.495  1.00  0.00     0.163 HD
BRANCH   5   8
ATOM      8  C   UNL     1      -1.305   3.982  -3.807  1.00  0.00     0.090 A 
ATOM      9  C   UNL     1      -0.105   4.450  -3.255  1.00  0.00     0.138 A 
ATOM     10  N   UNL     1       0.404   5.331  -4.182  1.00  0.00    -0.262 N 
ATOM     11  C   UNL     1      -1.440   4.731  -4.998  1.00  0.00     0.149 A 
ATOM     12  N   UNL     1      -0.400   5.524  -5.243  1.00  0.00    -0.180 NA
ATOM     13  C   UNL     1       1.726   5.919  -4.216  1.00  0.00     0.174 C 
BRANCH   9  14
ATOM     14  C   UNL     1       0.550   4.189  -1.991  1.00  0.00     0.274 C 
ATOM     15  N   UNL     1       0.810   2.916  -1.539  1.00  0.00    -0.317 N 
ATOM     16  H   UNL     1       1.127   2.872  -0.608  1.00  0.00     0.170 HD
ATOM     17  O   UNL     1       0.891   5.118  -1.254  1.00  0.00    -0.267 OA
BRANCH  15  18
ATOM     18  C   UNL     1       0.704   1.693  -2.164  1.00  0.00     0.085 A 
ATOM     19  C   UNL     1       0.753   0.096  -0.085  1.00  0.00     0.071 C 
ATOM     20  C   UNL     1       0.586   0.428  -1.520  1.00  0.00     0.083 A 
ATOM     21  N   UNL     1       0.255  -0.533  -2.390  1.00  0.00    -0.175 NA
ATOM     22  N   UNL     1       0.268   0.104  -3.577  1.00  0.00    -0.263 N 
ATOM     23  C   UNL     1       0.784   1.374  -3.501  1.00  0.00     0.060 A 
ATOM     24  C   UNL     1       1.296   2.085  -4.697  1.00  0.00     0.069 C 
BRANCH  22  25
ATOM     25  C   UNL     1      -0.459  -0.452  -4.714  1.00  0.00     0.181 C 
BRANCH  25  26
ATOM     26  C   UNL     1       0.379  -1.388  -5.528  1.00  0.00    -0.008 A 
ATOM     27  C   UNL     1       0.653  -2.649  -4.980  1.00  0.00     0.009 A 
ATOM     28  C   UNL     1       0.966  -1.034  -6.755  1.00  0.00     0.047 A 
ATOM     29  C   UNL     1       1.597  -3.475  -5.568  1.00  0.00     0.021 A 
ATOM     30  C   UNL     1       1.947  -1.846  -7.323  1.00  0.00     0.041 A 
ATOM     31  Cl  UNL     1       0.501   0.392  -7.619  1.00  0.00    -0.084 Cl
ATOM     32  C   UNL     1       2.285  -3.041  -6.693  1.00  0.00     0.042 A 
ATOM     33  Cl  UNL     1       3.603  -3.996  -7.223  1.00  0.00    -0.084 Cl
ENDBRANCH  25  26
ENDBRANCH  22  25
ENDBRANCH  15  18
ENDBRANCH   9  14
ENDBRANCH   5   8
ENDBRANCH   3   4
ENDBRANCH   2   3
ENDBRANCH   1   2
BRANCH   1  34
ATOM     34  C   UNL     1      -5.894   0.258  -5.368  1.00  0.00     0.002 C 
BRANCH  34  35
ATOM     35  C   UNL     1      -6.433   0.558  -6.774  1.00  0.00     0.021 C 
BRANCH  35  36
ATOM     36  C   UNL     1      -6.293  -0.590  -7.769  1.00  0.00     0.116 C 
BRANCH  36  37
ATOM     37  N   UNL     1      -7.187  -1.702  -7.467  1.00  0.00    -0.352 N 
ATOM     38  C   UNL     1      -7.375  -2.849  -8.206  1.00  0.00     0.251 C 
ATOM     39  H   UNL     1      -7.716  -1.624  -6.641  1.00  0.00     0.163 HD
ATOM     40  O   UNL     1      -8.432  -3.478  -8.106  1.00  0.00    -0.269 OA
BRANCH  38  41
ATOM     41  C   UNL     1      -6.305  -3.326  -9.101  1.00  0.00     0.039 A 
ATOM     42  C   UNL     1      -6.605  -3.931 -10.325  1.00  0.00     0.014 A 
ATOM     43  C   UNL     1      -4.978  -3.193  -8.688  1.00  0.00     0.014 A 
ATOM     44  C   UNL     1      -5.560  -4.343 -11.151  1.00  0.00     0.010 A 
ATOM     45  C   UNL     1      -3.947  -3.492  -9.550  1.00  0.00     0.010 A 
ATOM     46  C   UNL     1      -4.229  -4.108 -10.763  1.00  0.00    -0.014 A 
BRANCH  46  47
ATOM     47  C   UNL     1      -3.128  -4.345 -11.696  1.00  0.00     0.031 A 
ATOM     48  C   UNL     1      -3.287  -3.615 -12.982  1.00  0.00     0.074 A 
ATOM     49  C   UNL     1      -1.973  -4.970 -11.375  1.00  0.00     0.049 A 
ATOM     50  N   UNL     1      -3.594  -4.112 -14.133  1.00  0.00    -0.248 NA
ATOM     51  C   UNL     1      -3.287  -2.141 -12.951  1.00  0.00     0.031 C 
ATOM     52  C   UNL     1      -1.549  -5.468 -10.060  1.00  0.00     0.029 A 
ATOM     53  N   UNL     1      -0.873  -5.207 -12.146  1.00  0.00    -0.354 N 
ATOM     54  C   UNL     1      -3.562  -3.044 -15.022  1.00  0.00     0.074 A 
ATOM     55  C   UNL     1      -3.599  -1.851 -14.216  1.00  0.00     0.031 C 
ATOM     56  C   UNL     1      -0.219  -5.726 -10.075  1.00  0.00     0.029 A 
ATOM     57  C   UNL     1       0.265  -5.589 -11.437  1.00  0.00     0.049 A 
ATOM     58  H   UNL     1      -0.883  -5.116 -13.126  1.00  0.00     0.167 HD
ATOM     59  C   UNL     1      -3.199  -3.226 -16.323  1.00  0.00     0.031 A 
ATOM     60  C   UNL     1       1.518  -5.779 -11.930  1.00  0.00     0.031 A 
ATOM     61  C   UNL     1      -3.217  -4.622 -16.683  1.00  0.00     0.049 A 
ATOM     62  C   UNL     1       1.389  -5.997 -13.384  1.00  0.00     0.074 A 
ATOM     63  C   UNL     1      -4.171  -5.619 -16.694  1.00  0.00     0.029 A 
ATOM     64  N   UNL     1      -1.998  -5.259 -16.710  1.00  0.00    -0.354 N 
ATOM     65  N   UNL     1       0.805  -7.040 -13.899  1.00  0.00    -0.248 NA
ATOM     66  C   UNL     1       1.508  -4.845 -14.260  1.00  0.00     0.031 C 
ATOM     67  C   UNL     1      -3.485  -6.794 -16.267  1.00  0.00     0.029 A 
ATOM     68  C   UNL     1      -2.135  -6.478 -16.101  1.00  0.00     0.049 A 
ATOM     69  H   UNL     1      -1.169  -4.899 -17.099  1.00  0.00     0.167 HD
ATOM     70  C   UNL     1       0.085  -6.538 -14.970  1.00  0.00     0.074 A 
ATOM     71  C   UNL     1       0.642  -5.208 -15.210  1.00  0.00     0.031 C 
ATOM     72  C   UNL     1      -1.075  -7.138 -15.369  1.00  0.00     0.031 A 
BRANCH  59  73
ATOM     73  C   UNL     1      -2.390  -2.213 -17.105  1.00  0.00    -0.014 A 
ATOM     74  C   UNL     1      -2.067  -2.494 -18.448  1.00  0.00     0.010 A 
ATOM     75  C   UNL     1      -1.704  -1.140 -16.498  1.00  0.00     0.010 A 
ATOM     76  C   UNL     1      -1.065  -1.782 -19.122  1.00  0.00     0.020 A 
ATOM     77  C   UNL     1      -0.736  -0.395 -17.174  1.00  0.00     0.020 A 
ATOM     78  C   UNL     1      -0.402  -0.740 -18.474  1.00  0.00     0.054 A 
BRANCH  78  79
ATOM     79  S   UNL     1       0.937   0.129 -19.325  1.00  0.00     0.124 S 
ATOM     80  O   UNL     1       1.942  -0.921 -19.453  1.00  0.00    -0.237 OA
ATOM     81  O   UNL     1       0.291   0.547 -20.566  1.00  0.00    -0.237 OA
ATOM     82  O   UNL     1       1.275   1.215 -18.407  1.00  0.00    -0.744 OA
ENDBRANCH  78  79
ENDBRANCH  59  73
BRANCH  60  83
ATOM     83  C   UNL     1       2.814  -5.369 -11.337  1.00  0.00    -0.014 A 
ATOM     84  C   UNL     1       4.035  -5.971 -11.704  1.00  0.00     0.010 A 
ATOM     85  C   UNL     1       2.870  -4.146 -10.645  1.00  0.00     0.010 A 
ATOM     86  C   UNL     1       5.269  -5.371 -11.380  1.00  0.00     0.020 A 
ATOM     87  C   UNL     1       4.093  -3.526 -10.360  1.00  0.00     0.020 A 
ATOM     88  C   UNL     1       5.288  -4.144 -10.714  1.00  0.00     0.054 A 
BRANCH  88  89
ATOM     89  S   UNL     1       6.870  -3.351 -10.295  1.00  0.00     0.124 S 
ATOM     90  O   UNL     1       7.604  -4.425  -9.632  1.00  0.00    -0.237 OA
ATOM     91  O   UNL     1       7.378  -2.955 -11.605  1.00  0.00    -0.237 OA
ATOM     92  O   UNL     1       6.481  -2.243  -9.422  1.00  0.00    -0.744 OA
ENDBRANCH  88  89
ENDBRANCH  60  83
BRANCH  72  93
ATOM     93  C   UNL     1      -1.369  -8.530 -14.856  1.00  0.00    -0.014 A 
ATOM     94  C   UNL     1      -1.560  -8.860 -13.499  1.00  0.00     0.010 A 
ATOM     95  C   UNL     1      -1.578  -9.528 -15.823  1.00  0.00     0.010 A 
ATOM     96  C   UNL     1      -1.930 -10.163 -13.124  1.00  0.00     0.020 A 
ATOM     97  C   UNL     1      -1.963 -10.818 -15.459  1.00  0.00     0.020 A 
ATOM     98  C   UNL     1      -2.128 -11.134 -14.111  1.00  0.00     0.054 A 
BRANCH  98  99
ATOM     99  S   UNL     1      -2.644 -12.809 -13.635  1.00  0.00     0.124 S 
ATOM    100  O   UNL     1      -1.461 -13.324 -12.952  1.00  0.00    -0.237 OA
ATOM    101  O   UNL     1      -3.805 -12.563 -12.784  1.00  0.00    -0.237 OA
ATOM    102  O   UNL     1      -2.949 -13.455 -14.912  1.00  0.00    -0.744 OA
ENDBRANCH  98  99
ENDBRANCH  72  93
ENDBRANCH  46  47
ENDBRANCH  38  41
ENDBRANCH  36  37
ENDBRANCH  35  36
ENDBRANCH  34  35
ENDBRANCH   1  34
TORSDOF 20
