REMARK SMILES O=C(NCCCCCCNC(=O)c1ccc2c(c1)[C@@H](C1CCOCC1)C(=O)N2)c1ccc(-c2c3nc(c(-c4ccc(S(=O)(=O)[O-])cc4)c4ccc([nH]4)c(-c4ccc(S(=O)(=O)[O-])cc4)c4nc(c(-c5ccc(S(=O)(=O)[O-])cc5)c5ccc2[nH]5)C=C4)C=C3)cc1
REMARK SMILES IDX 5 1 4 2 3 3 1 4 2 5 29 7 30 8 88 9 31 10 87 11 32 12 33 13
REMARK SMILES IDX 34 14 81 15 35 16 86 17 80 18 82 19 36 20 85 21 79 22 78 23
REMARK SMILES IDX 37 25 67 26 48 27 66 28 49 29 52 30 65 31 83 32 50 33 51 34
REMARK SMILES IDX 64 36 84 37 53 38 38 39 39 40 47 41 40 42 46 43 41 44 42 45
REMARK SMILES IDX 43 46 44 47 45 48 68 49 69 50 77 51 70 52 76 53 71 54 72 55
REMARK SMILES IDX 73 56 74 57 75 58 54 59 55 60 63 61 56 62 62 63 57 64 58 65
REMARK SMILES IDX 59 66 60 67 61 68 6 69 7 70 8 71 9 72 10 73 11 74 12 76
REMARK SMILES IDX 13 77 14 78 18 79 15 80 17 81 16 82 19 83 28 84 26 85 27 87
REMARK SMILES IDX 20 88 21 89 25 90 22 91 24 92 23 93
REMARK H PARENT 3 6 82 24 52 35 10 75 28 86
REMARK Flexibility Score: inf
ROOT
ATOM      1  C   UNL     1       4.629  -1.555  -2.069  1.00  0.00     0.021 C 
ENDROOT
BRANCH   1   2
ATOM      2  C   UNL     1       4.370  -0.305  -1.238  1.00  0.00     0.116 C 
BRANCH   2   3
ATOM      3  N   UNL     1       2.952  -0.033  -1.071  1.00  0.00    -0.352 N 
ATOM      4  O   UNL     1       1.009   0.186   0.055  1.00  0.00    -0.269 OA
ATOM      5  C   UNL     1       2.234   0.131   0.090  1.00  0.00     0.251 C 
ATOM      6  H   UNL     1       2.433   0.045  -1.904  1.00  0.00     0.163 HD
BRANCH   5   7
ATOM      7  C   UNL     1       2.950   0.217   1.382  1.00  0.00     0.039 A 
ATOM      8  C   UNL     1       4.090   1.014   1.507  1.00  0.00     0.014 A 
ATOM      9  C   UNL     1       2.479  -0.512   2.477  1.00  0.00     0.014 A 
ATOM     10  C   UNL     1       4.838   0.971   2.678  1.00  0.00     0.010 A 
ATOM     11  C   UNL     1       3.182  -0.480   3.685  1.00  0.00     0.010 A 
ATOM     12  C   UNL     1       4.381   0.241   3.788  1.00  0.00    -0.014 A 
BRANCH  12  13
ATOM     13  C   UNL     1       5.133   0.321   5.066  1.00  0.00     0.031 A 
ATOM     14  C   UNL     1       5.782  -0.893   5.672  1.00  0.00     0.074 A 
ATOM     15  C   UNL     1       5.239   1.520   5.671  1.00  0.00     0.049 A 
ATOM     16  N   UNL     1       6.487  -0.981   6.772  1.00  0.00    -0.248 NA
ATOM     17  C   UNL     1       5.617  -2.171   4.963  1.00  0.00     0.031 C 
ATOM     18  C   UNL     1       4.642   2.767   5.181  1.00  0.00     0.029 A 
ATOM     19  N   UNL     1       5.895   1.897   6.815  1.00  0.00    -0.354 N 
ATOM     20  C   UNL     1       6.831  -2.321   6.901  1.00  0.00     0.074 A 
ATOM     21  C   UNL     1       6.240  -3.015   5.776  1.00  0.00     0.031 C 
ATOM     22  C   UNL     1       4.996   3.774   5.990  1.00  0.00     0.029 A 
ATOM     23  C   UNL     1       5.783   3.238   7.094  1.00  0.00     0.049 A 
ATOM     24  H   UNL     1       6.398   1.268   7.381  1.00  0.00     0.167 HD
ATOM     25  C   UNL     1       7.572  -2.916   7.868  1.00  0.00     0.031 A 
ATOM     26  C   UNL     1       6.238   3.961   8.134  1.00  0.00     0.031 A 
ATOM     27  C   UNL     1       8.152  -2.216   8.986  1.00  0.00     0.049 A 
ATOM     28  C   UNL     1       7.031   3.272   9.205  1.00  0.00     0.074 A 
ATOM     29  C   UNL     1       8.951  -2.724   9.997  1.00  0.00     0.029 A 
ATOM     30  N   UNL     1       7.989  -0.863   9.250  1.00  0.00    -0.354 N 
ATOM     31  N   UNL     1       7.381   2.010   9.284  1.00  0.00    -0.248 NA
ATOM     32  C   UNL     1       7.493   4.102  10.324  1.00  0.00     0.031 C 
ATOM     33  C   UNL     1       9.219  -1.693  10.904  1.00  0.00     0.029 A 
ATOM     34  C   UNL     1       8.646  -0.526  10.423  1.00  0.00     0.049 A 
ATOM     35  H   UNL     1       7.482  -0.235   8.687  1.00  0.00     0.167 HD
ATOM     36  C   UNL     1       8.121   1.898  10.455  1.00  0.00     0.074 A 
ATOM     37  C   UNL     1       8.186   3.224  11.037  1.00  0.00     0.031 C 
ATOM     38  C   UNL     1       8.694   0.795  10.998  1.00  0.00     0.031 A 
BRANCH  25  39
ATOM     39  C   UNL     1       7.777  -4.408   7.783  1.00  0.00    -0.014 A 
ATOM     40  C   UNL     1       8.605  -4.979   6.801  1.00  0.00     0.010 A 
ATOM     41  C   UNL     1       7.179  -5.246   8.743  1.00  0.00     0.010 A 
ATOM     42  C   UNL     1       8.804  -6.363   6.760  1.00  0.00     0.020 A 
ATOM     43  C   UNL     1       7.397  -6.627   8.722  1.00  0.00     0.020 A 
ATOM     44  C   UNL     1       8.197  -7.179   7.720  1.00  0.00     0.054 A 
BRANCH  44  45
ATOM     45  S   UNL     1       8.495  -8.967   7.656  1.00  0.00     0.124 S 
ATOM     46  O   UNL     1       7.729  -9.357   6.474  1.00  0.00    -0.237 OA
ATOM     47  O   UNL     1       9.946  -9.045   7.515  1.00  0.00    -0.237 OA
ATOM     48  O   UNL     1       7.967  -9.454   8.928  1.00  0.00    -0.744 OA
ENDBRANCH  44  45
ENDBRANCH  25  39
BRANCH  26  49
ATOM     49  C   UNL     1       5.929   5.414   8.210  1.00  0.00    -0.014 A 
ATOM     50  C   UNL     1       6.940   6.375   8.043  1.00  0.00     0.010 A 
ATOM     51  C   UNL     1       4.602   5.842   8.409  1.00  0.00     0.010 A 
ATOM     52  C   UNL     1       6.632   7.738   8.085  1.00  0.00     0.020 A 
ATOM     53  C   UNL     1       4.286   7.202   8.419  1.00  0.00     0.020 A 
ATOM     54  C   UNL     1       5.306   8.142   8.267  1.00  0.00     0.054 A 
BRANCH  54  55
ATOM     55  S   UNL     1       4.922   9.915   8.256  1.00  0.00     0.124 S 
ATOM     56  O   UNL     1       5.455  10.349   9.543  1.00  0.00    -0.237 OA
ATOM     57  O   UNL     1       5.646  10.386   7.078  1.00  0.00    -0.237 OA
ATOM     58  O   UNL     1       3.466   9.948   8.137  1.00  0.00    -0.744 OA
ENDBRANCH  54  55
ENDBRANCH  26  49
BRANCH  38  59
ATOM     59  C   UNL     1       9.468   0.982  12.275  1.00  0.00    -0.014 A 
ATOM     60  C   UNL     1       8.816   1.248  13.493  1.00  0.00     0.010 A 
ATOM     61  C   UNL     1      10.868   0.846  12.263  1.00  0.00     0.010 A 
ATOM     62  C   UNL     1       9.554   1.409  14.668  1.00  0.00     0.020 A 
ATOM     63  C   UNL     1      11.607   0.976  13.441  1.00  0.00     0.020 A 
ATOM     64  C   UNL     1      10.946   1.272  14.634  1.00  0.00     0.054 A 
BRANCH  64  65
ATOM     65  S   UNL     1      11.878   1.448  16.180  1.00  0.00     0.124 S 
ATOM     66  O   UNL     1      11.808   2.887  16.415  1.00  0.00    -0.237 OA
ATOM     67  O   UNL     1      11.113   0.621  17.110  1.00  0.00    -0.237 OA
ATOM     68  O   UNL     1      13.204   0.935  15.845  1.00  0.00    -0.744 OA
ENDBRANCH  64  65
ENDBRANCH  38  59
ENDBRANCH  12  13
ENDBRANCH   5   7
ENDBRANCH   2   3
ENDBRANCH   1   2
BRANCH   1  69
ATOM     69  C   UNL     1       4.158  -1.470  -3.520  1.00  0.00     0.002 C 
BRANCH  69  70
ATOM     70  C   UNL     1       4.707  -0.285  -4.320  1.00  0.00     0.002 C 
BRANCH  70  71
ATOM     71  C   UNL     1       6.232  -0.138  -4.318  1.00  0.00     0.021 C 
BRANCH  71  72
ATOM     72  C   UNL     1       6.999  -1.370  -4.791  1.00  0.00     0.116 C 
BRANCH  72  73
ATOM     73  N   UNL     1       6.710  -1.691  -6.179  1.00  0.00    -0.352 N 
ATOM     74  C   UNL     1       7.577  -1.821  -7.234  1.00  0.00     0.251 C 
ATOM     75  H   UNL     1       5.759  -1.835  -6.391  1.00  0.00     0.163 HD
ATOM     76  O   UNL     1       7.157  -1.905  -8.383  1.00  0.00    -0.269 OA
BRANCH  74  77
ATOM     77  C   UNL     1       9.033  -1.843  -6.981  1.00  0.00     0.040 A 
ATOM     78  C   UNL     1       9.574  -2.735  -6.029  1.00  0.00     0.016 A 
ATOM     79  C   UNL     1       9.856  -0.980  -7.721  1.00  0.00     0.020 A 
ATOM     80  C   UNL     1      10.938  -2.721  -5.743  1.00  0.00     0.027 A 
ATOM     81  C   UNL     1      11.210  -0.984  -7.436  1.00  0.00    -0.011 A 
ATOM     82  C   UNL     1      11.720  -1.835  -6.453  1.00  0.00     0.045 A 
ATOM     83  C   UNL     1      12.347  -0.201  -8.054  1.00  0.00     0.114 C 
ATOM     84  N   UNL     1      13.083  -1.647  -6.324  1.00  0.00    -0.325 N 
ATOM     85  C   UNL     1      13.551  -0.694  -7.214  1.00  0.00     0.232 C 
ATOM     86  H   UNL     1      13.651  -2.131  -5.681  1.00  0.00     0.169 HD
ATOM     87  O   UNL     1      14.725  -0.366  -7.330  1.00  0.00    -0.274 OA
BRANCH  83  88
ATOM     88  C   UNL     1      12.150   1.326  -8.116  1.00  0.00     0.010 C 
ATOM     89  C   UNL     1      13.359   2.041  -8.744  1.00  0.00     0.033 C 
ATOM     90  C   UNL     1      11.816   1.988  -6.769  1.00  0.00     0.033 C 
ATOM     91  C   UNL     1      13.137   3.547  -8.802  1.00  0.00     0.160 C 
ATOM     92  C   UNL     1      11.672   3.499  -6.940  1.00  0.00     0.160 C 
ATOM     93  O   UNL     1      12.853   4.065  -7.504  1.00  0.00    -0.381 OA
ENDBRANCH  83  88
ENDBRANCH  74  77
ENDBRANCH  72  73
ENDBRANCH  71  72
ENDBRANCH  70  71
ENDBRANCH  69  70
ENDBRANCH   1  69
TORSDOF 17
