REMARK SMILES O=C(NCCCCCCNC(=O)[C@@H](Cc1ccccc1)/N=C1\C(=O)c2ccccc2C(=O)[C@H]1Cl)c1ccc(-c2c3nc(c(-c4ccc(S(=O)(=O)[O-])cc4)c4ccc([nH]4)c(-c4ccc(S(=O)(=O)[O-])cc4)c4nc(c(-c5ccc(S(=O)(=O)[O-])cc5)c5ccc2[nH]5)C=C4)C=C3)cc1
REMARK SMILES IDX 6 1 5 2 4 3 3 4 1 5 2 6 35 8 36 9 94 10 37 11 93 12 38 13
REMARK SMILES IDX 39 14 40 15 87 16 41 17 92 18 86 19 88 20 42 21 91 22 85 23
REMARK SMILES IDX 84 24 43 26 73 27 54 28 72 29 55 30 58 31 71 32 89 33 56 34
REMARK SMILES IDX 57 35 70 37 90 38 59 39 44 40 45 41 53 42 46 43 52 44 47 45
REMARK SMILES IDX 48 46 49 47 50 48 51 49 74 50 75 51 83 52 76 53 82 54 77 55
REMARK SMILES IDX 78 56 79 57 80 58 81 59 60 60 61 61 69 62 62 63 68 64 63 65
REMARK SMILES IDX 64 66 65 67 66 68 67 69 7 70 8 71 9 72 10 73 11 74 12 76
REMARK SMILES IDX 13 77 14 78 15 79 16 80 20 81 17 82 19 83 18 84 21 85 22 86
REMARK SMILES IDX 23 87 33 88 24 89 25 90 31 91 34 92 26 93 30 94 32 95 27 96
REMARK SMILES IDX 29 97 28 98
REMARK H PARENT 3 7 88 25 58 36 10 75
REMARK Flexibility Score: inf
ROOT
ATOM      1  C   UNL     1       3.186   0.600  -4.093  1.00  0.00     0.002 C 
ENDROOT
BRANCH   1   2
ATOM      2  C   UNL     1       3.950   0.195  -2.833  1.00  0.00     0.021 C 
BRANCH   2   3
ATOM      3  C   UNL     1       3.779   1.091  -1.611  1.00  0.00     0.116 C 
BRANCH   3   4
ATOM      4  N   UNL     1       2.464   0.950  -1.008  1.00  0.00    -0.352 N 
ATOM      5  O   UNL     1       0.816   0.178   0.281  1.00  0.00    -0.269 OA
ATOM      6  C   UNL     1       2.030   0.329   0.138  1.00  0.00     0.251 C 
ATOM      7  H   UNL     1       1.744   1.383  -1.521  1.00  0.00     0.163 HD
BRANCH   6   8
ATOM      8  C   UNL     1       2.946  -0.163   1.206  1.00  0.00     0.039 A 
ATOM      9  C   UNL     1       4.147   0.469   1.530  1.00  0.00     0.014 A 
ATOM     10  C   UNL     1       2.511  -1.230   2.010  1.00  0.00     0.014 A 
ATOM     11  C   UNL     1       4.943  -0.012   2.576  1.00  0.00     0.010 A 
ATOM     12  C   UNL     1       3.267  -1.657   3.112  1.00  0.00     0.010 A 
ATOM     13  C   UNL     1       4.498  -1.056   3.404  1.00  0.00    -0.014 A 
BRANCH  13  14
ATOM     14  C   UNL     1       5.274  -1.415   4.626  1.00  0.00     0.031 A 
ATOM     15  C   UNL     1       5.903  -2.772   4.795  1.00  0.00     0.074 A 
ATOM     16  C   UNL     1       5.419  -0.491   5.600  1.00  0.00     0.049 A 
ATOM     17  N   UNL     1       6.646  -3.216   5.779  1.00  0.00    -0.248 NA
ATOM     18  C   UNL     1       5.668  -3.760   3.731  1.00  0.00     0.031 C 
ATOM     19  C   UNL     1       4.829   0.851   5.586  1.00  0.00     0.029 A 
ATOM     20  N   UNL     1       6.117  -0.530   6.782  1.00  0.00    -0.354 N 
ATOM     21  C   UNL     1       6.964  -4.530   5.460  1.00  0.00     0.074 A 
ATOM     22  C   UNL     1       6.306  -4.823   4.202  1.00  0.00     0.031 C 
ATOM     23  C   UNL     1       5.228   1.520   6.678  1.00  0.00     0.029 A 
ATOM     24  C   UNL     1       6.059   0.645   7.496  1.00  0.00     0.049 A 
ATOM     25  H   UNL     1       6.613  -1.323   7.090  1.00  0.00     0.167 HD
ATOM     26  C   UNL     1       7.739  -5.410   6.141  1.00  0.00     0.031 A 
ATOM     27  C   UNL     1       6.603   0.986   8.680  1.00  0.00     0.031 A 
ATOM     28  C   UNL     1       8.383  -5.131   7.400  1.00  0.00     0.049 A 
ATOM     29  C   UNL     1       7.447  -0.012   9.419  1.00  0.00     0.074 A 
ATOM     30  C   UNL     1       9.195  -5.962   8.155  1.00  0.00     0.029 A 
ATOM     31  N   UNL     1       8.287  -3.934   8.093  1.00  0.00    -0.354 N 
ATOM     32  N   UNL     1       7.765  -1.235   9.073  1.00  0.00    -0.248 NA
ATOM     33  C   UNL     1       8.010   0.421  10.706  1.00  0.00     0.031 C 
ATOM     34  C   UNL     1       9.561  -5.279   9.321  1.00  0.00     0.029 A 
ATOM     35  C   UNL     1       9.015  -4.008   9.270  1.00  0.00     0.049 A 
ATOM     36  H   UNL     1       7.777  -3.147   7.793  1.00  0.00     0.167 HD
ATOM     37  C   UNL     1       8.577  -1.715  10.095  1.00  0.00     0.074 A 
ATOM     38  C   UNL     1       8.720  -0.642  11.057  1.00  0.00     0.031 C 
ATOM     39  C   UNL     1       9.147  -2.938  10.224  1.00  0.00     0.031 A 
BRANCH  26  40
ATOM     40  C   UNL     1       7.936  -6.774   5.535  1.00  0.00    -0.014 A 
ATOM     41  C   UNL     1       8.771  -6.950   4.416  1.00  0.00     0.010 A 
ATOM     42  C   UNL     1       7.328  -7.900   6.119  1.00  0.00     0.010 A 
ATOM     43  C   UNL     1       8.963  -8.221   3.869  1.00  0.00     0.020 A 
ATOM     44  C   UNL     1       7.535  -9.177   5.588  1.00  0.00     0.020 A 
ATOM     45  C   UNL     1       8.339  -9.326   4.455  1.00  0.00     0.054 A 
BRANCH  45  46
ATOM     46  S   UNL     1       8.618 -10.967   3.732  1.00  0.00     0.124 S 
ATOM     47  O   UNL     1       7.791 -10.906   2.529  1.00  0.00    -0.237 OA
ATOM     48  O   UNL     1      10.060 -10.976   3.502  1.00  0.00    -0.237 OA
ATOM     49  O   UNL     1       8.148 -11.886   4.766  1.00  0.00    -0.744 OA
ENDBRANCH  45  46
ENDBRANCH  26  40
BRANCH  27  50
ATOM     50  C   UNL     1       6.356   2.340   9.245  1.00  0.00    -0.014 A 
ATOM     51  C   UNL     1       7.386   3.295   9.297  1.00  0.00     0.010 A 
ATOM     52  C   UNL     1       5.080   2.681   9.730  1.00  0.00     0.010 A 
ATOM     53  C   UNL     1       7.151   4.560   9.844  1.00  0.00     0.020 A 
ATOM     54  C   UNL     1       4.833   3.953  10.251  1.00  0.00     0.020 A 
ATOM     55  C   UNL     1       5.875   4.880  10.318  1.00  0.00     0.054 A 
BRANCH  55  56
ATOM     56  S   UNL     1       5.573   6.542  10.981  1.00  0.00     0.124 S 
ATOM     57  O   UNL     1       6.142   6.440  12.321  1.00  0.00    -0.237 OA
ATOM     58  O   UNL     1       6.302   7.396  10.046  1.00  0.00    -0.237 OA
ATOM     59  O   UNL     1       4.119   6.670  10.923  1.00  0.00    -0.744 OA
ENDBRANCH  55  56
ENDBRANCH  27  50
BRANCH  39  60
ATOM     60  C   UNL     1       9.999  -3.171  11.442  1.00  0.00    -0.014 A 
ATOM     61  C   UNL     1       9.420  -3.339  12.713  1.00  0.00     0.010 A 
ATOM     62  C   UNL     1      11.398  -3.244  11.310  1.00  0.00     0.010 A 
ATOM     63  C   UNL     1      10.227  -3.540  13.836  1.00  0.00     0.020 A 
ATOM     64  C   UNL     1      12.206  -3.468  12.427  1.00  0.00     0.020 A 
ATOM     65  C   UNL     1      11.616  -3.598  13.686  1.00  0.00     0.054 A 
BRANCH  65  66
ATOM     66  S   UNL     1      12.645  -3.886  15.153  1.00  0.00     0.124 S 
ATOM     67  O   UNL     1      12.643  -2.571  15.787  1.00  0.00    -0.237 OA
ATOM     68  O   UNL     1      11.909  -4.928  15.864  1.00  0.00    -0.237 OA
ATOM     69  O   UNL     1      13.928  -4.309  14.596  1.00  0.00    -0.744 OA
ENDBRANCH  65  66
ENDBRANCH  39  60
ENDBRANCH  13  14
ENDBRANCH   6   8
ENDBRANCH   3   4
ENDBRANCH   2   3
ENDBRANCH   1   2
BRANCH   1  70
ATOM     70  C   UNL     1       3.718   1.848  -4.807  1.00  0.00     0.002 C 
BRANCH  70  71
ATOM     71  C   UNL     1       5.114   1.730  -5.451  1.00  0.00     0.021 C 
BRANCH  71  72
ATOM     72  C   UNL     1       5.213   0.659  -6.534  1.00  0.00     0.116 C 
BRANCH  72  73
ATOM     73  N   UNL     1       6.226   0.893  -7.558  1.00  0.00    -0.354 N 
ATOM     74  C   UNL     1       7.514   0.544  -7.773  1.00  0.00     0.245 C 
ATOM     75  H   UNL     1       5.878   1.456  -8.287  1.00  0.00     0.163 HD
ATOM     76  O   UNL     1       7.767   0.436  -8.990  1.00  0.00    -0.273 OA
BRANCH  74  77
ATOM     77  C   UNL     1       8.692   0.431  -6.773  1.00  0.00     0.199 C 
BRANCH  77  78
ATOM     78  C   UNL     1       9.153   1.642  -5.941  1.00  0.00     0.073 C 
BRANCH  78  79
ATOM     79  C   UNL     1       9.012   1.640  -4.443  1.00  0.00    -0.045 A 
ATOM     80  C   UNL     1       8.131   2.536  -3.827  1.00  0.00     0.004 A 
ATOM     81  C   UNL     1       9.812   0.822  -3.633  1.00  0.00     0.004 A 
ATOM     82  C   UNL     1       7.975   2.545  -2.443  1.00  0.00     0.000 A 
ATOM     83  C   UNL     1       9.651   0.822  -2.247  1.00  0.00     0.000 A 
ATOM     84  C   UNL     1       8.721   1.673  -1.654  1.00  0.00     0.000 A 
ENDBRANCH  78  79
ENDBRANCH  77  78
BRANCH  77  85
ATOM     85  N   UNL     1       9.199  -0.903  -6.388  1.00  0.00    -0.270 NA
ATOM     86  C   UNL     1       8.842  -1.689  -5.441  1.00  0.00     0.109 C 
ATOM     87  C   UNL     1       7.671  -1.515  -4.518  1.00  0.00     0.209 C 
ATOM     88  C   UNL     1       9.691  -2.897  -5.141  1.00  0.00     0.205 C 
ATOM     89  O   UNL     1       6.839  -0.660  -4.742  1.00  0.00    -0.287 OA
ATOM     90  C   UNL     1       7.569  -2.341  -3.307  1.00  0.00     0.035 A 
ATOM     91  C   UNL     1       9.891  -3.106  -3.656  1.00  0.00     0.187 C 
ATOM     92  Cl  UNL     1       8.897  -4.334  -5.833  1.00  0.00    -0.107 Cl
ATOM     93  C   UNL     1       6.359  -2.393  -2.611  1.00  0.00     0.013 A 
ATOM     94  C   UNL     1       8.688  -2.992  -2.804  1.00  0.00     0.031 A 
ATOM     95  O   UNL     1      10.975  -3.385  -3.157  1.00  0.00    -0.292 OA
ATOM     96  C   UNL     1       6.297  -2.987  -1.354  1.00  0.00     0.001 A 
ATOM     97  C   UNL     1       8.640  -3.569  -1.532  1.00  0.00     0.012 A 
ATOM     98  C   UNL     1       7.447  -3.546  -0.801  1.00  0.00     0.001 A 
ENDBRANCH  77  85
ENDBRANCH  74  77
ENDBRANCH  72  73
ENDBRANCH  71  72
ENDBRANCH  70  71
ENDBRANCH   1  70
TORSDOF 19
