REMARK SMILES [NH3+][C@H](CC(=O)NCCCCCCNC(=O)c1ccc(-c2c3nc(c(-c4ccc(S(=O)(=O)[O-])cc4)c4ccc([nH]4)c(-c4ccc(S(=O)(=O)[O-])cc4)c4nc(c(-c5ccc(S(=O)(=O)[O-])cc5)c5ccc2[nH]5)C=C4)C=C3)cc1)c1ccc2c(c1)OC(F)(F)O2
REMARK SMILES IDX 10 1 9 2 8 3 7 4 6 5 4 6 5 7 3 9 2 10 1 11 76 15 77 16 81 17
REMARK SMILES IDX 78 18 80 19 79 20 82 21 86 22 83 23 84 24 85 25 11 26 12 27
REMARK SMILES IDX 13 28 14 29 15 31 16 32 17 33 75 34 18 35 74 36 19 37 20 38
REMARK SMILES IDX 21 39 68 40 22 41 73 42 67 43 69 44 23 45 72 46 66 47 65 48
REMARK SMILES IDX 24 50 54 51 35 52 53 53 36 54 39 55 52 56 70 57 37 58 38 59
REMARK SMILES IDX 51 61 71 62 40 63 25 64 26 65 34 66 27 67 33 68 28 69 29 70
REMARK SMILES IDX 30 71 31 72 32 73 55 74 56 75 64 76 57 77 63 78 58 79 59 80
REMARK SMILES IDX 60 81 61 82 62 83 41 84 42 85 50 86 43 87 49 88 44 89 45 90
REMARK SMILES IDX 46 91 47 92 48 93
REMARK H PARENT 6 8 1 12 1 13 1 14 13 30 69 49 39 60
REMARK Flexibility Score: inf
ROOT
ATOM      1  C   UNL     1      -5.283   0.812   1.253  1.00  0.00     0.002 C 
ENDROOT
BRANCH   1   2
ATOM      2  C   UNL     1      -4.305  -0.366   1.274  1.00  0.00     0.002 C 
BRANCH   2   3
ATOM      3  C   UNL     1      -3.018  -0.150   0.479  1.00  0.00     0.021 C 
BRANCH   3   4
ATOM      4  C   UNL     1      -1.961   0.709   1.174  1.00  0.00     0.116 C 
BRANCH   4   5
ATOM      5  N   UNL     1      -0.878  -0.130   1.669  1.00  0.00    -0.356 N 
ATOM      6  C   UNL     1       0.273  -0.523   1.051  1.00  0.00     0.226 C 
ATOM      7  O   UNL     1       0.927  -1.440   1.555  1.00  0.00    -0.275 OA
ATOM      8  H   UNL     1      -0.995  -0.463   2.588  1.00  0.00     0.163 HD
BRANCH   6   9
ATOM      9  C   UNL     1       0.769   0.187  -0.193  1.00  0.00     0.170 C 
BRANCH   9  10
ATOM     10  C   UNL     1       0.820  -0.688  -1.457  1.00  0.00     0.221 C 
BRANCH  10  11
ATOM     11  N   UNL     1       1.807  -1.772  -1.375  1.00  0.00    -0.351 N 
ATOM     12  H   UNL     1       1.792  -2.313  -2.240  1.00  0.00     0.345 HD
ATOM     13  H   UNL     1       1.578  -2.381  -0.589  1.00  0.00     0.345 HD
ATOM     14  H   UNL     1       2.737  -1.376  -1.238  1.00  0.00     0.345 HD
ENDBRANCH  10  11
BRANCH  10  15
ATOM     15  C   UNL     1      -0.547  -1.179  -1.910  1.00  0.00     0.014 A 
ATOM     16  C   UNL     1      -1.355  -0.335  -2.715  1.00  0.00     0.014 A 
ATOM     17  C   UNL     1      -1.043  -2.443  -1.541  1.00  0.00     0.060 A 
ATOM     18  C   UNL     1      -2.626  -0.735  -3.147  1.00  0.00     0.051 A 
ATOM     19  C   UNL     1      -2.297  -2.813  -1.984  1.00  0.00     0.173 A 
ATOM     20  C   UNL     1      -3.068  -1.980  -2.762  1.00  0.00     0.172 A 
ATOM     21  O   UNL     1      -2.924  -3.985  -1.696  1.00  0.00    -0.395 OA
ATOM     22  O   UNL     1      -4.278  -2.522  -3.065  1.00  0.00    -0.395 OA
ATOM     23  C   UNL     1      -4.130  -3.811  -2.452  1.00  0.00     0.586 C 
ATOM     24  F   UNL     1      -4.171  -4.759  -3.420  1.00  0.00    -0.125 F 
ATOM     25  F   UNL     1      -5.186  -4.018  -1.627  1.00  0.00    -0.125 F 
ENDBRANCH  10  15
ENDBRANCH   9  10
ENDBRANCH   6   9
ENDBRANCH   4   5
ENDBRANCH   3   4
ENDBRANCH   2   3
ENDBRANCH   1   2
BRANCH   1  26
ATOM     26  C   UNL     1      -5.740   1.289  -0.133  1.00  0.00     0.021 C 
BRANCH  26  27
ATOM     27  C   UNL     1      -6.329   0.214  -1.049  1.00  0.00     0.116 C 
BRANCH  27  28
ATOM     28  N   UNL     1      -7.562  -0.348  -0.525  1.00  0.00    -0.352 N 
ATOM     29  C   UNL     1      -8.869  -0.166  -0.909  1.00  0.00     0.251 C 
ATOM     30  H   UNL     1      -7.441  -0.964   0.234  1.00  0.00     0.163 HD
ATOM     31  O   UNL     1      -9.768  -0.591  -0.187  1.00  0.00    -0.269 OA
BRANCH  29  32
ATOM     32  C   UNL     1      -9.216   0.552  -2.159  1.00  0.00     0.039 A 
ATOM     33  C   UNL     1     -10.284   1.456  -2.133  1.00  0.00     0.014 A 
ATOM     34  C   UNL     1      -8.557   0.301  -3.365  1.00  0.00     0.014 A 
ATOM     35  C   UNL     1     -10.645   2.151  -3.292  1.00  0.00     0.010 A 
ATOM     36  C   UNL     1      -8.879   1.040  -4.508  1.00  0.00     0.010 A 
ATOM     37  C   UNL     1      -9.924   1.977  -4.484  1.00  0.00    -0.014 A 
BRANCH  37  38
ATOM     38  C   UNL     1     -10.244   2.780  -5.697  1.00  0.00     0.031 A 
ATOM     39  C   UNL     1     -10.769   2.121  -6.945  1.00  0.00     0.074 A 
ATOM     40  C   UNL     1     -10.022   4.111  -5.691  1.00  0.00     0.049 A 
ATOM     41  N   UNL     1     -11.071   2.663  -8.099  1.00  0.00    -0.248 NA
ATOM     42  C   UNL     1     -10.966   0.664  -6.897  1.00  0.00     0.031 C 
ATOM     43  C   UNL     1      -9.493   4.875  -4.559  1.00  0.00     0.029 A 
ATOM     44  N   UNL     1     -10.211   5.057  -6.668  1.00  0.00    -0.354 N 
ATOM     45  C   UNL     1     -11.484   1.616  -8.916  1.00  0.00     0.074 A 
ATOM     46  C   UNL     1     -11.351   0.402  -8.139  1.00  0.00     0.031 C 
ATOM     47  C   UNL     1      -9.425   6.173  -4.897  1.00  0.00     0.029 A 
ATOM     48  C   UNL     1      -9.865   6.330  -6.280  1.00  0.00     0.049 A 
ATOM     49  H   UNL     1     -10.561   4.844  -7.564  1.00  0.00     0.167 HD
ATOM     50  C   UNL     1     -11.948   1.660 -10.189  1.00  0.00     0.031 A 
ATOM     51  C   UNL     1      -9.890   7.496  -6.957  1.00  0.00     0.031 A 
ATOM     52  C   UNL     1     -12.081   2.866 -10.966  1.00  0.00     0.049 A 
ATOM     53  C   UNL     1     -10.377   7.515  -8.380  1.00  0.00     0.074 A 
ATOM     54  C   UNL     1     -12.581   3.012 -12.249  1.00  0.00     0.029 A 
ATOM     55  N   UNL     1     -11.708   4.131 -10.538  1.00  0.00    -0.354 N 
ATOM     56  N   UNL     1     -10.816   6.520  -9.113  1.00  0.00    -0.248 NA
ATOM     57  C   UNL     1     -10.382   8.817  -9.062  1.00  0.00     0.031 C 
ATOM     58  C   UNL     1     -12.461   4.357 -12.616  1.00  0.00     0.029 A 
ATOM     59  C   UNL     1     -11.942   5.059 -11.541  1.00  0.00     0.049 A 
ATOM     60  H   UNL     1     -11.332   4.340  -9.653  1.00  0.00     0.167 HD
ATOM     61  C   UNL     1     -11.174   7.081 -10.335  1.00  0.00     0.074 A 
ATOM     62  C   UNL     1     -10.914   8.503 -10.236  1.00  0.00     0.031 C 
ATOM     63  C   UNL     1     -11.676   6.472 -11.437  1.00  0.00     0.031 A 
BRANCH  50  64
ATOM     64  C   UNL     1     -12.339   0.353 -10.832  1.00  0.00    -0.014 A 
ATOM     65  C   UNL     1     -13.483  -0.349 -10.411  1.00  0.00     0.010 A 
ATOM     66  C   UNL     1     -11.576  -0.160 -11.898  1.00  0.00     0.010 A 
ATOM     67  C   UNL     1     -13.830  -1.563 -11.011  1.00  0.00     0.020 A 
ATOM     68  C   UNL     1     -11.937  -1.359 -12.520  1.00  0.00     0.020 A 
ATOM     69  C   UNL     1     -13.051  -2.063 -12.058  1.00  0.00     0.054 A 
BRANCH  69  70
ATOM     70  S   UNL     1     -13.531  -3.635 -12.825  1.00  0.00     0.124 S 
ATOM     71  O   UNL     1     -13.155  -4.599 -11.794  1.00  0.00    -0.237 OA
ATOM     72  O   UNL     1     -14.967  -3.466 -13.033  1.00  0.00    -0.237 OA
ATOM     73  O   UNL     1     -12.730  -3.685 -14.046  1.00  0.00    -0.744 OA
ENDBRANCH  69  70
ENDBRANCH  50  64
BRANCH  51  74
ATOM     74  C   UNL     1      -9.446   8.750  -6.289  1.00  0.00    -0.014 A 
ATOM     75  C   UNL     1     -10.379   9.744  -5.945  1.00  0.00     0.010 A 
ATOM     76  C   UNL     1      -8.088   8.952  -5.983  1.00  0.00     0.010 A 
ATOM     77  C   UNL     1      -9.961  10.923  -5.321  1.00  0.00     0.020 A 
ATOM     78  C   UNL     1      -7.670  10.117  -5.334  1.00  0.00     0.020 A 
ATOM     79  C   UNL     1      -8.608  11.100  -5.016  1.00  0.00     0.054 A 
BRANCH  79  80
ATOM     80  S   UNL     1      -8.095  12.613  -4.155  1.00  0.00     0.124 S 
ATOM     81  O   UNL     1      -8.185  13.611  -5.215  1.00  0.00    -0.237 OA
ATOM     82  O   UNL     1      -9.091  12.724  -3.092  1.00  0.00    -0.237 OA
ATOM     83  O   UNL     1      -6.742  12.302  -3.699  1.00  0.00    -0.744 OA
ENDBRANCH  79  80
ENDBRANCH  51  74
BRANCH  63  84
ATOM     84  C   UNL     1     -12.008   7.342 -12.621  1.00  0.00    -0.014 A 
ATOM     85  C   UNL     1     -10.998   7.914 -13.414  1.00  0.00     0.010 A 
ATOM     86  C   UNL     1     -13.355   7.550 -12.974  1.00  0.00     0.010 A 
ATOM     87  C   UNL     1     -11.328   8.703 -14.520  1.00  0.00     0.020 A 
ATOM     88  C   UNL     1     -13.689   8.315 -14.094  1.00  0.00     0.020 A 
ATOM     89  C   UNL     1     -12.672   8.899 -14.852  1.00  0.00     0.054 A 
BRANCH  89  90
ATOM     90  S   UNL     1     -13.074   9.893 -16.317  1.00  0.00     0.124 S 
ATOM     91  O   UNL     1     -12.787  11.247 -15.853  1.00  0.00    -0.237 OA
ATOM     92  O   UNL     1     -12.155   9.366 -17.324  1.00  0.00    -0.237 OA
ATOM     93  O   UNL     1     -14.485   9.601 -16.557  1.00  0.00    -0.744 OA
ENDBRANCH  89  90
ENDBRANCH  63  84
ENDBRANCH  37  38
ENDBRANCH  29  32
ENDBRANCH  27  28
ENDBRANCH  26  27
ENDBRANCH   1  26
TORSDOF 19
