REMARK SMILES CCC(CC)(NC(=O)N(C)[C@H]1CCC[C@H](C)C1)C(=O)NCCCCCCNC(=O)c1ccc(-c2c3nc(c(-c4ccc(S(=O)(=O)[O-])cc4)c4ccc([nH]4)c(-c4ccc(S(=O)(=O)[O-])cc4)c4nc(c(-c5ccc(S(=O)(=O)[O-])cc5)c5ccc2[nH]5)C=C4)C=C3)cc1
REMARK SMILES IDX 23 1 22 2 21 3 20 4 18 5 19 6 3 8 2 9 1 10 4 11 5 12 6 13
REMARK SMILES IDX 7 14 8 16 9 17 10 18 11 19 12 20 17 21 13 22 15 23 14 24
REMARK SMILES IDX 16 25 24 26 25 27 26 28 27 29 28 30 29 32 30 33 31 34 89 35
REMARK SMILES IDX 32 36 88 37 33 38 34 39 35 40 82 41 36 42 87 43 81 44 83 45
REMARK SMILES IDX 37 46 86 47 80 48 79 49 38 51 68 52 49 53 67 54 50 55 53 56
REMARK SMILES IDX 66 57 84 58 51 59 52 60 65 62 85 63 54 64 39 65 40 66 48 67
REMARK SMILES IDX 41 68 47 69 42 70 43 71 44 72 45 73 46 74 69 75 70 76 78 77
REMARK SMILES IDX 71 78 77 79 72 80 73 81 74 82 75 83 76 84 55 85 56 86 64 87
REMARK SMILES IDX 57 88 63 89 58 90 59 91 60 92 61 93 62 94
REMARK H PARENT 20 7 6 15 27 31 83 50 53 61
REMARK Flexibility Score: inf
ROOT
ATOM      1  C   UNL     1       4.186   4.192  -5.324  1.00  0.00     0.002 C 
ENDROOT
BRANCH   1   2
ATOM      2  C   UNL     1       5.432   3.458  -5.821  1.00  0.00     0.021 C 
BRANCH   2   3
ATOM      3  C   UNL     1       6.714   3.726  -5.055  1.00  0.00     0.116 C 
BRANCH   3   4
ATOM      4  N   UNL     1       6.644   3.221  -3.694  1.00  0.00    -0.354 N 
ATOM      5  C   UNL     1       7.122   2.080  -3.115  1.00  0.00     0.245 C 
ATOM      6  O   UNL     1       6.837   1.933  -1.921  1.00  0.00    -0.272 OA
ATOM      7  H   UNL     1       6.161   3.812  -3.073  1.00  0.00     0.163 HD
BRANCH   5   8
ATOM      8  C   UNL     1       8.077   1.087  -3.860  1.00  0.00     0.120 C 
BRANCH   8   9
ATOM      9  C   UNL     1       8.437  -0.183  -3.026  1.00  0.00     0.035 C 
ATOM     10  C   UNL     1       9.155   0.036  -1.695  1.00  0.00     0.007 C 
ENDBRANCH   8   9
BRANCH   8  11
ATOM     11  C   UNL     1       9.397   1.913  -4.123  1.00  0.00     0.035 C 
ATOM     12  C   UNL     1      10.554   1.181  -4.801  1.00  0.00     0.007 C 
ENDBRANCH   8  11
BRANCH   8  13
ATOM     13  N   UNL     1       7.528   0.634  -5.171  1.00  0.00    -0.323 N 
ATOM     14  C   UNL     1       6.527  -0.087  -5.699  1.00  0.00     0.318 C 
ATOM     15  H   UNL     1       8.094   0.984  -5.898  1.00  0.00     0.166 HD
ATOM     16  O   UNL     1       6.848  -0.562  -6.790  1.00  0.00    -0.249 OA
BRANCH  14  17
ATOM     17  N   UNL     1       5.278  -0.237  -5.173  1.00  0.00    -0.325 N 
ATOM     18  C   UNL     1       4.902   0.115  -3.812  1.00  0.00     0.149 C 
BRANCH  17  19
ATOM     19  C   UNL     1       4.107  -0.608  -6.044  1.00  0.00     0.086 C 
ATOM     20  C   UNL     1       3.353   0.617  -6.594  1.00  0.00     0.025 C 
ATOM     21  C   UNL     1       4.286  -1.680  -7.147  1.00  0.00     0.028 C 
ATOM     22  C   UNL     1       3.933   1.139  -7.903  1.00  0.00     0.002 C 
ATOM     23  C   UNL     1       4.662  -1.176  -8.559  1.00  0.00    -0.012 C 
ATOM     24  C   UNL     1       3.876   0.067  -8.979  1.00  0.00     0.003 C 
ATOM     25  C   UNL     1       4.501  -2.289  -9.594  1.00  0.00     0.008 C 
ENDBRANCH  17  19
ENDBRANCH  14  17
ENDBRANCH   8  13
ENDBRANCH   5   8
ENDBRANCH   3   4
ENDBRANCH   2   3
ENDBRANCH   1   2
BRANCH   1  26
ATOM     26  C   UNL     1       4.190   5.704  -5.551  1.00  0.00     0.002 C 
BRANCH  26  27
ATOM     27  C   UNL     1       4.477   6.151  -6.986  1.00  0.00     0.021 C 
BRANCH  27  28
ATOM     28  C   UNL     1       3.621   5.488  -8.063  1.00  0.00     0.116 C 
BRANCH  28  29
ATOM     29  N   UNL     1       2.214   5.838  -7.957  1.00  0.00    -0.352 N 
ATOM     30  C   UNL     1       1.426   6.527  -8.847  1.00  0.00     0.251 C 
ATOM     31  H   UNL     1       1.763   5.539  -7.134  1.00  0.00     0.163 HD
ATOM     32  O   UNL     1       0.288   6.867  -8.539  1.00  0.00    -0.269 OA
BRANCH  30  33
ATOM     33  C   UNL     1       1.977   6.886 -10.171  1.00  0.00     0.039 A 
ATOM     34  C   UNL     1       1.951   8.223 -10.575  1.00  0.00     0.014 A 
ATOM     35  C   UNL     1       2.553   5.910 -10.988  1.00  0.00     0.014 A 
ATOM     36  C   UNL     1       2.574   8.593 -11.770  1.00  0.00     0.010 A 
ATOM     37  C   UNL     1       3.228   6.291 -12.145  1.00  0.00     0.010 A 
ATOM     38  C   UNL     1       3.251   7.637 -12.546  1.00  0.00    -0.014 A 
BRANCH  38  39
ATOM     39  C   UNL     1       3.996   8.023 -13.773  1.00  0.00     0.031 A 
ATOM     40  C   UNL     1       3.558   7.498 -15.115  1.00  0.00     0.074 A 
ATOM     41  C   UNL     1       5.106   8.784 -13.675  1.00  0.00     0.049 A 
ATOM     42  N   UNL     1       4.128   7.648 -16.283  1.00  0.00    -0.248 NA
ATOM     43  C   UNL     1       2.335   6.679 -15.145  1.00  0.00     0.031 C 
ATOM     44  C   UNL     1       5.657   9.328 -12.431  1.00  0.00     0.029 A 
ATOM     45  N   UNL     1       5.982   9.221 -14.640  1.00  0.00    -0.354 N 
ATOM     46  C   UNL     1       3.352   6.922 -17.179  1.00  0.00     0.074 A 
ATOM     47  C   UNL     1       2.288   6.306 -16.416  1.00  0.00     0.031 C 
ATOM     48  C   UNL     1       6.764  10.037 -12.711  1.00  0.00     0.029 A 
ATOM     49  C   UNL     1       7.028   9.966 -14.144  1.00  0.00     0.049 A 
ATOM     50  H   UNL     1       5.871   9.020 -15.597  1.00  0.00     0.167 HD
ATOM     51  C   UNL     1       3.503   6.792 -18.517  1.00  0.00     0.031 A 
ATOM     52  C   UNL     1       8.087  10.516 -14.770  1.00  0.00     0.031 A 
ATOM     53  C   UNL     1       4.540   7.433 -19.280  1.00  0.00     0.049 A 
ATOM     54  C   UNL     1       8.229  10.352 -16.261  1.00  0.00     0.074 A 
ATOM     55  C   UNL     1       4.727   7.420 -20.652  1.00  0.00     0.029 A 
ATOM     56  N   UNL     1       5.562   8.199 -18.743  1.00  0.00    -0.354 N 
ATOM     57  N   UNL     1       7.439   9.726 -17.099  1.00  0.00    -0.248 NA
ATOM     58  C   UNL     1       9.401  10.977 -16.892  1.00  0.00     0.031 C 
ATOM     59  C   UNL     1       5.892   8.136 -20.940  1.00  0.00     0.029 A 
ATOM     60  C   UNL     1       6.397   8.643 -19.754  1.00  0.00     0.049 A 
ATOM     61  H   UNL     1       5.677   8.397 -17.786  1.00  0.00     0.167 HD
ATOM     62  C   UNL     1       7.997   9.916 -18.358  1.00  0.00     0.074 A 
ATOM     63  C   UNL     1       9.186  10.720 -18.175  1.00  0.00     0.031 C 
ATOM     64  C   UNL     1       7.562   9.466 -19.560  1.00  0.00     0.031 A 
BRANCH  51  65
ATOM     65  C   UNL     1       2.525   5.920 -19.259  1.00  0.00    -0.014 A 
ATOM     66  C   UNL     1       1.202   6.340 -19.481  1.00  0.00     0.010 A 
ATOM     67  C   UNL     1       2.965   4.707 -19.821  1.00  0.00     0.010 A 
ATOM     68  C   UNL     1       0.330   5.553 -20.238  1.00  0.00     0.020 A 
ATOM     69  C   UNL     1       2.103   3.930 -20.599  1.00  0.00     0.020 A 
ATOM     70  C   UNL     1       0.787   4.354 -20.795  1.00  0.00     0.054 A 
BRANCH  70  71
ATOM     71  S   UNL     1      -0.348   3.387 -21.827  1.00  0.00     0.124 S 
ATOM     72  O   UNL     1      -1.263   2.834 -20.832  1.00  0.00    -0.237 OA
ATOM     73  O   UNL     1      -0.920   4.401 -22.710  1.00  0.00    -0.237 OA
ATOM     74  O   UNL     1       0.521   2.413 -22.483  1.00  0.00    -0.744 OA
ENDBRANCH  70  71
ENDBRANCH  51  65
BRANCH  52  75
ATOM     75  C   UNL     1       9.113  11.274 -13.998  1.00  0.00    -0.014 A 
ATOM     76  C   UNL     1       9.255  12.663 -14.169  1.00  0.00     0.010 A 
ATOM     77  C   UNL     1       9.981  10.603 -13.119  1.00  0.00     0.010 A 
ATOM     78  C   UNL     1      10.273  13.359 -13.510  1.00  0.00     0.020 A 
ATOM     79  C   UNL     1      10.981  11.300 -12.434  1.00  0.00     0.020 A 
ATOM     80  C   UNL     1      11.134  12.671 -12.652  1.00  0.00     0.054 A 
BRANCH  80  81
ATOM     81  S   UNL     1      12.447  13.591 -11.802  1.00  0.00     0.124 S 
ATOM     82  O   UNL     1      13.415  13.797 -12.875  1.00  0.00    -0.237 OA
ATOM     83  O   UNL     1      11.748  14.788 -11.340  1.00  0.00    -0.237 OA
ATOM     84  O   UNL     1      12.870  12.679 -10.742  1.00  0.00    -0.744 OA
ENDBRANCH  80  81
ENDBRANCH  52  75
BRANCH  64  85
ATOM     85  C   UNL     1       8.334   9.877 -20.785  1.00  0.00    -0.014 A 
ATOM     86  C   UNL     1       9.587   9.316 -21.083  1.00  0.00     0.010 A 
ATOM     87  C   UNL     1       7.752  10.781 -21.693  1.00  0.00     0.010 A 
ATOM     88  C   UNL     1      10.255   9.668 -22.259  1.00  0.00     0.020 A 
ATOM     89  C   UNL     1       8.404  11.115 -22.882  1.00  0.00     0.020 A 
ATOM     90  C   UNL     1       9.657  10.564 -23.153  1.00  0.00     0.054 A 
BRANCH  90  91
ATOM     91  S   UNL     1      10.514  10.955 -24.703  1.00  0.00     0.124 S 
ATOM     92  O   UNL     1      11.585  11.836 -24.245  1.00  0.00    -0.237 OA
ATOM     93  O   UNL     1      10.941   9.640 -25.175  1.00  0.00    -0.237 OA
ATOM     94  O   UNL     1       9.484  11.597 -25.516  1.00  0.00    -0.744 OA
ENDBRANCH  90  91
ENDBRANCH  64  85
ENDBRANCH  38  39
ENDBRANCH  30  33
ENDBRANCH  28  29
ENDBRANCH  27  28
ENDBRANCH  26  27
ENDBRANCH   1  26
TORSDOF 21
