REMARK SMILES C[C@@H](C(=O)NCCCCCCNC(=O)c1ccc(-c2c3nc(c(-c4ccc(S(=O)(=O)[O-])cc4)c4ccc([nH]4)c(-c4ccc(S(=O)(=O)[O-])cc4)c4nc(c(-c5ccc(S(=O)(=O)[O-])cc5)c5ccc2[nH]5)C=C4)C=C3)cc1)c1ccc(C[C@H]2CCC[C@@H]2O)cc1
REMARK SMILES IDX 8 1 7 2 6 3 5 4 3 5 4 6 2 8 1 9 75 10 76 11 87 12 77 13
REMARK SMILES IDX 86 14 78 15 79 16 80 17 81 18 84 19 82 20 83 21 85 22 9 24
REMARK SMILES IDX 10 25 11 26 12 27 13 28 14 30 15 31 16 32 74 33 17 34 73 35
REMARK SMILES IDX 18 36 19 37 20 38 67 39 21 40 72 41 66 42 68 43 22 44 71 45
REMARK SMILES IDX 65 46 64 47 23 49 53 50 34 51 52 52 35 53 38 54 51 55 69 56
REMARK SMILES IDX 36 57 37 58 50 60 70 61 39 62 24 63 25 64 33 65 26 66 32 67
REMARK SMILES IDX 27 68 28 69 29 70 30 71 31 72 54 73 55 74 63 75 56 76 62 77
REMARK SMILES IDX 57 78 58 79 59 80 60 81 61 82 40 83 41 84 49 85 42 86 48 87
REMARK SMILES IDX 43 88 44 89 45 90 46 91 47 92
REMARK H PARENT 5 7 85 23 12 29 68 48 38 59
REMARK Flexibility Score: inf
ROOT
ATOM      1  C   UNL     1       5.099   2.550  -0.925  1.00  0.00     0.002 C 
ENDROOT
BRANCH   1   2
ATOM      2  C   UNL     1       4.373   1.326  -0.348  1.00  0.00     0.021 C 
BRANCH   2   3
ATOM      3  C   UNL     1       3.508   1.628   0.882  1.00  0.00     0.116 C 
BRANCH   3   4
ATOM      4  N   UNL     1       2.450   2.548   0.521  1.00  0.00    -0.356 N 
ATOM      5  C   UNL     1       1.205   2.241   0.047  1.00  0.00     0.227 C 
ATOM      6  O   UNL     1       0.714   3.039  -0.753  1.00  0.00    -0.274 OA
ATOM      7  H   UNL     1       2.650   3.506   0.629  1.00  0.00     0.163 HD
BRANCH   5   8
ATOM      8  C   UNL     1       0.512   0.954   0.533  1.00  0.00     0.105 C 
ATOM      9  C   UNL     1       0.920  -0.205  -0.386  1.00  0.00     0.023 C 
BRANCH   8  10
ATOM     10  C   UNL     1      -1.013   1.030   0.681  1.00  0.00    -0.036 A 
ATOM     11  C   UNL     1      -1.737   2.220   0.533  1.00  0.00     0.005 A 
ATOM     12  C   UNL     1      -1.743  -0.127   1.012  1.00  0.00     0.005 A 
ATOM     13  C   UNL     1      -3.127   2.246   0.644  1.00  0.00     0.004 A 
ATOM     14  C   UNL     1      -3.134  -0.096   1.157  1.00  0.00     0.004 A 
ATOM     15  C   UNL     1      -3.840   1.098   0.988  1.00  0.00    -0.048 A 
BRANCH  15  16
ATOM     16  C   UNL     1      -5.329   1.162   1.214  1.00  0.00     0.041 C 
BRANCH  16  17
ATOM     17  C   UNL     1      -5.768   1.730   2.575  1.00  0.00     0.022 C 
ATOM     18  C   UNL     1      -5.227   0.997   3.814  1.00  0.00     0.007 C 
ATOM     19  C   UNL     1      -5.424   3.201   2.826  1.00  0.00     0.117 C 
ATOM     20  C   UNL     1      -4.977   2.078   4.870  1.00  0.00     0.003 C 
ATOM     21  C   UNL     1      -5.627   3.341   4.325  1.00  0.00     0.032 C 
BRANCH  19  22
ATOM     22  O   UNL     1      -6.279   4.061   2.097  1.00  0.00    -0.393 OA
ATOM     23  H   UNL     1      -7.202   3.875   2.333  1.00  0.00     0.210 HD
ENDBRANCH  19  22
ENDBRANCH  16  17
ENDBRANCH  15  16
ENDBRANCH   8  10
ENDBRANCH   5   8
ENDBRANCH   3   4
ENDBRANCH   2   3
ENDBRANCH   1   2
BRANCH   1  24
ATOM     24  C   UNL     1       6.050   3.251   0.047  1.00  0.00     0.002 C 
BRANCH  24  25
ATOM     25  C   UNL     1       7.114   2.342   0.668  1.00  0.00     0.021 C 
BRANCH  25  26
ATOM     26  C   UNL     1       8.003   1.621  -0.341  1.00  0.00     0.116 C 
BRANCH  26  27
ATOM     27  N   UNL     1       8.787   2.549  -1.140  1.00  0.00    -0.352 N 
ATOM     28  C   UNL     1      10.140   2.580  -1.352  1.00  0.00     0.251 C 
ATOM     29  H   UNL     1       8.272   3.255  -1.593  1.00  0.00     0.163 HD
ATOM     30  O   UNL     1      10.651   3.562  -1.895  1.00  0.00    -0.269 OA
BRANCH  28  31
ATOM     31  C   UNL     1      10.989   1.452  -0.914  1.00  0.00     0.039 A 
ATOM     32  C   UNL     1      12.194   1.730  -0.265  1.00  0.00     0.014 A 
ATOM     33  C   UNL     1      10.608   0.127  -1.149  1.00  0.00     0.014 A 
ATOM     34  C   UNL     1      12.989   0.679   0.198  1.00  0.00     0.010 A 
ATOM     35  C   UNL     1      11.369  -0.919  -0.628  1.00  0.00     0.010 A 
ATOM     36  C   UNL     1      12.567  -0.654   0.050  1.00  0.00    -0.014 A 
BRANCH  36  37
ATOM     37  C   UNL     1      13.365  -1.770   0.621  1.00  0.00     0.031 A 
ATOM     38  C   UNL     1      14.006  -2.792  -0.278  1.00  0.00     0.074 A 
ATOM     39  C   UNL     1      13.482  -1.880   1.960  1.00  0.00     0.049 A 
ATOM     40  N   UNL     1      14.726  -3.836   0.046  1.00  0.00    -0.248 NA
ATOM     41  C   UNL     1      13.799  -2.635  -1.727  1.00  0.00     0.031 C 
ATOM     42  C   UNL     1      12.869  -0.979   2.941  1.00  0.00     0.029 A 
ATOM     43  N   UNL     1      14.156  -2.795   2.729  1.00  0.00    -0.354 N 
ATOM     44  C   UNL     1      15.056  -4.459  -1.152  1.00  0.00     0.074 A 
ATOM     45  C   UNL     1      14.413  -3.707  -2.208  1.00  0.00     0.031 C 
ATOM     46  C   UNL     1      13.219  -1.370   4.177  1.00  0.00     0.029 A 
ATOM     47  C   UNL     1      14.049  -2.566   4.082  1.00  0.00     0.049 A 
ATOM     48  H   UNL     1      14.669  -3.544   2.349  1.00  0.00     0.167 HD
ATOM     49  C   UNL     1      15.840  -5.544  -1.357  1.00  0.00     0.031 A 
ATOM     50  C   UNL     1      14.558  -3.244   5.129  1.00  0.00     0.031 A 
ATOM     51  C   UNL     1      16.484  -6.288  -0.306  1.00  0.00     0.049 A 
ATOM     52  C   UNL     1      15.417  -4.452   4.871  1.00  0.00     0.074 A 
ATOM     53  C   UNL     1      17.332  -7.377  -0.419  1.00  0.00     0.029 A 
ATOM     54  N   UNL     1      16.355  -6.022   1.048  1.00  0.00    -0.354 N 
ATOM     55  N   UNL     1      15.766  -4.986   3.725  1.00  0.00    -0.248 NA
ATOM     56  C   UNL     1      15.961  -5.141   6.049  1.00  0.00     0.031 C 
ATOM     57  C   UNL     1      17.677  -7.798   0.869  1.00  0.00     0.029 A 
ATOM     58  C   UNL     1      17.090  -6.937   1.782  1.00  0.00     0.049 A 
ATOM     59  H   UNL     1      15.819  -5.290   1.431  1.00  0.00     0.167 HD
ATOM     60  C   UNL     1      16.590  -6.060   4.045  1.00  0.00     0.074 A 
ATOM     61  C   UNL     1      16.707  -6.082   5.488  1.00  0.00     0.031 C 
ATOM     62  C   UNL     1      17.192  -6.950   3.219  1.00  0.00     0.031 A 
BRANCH  49  63
ATOM     63  C   UNL     1      16.061  -5.990  -2.779  1.00  0.00    -0.014 A 
ATOM     64  C   UNL     1      16.864  -5.236  -3.655  1.00  0.00     0.010 A 
ATOM     65  C   UNL     1      15.523  -7.211  -3.225  1.00  0.00     0.010 A 
ATOM     66  C   UNL     1      17.105  -5.683  -4.957  1.00  0.00     0.020 A 
ATOM     67  C   UNL     1      15.783  -7.674  -4.519  1.00  0.00     0.020 A 
ATOM     68  C   UNL     1      16.564  -6.901  -5.380  1.00  0.00     0.054 A 
BRANCH  68  69
ATOM     69  S   UNL     1      16.938  -7.479  -7.058  1.00  0.00     0.124 S 
ATOM     70  O   UNL     1      16.140  -6.567  -7.875  1.00  0.00    -0.237 OA
ATOM     71  O   UNL     1      18.384  -7.296  -7.145  1.00  0.00    -0.237 OA
ATOM     72  O   UNL     1      16.486  -8.868  -7.056  1.00  0.00    -0.744 OA
ENDBRANCH  68  69
ENDBRANCH  49  63
BRANCH  50  73
ATOM     73  C   UNL     1      14.270  -2.801   6.521  1.00  0.00    -0.014 A 
ATOM     74  C   UNL     1      15.289  -2.271   7.332  1.00  0.00     0.010 A 
ATOM     75  C   UNL     1      12.972  -2.928   7.050  1.00  0.00     0.010 A 
ATOM     76  C   UNL     1      15.025  -1.911   8.657  1.00  0.00     0.020 A 
ATOM     77  C   UNL     1      12.697  -2.540   8.363  1.00  0.00     0.020 A 
ATOM     78  C   UNL     1      13.730  -2.052   9.165  1.00  0.00     0.054 A 
BRANCH  78  79
ATOM     79  S   UNL     1      13.402  -1.561  10.880  1.00  0.00     0.124 S 
ATOM     80  O   UNL     1      13.996  -2.663  11.629  1.00  0.00    -0.237 OA
ATOM     81  O   UNL     1      14.095  -0.279  10.982  1.00  0.00    -0.237 OA
ATOM     82  O   UNL     1      11.944  -1.478  10.937  1.00  0.00    -0.744 OA
ENDBRANCH  78  79
ENDBRANCH  50  73
BRANCH  62  83
ATOM     83  C   UNL     1      18.052  -8.008   3.859  1.00  0.00    -0.014 A 
ATOM     84  C   UNL     1      17.483  -9.060   4.598  1.00  0.00     0.010 A 
ATOM     85  C   UNL     1      19.449  -7.961   3.696  1.00  0.00     0.010 A 
ATOM     86  C   UNL     1      18.298 -10.020   5.203  1.00  0.00     0.020 A 
ATOM     87  C   UNL     1      20.265  -8.937   4.273  1.00  0.00     0.020 A 
ATOM     88  C   UNL     1      19.685  -9.950   5.040  1.00  0.00     0.054 A 
BRANCH  88  89
ATOM     89  S   UNL     1      20.721 -11.219   5.818  1.00  0.00     0.124 S 
ATOM     90  O   UNL     1      20.681 -10.823   7.223  1.00  0.00    -0.237 OA
ATOM     91  O   UNL     1      20.014 -12.455   5.493  1.00  0.00    -0.237 OA
ATOM     92  O   UNL     1      22.017 -11.058   5.162  1.00  0.00    -0.744 OA
ENDBRANCH  88  89
ENDBRANCH  62  83
ENDBRANCH  36  37
ENDBRANCH  28  31
ENDBRANCH  26  27
ENDBRANCH  25  26
ENDBRANCH  24  25
ENDBRANCH   1  24
TORSDOF 20
