REMARK SMILES C[C@H]([NH3+])c1ccc(F)cc1OCC(C)(C)C(=O)NCCCCCCNC(=O)c1ccc(-c2c3nc(c(-c4ccc(S(=O)(=O)[O-])cc4)c4ccc([nH]4)c(-c4ccc(S(=O)(=O)[O-])cc4)c4nc(c(-c5ccc(S(=O)(=O)[O-])cc5)c5ccc2[nH]5)C=C4)C=C3)cc1
REMARK SMILES IDX 20 1 19 2 18 3 16 4 17 5 13 7 14 8 15 9 12 10 11 11 10 12
REMARK SMILES IDX 4 13 5 14 6 15 9 16 7 17 8 18 2 19 1 20 3 21 21 25 22 26
REMARK SMILES IDX 23 27 24 28 25 29 26 30 27 32 28 33 29 34 87 35 30 36 86 37
REMARK SMILES IDX 31 38 32 39 33 40 80 41 34 42 85 43 79 44 81 45 35 46 84 47
REMARK SMILES IDX 78 48 77 49 36 51 66 52 47 53 65 54 48 55 51 56 64 57 82 58
REMARK SMILES IDX 49 59 50 60 63 62 83 63 52 64 37 65 38 66 46 67 39 68 45 69
REMARK SMILES IDX 40 70 41 71 42 72 43 73 44 74 67 75 68 76 76 77 69 78 75 79
REMARK SMILES IDX 70 80 71 81 72 82 73 83 74 84 53 85 54 86 62 87 55 88 61 89
REMARK SMILES IDX 56 90 57 91 58 92 59 93 60 94
REMARK H PARENT 18 6 3 22 3 23 3 24 25 31 81 50 51 61
REMARK Flexibility Score: inf
ROOT
ATOM      1  C   UNL     1       3.000  -2.591  -4.540  1.00  0.00     0.021 C 
ENDROOT
BRANCH   1   2
ATOM      2  C   UNL     1       1.870  -2.266  -3.587  1.00  0.00     0.116 C 
BRANCH   2   3
ATOM      3  N   UNL     1       1.116  -3.451  -3.193  1.00  0.00    -0.356 N 
ATOM      4  C   UNL     1       0.581  -3.793  -1.975  1.00  0.00     0.229 C 
ATOM      5  O   UNL     1      -0.093  -4.821  -1.915  1.00  0.00    -0.274 OA
ATOM      6  H   UNL     1       0.968  -4.107  -3.912  1.00  0.00     0.163 HD
BRANCH   4   7
ATOM      7  C   UNL     1       0.862  -2.905  -0.751  1.00  0.00     0.077 C 
ATOM      8  C   UNL     1       0.413  -1.475  -1.123  1.00  0.00     0.025 C 
ATOM      9  C   UNL     1       2.380  -3.020  -0.443  1.00  0.00     0.025 C 
BRANCH   7  10
ATOM     10  C   UNL     1       0.189  -3.470   0.548  1.00  0.00     0.245 C 
BRANCH  10  11
ATOM     11  O   UNL     1      -1.193  -3.235   0.733  1.00  0.00    -0.492 OA
BRANCH  11  12
ATOM     12  C   UNL     1      -1.774  -2.077   1.157  1.00  0.00     0.131 A 
ATOM     13  C   UNL     1      -1.231  -0.856   1.627  1.00  0.00     0.051 A 
ATOM     14  C   UNL     1      -2.130   0.235   1.779  1.00  0.00     0.017 A 
ATOM     15  C   UNL     1      -3.487   0.135   1.477  1.00  0.00     0.040 A 
ATOM     16  C   UNL     1      -3.162  -2.178   0.938  1.00  0.00     0.086 A 
ATOM     17  C   UNL     1      -3.997  -1.083   1.077  1.00  0.00     0.126 A 
ATOM     18  F   UNL     1      -5.299  -1.200   0.787  1.00  0.00    -0.207 F 
BRANCH  13  19
ATOM     19  C   UNL     1       0.239  -0.563   1.913  1.00  0.00     0.212 C 
ATOM     20  C   UNL     1       0.598  -0.689   3.389  1.00  0.00     0.081 C 
BRANCH  19  21
ATOM     21  N   UNL     1       0.650   0.770   1.438  1.00  0.00    -0.351 N 
ATOM     22  H   UNL     1       0.142   1.487   1.956  1.00  0.00     0.345 HD
ATOM     23  H   UNL     1       0.440   0.856   0.444  1.00  0.00     0.345 HD
ATOM     24  H   UNL     1       1.652   0.890   1.586  1.00  0.00     0.345 HD
ENDBRANCH  19  21
ENDBRANCH  13  19
ENDBRANCH  11  12
ENDBRANCH  10  11
ENDBRANCH   7  10
ENDBRANCH   4   7
ENDBRANCH   2   3
ENDBRANCH   1   2
BRANCH   1  25
ATOM     25  C   UNL     1       2.503  -2.837  -5.963  1.00  0.00     0.002 C 
BRANCH  25  26
ATOM     26  C   UNL     1       1.678  -1.688  -6.560  1.00  0.00     0.002 C 
BRANCH  26  27
ATOM     27  C   UNL     1       2.349  -0.311  -6.501  1.00  0.00     0.021 C 
BRANCH  27  28
ATOM     28  C   UNL     1       3.746  -0.274  -7.106  1.00  0.00     0.116 C 
BRANCH  28  29
ATOM     29  N   UNL     1       3.752  -0.769  -8.471  1.00  0.00    -0.352 N 
ATOM     30  C   UNL     1       4.286  -0.196  -9.596  1.00  0.00     0.251 C 
ATOM     31  H   UNL     1       3.311  -1.639  -8.608  1.00  0.00     0.163 HD
ATOM     32  O   UNL     1       4.017  -0.640 -10.703  1.00  0.00    -0.269 OA
BRANCH  30  33
ATOM     33  C   UNL     1       5.177   0.971  -9.447  1.00  0.00     0.039 A 
ATOM     34  C   UNL     1       4.988   2.073 -10.280  1.00  0.00     0.014 A 
ATOM     35  C   UNL     1       6.185   0.974  -8.478  1.00  0.00     0.014 A 
ATOM     36  C   UNL     1       5.790   3.201 -10.114  1.00  0.00     0.010 A 
ATOM     37  C   UNL     1       6.927   2.127  -8.261  1.00  0.00     0.010 A 
ATOM     38  C   UNL     1       6.747   3.247  -9.086  1.00  0.00    -0.014 A 
BRANCH  38  39
ATOM     39  C   UNL     1       7.581   4.453  -8.870  1.00  0.00     0.031 A 
ATOM     40  C   UNL     1       9.073   4.375  -9.046  1.00  0.00     0.074 A 
ATOM     41  C   UNL     1       7.000   5.601  -8.469  1.00  0.00     0.049 A 
ATOM     42  N   UNL     1       9.973   5.306  -8.861  1.00  0.00    -0.248 NA
ATOM     43  C   UNL     1       9.630   3.076  -9.460  1.00  0.00     0.031 C 
ATOM     44  C   UNL     1       5.567   5.788  -8.232  1.00  0.00     0.029 A 
ATOM     45  N   UNL     1       7.545   6.829  -8.190  1.00  0.00    -0.354 N 
ATOM     46  C   UNL     1      11.198   4.703  -9.123  1.00  0.00     0.074 A 
ATOM     47  C   UNL     1      10.932   3.314  -9.421  1.00  0.00     0.031 C 
ATOM     48  C   UNL     1       5.343   7.063  -7.876  1.00  0.00     0.029 A 
ATOM     49  C   UNL     1       6.617   7.771  -7.814  1.00  0.00     0.049 A 
ATOM     50  H   UNL     1       8.509   7.017  -8.252  1.00  0.00     0.167 HD
ATOM     51  C   UNL     1      12.432   5.262  -9.138  1.00  0.00     0.031 A 
ATOM     52  C   UNL     1       6.776   9.059  -7.453  1.00  0.00     0.031 A 
ATOM     53  C   UNL     1      12.688   6.647  -8.845  1.00  0.00     0.049 A 
ATOM     54  C   UNL     1       8.160   9.650  -7.450  1.00  0.00     0.074 A 
ATOM     55  C   UNL     1      13.894   7.323  -8.877  1.00  0.00     0.029 A 
ATOM     56  N   UNL     1      11.722   7.568  -8.466  1.00  0.00    -0.354 N 
ATOM     57  N   UNL     1       9.300   9.080  -7.761  1.00  0.00    -0.248 NA
ATOM     58  C   UNL     1       8.277  11.061  -7.059  1.00  0.00     0.031 C 
ATOM     59  C   UNL     1      13.668   8.638  -8.458  1.00  0.00     0.029 A 
ATOM     60  C   UNL     1      12.310   8.800  -8.233  1.00  0.00     0.049 A 
ATOM     61  H   UNL     1      10.761   7.374  -8.374  1.00  0.00     0.167 HD
ATOM     62  C   UNL     1      10.266  10.072  -7.635  1.00  0.00     0.074 A 
ATOM     63  C   UNL     1       9.573  11.280  -7.234  1.00  0.00     0.031 C 
ATOM     64  C   UNL     1      11.605   9.993  -7.835  1.00  0.00     0.031 A 
BRANCH  51  65
ATOM     65  C   UNL     1      13.598   4.370  -9.474  1.00  0.00    -0.014 A 
ATOM     66  C   UNL     1      13.762   3.842 -10.769  1.00  0.00     0.010 A 
ATOM     67  C   UNL     1      14.567   4.086  -8.494  1.00  0.00     0.010 A 
ATOM     68  C   UNL     1      14.848   3.014 -11.065  1.00  0.00     0.020 A 
ATOM     69  C   UNL     1      15.672   3.284  -8.795  1.00  0.00     0.020 A 
ATOM     70  C   UNL     1      15.796   2.740 -10.075  1.00  0.00     0.054 A 
BRANCH  70  71
ATOM     71  S   UNL     1      17.208   1.683 -10.496  1.00  0.00     0.124 S 
ATOM     72  O   UNL     1      16.575   0.372 -10.622  1.00  0.00    -0.237 OA
ATOM     73  O   UNL     1      17.687   2.272 -11.744  1.00  0.00    -0.237 OA
ATOM     74  O   UNL     1      18.107   1.832  -9.354  1.00  0.00    -0.744 OA
ENDBRANCH  70  71
ENDBRANCH  51  65
BRANCH  52  75
ATOM     75  C   UNL     1       5.592   9.879  -7.076  1.00  0.00    -0.014 A 
ATOM     76  C   UNL     1       5.163  10.937  -7.897  1.00  0.00     0.010 A 
ATOM     77  C   UNL     1       4.881   9.602  -5.893  1.00  0.00     0.010 A 
ATOM     78  C   UNL     1       4.061  11.716  -7.532  1.00  0.00     0.020 A 
ATOM     79  C   UNL     1       3.761  10.359  -5.541  1.00  0.00     0.020 A 
ATOM     80  C   UNL     1       3.366  11.420  -6.356  1.00  0.00     0.054 A 
BRANCH  80  81
ATOM     81  S   UNL     1       1.915  12.419  -5.924  1.00  0.00     0.124 S 
ATOM     82  O   UNL     1       2.524  13.686  -5.533  1.00  0.00    -0.237 OA
ATOM     83  O   UNL     1       1.162  12.437  -7.176  1.00  0.00    -0.237 OA
ATOM     84  O   UNL     1       1.290  11.663  -4.841  1.00  0.00    -0.744 OA
ENDBRANCH  80  81
ENDBRANCH  52  75
BRANCH  64  85
ATOM     85  C   UNL     1      12.409  11.255  -7.664  1.00  0.00    -0.014 A 
ATOM     86  C   UNL     1      12.625  11.820  -6.395  1.00  0.00     0.010 A 
ATOM     87  C   UNL     1      13.006  11.851  -8.791  1.00  0.00     0.010 A 
ATOM     88  C   UNL     1      13.397  12.978  -6.261  1.00  0.00     0.020 A 
ATOM     89  C   UNL     1      13.805  12.989  -8.656  1.00  0.00     0.020 A 
ATOM     90  C   UNL     1      13.983  13.553  -7.392  1.00  0.00     0.054 A 
BRANCH  90  91
ATOM     91  S   UNL     1      15.018  15.028  -7.183  1.00  0.00     0.124 S 
ATOM     92  O   UNL     1      14.025  16.055  -6.880  1.00  0.00    -0.237 OA
ATOM     93  O   UNL     1      15.890  14.650  -6.074  1.00  0.00    -0.237 OA
ATOM     94  O   UNL     1      15.686  15.169  -8.475  1.00  0.00    -0.744 OA
ENDBRANCH  90  91
ENDBRANCH  64  85
ENDBRANCH  38  39
ENDBRANCH  30  33
ENDBRANCH  28  29
ENDBRANCH  27  28
ENDBRANCH  26  27
ENDBRANCH  25  26
ENDBRANCH   1  25
TORSDOF 21
