REMARK SMILES Cc1ccc(-c2cnnc(-n3nc(C)c4c3NC(=O)C[C@@H]4c3ccc(C(=O)NCCCCCCNC(=O)c4ccc(-c5c6nc(c(-c7ccc(S(=O)(=O)[O-])cc7)c7ccc([nH]7)c(-c7ccc(S(=O)(=O)[O-])cc7)c7nc(c(-c8ccc(S(=O)(=O)[O-])cc8)c8ccc5[nH]8)C=C7)C=C6)cc4)cc3)n2)cc1
REMARK SMILES IDX 31 1 30 2 29 3 28 4 26 5 27 6 25 8 22 9 23 10 99 11 24 12
REMARK SMILES IDX 98 13 21 14 11 15 12 16 16 17 13 18 15 19 17 20 14 21 18 22
REMARK SMILES IDX 20 24 19 25 10 26 6 27 7 28 100 29 8 30 9 31 5 32 1 33 2 34
REMARK SMILES IDX 3 35 102 36 4 37 101 38 32 39 33 40 34 41 35 42 36 43 37 45
REMARK SMILES IDX 38 46 39 47 97 48 40 49 96 50 41 51 42 52 43 53 90 54 44 55
REMARK SMILES IDX 95 56 89 57 91 58 45 59 94 60 88 61 87 62 46 64 76 65 57 66
REMARK SMILES IDX 75 67 58 68 61 69 74 70 92 71 59 72 60 73 73 75 93 76 62 77
REMARK SMILES IDX 47 78 48 79 56 80 49 81 55 82 50 83 51 84 52 85 53 86 54 87
REMARK SMILES IDX 77 88 78 89 86 90 79 91 85 92 80 93 81 94 82 95 83 96 84 97
REMARK SMILES IDX 63 98 64 99 72 100 65 101 71 102 66 103 67 104 68 105 69 106
REMARK SMILES IDX 70 107
REMARK H PARENT 28 7 17 23 35 44 91 63 61 74
REMARK Flexibility Score: inf
ROOT
ATOM      1  C   UNL     1     -12.590   7.921  -6.223  1.00  0.00     0.002 C 
ENDROOT
BRANCH   1   2
ATOM      2  C   UNL     1     -11.490   6.910  -5.867  1.00  0.00     0.021 C 
BRANCH   2   3
ATOM      3  C   UNL     1     -11.739   5.494  -6.390  1.00  0.00     0.116 C 
BRANCH   3   4
ATOM      4  N   UNL     1     -11.579   5.422  -7.836  1.00  0.00    -0.352 N 
ATOM      5  C   UNL     1     -10.678   4.742  -8.618  1.00  0.00     0.251 C 
ATOM      6  O   UNL     1     -10.838   4.691  -9.835  1.00  0.00    -0.269 OA
ATOM      7  H   UNL     1     -12.232   5.956  -8.343  1.00  0.00     0.163 HD
BRANCH   5   8
ATOM      8  C   UNL     1      -9.552   3.996  -8.013  1.00  0.00     0.039 A 
ATOM      9  C   UNL     1      -7.707   2.358  -6.675  1.00  0.00    -0.040 A 
ATOM     10  C   UNL     1      -8.328   1.919  -7.859  1.00  0.00     0.005 A 
ATOM     11  C   UNL     1      -7.880   3.698  -6.298  1.00  0.00     0.005 A 
ATOM     12  C   UNL     1      -9.239   2.736  -8.528  1.00  0.00     0.014 A 
ATOM     13  C   UNL     1      -8.806   4.506  -6.955  1.00  0.00     0.014 A 
BRANCH   9  14
ATOM     14  C   UNL     1      -6.938   1.339  -5.861  1.00  0.00     0.064 C 
ATOM     15  N   UNL     1      -5.835   2.108  -2.504  1.00  0.00    -0.180 N 
ATOM     16  N   UNL     1      -7.132   2.470  -2.298  1.00  0.00    -0.168 NA
ATOM     17  C   UNL     1      -5.587   2.108  -3.867  1.00  0.00     0.143 A 
ATOM     18  C   UNL     1      -7.747   2.176  -3.446  1.00  0.00     0.066 A 
ATOM     19  C   UNL     1      -6.807   1.798  -4.445  1.00  0.00     0.026 A 
ATOM     20  N   UNL     1      -4.481   2.358  -4.659  1.00  0.00    -0.310 N 
ATOM     21  C   UNL     1      -9.211   2.413  -3.524  1.00  0.00     0.069 C 
ATOM     22  C   UNL     1      -4.570   2.071  -6.066  1.00  0.00     0.226 C 
ATOM     23  H   UNL     1      -3.654   2.724  -4.270  1.00  0.00     0.171 HD
ATOM     24  C   UNL     1      -5.570   1.006  -6.452  1.00  0.00     0.113 C 
ATOM     25  O   UNL     1      -3.777   2.597  -6.811  1.00  0.00    -0.275 OA
BRANCH  15  26
ATOM     26  C   UNL     1      -5.128   1.390  -1.490  1.00  0.00     0.272 A 
ATOM     27  C   UNL     1      -3.298   0.343  -0.615  1.00  0.00     0.095 A 
ATOM     28  C   UNL     1      -4.112  -0.275   0.322  1.00  0.00     0.164 A 
ATOM     29  N   UNL     1      -3.801   1.151  -1.593  1.00  0.00    -0.208 NA
ATOM     30  N   UNL     1      -5.429  -0.050   0.348  1.00  0.00    -0.153 NA
ATOM     31  N   UNL     1      -5.930   0.829  -0.543  1.00  0.00    -0.109 NA
BRANCH  27  32
ATOM     32  C   UNL     1      -1.839   0.230  -0.504  1.00  0.00     0.002 A 
ATOM     33  C   UNL     1       2.446  -0.027   0.074  1.00  0.00     0.044 C 
ATOM     34  C   UNL     1       0.959   0.067  -0.104  1.00  0.00    -0.051 A 
ATOM     35  C   UNL     1       0.186  -1.095  -0.182  1.00  0.00     0.004 A 
ATOM     36  C   UNL     1       0.329   1.309  -0.210  1.00  0.00     0.004 A 
ATOM     37  C   UNL     1      -1.197  -1.015  -0.378  1.00  0.00     0.011 A 
ATOM     38  C   UNL     1      -1.052   1.388  -0.412  1.00  0.00     0.011 A 
ENDBRANCH  27  32
ENDBRANCH  15  26
ENDBRANCH   9  14
ENDBRANCH   5   8
ENDBRANCH   3   4
ENDBRANCH   2   3
ENDBRANCH   1   2
BRANCH   1  39
ATOM     39  C   UNL     1     -14.022   7.556  -5.791  1.00  0.00     0.002 C 
BRANCH  39  40
ATOM     40  C   UNL     1     -14.203   7.174  -4.322  1.00  0.00     0.021 C 
BRANCH  40  41
ATOM     41  C   UNL     1     -14.011   8.333  -3.364  1.00  0.00     0.116 C 
BRANCH  41  42
ATOM     42  N   UNL     1     -15.198   9.139  -3.116  1.00  0.00    -0.352 N 
ATOM     43  C   UNL     1     -15.393   9.835  -1.923  1.00  0.00     0.251 C 
ATOM     44  H   UNL     1     -15.888   9.195  -3.816  1.00  0.00     0.163 HD
ATOM     45  O   UNL     1     -16.390   9.722  -1.224  1.00  0.00    -0.269 OA
BRANCH  43  46
ATOM     46  C   UNL     1     -14.343  10.828  -1.598  1.00  0.00     0.039 A 
ATOM     47  C   UNL     1     -14.660  12.190  -1.536  1.00  0.00     0.014 A 
ATOM     48  C   UNL     1     -13.020  10.406  -1.622  1.00  0.00     0.014 A 
ATOM     49  C   UNL     1     -13.646  13.128  -1.707  1.00  0.00     0.010 A 
ATOM     50  C   UNL     1     -12.059  11.304  -1.978  1.00  0.00     0.010 A 
ATOM     51  C   UNL     1     -12.378  12.659  -2.030  1.00  0.00    -0.014 A 
BRANCH  51  52
ATOM     52  C   UNL     1     -11.220  13.464  -2.333  1.00  0.00     0.031 A 
ATOM     53  C   UNL     1     -10.282  13.703  -1.211  1.00  0.00     0.074 A 
ATOM     54  C   UNL     1     -10.930  13.664  -3.640  1.00  0.00     0.049 A 
ATOM     55  N   UNL     1      -9.413  14.646  -1.182  1.00  0.00    -0.248 NA
ATOM     56  C   UNL     1     -10.271  12.898   0.022  1.00  0.00     0.031 C 
ATOM     57  C   UNL     1      -9.648  14.047  -4.218  1.00  0.00     0.029 A 
ATOM     58  N   UNL     1     -11.796  13.693  -4.739  1.00  0.00    -0.354 N 
ATOM     59  C   UNL     1      -8.531  14.354  -0.160  1.00  0.00     0.074 A 
ATOM     60  C   UNL     1      -9.176  13.350   0.643  1.00  0.00     0.031 C 
ATOM     61  C   UNL     1      -9.866  14.579  -5.436  1.00  0.00     0.029 A 
ATOM     62  C   UNL     1     -11.310  14.698  -5.590  1.00  0.00     0.049 A 
ATOM     63  H   UNL     1     -12.585  13.123  -4.886  1.00  0.00     0.167 HD
ATOM     64  C   UNL     1      -7.268  14.853  -0.232  1.00  0.00     0.031 A 
ATOM     65  C   UNL     1     -11.970  15.880  -5.809  1.00  0.00     0.031 A 
ATOM     66  C   UNL     1      -7.129  15.651  -1.442  1.00  0.00     0.049 A 
ATOM     67  C   UNL     1     -11.157  17.060  -5.317  1.00  0.00     0.074 A 
ATOM     68  C   UNL     1      -6.635  15.329  -2.694  1.00  0.00     0.029 A 
ATOM     69  N   UNL     1      -7.870  16.812  -1.579  1.00  0.00    -0.354 N 
ATOM     70  N   UNL     1     -10.297  16.981  -4.338  1.00  0.00    -0.248 NA
ATOM     71  C   UNL     1     -11.222  18.398  -5.898  1.00  0.00     0.031 C 
ATOM     72  C   UNL     1      -7.147  16.279  -3.610  1.00  0.00     0.029 A 
ATOM     73  C   UNL     1      -7.931  17.178  -2.907  1.00  0.00     0.049 A 
ATOM     74  H   UNL     1      -8.293  17.303  -0.838  1.00  0.00     0.167 HD
ATOM     75  C   UNL     1      -9.664  18.187  -4.192  1.00  0.00     0.074 A 
ATOM     76  C   UNL     1     -10.297  19.051  -5.171  1.00  0.00     0.031 C 
ATOM     77  C   UNL     1      -8.646  18.377  -3.304  1.00  0.00     0.031 A 
BRANCH  64  78
ATOM     78  C   UNL     1      -6.068  14.408   0.566  1.00  0.00    -0.014 A 
ATOM     79  C   UNL     1      -4.790  14.683   0.027  1.00  0.00     0.010 A 
ATOM     80  C   UNL     1      -6.092  13.725   1.795  1.00  0.00     0.010 A 
ATOM     81  C   UNL     1      -3.608  14.259   0.635  1.00  0.00     0.020 A 
ATOM     82  C   UNL     1      -4.906  13.287   2.419  1.00  0.00     0.020 A 
ATOM     83  C   UNL     1      -3.672  13.552   1.827  1.00  0.00     0.054 A 
BRANCH  83  84
ATOM     84  S   UNL     1      -2.115  13.014   2.578  1.00  0.00     0.124 S 
ATOM     85  O   UNL     1      -1.561  12.136   1.549  1.00  0.00    -0.237 OA
ATOM     86  O   UNL     1      -1.408  14.276   2.775  1.00  0.00    -0.237 OA
ATOM     87  O   UNL     1      -2.536  12.338   3.803  1.00  0.00    -0.744 OA
ENDBRANCH  83  84
ENDBRANCH  64  78
BRANCH  65  88
ATOM     88  C   UNL     1     -13.457  15.775  -5.702  1.00  0.00    -0.014 A 
ATOM     89  C   UNL     1     -14.126  15.077  -6.730  1.00  0.00     0.010 A 
ATOM     90  C   UNL     1     -14.075  15.890  -4.444  1.00  0.00     0.010 A 
ATOM     91  C   UNL     1     -15.257  14.309  -6.441  1.00  0.00     0.020 A 
ATOM     92  C   UNL     1     -15.218  15.128  -4.157  1.00  0.00     0.020 A 
ATOM     93  C   UNL     1     -15.739  14.273  -5.133  1.00  0.00     0.054 A 
BRANCH  93  94
ATOM     94  S   UNL     1     -16.893  12.939  -4.682  1.00  0.00     0.124 S 
ATOM     95  O   UNL     1     -17.973  13.120  -5.646  1.00  0.00    -0.237 OA
ATOM     96  O   UNL     1     -16.068  11.742  -4.873  1.00  0.00    -0.237 OA
ATOM     97  O   UNL     1     -17.231  13.243  -3.296  1.00  0.00    -0.744 OA
ENDBRANCH  93  94
ENDBRANCH  65  88
BRANCH  77  98
ATOM     98  C   UNL     1      -8.131  19.704  -2.809  1.00  0.00    -0.014 A 
ATOM     99  C   UNL     1      -8.823  20.912  -2.962  1.00  0.00     0.010 A 
ATOM    100  C   UNL     1      -6.947  19.739  -2.027  1.00  0.00     0.010 A 
ATOM    101  C   UNL     1      -8.309  22.109  -2.451  1.00  0.00     0.020 A 
ATOM    102  C   UNL     1      -6.461  20.913  -1.455  1.00  0.00     0.020 A 
ATOM    103  C   UNL     1      -7.126  22.103  -1.711  1.00  0.00     0.054 A 
BRANCH 103 104
ATOM    104  S   UNL     1      -6.475  23.662  -1.075  1.00  0.00     0.124 S 
ATOM    105  O   UNL     1      -5.849  24.227  -2.267  1.00  0.00    -0.237 OA
ATOM    106  O   UNL     1      -7.679  24.347  -0.613  1.00  0.00    -0.237 OA
ATOM    107  O   UNL     1      -5.555  23.249  -0.019  1.00  0.00    -0.744 OA
ENDBRANCH 103 104
ENDBRANCH  77  98
ENDBRANCH  51  52
ENDBRANCH  43  46
ENDBRANCH  41  42
ENDBRANCH  40  41
ENDBRANCH  39  40
ENDBRANCH   1  39
TORSDOF 19
