REMARK SMILES CC(C)CSc1cc2c(cc1Cl)C=C(C(=O)NCCCCCCNC(=O)c1ccc(-c3c4nc(c(-c5ccc(S(=O)(=O)[O-])cc5)c5ccc([nH]5)c(-c5ccc(S(=O)(=O)[O-])cc5)c5nc(c(-c6ccc(S(=O)(=O)[O-])cc6)c6ccc3[nH]6)C=C5)C=C4)cc1)[C@@H](C(F)(F)F)O2
REMARK SMILES IDX 20 1 19 2 18 3 17 4 15 5 16 6 14 8 6 9 7 10 11 11 8 12 10 13
REMARK SMILES IDX 12 14 9 15 92 16 13 17 87 18 5 19 4 20 2 21 1 22 3 23 88 24
REMARK SMILES IDX 89 25 90 26 91 27 21 28 22 29 23 30 24 31 25 32 26 34 27 35
REMARK SMILES IDX 28 36 86 37 29 38 85 39 30 40 31 41 32 42 79 43 33 44 84 45
REMARK SMILES IDX 78 46 80 47 34 48 83 49 77 50 76 51 35 53 65 54 46 55 64 56
REMARK SMILES IDX 47 57 50 58 63 59 81 60 48 61 49 62 62 64 82 65 51 66 36 67
REMARK SMILES IDX 37 68 45 69 38 70 44 71 39 72 40 73 41 74 42 75 43 76 66 77
REMARK SMILES IDX 67 78 75 79 68 80 74 81 69 82 70 83 71 84 72 85 73 86 52 87
REMARK SMILES IDX 53 88 61 89 54 90 60 91 55 92 56 93 57 94 58 95 59 96
REMARK H PARENT 17 7 24 33 80 52 50 63
REMARK Flexibility Score: inf
ROOT
ATOM      1  C   UNL     1       3.521   1.941  -9.229  1.00  0.00     0.002 C 
ENDROOT
BRANCH   1   2
ATOM      2  C   UNL     1       3.118   1.842  -7.756  1.00  0.00     0.021 C 
BRANCH   2   3
ATOM      3  C   UNL     1       1.699   1.338  -7.516  1.00  0.00     0.116 C 
BRANCH   3   4
ATOM      4  N   UNL     1       1.606  -0.110  -7.593  1.00  0.00    -0.352 N 
ATOM      5  C   UNL     1       1.099  -1.109  -6.831  1.00  0.00     0.251 C 
ATOM      6  O   UNL     1       1.204  -2.243  -7.310  1.00  0.00    -0.270 OA
ATOM      7  H   UNL     1       2.020  -0.457  -8.416  1.00  0.00     0.163 HD
BRANCH   5   8
ATOM      8  C   UNL     1       0.454  -0.935  -5.492  1.00  0.00     0.067 C 
ATOM      9  C   UNL     1      -1.180  -1.753  -0.773  1.00  0.00     0.030 A 
ATOM     10  C   UNL     1      -1.077  -0.638  -1.607  1.00  0.00     0.063 A 
ATOM     11  C   UNL     1      -0.925  -3.018  -1.340  1.00  0.00     0.055 A 
ATOM     12  C   UNL     1      -0.595  -0.756  -2.907  1.00  0.00     0.129 A 
ATOM     13  C   UNL     1      -0.484  -3.136  -2.668  1.00  0.00     0.033 A 
ATOM     14  Cl  UNL     1      -1.100  -4.492  -0.445  1.00  0.00    -0.083 Cl
ATOM     15  C   UNL     1      -0.280  -1.996  -3.446  1.00  0.00     0.019 A 
ATOM     16  O   UNL     1      -0.391   0.422  -3.552  1.00  0.00    -0.475 OA
ATOM     17  C   UNL     1       0.306  -2.067  -4.776  1.00  0.00     0.025 C 
ATOM     18  C   UNL     1      -0.032   0.384  -4.955  1.00  0.00     0.314 C 
BRANCH   9  19
ATOM     19  S   UNL     1      -1.574  -1.549   0.966  1.00  0.00    -0.124 SA
BRANCH  19  20
ATOM     20  C   UNL     1      -0.862   0.090   1.413  1.00  0.00     0.078 C 
BRANCH  20  21
ATOM     21  C   UNL     1       0.667   0.152   1.606  1.00  0.00    -0.007 C 
ATOM     22  C   UNL     1       1.484  -0.009   0.324  1.00  0.00     0.008 C 
ATOM     23  C   UNL     1       1.030   1.502   2.242  1.00  0.00     0.008 C 
ENDBRANCH  20  21
ENDBRANCH  19  20
ENDBRANCH   9  19
BRANCH  18  24
ATOM     24  C   UNL     1      -1.215   0.965  -5.744  1.00  0.00     0.429 C 
ATOM     25  F   UNL     1      -1.361   2.285  -5.470  1.00  0.00    -0.167 F 
ATOM     26  F   UNL     1      -1.058   0.865  -7.082  1.00  0.00    -0.167 F 
ATOM     27  F   UNL     1      -2.381   0.352  -5.434  1.00  0.00    -0.167 F 
ENDBRANCH  18  24
ENDBRANCH   5   8
ENDBRANCH   3   4
ENDBRANCH   2   3
ENDBRANCH   1   2
BRANCH   1  28
ATOM     28  C   UNL     1       2.602   2.789 -10.117  1.00  0.00     0.002 C 
BRANCH  28  29
ATOM     29  C   UNL     1       2.237   4.173  -9.576  1.00  0.00     0.021 C 
BRANCH  29  30
ATOM     30  C   UNL     1       3.420   5.077  -9.252  1.00  0.00     0.116 C 
BRANCH  30  31
ATOM     31  N   UNL     1       4.224   5.393 -10.421  1.00  0.00    -0.352 N 
ATOM     32  C   UNL     1       4.627   6.616 -10.900  1.00  0.00     0.251 C 
ATOM     33  H   UNL     1       4.524   4.616 -10.946  1.00  0.00     0.163 HD
ATOM     34  O   UNL     1       5.179   6.690 -11.996  1.00  0.00    -0.269 OA
BRANCH  32  35
ATOM     35  C   UNL     1       4.370   7.843 -10.113  1.00  0.00     0.039 A 
ATOM     36  C   UNL     1       4.584   7.867  -8.735  1.00  0.00     0.014 A 
ATOM     37  C   UNL     1       3.910   8.991 -10.767  1.00  0.00     0.014 A 
ATOM     38  C   UNL     1       4.187   8.974  -7.994  1.00  0.00     0.010 A 
ATOM     39  C   UNL     1       3.598  10.139 -10.029  1.00  0.00     0.010 A 
ATOM     40  C   UNL     1       3.694  10.127  -8.630  1.00  0.00    -0.014 A 
BRANCH  40  41
ATOM     41  C   UNL     1       3.328  11.305  -7.799  1.00  0.00     0.031 A 
ATOM     42  C   UNL     1       1.906  11.789  -7.710  1.00  0.00     0.074 A 
ATOM     43  C   UNL     1       4.285  11.888  -7.049  1.00  0.00     0.049 A 
ATOM     44  N   UNL     1       1.405  12.716  -6.933  1.00  0.00    -0.248 NA
ATOM     45  C   UNL     1       0.917  11.161  -8.601  1.00  0.00     0.031 C 
ATOM     46  C   UNL     1       5.701  11.509  -7.057  1.00  0.00     0.029 A 
ATOM     47  N   UNL     1       4.213  12.880  -6.103  1.00  0.00    -0.354 N 
ATOM     48  C   UNL     1       0.052  12.787  -7.242  1.00  0.00     0.074 A 
ATOM     49  C   UNL     1      -0.186  11.836  -8.306  1.00  0.00     0.031 C 
ATOM     50  C   UNL     1       6.343  12.192  -6.100  1.00  0.00     0.029 A 
ATOM     51  C   UNL     1       5.406  13.106  -5.455  1.00  0.00     0.049 A 
ATOM     52  H   UNL     1       3.389  13.381  -5.908  1.00  0.00     0.167 HD
ATOM     53  C   UNL     1      -0.906  13.561  -6.678  1.00  0.00     0.031 A 
ATOM     54  C   UNL     1       5.718  13.944  -4.447  1.00  0.00     0.031 A 
ATOM     55  C   UNL     1      -0.664  14.502  -5.614  1.00  0.00     0.049 A 
ATOM     56  C   UNL     1       4.643  14.808  -3.856  1.00  0.00     0.074 A 
ATOM     57  C   UNL     1      -1.579  15.312  -4.963  1.00  0.00     0.029 A 
ATOM     58  N   UNL     1       0.573  14.761  -5.043  1.00  0.00    -0.354 N 
ATOM     59  N   UNL     1       3.365  14.841  -4.149  1.00  0.00    -0.248 NA
ATOM     60  C   UNL     1       5.048  15.747  -2.803  1.00  0.00     0.031 C 
ATOM     61  C   UNL     1      -0.886  16.104  -4.043  1.00  0.00     0.029 A 
ATOM     62  C   UNL     1       0.450  15.740  -4.070  1.00  0.00     0.049 A 
ATOM     63  H   UNL     1       1.415  14.315  -5.292  1.00  0.00     0.167 HD
ATOM     64  C   UNL     1       2.813  15.812  -3.322  1.00  0.00     0.074 A 
ATOM     65  C   UNL     1       3.889  16.311  -2.489  1.00  0.00     0.031 C 
ATOM     66  C   UNL     1       1.533  16.255  -3.268  1.00  0.00     0.031 A 
BRANCH  53  67
ATOM     67  C   UNL     1      -2.320  13.432  -7.186  1.00  0.00    -0.014 A 
ATOM     68  C   UNL     1      -2.922  14.509  -7.864  1.00  0.00     0.010 A 
ATOM     69  C   UNL     1      -3.094  12.296  -6.888  1.00  0.00     0.010 A 
ATOM     70  C   UNL     1      -4.277  14.466  -8.207  1.00  0.00     0.020 A 
ATOM     71  C   UNL     1      -4.443  12.238  -7.253  1.00  0.00     0.020 A 
ATOM     72  C   UNL     1      -5.031  13.334  -7.889  1.00  0.00     0.054 A 
BRANCH  72  73
ATOM     73  S   UNL     1      -6.795  13.306  -8.316  1.00  0.00     0.124 S 
ATOM     74  O   UNL     1      -7.372  14.177  -7.297  1.00  0.00    -0.237 OA
ATOM     75  O   UNL     1      -6.803  13.835  -9.678  1.00  0.00    -0.237 OA
ATOM     76  O   UNL     1      -7.149  11.892  -8.206  1.00  0.00    -0.744 OA
ENDBRANCH  72  73
ENDBRANCH  53  67
BRANCH  54  77
ATOM     77  C   UNL     1       7.112  13.962  -3.927  1.00  0.00    -0.014 A 
ATOM     78  C   UNL     1       8.167  14.422  -4.738  1.00  0.00     0.010 A 
ATOM     79  C   UNL     1       7.407  13.428  -2.660  1.00  0.00     0.010 A 
ATOM     80  C   UNL     1       9.493  14.284  -4.323  1.00  0.00     0.020 A 
ATOM     81  C   UNL     1       8.733  13.319  -2.228  1.00  0.00     0.020 A 
ATOM     82  C   UNL     1       9.768  13.716  -3.077  1.00  0.00     0.054 A 
BRANCH  82  83
ATOM     83  S   UNL     1      11.499  13.483  -2.587  1.00  0.00     0.124 S 
ATOM     84  O   UNL     1      11.870  12.300  -3.359  1.00  0.00    -0.237 OA
ATOM     85  O   UNL     1      12.124  14.733  -3.012  1.00  0.00    -0.237 OA
ATOM     86  O   UNL     1      11.421  13.288  -1.142  1.00  0.00    -0.744 OA
ENDBRANCH  82  83
ENDBRANCH  54  77
BRANCH  66  87
ATOM     87  C   UNL     1       1.220  17.364  -2.299  1.00  0.00    -0.014 A 
ATOM     88  C   UNL     1       0.392  17.119  -1.188  1.00  0.00     0.010 A 
ATOM     89  C   UNL     1       1.678  18.673  -2.535  1.00  0.00     0.010 A 
ATOM     90  C   UNL     1       0.015  18.163  -0.340  1.00  0.00     0.020 A 
ATOM     91  C   UNL     1       1.329  19.715  -1.671  1.00  0.00     0.020 A 
ATOM     92  C   UNL     1       0.483  19.456  -0.590  1.00  0.00     0.054 A 
BRANCH  92  93
ATOM     93  S   UNL     1      -0.004  20.799   0.528  1.00  0.00     0.124 S 
ATOM     94  O   UNL     1      -1.353  21.109   0.066  1.00  0.00    -0.237 OA
ATOM     95  O   UNL     1       0.083  20.172   1.845  1.00  0.00    -0.237 OA
ATOM     96  O   UNL     1       0.997  21.834   0.274  1.00  0.00    -0.744 OA
ENDBRANCH  92  93
ENDBRANCH  66  87
ENDBRANCH  40  41
ENDBRANCH  32  35
ENDBRANCH  30  31
ENDBRANCH  29  30
ENDBRANCH  28  29
ENDBRANCH   1  28
TORSDOF 20
