REMARK SMILES C[C@@H](Sc1nc2ccccc2c(=O)n1N)C(=O)NCCCCCCNC(=O)c1ccc(-c2c3nc(c(-c4ccc(S(=O)(=O)[O-])cc4)c4ccc([nH]4)c(-c4ccc(S(=O)(=O)[O-])cc4)c4nc(c(-c5ccc(S(=O)(=O)[O-])cc5)c5ccc2[nH]5)C=C4)C=C3)cc1
REMARK SMILES IDX 21 1 20 2 19 3 18 4 16 5 17 6 2 8 1 9 3 10 4 11 5 12 14 13
REMARK SMILES IDX 6 14 12 15 7 16 11 17 13 18 8 19 10 20 9 21 15 22 22 25
REMARK SMILES IDX 23 26 24 27 25 28 26 29 27 31 28 32 29 33 87 34 30 35 86 36
REMARK SMILES IDX 31 37 32 38 33 39 80 40 34 41 85 42 79 43 81 44 35 45 84 46
REMARK SMILES IDX 78 47 77 48 36 50 66 51 47 52 65 53 48 54 51 55 64 56 82 57
REMARK SMILES IDX 49 58 50 59 63 61 83 62 52 63 37 64 38 65 46 66 39 67 45 68
REMARK SMILES IDX 40 69 41 70 42 71 43 72 44 73 67 74 68 75 76 76 69 77 75 78
REMARK SMILES IDX 70 79 71 80 72 81 73 82 74 83 53 84 54 85 62 86 55 87 61 88
REMARK SMILES IDX 56 89 57 90 58 91 59 92 60 93
REMARK H PARENT 18 7 15 23 15 24 25 30 81 49 51 60
REMARK Flexibility Score: inf
ROOT
ATOM      1  C   UNL     1      -3.052   1.352   2.491  1.00  0.00     0.002 C 
ENDROOT
BRANCH   1   2
ATOM      2  C   UNL     1      -1.542   1.234   2.251  1.00  0.00     0.021 C 
BRANCH   2   3
ATOM      3  C   UNL     1      -1.035  -0.205   2.240  1.00  0.00     0.116 C 
BRANCH   3   4
ATOM      4  N   UNL     1      -1.507  -0.904   1.059  1.00  0.00    -0.355 N 
ATOM      5  C   UNL     1      -0.818  -1.505   0.049  1.00  0.00     0.233 C 
ATOM      6  O   UNL     1      -1.478  -2.022  -0.859  1.00  0.00    -0.274 OA
ATOM      7  H   UNL     1      -2.487  -0.951   0.973  1.00  0.00     0.163 HD
BRANCH   5   8
ATOM      8  C   UNL     1       0.712  -1.559   0.028  1.00  0.00     0.141 C 
ATOM      9  C   UNL     1       1.353  -0.181  -0.100  1.00  0.00     0.030 C 
BRANCH   8  10
ATOM     10  S   UNL     1       1.256  -2.597   1.434  1.00  0.00    -0.073 SA
BRANCH  10  11
ATOM     11  C   UNL     1       2.989  -2.419   1.371  1.00  0.00     0.191 A 
ATOM     12  N   UNL     1       3.548  -1.784   2.348  1.00  0.00    -0.222 NA
ATOM     13  N   UNL     1       3.689  -3.034   0.339  1.00  0.00    -0.202 N 
ATOM     14  C   UNL     1       4.948  -1.733   2.388  1.00  0.00     0.079 A 
ATOM     15  C   UNL     1       5.084  -3.039   0.308  1.00  0.00     0.280 A 
ATOM     16  C   UNL     1       5.565  -1.093   3.465  1.00  0.00     0.029 A 
ATOM     17  C   UNL     1       5.752  -2.338   1.420  1.00  0.00     0.068 A 
ATOM     18  O   UNL     1       5.740  -3.614  -0.560  1.00  0.00    -0.267 OA
ATOM     19  C   UNL     1       6.959  -1.060   3.571  1.00  0.00     0.002 A 
ATOM     20  C   UNL     1       7.148  -2.308   1.514  1.00  0.00     0.016 A 
ATOM     21  C   UNL     1       7.750  -1.668   2.596  1.00  0.00     0.001 A 
BRANCH  13  22
ATOM     22  N   UNL     1       3.019  -3.717  -0.729  1.00  0.00    -0.334 N 
ATOM     23  H   UNL     1       2.035  -3.744  -0.756  1.00  0.00     0.178 HD
ATOM     24  H   UNL     1       3.543  -4.159  -1.436  1.00  0.00     0.178 HD
ENDBRANCH  13  22
ENDBRANCH  10  11
ENDBRANCH   8  10
ENDBRANCH   5   8
ENDBRANCH   3   4
ENDBRANCH   2   3
ENDBRANCH   1   2
BRANCH   1  25
ATOM     25  C   UNL     1      -3.547   0.717   3.795  1.00  0.00     0.002 C 
BRANCH  25  26
ATOM     26  C   UNL     1      -2.828   1.193   5.059  1.00  0.00     0.021 C 
BRANCH  26  27
ATOM     27  C   UNL     1      -2.887   2.698   5.289  1.00  0.00     0.116 C 
BRANCH  27  28
ATOM     28  N   UNL     1      -4.252   3.165   5.472  1.00  0.00    -0.352 N 
ATOM     29  C   UNL     1      -4.771   3.939   6.476  1.00  0.00     0.251 C 
ATOM     30  H   UNL     1      -4.891   2.886   4.778  1.00  0.00     0.163 HD
ATOM     31  O   UNL     1      -5.992   4.064   6.583  1.00  0.00    -0.269 OA
BRANCH  29  32
ATOM     32  C   UNL     1      -3.869   4.611   7.434  1.00  0.00     0.039 A 
ATOM     33  C   UNL     1      -4.199   4.605   8.791  1.00  0.00     0.014 A 
ATOM     34  C   UNL     1      -2.712   5.262   6.995  1.00  0.00     0.014 A 
ATOM     35  C   UNL     1      -3.348   5.219   9.712  1.00  0.00     0.010 A 
ATOM     36  C   UNL     1      -1.827   5.806   7.922  1.00  0.00     0.010 A 
ATOM     37  C   UNL     1      -2.144   5.806   9.288  1.00  0.00    -0.014 A 
BRANCH  37  38
ATOM     38  C   UNL     1      -1.225   6.456  10.258  1.00  0.00     0.031 A 
ATOM     39  C   UNL     1      -0.960   7.936  10.168  1.00  0.00     0.074 A 
ATOM     40  C   UNL     1      -0.605   5.713  11.197  1.00  0.00     0.049 A 
ATOM     41  N   UNL     1      -0.160   8.677  10.891  1.00  0.00    -0.248 NA
ATOM     42  C   UNL     1      -1.670   8.678   9.111  1.00  0.00     0.031 C 
ATOM     43  C   UNL     1      -0.749   4.265  11.364  1.00  0.00     0.029 A 
ATOM     44  N   UNL     1       0.274   6.075  12.186  1.00  0.00    -0.354 N 
ATOM     45  C   UNL     1      -0.269   9.964  10.379  1.00  0.00     0.074 A 
ATOM     46  C   UNL     1      -1.160   9.893   9.242  1.00  0.00     0.031 C 
ATOM     47  C   UNL     1      -0.003   3.867  12.408  1.00  0.00     0.029 A 
ATOM     48  C   UNL     1       0.699   5.021  12.960  1.00  0.00     0.049 A 
ATOM     49  H   UNL     1       0.573   7.002  12.329  1.00  0.00     0.167 HD
ATOM     50  C   UNL     1       0.294  11.110  10.831  1.00  0.00     0.031 A 
ATOM     51  C   UNL     1       1.562   4.986  13.995  1.00  0.00     0.031 A 
ATOM     52  C   UNL     1       1.176  11.181  11.965  1.00  0.00     0.049 A 
ATOM     53  C   UNL     1       2.189   6.271  14.467  1.00  0.00     0.074 A 
ATOM     54  C   UNL     1       1.787  12.296  12.513  1.00  0.00     0.029 A 
ATOM     55  N   UNL     1       1.566  10.094  12.732  1.00  0.00    -0.354 N 
ATOM     56  N   UNL     1       2.040   7.485  13.992  1.00  0.00    -0.248 NA
ATOM     57  C   UNL     1       3.083   6.184  15.630  1.00  0.00     0.031 C 
ATOM     58  C   UNL     1       2.578  11.877  13.588  1.00  0.00     0.029 A 
ATOM     59  C   UNL     1       2.411  10.511  13.747  1.00  0.00     0.049 A 
ATOM     60  H   UNL     1       1.283   9.164  12.579  1.00  0.00     0.167 HD
ATOM     61  C   UNL     1       2.791   8.310  14.824  1.00  0.00     0.074 A 
ATOM     62  C   UNL     1       3.378   7.459  15.838  1.00  0.00     0.031 C 
ATOM     63  C   UNL     1       2.977   9.652  14.756  1.00  0.00     0.031 A 
BRANCH  50  64
ATOM     64  C   UNL     1      -0.043  12.386  10.103  1.00  0.00    -0.014 A 
ATOM     65  C   UNL     1      -1.336  12.937  10.180  1.00  0.00     0.010 A 
ATOM     66  C   UNL     1       0.947  13.068   9.374  1.00  0.00     0.010 A 
ATOM     67  C   UNL     1      -1.641  14.126   9.513  1.00  0.00     0.020 A 
ATOM     68  C   UNL     1       0.654  14.275   8.731  1.00  0.00     0.020 A 
ATOM     69  C   UNL     1      -0.643  14.788   8.793  1.00  0.00     0.054 A 
BRANCH  69  70
ATOM     70  S   UNL     1      -1.060  16.349   7.970  1.00  0.00     0.124 S 
ATOM     71  O   UNL     1      -1.901  15.892   6.866  1.00  0.00    -0.237 OA
ATOM     72  O   UNL     1      -1.753  17.090   9.021  1.00  0.00    -0.237 OA
ATOM     73  O   UNL     1       0.238  16.894   7.579  1.00  0.00    -0.744 OA
ENDBRANCH  69  70
ENDBRANCH  50  64
BRANCH  51  74
ATOM     74  C   UNL     1       1.886   3.693  14.659  1.00  0.00    -0.014 A 
ATOM     75  C   UNL     1       1.479   3.440  15.982  1.00  0.00     0.010 A 
ATOM     76  C   UNL     1       2.629   2.713  13.976  1.00  0.00     0.010 A 
ATOM     77  C   UNL     1       1.847   2.252  16.622  1.00  0.00     0.020 A 
ATOM     78  C   UNL     1       2.969   1.510  14.601  1.00  0.00     0.020 A 
ATOM     79  C   UNL     1       2.594   1.297  15.928  1.00  0.00     0.054 A 
BRANCH  79  80
ATOM     80  S   UNL     1       3.052  -0.242  16.773  1.00  0.00     0.124 S 
ATOM     81  O   UNL     1       4.101   0.212  17.680  1.00  0.00    -0.237 OA
ATOM     82  O   UNL     1       1.797  -0.642  17.405  1.00  0.00    -0.237 OA
ATOM     83  O   UNL     1       3.497  -1.109  15.684  1.00  0.00    -0.744 OA
ENDBRANCH  79  80
ENDBRANCH  51  74
BRANCH  63  84
ATOM     84  C   UNL     1       3.799  10.293  15.843  1.00  0.00    -0.014 A 
ATOM     85  C   UNL     1       5.188  10.095  15.931  1.00  0.00     0.010 A 
ATOM     86  C   UNL     1       3.168  11.138  16.775  1.00  0.00     0.010 A 
ATOM     87  C   UNL     1       5.923  10.692  16.959  1.00  0.00     0.020 A 
ATOM     88  C   UNL     1       3.903  11.762  17.784  1.00  0.00     0.020 A 
ATOM     89  C   UNL     1       5.274  11.519  17.882  1.00  0.00     0.054 A 
BRANCH  89  90
ATOM     90  S   UNL     1       6.253  12.300  19.194  1.00  0.00     0.124 S 
ATOM     91  O   UNL     1       6.519  11.174  20.084  1.00  0.00    -0.237 OA
ATOM     92  O   UNL     1       7.411  12.815  18.467  1.00  0.00    -0.237 OA
ATOM     93  O   UNL     1       5.358  13.322  19.732  1.00  0.00    -0.744 OA
ENDBRANCH  89  90
ENDBRANCH  63  84
ENDBRANCH  37  38
ENDBRANCH  29  32
ENDBRANCH  27  28
ENDBRANCH  26  27
ENDBRANCH  25  26
ENDBRANCH   1  25
TORSDOF 19
