REMARK SMILES Cc1cc(C(=O)NCCCCCCNC(=O)c2ccc(-c3c4nc(c(-c5ccc(S(=O)(=O)[O-])cc5)c5ccc([nH]5)c(-c5ccc(S(=O)(=O)[O-])cc5)c5nc(c(-c6ccc(S(=O)(=O)[O-])cc6)c6ccc3[nH]6)C=C5)C=C4)cc2)nc(N2CCN(c3ccccc3Cl)CC2)n1
REMARK SMILES IDX 11 1 10 2 9 3 8 4 7 5 5 6 6 7 4 9 1 10 2 11 3 12 92 13 78 14
REMARK SMILES IDX 77 15 79 16 80 17 91 18 81 19 90 20 82 21 83 22 84 23 88 24
REMARK SMILES IDX 85 25 87 26 89 27 86 28 12 29 13 30 14 31 15 32 16 34 17 35
REMARK SMILES IDX 18 36 76 37 19 38 75 39 20 40 21 41 22 42 69 43 23 44 74 45
REMARK SMILES IDX 68 46 70 47 24 48 73 49 67 50 66 51 25 53 55 54 36 55 54 56
REMARK SMILES IDX 37 57 40 58 53 59 71 60 38 61 39 62 52 64 72 65 41 66 26 67
REMARK SMILES IDX 27 68 35 69 28 70 34 71 29 72 30 73 31 74 32 75 33 76 56 77
REMARK SMILES IDX 57 78 65 79 58 80 64 81 59 82 60 83 61 84 62 85 63 86 42 87
REMARK SMILES IDX 43 88 51 89 44 90 50 91 45 92 46 93 47 94 48 95 49 96
REMARK H PARENT 7 8 14 33 70 52 40 63
REMARK Flexibility Score: inf
ROOT
ATOM      1  C   UNL     1      -0.123  -7.080  -0.017  1.00  0.00     0.002 C 
ENDROOT
BRANCH   1   2
ATOM      2  C   UNL     1       0.254  -6.077  -1.116  1.00  0.00     0.002 C 
BRANCH   2   3
ATOM      3  C   UNL     1      -0.367  -4.684  -0.940  1.00  0.00     0.021 C 
BRANCH   3   4
ATOM      4  C   UNL     1       0.081  -4.009   0.356  1.00  0.00     0.116 C 
BRANCH   4   5
ATOM      5  N   UNL     1       1.396  -3.447   0.159  1.00  0.00    -0.351 N 
ATOM      6  C   UNL     1       1.831  -2.193  -0.178  1.00  0.00     0.270 C 
ATOM      7  O   UNL     1       3.036  -2.093  -0.431  1.00  0.00    -0.268 OA
ATOM      8  H   UNL     1       2.125  -4.094   0.295  1.00  0.00     0.163 HD
BRANCH   6   9
ATOM      9  C   UNL     1       0.962  -0.967  -0.180  1.00  0.00     0.133 A 
ATOM     10  C   UNL     1      -2.487   0.448  -0.074  1.00  0.00     0.067 C 
ATOM     11  C   UNL     1      -0.993   0.306  -0.075  1.00  0.00     0.044 A 
ATOM     12  C   UNL     1      -0.405  -0.924  -0.296  1.00  0.00     0.058 A 
ATOM     13  N   UNL     1      -0.273   1.431   0.118  1.00  0.00    -0.218 NA
ATOM     14  C   UNL     1       1.058   1.320   0.059  1.00  0.00     0.226 A 
ATOM     15  N   UNL     1       1.687   0.153  -0.043  1.00  0.00    -0.208 NA
BRANCH  14  16
ATOM     16  N   UNL     1       1.867   2.423   0.044  1.00  0.00    -0.337 N 
ATOM     17  C   UNL     1       1.432   3.684   0.631  1.00  0.00     0.141 C 
ATOM     18  C   UNL     1       2.700   2.519  -1.164  1.00  0.00     0.141 C 
ATOM     19  C   UNL     1       2.679   4.559   0.926  1.00  0.00     0.138 C 
ATOM     20  C   UNL     1       3.924   3.411  -0.906  1.00  0.00     0.138 C 
ATOM     21  N   UNL     1       3.508   4.675  -0.283  1.00  0.00    -0.367 N 
BRANCH  21  22
ATOM     22  C   UNL     1       4.034   5.877  -0.699  1.00  0.00     0.056 A 
ATOM     23  C   UNL     1       4.842   6.621   0.173  1.00  0.00     0.027 A 
ATOM     24  C   UNL     1       3.788   6.418  -1.979  1.00  0.00     0.064 A 
ATOM     25  C   UNL     1       5.388   7.850  -0.208  1.00  0.00     0.002 A 
ATOM     26  C   UNL     1       4.325   7.652  -2.359  1.00  0.00     0.023 A 
ATOM     27  Cl  UNL     1       2.747   5.635  -3.123  1.00  0.00    -0.082 Cl
ATOM     28  C   UNL     1       5.126   8.367  -1.474  1.00  0.00     0.002 A 
ENDBRANCH  21  22
ENDBRANCH  14  16
ENDBRANCH   6   9
ENDBRANCH   4   5
ENDBRANCH   3   4
ENDBRANCH   2   3
ENDBRANCH   1   2
BRANCH   1  29
ATOM     29  C   UNL     1      -1.629  -7.229   0.214  1.00  0.00     0.021 C 
BRANCH  29  30
ATOM     30  C   UNL     1      -2.390  -7.731  -1.008  1.00  0.00     0.116 C 
BRANCH  30  31
ATOM     31  N   UNL     1      -1.976  -9.077  -1.369  1.00  0.00    -0.352 N 
ATOM     32  C   UNL     1      -2.734 -10.217  -1.464  1.00  0.00     0.251 C 
ATOM     33  H   UNL     1      -1.019  -9.186  -1.575  1.00  0.00     0.163 HD
ATOM     34  O   UNL     1      -2.191 -11.314  -1.518  1.00  0.00    -0.269 OA
BRANCH  32  35
ATOM     35  C   UNL     1      -4.207 -10.109  -1.493  1.00  0.00     0.039 A 
ATOM     36  C   UNL     1      -4.969 -10.993  -0.727  1.00  0.00     0.014 A 
ATOM     37  C   UNL     1      -4.833  -9.142  -2.287  1.00  0.00     0.014 A 
ATOM     38  C   UNL     1      -6.360 -10.876  -0.720  1.00  0.00     0.010 A 
ATOM     39  C   UNL     1      -6.213  -8.980  -2.221  1.00  0.00     0.010 A 
ATOM     40  C   UNL     1      -6.991  -9.851  -1.444  1.00  0.00    -0.014 A 
BRANCH  40  41
ATOM     41  C   UNL     1      -8.464  -9.676  -1.406  1.00  0.00     0.031 A 
ATOM     42  C   UNL     1      -9.278  -9.849  -2.661  1.00  0.00     0.074 A 
ATOM     43  C   UNL     1      -9.061  -9.305  -0.256  1.00  0.00     0.049 A 
ATOM     44  N   UNL     1     -10.564  -9.687  -2.837  1.00  0.00    -0.248 NA
ATOM     45  C   UNL     1      -8.550 -10.231  -3.882  1.00  0.00     0.031 C 
ATOM     46  C   UNL     1      -8.375  -9.071   1.018  1.00  0.00     0.029 A 
ATOM     47  N   UNL     1     -10.380  -9.055   0.029  1.00  0.00    -0.354 N 
ATOM     48  C   UNL     1     -10.795  -9.927  -4.186  1.00  0.00     0.074 A 
ATOM     49  C   UNL     1      -9.511 -10.200  -4.793  1.00  0.00     0.031 C 
ATOM     50  C   UNL     1      -9.281  -8.741   1.952  1.00  0.00     0.029 A 
ATOM     51  C   UNL     1     -10.604  -8.696   1.338  1.00  0.00     0.049 A 
ATOM     52  H   UNL     1     -11.098  -9.125  -0.641  1.00  0.00     0.167 HD
ATOM     53  C   UNL     1     -11.972  -9.938  -4.856  1.00  0.00     0.031 A 
ATOM     54  C   UNL     1     -11.745  -8.362   1.971  1.00  0.00     0.031 A 
ATOM     55  C   UNL     1     -13.249  -9.681  -4.243  1.00  0.00     0.049 A 
ATOM     56  C   UNL     1     -13.038  -8.369   1.200  1.00  0.00     0.074 A 
ATOM     57  C   UNL     1     -14.505  -9.729  -4.822  1.00  0.00     0.029 A 
ATOM     58  N   UNL     1     -13.434  -9.327  -2.915  1.00  0.00    -0.354 N 
ATOM     59  N   UNL     1     -13.244  -8.667  -0.061  1.00  0.00    -0.248 NA
ATOM     60  C   UNL     1     -14.254  -8.006   1.941  1.00  0.00     0.031 C 
ATOM     61  C   UNL     1     -15.444  -9.347  -3.859  1.00  0.00     0.029 A 
ATOM     62  C   UNL     1     -14.780  -9.126  -2.663  1.00  0.00     0.049 A 
ATOM     63  H   UNL     1     -12.714  -9.233  -2.250  1.00  0.00     0.167 HD
ATOM     64  C   UNL     1     -14.616  -8.558  -0.255  1.00  0.00     0.074 A 
ATOM     65  C   UNL     1     -15.191  -8.181   1.020  1.00  0.00     0.031 C 
ATOM     66  C   UNL     1     -15.337  -8.754  -1.387  1.00  0.00     0.031 A 
BRANCH  53  67
ATOM     67  C   UNL     1     -11.937 -10.232  -6.333  1.00  0.00    -0.014 A 
ATOM     68  C   UNL     1     -11.622 -11.515  -6.814  1.00  0.00     0.010 A 
ATOM     69  C   UNL     1     -12.280  -9.223  -7.253  1.00  0.00     0.010 A 
ATOM     70  C   UNL     1     -11.616 -11.776  -8.187  1.00  0.00     0.020 A 
ATOM     71  C   UNL     1     -12.304  -9.487  -8.625  1.00  0.00     0.020 A 
ATOM     72  C   UNL     1     -11.957 -10.759  -9.084  1.00  0.00     0.054 A 
BRANCH  72  73
ATOM     73  S   UNL     1     -11.976 -11.137 -10.858  1.00  0.00     0.124 S 
ATOM     74  O   UNL     1     -10.551 -11.257 -11.155  1.00  0.00    -0.237 OA
ATOM     75  O   UNL     1     -12.736 -12.383 -10.911  1.00  0.00    -0.237 OA
ATOM     76  O   UNL     1     -12.640  -9.979 -11.453  1.00  0.00    -0.744 OA
ENDBRANCH  72  73
ENDBRANCH  53  67
BRANCH  54  77
ATOM     77  C   UNL     1     -11.721  -8.002   3.416  1.00  0.00    -0.014 A 
ATOM     78  C   UNL     1     -12.306  -8.850   4.373  1.00  0.00     0.010 A 
ATOM     79  C   UNL     1     -11.113  -6.807   3.842  1.00  0.00     0.010 A 
ATOM     80  C   UNL     1     -12.309  -8.496   5.726  1.00  0.00     0.020 A 
ATOM     81  C   UNL     1     -11.086  -6.465   5.197  1.00  0.00     0.020 A 
ATOM     82  C   UNL     1     -11.698  -7.306   6.129  1.00  0.00     0.054 A 
BRANCH  82  83
ATOM     83  S   UNL     1     -11.682  -6.885   7.894  1.00  0.00     0.124 S 
ATOM     84  O   UNL     1     -13.071  -6.503   8.127  1.00  0.00    -0.237 OA
ATOM     85  O   UNL     1     -11.255  -8.137   8.512  1.00  0.00    -0.237 OA
ATOM     86  O   UNL     1     -10.710  -5.796   7.975  1.00  0.00    -0.744 OA
ENDBRANCH  82  83
ENDBRANCH  54  77
BRANCH  66  87
ATOM     87  C   UNL     1     -16.832  -8.605  -1.293  1.00  0.00    -0.014 A 
ATOM     88  C   UNL     1     -17.434  -7.345  -1.134  1.00  0.00     0.010 A 
ATOM     89  C   UNL     1     -17.649  -9.744  -1.422  1.00  0.00     0.010 A 
ATOM     90  C   UNL     1     -18.825  -7.230  -1.074  1.00  0.00     0.020 A 
ATOM     91  C   UNL     1     -19.041  -9.630  -1.394  1.00  0.00     0.020 A 
ATOM     92  C   UNL     1     -19.620  -8.373  -1.205  1.00  0.00     0.054 A 
BRANCH  92  93
ATOM     93  S   UNL     1     -21.424  -8.191  -1.169  1.00  0.00     0.124 S 
ATOM     94  O   UNL     1     -21.673  -7.916   0.244  1.00  0.00    -0.237 OA
ATOM     95  O   UNL     1     -21.650  -7.069  -2.077  1.00  0.00    -0.237 OA
ATOM     96  O   UNL     1     -21.913  -9.482  -1.648  1.00  0.00    -0.744 OA
ENDBRANCH  92  93
ENDBRANCH  66  87
ENDBRANCH  40  41
ENDBRANCH  32  35
ENDBRANCH  30  31
ENDBRANCH  29  30
ENDBRANCH   1  29
TORSDOF 18
