REMARK SMILES O=C(CCC1CC[NH+]([C@H]2CCO[C@@]3(CCSC3)C2)CC1)NCCCCCCNC(=O)c1ccc(-c2c3nc(c(-c4ccc(S(=O)(=O)[O-])cc4)c4ccc([nH]4)c(-c4ccc(S(=O)(=O)[O-])cc4)c4nc(c(-c5ccc(S(=O)(=O)[O-])cc5)c5ccc2[nH]5)C=C4)C=C3)cc1
REMARK SMILES IDX 24 1 23 2 22 3 21 4 1 5 2 6 3 8 4 9 5 10 6 11 20 12 7 13
REMARK SMILES IDX 19 14 8 15 9 17 10 18 18 19 11 20 13 21 12 22 14 23 17 24
REMARK SMILES IDX 15 25 16 26 25 27 26 28 27 29 28 30 29 31 30 33 31 34 32 35
REMARK SMILES IDX 90 36 33 37 89 38 34 39 35 40 36 41 83 42 37 43 88 44 82 45
REMARK SMILES IDX 84 46 38 47 87 48 81 49 80 50 39 52 69 53 50 54 68 55 51 56
REMARK SMILES IDX 54 57 67 58 85 59 52 60 53 61 66 63 86 64 55 65 40 66 41 67
REMARK SMILES IDX 49 68 42 69 48 70 43 71 44 72 45 73 46 74 47 75 70 76 71 77
REMARK SMILES IDX 79 78 72 79 78 80 73 81 74 82 75 83 76 84 77 85 56 86 57 87
REMARK SMILES IDX 65 88 58 89 64 90 59 91 60 92 61 93 62 94 63 95
REMARK H PARENT 21 7 8 16 28 32 84 51 54 62
REMARK Flexibility Score: inf
ROOT
ATOM      1  C   UNL     1       0.124   4.745  -4.561  1.00  0.00     0.002 C 
ENDROOT
BRANCH   1   2
ATOM      2  C   UNL     1       0.246   6.100  -5.275  1.00  0.00     0.021 C 
BRANCH   2   3
ATOM      3  C   UNL     1       1.579   6.329  -5.977  1.00  0.00     0.116 C 
BRANCH   3   4
ATOM      4  N   UNL     1       1.778   5.360  -7.032  1.00  0.00    -0.356 N 
ATOM      5  O   UNL     1       2.620   6.811  -8.602  1.00  0.00    -0.275 OA
ATOM      6  C   UNL     1       2.332   5.679  -8.246  1.00  0.00     0.220 C 
ATOM      7  H   UNL     1       1.504   4.428  -6.872  1.00  0.00     0.163 HD
BRANCH   6   8
ATOM      8  C   UNL     1       2.586   4.468  -9.114  1.00  0.00     0.100 C 
BRANCH   8   9
ATOM      9  C   UNL     1       3.858   3.719  -8.689  1.00  0.00     0.014 C 
BRANCH   9  10
ATOM     10  C   UNL     1       3.577   2.483  -7.796  1.00  0.00     0.000 C 
ATOM     11  C   UNL     1       3.761   2.773  -6.287  1.00  0.00     0.065 C 
ATOM     12  C   UNL     1       4.417   1.284  -8.271  1.00  0.00     0.065 C 
ATOM     13  C   UNL     1       5.152   2.492  -5.706  1.00  0.00     0.262 C 
ATOM     14  C   UNL     1       5.806   1.263  -7.652  1.00  0.00     0.262 C 
ATOM     15  N   UNL     1       5.786   1.268  -6.190  1.00  0.00    -0.332 N 
ATOM     16  H   UNL     1       6.769   1.276  -5.919  1.00  0.00     0.348 HD
BRANCH  15  17
ATOM     17  C   UNL     1       5.441   0.021  -5.464  1.00  0.00     0.189 C 
ATOM     18  C   UNL     1       3.948  -0.308  -5.287  1.00  0.00     0.093 C 
ATOM     19  C   UNL     1       6.213  -1.193  -6.021  1.00  0.00     0.101 C 
ATOM     20  C   UNL     1       3.708  -1.687  -4.693  1.00  0.00     0.167 C 
ATOM     21  C   UNL     1       5.858  -2.523  -5.335  1.00  0.00     0.084 C 
ATOM     22  O   UNL     1       4.432  -2.694  -5.392  1.00  0.00    -0.374 OA
ATOM     23  C   UNL     1       6.465  -3.704  -6.115  1.00  0.00     0.047 C 
ATOM     24  C   UNL     1       6.385  -2.667  -3.894  1.00  0.00     0.105 C 
ATOM     25  C   UNL     1       7.931  -3.821  -5.747  1.00  0.00     0.072 C 
ATOM     26  S   UNL     1       7.977  -3.539  -3.966  1.00  0.00    -0.159 SA
ENDBRANCH  15  17
ENDBRANCH   9  10
ENDBRANCH   8   9
ENDBRANCH   6   8
ENDBRANCH   3   4
ENDBRANCH   2   3
ENDBRANCH   1   2
BRANCH   1  27
ATOM     27  C   UNL     1       1.129   4.504  -3.430  1.00  0.00     0.002 C 
BRANCH  27  28
ATOM     28  C   UNL     1       1.149   5.577  -2.341  1.00  0.00     0.021 C 
BRANCH  28  29
ATOM     29  C   UNL     1      -0.206   5.876  -1.710  1.00  0.00     0.116 C 
BRANCH  29  30
ATOM     30  N   UNL     1      -0.750   4.734  -0.993  1.00  0.00    -0.352 N 
ATOM     31  C   UNL     1      -1.271   4.684   0.278  1.00  0.00     0.251 C 
ATOM     32  H   UNL     1      -0.745   3.881  -1.485  1.00  0.00     0.163 HD
ATOM     33  O   UNL     1      -1.534   3.602   0.793  1.00  0.00    -0.269 OA
BRANCH  31  34
ATOM     34  C   UNL     1      -1.482   5.941   1.030  1.00  0.00     0.039 A 
ATOM     35  C   UNL     1      -1.051   6.018   2.356  1.00  0.00     0.014 A 
ATOM     36  C   UNL     1      -2.082   7.047   0.420  1.00  0.00     0.014 A 
ATOM     37  C   UNL     1      -1.164   7.225   3.050  1.00  0.00     0.010 A 
ATOM     38  C   UNL     1      -2.121   8.268   1.087  1.00  0.00     0.010 A 
ATOM     39  C   UNL     1      -1.665   8.371   2.410  1.00  0.00    -0.014 A 
BRANCH  39  40
ATOM     40  C   UNL     1      -1.712   9.684   3.105  1.00  0.00     0.031 A 
ATOM     41  C   UNL     1      -3.031  10.363   3.358  1.00  0.00     0.074 A 
ATOM     42  C   UNL     1      -0.561  10.294   3.455  1.00  0.00     0.049 A 
ATOM     43  N   UNL     1      -3.267  11.527   3.906  1.00  0.00    -0.248 NA
ATOM     44  C   UNL     1      -4.242   9.652   2.916  1.00  0.00     0.031 C 
ATOM     45  C   UNL     1       0.784   9.761   3.229  1.00  0.00     0.029 A 
ATOM     46  N   UNL     1      -0.338  11.501   4.071  1.00  0.00    -0.354 N 
ATOM     47  C   UNL     1      -4.646  11.695   3.863  1.00  0.00     0.074 A 
ATOM     48  C   UNL     1      -5.190  10.538   3.185  1.00  0.00     0.031 C 
ATOM     49  C   UNL     1       1.688  10.619   3.728  1.00  0.00     0.029 A 
ATOM     50  C   UNL     1       0.994  11.785   4.265  1.00  0.00     0.049 A 
ATOM     51  H   UNL     1      -1.064  12.106   4.349  1.00  0.00     0.167 HD
ATOM     52  C   UNL     1      -5.395  12.709   4.359  1.00  0.00     0.031 A 
ATOM     53  C   UNL     1       1.592  12.865   4.805  1.00  0.00     0.031 A 
ATOM     54  C   UNL     1      -4.850  13.857   5.034  1.00  0.00     0.049 A 
ATOM     55  C   UNL     1       0.741  13.990   5.328  1.00  0.00     0.074 A 
ATOM     56  C   UNL     1      -5.529  14.912   5.619  1.00  0.00     0.029 A 
ATOM     57  N   UNL     1      -3.497  14.107   5.209  1.00  0.00    -0.354 N 
ATOM     58  N   UNL     1      -0.567  14.096   5.340  1.00  0.00    -0.248 NA
ATOM     59  C   UNL     1       1.445  15.134   5.922  1.00  0.00     0.031 C 
ATOM     60  C   UNL     1      -4.585  15.830   6.091  1.00  0.00     0.029 A 
ATOM     61  C   UNL     1      -3.320  15.313   5.866  1.00  0.00     0.049 A 
ATOM     62  H   UNL     1      -2.770  13.514   4.910  1.00  0.00     0.167 HD
ATOM     63  C   UNL     1      -0.842  15.306   5.970  1.00  0.00     0.074 A 
ATOM     64  C   UNL     1       0.434  15.886   6.337  1.00  0.00     0.031 C 
ATOM     65  C   UNL     1      -2.043  15.882   6.224  1.00  0.00     0.031 A 
BRANCH  52  66
ATOM     66  C   UNL     1      -6.890  12.626   4.177  1.00  0.00    -0.014 A 
ATOM     67  C   UNL     1      -7.654  11.656   4.851  1.00  0.00     0.010 A 
ATOM     68  C   UNL     1      -7.546  13.555   3.349  1.00  0.00     0.010 A 
ATOM     69  C   UNL     1      -9.038  11.587   4.664  1.00  0.00     0.020 A 
ATOM     70  C   UNL     1      -8.934  13.511   3.185  1.00  0.00     0.020 A 
ATOM     71  C   UNL     1      -9.668  12.514   3.830  1.00  0.00     0.054 A 
BRANCH  71  72
ATOM     72  S   UNL     1     -11.467  12.411   3.621  1.00  0.00     0.124 S 
ATOM     73  O   UNL     1     -11.606  11.200   2.814  1.00  0.00    -0.237 OA
ATOM     74  O   UNL     1     -11.943  12.306   4.997  1.00  0.00    -0.237 OA
ATOM     75  O   UNL     1     -11.810  13.655   2.938  1.00  0.00    -0.744 OA
ENDBRANCH  71  72
ENDBRANCH  52  66
BRANCH  53  76
ATOM     76  C   UNL     1       3.078  12.927   4.889  1.00  0.00    -0.014 A 
ATOM     77  C   UNL     1       3.729  12.850   6.133  1.00  0.00     0.010 A 
ATOM     78  C   UNL     1       3.853  13.046   3.720  1.00  0.00     0.010 A 
ATOM     79  C   UNL     1       5.124  12.909   6.208  1.00  0.00     0.020 A 
ATOM     80  C   UNL     1       5.248  13.074   3.788  1.00  0.00     0.020 A 
ATOM     81  C   UNL     1       5.875  13.016   5.034  1.00  0.00     0.054 A 
BRANCH  81  82
ATOM     82  S   UNL     1       7.686  13.034   5.153  1.00  0.00     0.124 S 
ATOM     83  O   UNL     1       7.939  14.353   5.724  1.00  0.00    -0.237 OA
ATOM     84  O   UNL     1       7.954  11.900   6.034  1.00  0.00    -0.237 OA
ATOM     85  O   UNL     1       8.121  12.855   3.770  1.00  0.00    -0.744 OA
ENDBRANCH  81  82
ENDBRANCH  53  76
BRANCH  65  86
ATOM     86  C   UNL     1      -2.044  17.192   6.968  1.00  0.00    -0.014 A 
ATOM     87  C   UNL     1      -1.596  18.380   6.364  1.00  0.00     0.010 A 
ATOM     88  C   UNL     1      -2.558  17.242   8.278  1.00  0.00     0.010 A 
ATOM     89  C   UNL     1      -1.632  19.587   7.068  1.00  0.00     0.020 A 
ATOM     90  C   UNL     1      -2.626  18.452   8.972  1.00  0.00     0.020 A 
ATOM     91  C   UNL     1      -2.148  19.615   8.367  1.00  0.00     0.054 A 
BRANCH  91  92
ATOM     92  S   UNL     1      -2.226  21.203   9.241  1.00  0.00     0.124 S 
ATOM     93  O   UNL     1      -0.819  21.456   9.538  1.00  0.00    -0.237 OA
ATOM     94  O   UNL     1      -2.828  22.086   8.244  1.00  0.00    -0.237 OA
ATOM     95  O   UNL     1      -3.067  20.920  10.402  1.00  0.00    -0.744 OA
ENDBRANCH  91  92
ENDBRANCH  65  86
ENDBRANCH  39  40
ENDBRANCH  31  34
ENDBRANCH  29  30
ENDBRANCH  28  29
ENDBRANCH  27  28
ENDBRANCH   1  27
TORSDOF 19
