REMARK SMILES C[C@@H]1C[C@H]([NH3+])C[N@@H+](CCC(=O)NCCCCCCNC(=O)c2ccc(-c3c4nc(c(-c5ccc(S(=O)(=O)[O-])cc5)c5ccc([nH]5)c(-c5ccc(S(=O)(=O)[O-])cc5)c5nc(c(-c6ccc(S(=O)(=O)[O-])cc6)c6ccc3[nH]6)C=C5)C=C4)cc2)C1
REMARK SMILES IDX 15 1 14 2 13 3 12 4 10 5 11 6 9 8 8 9 7 10 1 11 2 12 3 13
REMARK SMILES IDX 82 14 4 15 6 16 5 18 16 22 17 23 18 24 19 25 20 26 21 28
REMARK SMILES IDX 22 29 23 30 81 31 24 32 80 33 25 34 26 35 27 36 74 37 28 38
REMARK SMILES IDX 79 39 73 40 75 41 29 42 78 43 72 44 71 45 30 47 60 48 41 49
REMARK SMILES IDX 59 50 42 51 45 52 58 53 76 54 43 55 44 56 57 58 77 59 46 60
REMARK SMILES IDX 31 61 32 62 40 63 33 64 39 65 34 66 35 67 36 68 37 69 38 70
REMARK SMILES IDX 61 71 62 72 70 73 63 74 69 75 64 76 65 77 66 78 67 79 68 80
REMARK SMILES IDX 47 81 48 82 56 83 49 84 55 85 50 86 51 87 52 88 53 89 54 90
REMARK H PARENT 12 7 7 17 5 19 5 20 5 21 19 27 75 46 45 57
REMARK Flexibility Score: inf
ROOT
ATOM      1  C   UNL     1       1.532  -1.115   4.122  1.00  0.00     0.002 C 
ENDROOT
BRANCH   1   2
ATOM      2  C   UNL     1       0.796   0.050   3.465  1.00  0.00     0.021 C 
BRANCH   2   3
ATOM      3  C   UNL     1      -0.287   0.748   4.297  1.00  0.00     0.116 C 
BRANCH   3   4
ATOM      4  N   UNL     1       0.011   2.173   4.415  1.00  0.00    -0.356 N 
ATOM      5  C   UNL     1      -0.427   3.253   3.706  1.00  0.00     0.225 C 
ATOM      6  O   UNL     1       0.161   4.326   3.868  1.00  0.00    -0.275 OA
ATOM      7  H   UNL     1       0.643   2.394   5.137  1.00  0.00     0.163 HD
BRANCH   5   8
ATOM      8  C   UNL     1      -1.646   3.168   2.814  1.00  0.00     0.161 C 
BRANCH   8   9
ATOM      9  C   UNL     1      -1.370   3.440   1.319  1.00  0.00     0.272 C 
BRANCH   9  10
ATOM     10  N   UNL     1      -1.242   2.290   0.388  1.00  0.00    -0.329 N 
ATOM     11  C   UNL     1       0.892   0.408  -1.614  1.00  0.00     0.014 C 
ATOM     12  C   UNL     1       0.322   0.318  -0.198  1.00  0.00     0.047 C 
ATOM     13  C   UNL     1      -0.913  -0.593  -0.125  1.00  0.00     0.080 C 
ATOM     14  C   UNL     1       0.101   1.704   0.451  1.00  0.00     0.265 C 
ATOM     15  C   UNL     1      -2.229   0.122  -0.422  1.00  0.00     0.237 C 
ATOM     16  C   UNL     1      -2.345   1.329   0.529  1.00  0.00     0.327 C 
ATOM     17  H   UNL     1      -1.340   2.638  -0.566  1.00  0.00     0.348 HD
BRANCH  15  18
ATOM     18  N   UNL     1      -2.316   0.521  -1.828  1.00  0.00    -0.350 N 
ATOM     19  H   UNL     1      -1.552   1.160  -2.048  1.00  0.00     0.344 HD
ATOM     20  H   UNL     1      -3.208   0.988  -1.995  1.00  0.00     0.344 HD
ATOM     21  H   UNL     1      -2.249  -0.306  -2.421  1.00  0.00     0.344 HD
ENDBRANCH  15  18
ENDBRANCH   9  10
ENDBRANCH   8   9
ENDBRANCH   5   8
ENDBRANCH   3   4
ENDBRANCH   2   3
ENDBRANCH   1   2
BRANCH   1  22
ATOM     22  C   UNL     1       0.761  -2.435   4.219  1.00  0.00     0.002 C 
BRANCH  22  23
ATOM     23  C   UNL     1       0.201  -3.023   2.915  1.00  0.00     0.021 C 
BRANCH  23  24
ATOM     24  C   UNL     1       1.169  -3.148   1.734  1.00  0.00     0.116 C 
BRANCH  24  25
ATOM     25  N   UNL     1       2.255  -4.078   1.986  1.00  0.00    -0.352 N 
ATOM     26  C   UNL     1       2.512  -5.324   1.471  1.00  0.00     0.251 C 
ATOM     27  H   UNL     1       2.922  -3.760   2.637  1.00  0.00     0.163 HD
ATOM     28  O   UNL     1       3.425  -5.992   1.959  1.00  0.00    -0.269 OA
BRANCH  26  29
ATOM     29  C   UNL     1       1.708  -5.899   0.365  1.00  0.00     0.039 A 
ATOM     30  C   UNL     1       1.296  -7.233   0.468  1.00  0.00     0.014 A 
ATOM     31  C   UNL     1       1.423  -5.180  -0.799  1.00  0.00     0.014 A 
ATOM     32  C   UNL     1       0.552  -7.825  -0.559  1.00  0.00     0.010 A 
ATOM     33  C   UNL     1       0.643  -5.760  -1.808  1.00  0.00     0.010 A 
ATOM     34  C   UNL     1       0.193  -7.086  -1.696  1.00  0.00    -0.014 A 
BRANCH  34  35
ATOM     35  C   UNL     1      -0.669  -7.675  -2.759  1.00  0.00     0.031 A 
ATOM     36  C   UNL     1      -0.122  -7.938  -4.137  1.00  0.00     0.074 A 
ATOM     37  C   UNL     1      -1.970  -7.921  -2.504  1.00  0.00     0.049 A 
ATOM     38  N   UNL     1      -0.750  -8.358  -5.207  1.00  0.00    -0.248 NA
ATOM     39  C   UNL     1       1.312  -7.688  -4.341  1.00  0.00     0.031 C 
ATOM     40  C   UNL     1      -2.635  -7.707  -1.218  1.00  0.00     0.029 A 
ATOM     41  N   UNL     1      -2.970  -8.393  -3.320  1.00  0.00    -0.354 N 
ATOM     42  C   UNL     1       0.205  -8.403  -6.217  1.00  0.00     0.074 A 
ATOM     43  C   UNL     1       1.450  -7.945  -5.635  1.00  0.00     0.031 C 
ATOM     44  C   UNL     1      -3.929  -8.049  -1.330  1.00  0.00     0.029 A 
ATOM     45  C   UNL     1      -4.197  -8.467  -2.704  1.00  0.00     0.049 A 
ATOM     46  H   UNL     1      -2.822  -8.653  -4.258  1.00  0.00     0.167 HD
ATOM     47  C   UNL     1       0.063  -8.795  -7.507  1.00  0.00     0.031 A 
ATOM     48  C   UNL     1      -5.407  -8.811  -3.187  1.00  0.00     0.031 A 
ATOM     49  C   UNL     1      -1.171  -9.257  -8.089  1.00  0.00     0.049 A 
ATOM     50  C   UNL     1      -5.547  -9.212  -4.629  1.00  0.00     0.074 A 
ATOM     51  C   UNL     1      -1.395  -9.713  -9.378  1.00  0.00     0.029 A 
ATOM     52  N   UNL     1      -2.387  -9.318  -7.428  1.00  0.00    -0.354 N 
ATOM     53  N   UNL     1      -4.623  -9.287  -5.555  1.00  0.00    -0.248 NA
ATOM     54  C   UNL     1      -6.894  -9.582  -5.090  1.00  0.00     0.031 C 
ATOM     55  C   UNL     1      -2.757 -10.009  -9.508  1.00  0.00     0.029 A 
ATOM     56  C   UNL     1      -3.370  -9.785  -8.286  1.00  0.00     0.049 A 
ATOM     57  H   UNL     1      -2.532  -9.067  -6.487  1.00  0.00     0.167 HD
ATOM     58  C   UNL     1      -5.271  -9.736  -6.701  1.00  0.00     0.074 A 
ATOM     59  C   UNL     1      -6.663  -9.924  -6.351  1.00  0.00     0.031 C 
ATOM     60  C   UNL     1      -4.753  -9.975  -7.930  1.00  0.00     0.031 A 
BRANCH  47  61
ATOM     61  C   UNL     1       1.280  -8.727  -8.392  1.00  0.00    -0.014 A 
ATOM     62  C   UNL     1       2.333  -9.648  -8.250  1.00  0.00     0.010 A 
ATOM     63  C   UNL     1       1.349  -7.758  -9.409  1.00  0.00     0.010 A 
ATOM     64  C   UNL     1       3.454  -9.574  -9.082  1.00  0.00     0.020 A 
ATOM     65  C   UNL     1       2.458  -7.695 -10.259  1.00  0.00     0.020 A 
ATOM     66  C   UNL     1       3.513  -8.593 -10.076  1.00  0.00     0.054 A 
BRANCH  66  67
ATOM     67  S   UNL     1       4.973  -8.523 -11.150  1.00  0.00     0.124 S 
ATOM     68  O   UNL     1       5.969  -7.926 -10.262  1.00  0.00    -0.237 OA
ATOM     69  O   UNL     1       5.196  -9.930 -11.483  1.00  0.00    -0.237 OA
ATOM     70  O   UNL     1       4.547  -7.683 -12.263  1.00  0.00    -0.744 OA
ENDBRANCH  66  67
ENDBRANCH  47  61
BRANCH  48  71
ATOM     71  C   UNL     1      -6.594  -8.785  -2.290  1.00  0.00    -0.014 A 
ATOM     72  C   UNL     1      -7.177  -9.984  -1.845  1.00  0.00     0.010 A 
ATOM     73  C   UNL     1      -7.136  -7.559  -1.864  1.00  0.00     0.010 A 
ATOM     74  C   UNL     1      -8.289  -9.957  -0.998  1.00  0.00     0.020 A 
ATOM     75  C   UNL     1      -8.233  -7.529  -0.998  1.00  0.00     0.020 A 
ATOM     76  C   UNL     1      -8.809  -8.729  -0.578  1.00  0.00     0.054 A 
BRANCH  76  77
ATOM     77  S   UNL     1     -10.213  -8.717   0.571  1.00  0.00     0.124 S 
ATOM     78  O   UNL     1     -11.330  -9.039  -0.312  1.00  0.00    -0.237 OA
ATOM     79  O   UNL     1      -9.846  -9.753   1.533  1.00  0.00    -0.237 OA
ATOM     80  O   UNL     1     -10.205  -7.355   1.102  1.00  0.00    -0.744 OA
ENDBRANCH  76  77
ENDBRANCH  48  71
BRANCH  60  81
ATOM     81  C   UNL     1      -5.683 -10.504  -8.989  1.00  0.00    -0.014 A 
ATOM     82  C   UNL     1      -6.615  -9.667  -9.625  1.00  0.00     0.010 A 
ATOM     83  C   UNL     1      -5.570 -11.845  -9.403  1.00  0.00     0.010 A 
ATOM     84  C   UNL     1      -7.431 -10.165 -10.646  1.00  0.00     0.020 A 
ATOM     85  C   UNL     1      -6.369 -12.340 -10.437  1.00  0.00     0.020 A 
ATOM     86  C   UNL     1      -7.302 -11.499 -11.046  1.00  0.00     0.054 A 
BRANCH  86  87
ATOM     87  S   UNL     1      -8.326 -12.106 -12.416  1.00  0.00     0.124 S 
ATOM     88  O   UNL     1      -9.628 -12.267 -11.774  1.00  0.00    -0.237 OA
ATOM     89  O   UNL     1      -8.236 -11.022 -13.391  1.00  0.00    -0.237 OA
ATOM     90  O   UNL     1      -7.669 -13.349 -12.814  1.00  0.00    -0.744 OA
ENDBRANCH  86  87
ENDBRANCH  60  81
ENDBRANCH  34  35
ENDBRANCH  26  29
ENDBRANCH  24  25
ENDBRANCH  23  24
ENDBRANCH  22  23
ENDBRANCH   1  22
TORSDOF 19
