REMARK SMILES Cc1c(CC(=O)NCCCCCCNC(=O)c2ccc(-c3c4nc(c(-c5ccc(S(=O)(=O)[O-])cc5)c5ccc([nH]5)c(-c5ccc(S(=O)(=O)[O-])cc5)c5nc(c(-c6ccc(S(=O)(=O)[O-])cc6)c6ccc3[nH]6)C=C5)C=C4)cc2)cc(-c2ccccc2)cc1-c1ccccc1
REMARK SMILES IDX 11 1 10 2 9 3 8 4 7 5 5 6 6 7 4 9 3 10 1 11 2 12 86 13 77 14
REMARK SMILES IDX 85 15 78 16 87 17 88 18 92 19 89 20 91 21 90 22 79 23 80 24
REMARK SMILES IDX 84 25 81 26 83 27 82 28 12 29 13 30 14 31 15 32 16 34 17 35
REMARK SMILES IDX 18 36 76 37 19 38 75 39 20 40 21 41 22 42 69 43 23 44 74 45
REMARK SMILES IDX 68 46 70 47 24 48 73 49 67 50 66 51 25 53 55 54 36 55 54 56
REMARK SMILES IDX 37 57 40 58 53 59 71 60 38 61 39 62 52 64 72 65 41 66 26 67
REMARK SMILES IDX 27 68 35 69 28 70 34 71 29 72 30 73 31 74 32 75 33 76 56 77
REMARK SMILES IDX 57 78 65 79 58 80 64 81 59 82 60 83 61 84 62 85 63 86 42 87
REMARK SMILES IDX 43 88 51 89 44 90 50 91 45 92 46 93 47 94 48 95 49 96
REMARK H PARENT 7 8 14 33 70 52 40 63
REMARK Flexibility Score: inf
ROOT
ATOM      1  C   UNL     1       1.556  -1.629   5.938  1.00  0.00     0.002 C 
ENDROOT
BRANCH   1   2
ATOM      2  C   UNL     1       0.320  -1.360   5.062  1.00  0.00     0.002 C 
BRANCH   2   3
ATOM      3  C   UNL     1       0.583  -0.972   3.600  1.00  0.00     0.021 C 
BRANCH   3   4
ATOM      4  C   UNL     1       1.513  -1.918   2.841  1.00  0.00     0.116 C 
BRANCH   4   5
ATOM      5  N   UNL     1       0.829  -3.094   2.340  1.00  0.00    -0.356 N 
ATOM      6  C   UNL     1       0.560  -3.445   1.048  1.00  0.00     0.224 C 
ATOM      7  O   UNL     1      -0.016  -4.515   0.834  1.00  0.00    -0.275 OA
ATOM      8  H   UNL     1       0.515  -3.727   3.026  1.00  0.00     0.163 HD
BRANCH   6   9
ATOM      9  C   UNL     1       1.015  -2.557  -0.106  1.00  0.00     0.135 C 
BRANCH   9  10
ATOM     10  C   UNL     1       0.337  -1.199  -0.160  1.00  0.00    -0.035 A 
ATOM     11  C   UNL     1       2.551   0.045  -0.366  1.00  0.00     0.045 C 
ATOM     12  C   UNL     1       1.044   0.030  -0.234  1.00  0.00    -0.040 A 
ATOM     13  C   UNL     1       0.314   1.250  -0.230  1.00  0.00    -0.015 A 
ATOM     14  C   UNL     1      -1.073  -1.188  -0.145  1.00  0.00     0.013 A 
ATOM     15  C   UNL     1      -1.096   1.205  -0.191  1.00  0.00     0.017 A 
ATOM     16  C   UNL     1      -1.807   0.001  -0.163  1.00  0.00    -0.017 A 
BRANCH  13  17
ATOM     17  C   UNL     1       0.960   2.578  -0.230  1.00  0.00    -0.018 A 
ATOM     18  C   UNL     1       0.820   3.433   0.877  1.00  0.00     0.009 A 
ATOM     19  C   UNL     1       1.718   3.028  -1.323  1.00  0.00     0.009 A 
ATOM     20  C   UNL     1       1.430   4.689   0.897  1.00  0.00     0.001 A 
ATOM     21  C   UNL     1       2.341   4.279  -1.297  1.00  0.00     0.001 A 
ATOM     22  C   UNL     1       2.196   5.109  -0.187  1.00  0.00     0.000 A 
ENDBRANCH  13  17
BRANCH  16  23
ATOM     23  C   UNL     1      -3.278  -0.020  -0.161  1.00  0.00    -0.018 A 
ATOM     24  C   UNL     1      -3.993  -0.692   0.845  1.00  0.00     0.009 A 
ATOM     25  C   UNL     1      -4.008   0.619  -1.176  1.00  0.00     0.009 A 
ATOM     26  C   UNL     1      -5.390  -0.727   0.832  1.00  0.00     0.001 A 
ATOM     27  C   UNL     1      -5.405   0.582  -1.192  1.00  0.00     0.001 A 
ATOM     28  C   UNL     1      -6.095  -0.093  -0.188  1.00  0.00     0.000 A 
ENDBRANCH  16  23
ENDBRANCH   9  10
ENDBRANCH   6   9
ENDBRANCH   4   5
ENDBRANCH   3   4
ENDBRANCH   2   3
ENDBRANCH   1   2
BRANCH   1  29
ATOM     29  C   UNL     1       2.687  -0.601   5.852  1.00  0.00     0.021 C 
BRANCH  29  30
ATOM     30  C   UNL     1       2.348   0.738   6.494  1.00  0.00     0.116 C 
BRANCH  30  31
ATOM     31  N   UNL     1       3.126   1.005   7.697  1.00  0.00    -0.352 N 
ATOM     32  C   UNL     1       3.252   2.200   8.377  1.00  0.00     0.251 C 
ATOM     33  H   UNL     1       3.621   0.241   8.070  1.00  0.00     0.163 HD
ATOM     34  O   UNL     1       4.133   2.414   9.203  1.00  0.00    -0.269 OA
BRANCH  32  35
ATOM     35  C   UNL     1       2.155   3.172   8.216  1.00  0.00     0.039 A 
ATOM     36  C   UNL     1       1.325   3.358   9.329  1.00  0.00     0.014 A 
ATOM     37  C   UNL     1       1.785   3.619   6.950  1.00  0.00     0.014 A 
ATOM     38  C   UNL     1       0.029   3.815   9.134  1.00  0.00     0.010 A 
ATOM     39  C   UNL     1       0.470   3.982   6.744  1.00  0.00     0.010 A 
ATOM     40  C   UNL     1      -0.415   4.020   7.827  1.00  0.00    -0.014 A 
BRANCH  40  41
ATOM     41  C   UNL     1      -1.820   4.215   7.509  1.00  0.00     0.031 A 
ATOM     42  C   UNL     1      -2.333   5.591   7.369  1.00  0.00     0.074 A 
ATOM     43  C   UNL     1      -2.636   3.146   7.383  1.00  0.00     0.049 A 
ATOM     44  N   UNL     1      -3.545   5.956   7.618  1.00  0.00    -0.248 NA
ATOM     45  C   UNL     1      -1.453   6.698   7.010  1.00  0.00     0.031 C 
ATOM     46  C   UNL     1      -4.016   3.146   6.910  1.00  0.00     0.029 A 
ATOM     47  N   UNL     1      -2.450   1.861   7.903  1.00  0.00    -0.354 N 
ATOM     48  C   UNL     1      -3.672   7.262   7.198  1.00  0.00     0.074 A 
ATOM     49  C   UNL     1      -2.326   7.703   6.916  1.00  0.00     0.031 C 
ATOM     50  C   UNL     1      -4.639   2.075   7.429  1.00  0.00     0.029 A 
ATOM     51  C   UNL     1      -3.708   1.436   8.350  1.00  0.00     0.049 A 
ATOM     52  H   UNL     1      -1.605   1.357   7.947  1.00  0.00     0.167 HD
ATOM     53  C   UNL     1      -4.911   7.790   6.983  1.00  0.00     0.031 A 
ATOM     54  C   UNL     1      -3.983   1.115   9.646  1.00  0.00     0.031 A 
ATOM     55  C   UNL     1      -5.963   6.858   7.380  1.00  0.00     0.049 A 
ATOM     56  C   UNL     1      -5.089   1.968  10.227  1.00  0.00     0.074 A 
ATOM     57  C   UNL     1      -6.714   5.941   6.664  1.00  0.00     0.029 A 
ATOM     58  N   UNL     1      -6.124   6.538   8.724  1.00  0.00    -0.354 N 
ATOM     59  N   UNL     1      -5.458   3.120   9.733  1.00  0.00    -0.248 NA
ATOM     60  C   UNL     1      -5.851   1.600  11.417  1.00  0.00     0.031 C 
ATOM     61  C   UNL     1      -7.233   4.992   7.583  1.00  0.00     0.029 A 
ATOM     62  C   UNL     1      -6.838   5.362   8.858  1.00  0.00     0.049 A 
ATOM     63  H   UNL     1      -5.779   7.074   9.475  1.00  0.00     0.167 HD
ATOM     64  C   UNL     1      -6.492   3.625  10.477  1.00  0.00     0.074 A 
ATOM     65  C   UNL     1      -6.699   2.638  11.524  1.00  0.00     0.031 C 
ATOM     66  C   UNL     1      -7.111   4.803  10.175  1.00  0.00     0.031 A 
BRANCH  53  67
ATOM     67  C   UNL     1      -5.125   8.995   6.090  1.00  0.00    -0.014 A 
ATOM     68  C   UNL     1      -6.286   9.075   5.294  1.00  0.00     0.010 A 
ATOM     69  C   UNL     1      -4.183  10.027   5.915  1.00  0.00     0.010 A 
ATOM     70  C   UNL     1      -6.436  10.049   4.293  1.00  0.00     0.020 A 
ATOM     71  C   UNL     1      -4.295  10.977   4.888  1.00  0.00     0.020 A 
ATOM     72  C   UNL     1      -5.418  10.972   4.069  1.00  0.00     0.054 A 
BRANCH  72  73
ATOM     73  S   UNL     1      -5.566  12.145   2.695  1.00  0.00     0.124 S 
ATOM     74  O   UNL     1      -5.816  11.267   1.554  1.00  0.00    -0.237 OA
ATOM     75  O   UNL     1      -6.693  12.973   3.112  1.00  0.00    -0.237 OA
ATOM     76  O   UNL     1      -4.271  12.822   2.676  1.00  0.00    -0.744 OA
ENDBRANCH  72  73
ENDBRANCH  53  67
BRANCH  54  77
ATOM     77  C   UNL     1      -2.847   0.540  10.417  1.00  0.00    -0.014 A 
ATOM     78  C   UNL     1      -2.444  -0.777  10.109  1.00  0.00     0.010 A 
ATOM     79  C   UNL     1      -1.969   1.360  11.146  1.00  0.00     0.010 A 
ATOM     80  C   UNL     1      -1.151  -1.220  10.404  1.00  0.00     0.020 A 
ATOM     81  C   UNL     1      -0.667   0.920  11.438  1.00  0.00     0.020 A 
ATOM     82  C   UNL     1      -0.251  -0.346  11.014  1.00  0.00     0.054 A 
BRANCH  82  83
ATOM     83  S   UNL     1       1.490  -0.856  11.155  1.00  0.00     0.124 S 
ATOM     84  O   UNL     1       1.381  -2.202  11.711  1.00  0.00    -0.237 OA
ATOM     85  O   UNL     1       1.944  -0.788   9.766  1.00  0.00    -0.237 OA
ATOM     86  O   UNL     1       2.059   0.145  12.051  1.00  0.00    -0.744 OA
ENDBRANCH  82  83
ENDBRANCH  54  77
BRANCH  66  87
ATOM     87  C   UNL     1      -8.119   5.504  11.050  1.00  0.00    -0.014 A 
ATOM     88  C   UNL     1      -8.147   5.394  12.450  1.00  0.00     0.010 A 
ATOM     89  C   UNL     1      -9.004   6.437  10.459  1.00  0.00     0.010 A 
ATOM     90  C   UNL     1      -9.056   6.134  13.218  1.00  0.00     0.020 A 
ATOM     91  C   UNL     1      -9.884   7.211  11.219  1.00  0.00     0.020 A 
ATOM     92  C   UNL     1      -9.920   7.037  12.598  1.00  0.00     0.054 A 
BRANCH  92  93
ATOM     93  S   UNL     1     -11.037   8.049  13.601  1.00  0.00     0.124 S 
ATOM     94  O   UNL     1     -12.228   7.207  13.667  1.00  0.00    -0.237 OA
ATOM     95  O   UNL     1     -10.307   8.200  14.858  1.00  0.00    -0.237 OA
ATOM     96  O   UNL     1     -11.177   9.275  12.820  1.00  0.00    -0.744 OA
ENDBRANCH  92  93
ENDBRANCH  66  87
ENDBRANCH  40  41
ENDBRANCH  32  35
ENDBRANCH  30  31
ENDBRANCH  29  30
ENDBRANCH   1  29
TORSDOF 19
