REMARK SMILES O=C(NCCCCCCNC(=O)[C@@H]1CCC[N@@H+](Cc2nccn2C(F)F)C1)c1ccc(-c2c3nc(c(-c4ccc(S(=O)(=O)[O-])cc4)c4ccc([nH]4)c(-c4ccc(S(=O)(=O)[O-])cc4)c4nc(c(-c5ccc(S(=O)(=O)[O-])cc5)c5ccc2[nH]5)C=C4)C=C3)cc1
REMARK SMILES IDX 6 1 5 2 4 3 3 4 1 5 2 6 28 8 29 9 87 10 30 11 86 12 31 13
REMARK SMILES IDX 32 14 33 15 80 16 34 17 85 18 79 19 81 20 35 21 84 22 78 23
REMARK SMILES IDX 77 24 36 26 66 27 47 28 65 29 48 30 51 31 64 32 82 33 49 34
REMARK SMILES IDX 50 35 63 37 83 38 52 39 37 40 38 41 46 42 39 43 45 44 40 45
REMARK SMILES IDX 41 46 42 47 43 48 44 49 67 50 68 51 76 52 69 53 75 54 70 55
REMARK SMILES IDX 71 56 72 57 73 58 74 59 53 60 54 61 62 62 55 63 61 64 56 65
REMARK SMILES IDX 57 66 58 67 59 68 60 69 7 70 8 71 9 72 10 73 11 74 12 76
REMARK SMILES IDX 13 77 14 78 27 79 15 80 17 81 16 82 18 84 19 85 20 86 23 87
REMARK SMILES IDX 21 88 22 89 24 90 25 91 26 92
REMARK H PARENT 3 7 81 25 51 36 10 75 17 83
REMARK Flexibility Score: inf
ROOT
ATOM      1  C   UNL     1       3.915  -3.092  -1.651  1.00  0.00     0.002 C 
ENDROOT
BRANCH   1   2
ATOM      2  C   UNL     1       4.634  -2.221  -0.617  1.00  0.00     0.021 C 
BRANCH   2   3
ATOM      3  C   UNL     1       4.600  -0.723  -0.912  1.00  0.00     0.116 C 
BRANCH   3   4
ATOM      4  N   UNL     1       3.273  -0.193  -1.149  1.00  0.00    -0.352 N 
ATOM      5  O   UNL     1       1.248   0.651  -0.938  1.00  0.00    -0.269 OA
ATOM      6  C   UNL     1       2.216   0.154  -0.355  1.00  0.00     0.251 C 
ATOM      7  H   UNL     1       3.090  -0.049  -2.105  1.00  0.00     0.163 HD
BRANCH   6   8
ATOM      8  C   UNL     1       2.132  -0.077   1.113  1.00  0.00     0.039 A 
ATOM      9  C   UNL     1       3.191  -0.443   1.946  1.00  0.00     0.014 A 
ATOM     10  C   UNL     1       0.854   0.078   1.682  1.00  0.00     0.014 A 
ATOM     11  C   UNL     1       2.965  -0.738   3.288  1.00  0.00     0.010 A 
ATOM     12  C   UNL     1       0.626  -0.193   3.026  1.00  0.00     0.010 A 
ATOM     13  C   UNL     1       1.678  -0.635   3.821  1.00  0.00    -0.014 A 
BRANCH  13  14
ATOM     14  C   UNL     1       1.502  -0.855   5.254  1.00  0.00     0.031 A 
ATOM     15  C   UNL     1       2.149   0.165   6.128  1.00  0.00     0.074 A 
ATOM     16  C   UNL     1       0.682  -1.793   5.769  1.00  0.00     0.049 A 
ATOM     17  N   UNL     1       3.092  -0.002   6.998  1.00  0.00    -0.248 NA
ATOM     18  C   UNL     1       1.767   1.572   5.926  1.00  0.00     0.031 C 
ATOM     19  C   UNL     1      -0.254  -2.657   5.046  1.00  0.00     0.029 A 
ATOM     20  N   UNL     1       0.423  -2.083   7.077  1.00  0.00    -0.354 N 
ATOM     21  C   UNL     1       3.284   1.240   7.601  1.00  0.00     0.074 A 
ATOM     22  C   UNL     1       2.562   2.193   6.797  1.00  0.00     0.031 C 
ATOM     23  C   UNL     1      -1.135  -3.189   5.924  1.00  0.00     0.029 A 
ATOM     24  C   UNL     1      -0.744  -2.813   7.273  1.00  0.00     0.049 A 
ATOM     25  H   UNL     1       1.009  -1.800   7.815  1.00  0.00     0.167 HD
ATOM     26  C   UNL     1       3.831   1.369   8.843  1.00  0.00     0.031 A 
ATOM     27  C   UNL     1      -1.383  -3.029   8.451  1.00  0.00     0.031 A 
ATOM     28  C   UNL     1       4.502   0.166   9.262  1.00  0.00     0.049 A 
ATOM     29  C   UNL     1      -0.408  -2.786   9.540  1.00  0.00     0.074 A 
ATOM     30  C   UNL     1       5.557  -0.586   8.787  1.00  0.00     0.029 A 
ATOM     31  N   UNL     1       3.846  -0.632  10.169  1.00  0.00    -0.354 N 
ATOM     32  N   UNL     1       0.635  -3.537   9.756  1.00  0.00    -0.248 NA
ATOM     33  C   UNL     1      -0.357  -1.462  10.139  1.00  0.00     0.031 C 
ATOM     34  C   UNL     1       5.200  -1.937   9.067  1.00  0.00     0.029 A 
ATOM     35  C   UNL     1       3.978  -1.926   9.743  1.00  0.00     0.049 A 
ATOM     36  H   UNL     1       3.370  -0.329  10.976  1.00  0.00     0.167 HD
ATOM     37  C   UNL     1       1.635  -2.655  10.137  1.00  0.00     0.074 A 
ATOM     38  C   UNL     1       0.939  -1.410  10.457  1.00  0.00     0.031 C 
ATOM     39  C   UNL     1       2.950  -2.932   9.896  1.00  0.00     0.031 A 
BRANCH  26  40
ATOM     40  C   UNL     1       3.398   2.418   9.847  1.00  0.00    -0.014 A 
ATOM     41  C   UNL     1       4.002   2.420  11.124  1.00  0.00     0.010 A 
ATOM     42  C   UNL     1       2.223   3.183   9.700  1.00  0.00     0.010 A 
ATOM     43  C   UNL     1       3.390   3.045  12.219  1.00  0.00     0.020 A 
ATOM     44  C   UNL     1       1.632   3.851  10.774  1.00  0.00     0.020 A 
ATOM     45  C   UNL     1       2.193   3.735  12.038  1.00  0.00     0.054 A 
BRANCH  45  46
ATOM     46  S   UNL     1       1.325   4.398  13.480  1.00  0.00     0.124 S 
ATOM     47  O   UNL     1       0.922   3.178  14.171  1.00  0.00    -0.237 OA
ATOM     48  O   UNL     1       2.367   5.185  14.133  1.00  0.00    -0.237 OA
ATOM     49  O   UNL     1       0.236   5.178  12.893  1.00  0.00    -0.744 OA
ENDBRANCH  45  46
ENDBRANCH  26  40
BRANCH  27  50
ATOM     50  C   UNL     1      -2.846  -3.116   8.694  1.00  0.00    -0.014 A 
ATOM     51  C   UNL     1      -3.357  -3.585   9.919  1.00  0.00     0.010 A 
ATOM     52  C   UNL     1      -3.742  -2.470   7.817  1.00  0.00     0.010 A 
ATOM     53  C   UNL     1      -4.699  -3.362  10.277  1.00  0.00     0.020 A 
ATOM     54  C   UNL     1      -5.081  -2.253   8.162  1.00  0.00     0.020 A 
ATOM     55  C   UNL     1      -5.548  -2.678   9.403  1.00  0.00     0.054 A 
BRANCH  55  56
ATOM     56  S   UNL     1      -7.227  -2.235   9.942  1.00  0.00     0.124 S 
ATOM     57  O   UNL     1      -7.903  -3.529   9.948  1.00  0.00    -0.237 OA
ATOM     58  O   UNL     1      -6.994  -1.636  11.253  1.00  0.00    -0.237 OA
ATOM     59  O   UNL     1      -7.684  -1.303   8.912  1.00  0.00    -0.744 OA
ENDBRANCH  55  56
ENDBRANCH  27  50
BRANCH  39  60
ATOM     60  C   UNL     1       3.335  -4.339   9.509  1.00  0.00    -0.014 A 
ATOM     61  C   UNL     1       2.865  -4.988   8.351  1.00  0.00     0.010 A 
ATOM     62  C   UNL     1       4.339  -4.964  10.270  1.00  0.00     0.010 A 
ATOM     63  C   UNL     1       3.375  -6.241   7.978  1.00  0.00     0.020 A 
ATOM     64  C   UNL     1       4.864  -6.202   9.893  1.00  0.00     0.020 A 
ATOM     65  C   UNL     1       4.374  -6.838   8.752  1.00  0.00     0.054 A 
BRANCH  65  66
ATOM     66  S   UNL     1       5.080  -8.427   8.233  1.00  0.00     0.124 S 
ATOM     67  O   UNL     1       3.969  -9.354   8.454  1.00  0.00    -0.237 OA
ATOM     68  O   UNL     1       5.423  -8.186   6.830  1.00  0.00    -0.237 OA
ATOM     69  O   UNL     1       6.223  -8.610   9.117  1.00  0.00    -0.744 OA
ENDBRANCH  65  66
ENDBRANCH  39  60
ENDBRANCH  13  14
ENDBRANCH   6   8
ENDBRANCH   3   4
ENDBRANCH   2   3
ENDBRANCH   1   2
BRANCH   1  70
ATOM     70  C   UNL     1       4.434  -2.982  -3.092  1.00  0.00     0.002 C 
BRANCH  70  71
ATOM     71  C   UNL     1       5.935  -3.237  -3.267  1.00  0.00     0.021 C 
BRANCH  71  72
ATOM     72  C   UNL     1       6.369  -4.625  -2.802  1.00  0.00     0.116 C 
BRANCH  72  73
ATOM     73  N   UNL     1       6.482  -5.574  -3.879  1.00  0.00    -0.356 N 
ATOM     74  C   UNL     1       7.559  -6.188  -4.421  1.00  0.00     0.228 C 
ATOM     75  H   UNL     1       5.624  -5.820  -4.293  1.00  0.00     0.163 HD
ATOM     76  O   UNL     1       7.311  -7.060  -5.267  1.00  0.00    -0.275 OA
BRANCH  74  77
ATOM     77  C   UNL     1       9.022  -5.816  -4.153  1.00  0.00     0.133 C 
ATOM     78  C   UNL     1       9.540  -5.518  -2.744  1.00  0.00     0.025 C 
ATOM     79  C   UNL     1       9.500  -4.800  -5.186  1.00  0.00     0.276 C 
ATOM     80  C   UNL     1       9.745  -4.039  -2.383  1.00  0.00     0.062 C 
ATOM     81  N   UNL     1       9.224  -3.418  -4.769  1.00  0.00    -0.328 N 
ATOM     82  C   UNL     1       9.982  -3.091  -3.556  1.00  0.00     0.262 C 
ATOM     83  H   UNL     1       8.236  -3.320  -4.533  1.00  0.00     0.348 HD
BRANCH  81  84
ATOM     84  C   UNL     1       9.499  -2.486  -5.888  1.00  0.00     0.339 C 
BRANCH  84  85
ATOM     85  C   UNL     1      10.963  -2.217  -6.126  1.00  0.00     0.168 A 
ATOM     86  N   UNL     1      11.834  -3.108  -6.572  1.00  0.00    -0.236 NA
ATOM     87  N   UNL     1      11.616  -1.056  -5.773  1.00  0.00    -0.273 N 
ATOM     88  C   UNL     1      13.073  -2.562  -6.382  1.00  0.00     0.131 A 
ATOM     89  C   UNL     1      12.965  -1.291  -5.882  1.00  0.00     0.113 A 
BRANCH  87  90
ATOM     90  C   UNL     1      11.040   0.185  -5.299  1.00  0.00     0.450 C 
ATOM     91  F   UNL     1      11.456   0.460  -4.036  1.00  0.00    -0.185 F 
ATOM     92  F   UNL     1      11.443   1.225  -6.078  1.00  0.00    -0.185 F 
ENDBRANCH  87  90
ENDBRANCH  84  85
ENDBRANCH  81  84
ENDBRANCH  74  77
ENDBRANCH  72  73
ENDBRANCH  71  72
ENDBRANCH  70  71
ENDBRANCH   1  70
TORSDOF 19
