REMARK SMILES CC[NH+]1CC[NH+]([C@@H]2CC(=O)N(c3ccc(C(=O)NCCCCCCNC(=O)c4ccc(-c5c6nc(c(-c7ccc(S(=O)(=O)[O-])cc7)c7ccc([nH]7)c(-c7ccc(S(=O)(=O)[O-])cc7)c7nc(c(-c8ccc(S(=O)(=O)[O-])cc8)c8ccc5[nH]8)C=C7)C=C6)cc4)cc3)C2=O)CC1
REMARK SMILES IDX 21 1 20 2 19 3 18 4 16 5 17 6 15 8 12 9 13 10 89 11 14 12
REMARK SMILES IDX 88 13 11 14 7 15 8 16 90 17 9 18 91 19 10 20 6 21 3 22 4 23
REMARK SMILES IDX 93 24 5 26 92 27 2 29 1 30 22 31 23 32 24 33 25 34 26 35
REMARK SMILES IDX 27 37 28 38 29 39 87 40 30 41 86 42 31 43 32 44 33 45 80 46
REMARK SMILES IDX 34 47 85 48 79 49 81 50 35 51 84 52 78 53 77 54 36 56 66 57
REMARK SMILES IDX 47 58 65 59 48 60 51 61 64 62 82 63 49 64 50 65 63 67 83 68
REMARK SMILES IDX 52 69 37 70 38 71 46 72 39 73 45 74 40 75 41 76 42 77 43 78
REMARK SMILES IDX 44 79 67 80 68 81 76 82 69 83 75 84 70 85 71 86 72 87 73 88
REMARK SMILES IDX 74 89 53 90 54 91 62 92 55 93 61 94 56 95 57 96 58 97 59 98
REMARK SMILES IDX 60 99
REMARK H PARENT 18 7 3 25 6 28 25 36 81 55 51 66
REMARK Flexibility Score: inf
ROOT
ATOM      1  C   UNL     1      12.364   3.281  -7.268  1.00  0.00     0.002 C 
ENDROOT
BRANCH   1   2
ATOM      2  C   UNL     1      10.958   3.474  -6.689  1.00  0.00     0.021 C 
BRANCH   2   3
ATOM      3  C   UNL     1      10.281   2.147  -6.335  1.00  0.00     0.116 C 
BRANCH   3   4
ATOM      4  N   UNL     1      10.747   1.689  -5.040  1.00  0.00    -0.352 N 
ATOM      5  C   UNL     1      10.228   1.818  -3.778  1.00  0.00     0.251 C 
ATOM      6  O   UNL     1      10.871   1.338  -2.844  1.00  0.00    -0.269 OA
ATOM      7  H   UNL     1      11.596   1.192  -5.074  1.00  0.00     0.163 HD
BRANCH   5   8
ATOM      8  C   UNL     1       8.908   2.453  -3.500  1.00  0.00     0.039 A 
ATOM      9  C   UNL     1       6.345   3.445  -2.899  1.00  0.00     0.052 A 
ATOM     10  C   UNL     1       6.995   2.594  -2.001  1.00  0.00     0.027 A 
ATOM     11  C   UNL     1       6.995   3.834  -4.068  1.00  0.00     0.027 A 
ATOM     12  C   UNL     1       8.252   2.073  -2.319  1.00  0.00     0.016 A 
ATOM     13  C   UNL     1       8.293   3.397  -4.324  1.00  0.00     0.016 A 
BRANCH   9  14
ATOM     14  N   UNL     1       5.056   3.932  -2.634  1.00  0.00    -0.245 N 
ATOM     15  C   UNL     1       3.196   4.763  -1.478  1.00  0.00     0.285 C 
ATOM     16  C   UNL     1       2.837   4.569  -2.949  1.00  0.00     0.176 C 
ATOM     17  C   UNL     1       4.699   4.514  -1.442  1.00  0.00     0.292 C 
ATOM     18  C   UNL     1       4.038   3.915  -3.549  1.00  0.00     0.240 C 
ATOM     19  O   UNL     1       5.429   4.783  -0.499  1.00  0.00    -0.267 OA
ATOM     20  O   UNL     1       4.048   3.446  -4.682  1.00  0.00    -0.274 OA
BRANCH  15  21
ATOM     21  N   UNL     1       2.519   3.971  -0.432  1.00  0.00    -0.315 N 
ATOM     22  N   UNL     1       0.613   1.733  -1.099  1.00  0.00    -0.326 N 
ATOM     23  C   UNL     1       0.193   3.151  -1.157  1.00  0.00     0.324 C 
ATOM     24  C   UNL     1       2.071   1.635  -1.281  1.00  0.00     0.324 C 
ATOM     25  H   UNL     1       0.186   1.214  -1.866  1.00  0.00     0.348 HD
ATOM     26  C   UNL     1       1.063   4.157  -0.355  1.00  0.00     0.325 C 
ATOM     27  C   UNL     1       2.872   2.547  -0.337  1.00  0.00     0.325 C 
ATOM     28  H   UNL     1       2.929   4.399   0.398  1.00  0.00     0.349 HD
BRANCH  22  29
ATOM     29  C   UNL     1       0.129   1.097   0.135  1.00  0.00     0.259 C 
ATOM     30  C   UNL     1       0.496  -0.381   0.245  1.00  0.00     0.071 C 
ENDBRANCH  22  29
ENDBRANCH  15  21
ENDBRANCH   9  14
ENDBRANCH   5   8
ENDBRANCH   3   4
ENDBRANCH   2   3
ENDBRANCH   1   2
BRANCH   1  31
ATOM     31  C   UNL     1      12.394   2.527  -8.603  1.00  0.00     0.002 C 
BRANCH  31  32
ATOM     32  C   UNL     1      11.542   3.155  -9.709  1.00  0.00     0.021 C 
BRANCH  32  33
ATOM     33  C   UNL     1      11.980   4.563 -10.099  1.00  0.00     0.116 C 
BRANCH  33  34
ATOM     34  N   UNL     1      13.326   4.562 -10.652  1.00  0.00    -0.352 N 
ATOM     35  C   UNL     1      13.745   4.918 -11.909  1.00  0.00     0.251 C 
ATOM     36  H   UNL     1      14.036   4.264 -10.039  1.00  0.00     0.163 HD
ATOM     37  O   UNL     1      14.862   4.598 -12.302  1.00  0.00    -0.269 OA
BRANCH  35  38
ATOM     38  C   UNL     1      12.835   5.682 -12.786  1.00  0.00     0.039 A 
ATOM     39  C   UNL     1      12.689   5.296 -14.120  1.00  0.00     0.014 A 
ATOM     40  C   UNL     1      12.122   6.774 -12.283  1.00  0.00     0.014 A 
ATOM     41  C   UNL     1      11.775   5.968 -14.933  1.00  0.00     0.010 A 
ATOM     42  C   UNL     1      11.162   7.396 -13.073  1.00  0.00     0.010 A 
ATOM     43  C   UNL     1      10.975   6.996 -14.405  1.00  0.00    -0.014 A 
BRANCH  43  44
ATOM     44  C   UNL     1       9.916   7.643 -15.219  1.00  0.00     0.031 A 
ATOM     45  C   UNL     1       9.999   9.107 -15.550  1.00  0.00     0.074 A 
ATOM     46  C   UNL     1       8.843   6.921 -15.598  1.00  0.00     0.049 A 
ATOM     47  N   UNL     1       9.140   9.855 -16.193  1.00  0.00    -0.248 NA
ATOM     48  C   UNL     1      11.191   9.831 -15.078  1.00  0.00     0.031 C 
ATOM     49  C   UNL     1       8.631   5.500 -15.305  1.00  0.00     0.029 A 
ATOM     50  N   UNL     1       7.724   7.282 -16.305  1.00  0.00    -0.354 N 
ATOM     51  C   UNL     1       9.680  11.136 -16.195  1.00  0.00     0.074 A 
ATOM     52  C   UNL     1      10.916  11.074 -15.446  1.00  0.00     0.031 C 
ATOM     53  C   UNL     1       7.470   5.107 -15.851  1.00  0.00     0.029 A 
ATOM     54  C   UNL     1       6.831   6.253 -16.490  1.00  0.00     0.049 A 
ATOM     55  H   UNL     1       7.574   8.193 -16.648  1.00  0.00     0.167 HD
ATOM     56  C   UNL     1       9.198  12.257 -16.783  1.00  0.00     0.031 A 
ATOM     57  C   UNL     1       5.627   6.233 -17.093  1.00  0.00     0.031 A 
ATOM     58  C   UNL     1       7.966  12.311 -17.526  1.00  0.00     0.049 A 
ATOM     59  C   UNL     1       5.097   7.500 -17.707  1.00  0.00     0.074 A 
ATOM     60  C   UNL     1       7.417  13.386 -18.202  1.00  0.00     0.029 A 
ATOM     61  N   UNL     1       7.087  11.249 -17.683  1.00  0.00    -0.354 N 
ATOM     62  N   UNL     1       5.656   8.686 -17.759  1.00  0.00    -0.248 NA
ATOM     63  C   UNL     1       3.777   7.425 -18.348  1.00  0.00     0.031 C 
ATOM     64  C   UNL     1       6.177  12.992 -18.715  1.00  0.00     0.029 A 
ATOM     65  C   UNL     1       5.984  11.653 -18.416  1.00  0.00     0.049 A 
ATOM     66  H   UNL     1       7.227  10.342 -17.326  1.00  0.00     0.167 HD
ATOM     67  C   UNL     1       4.766   9.492 -18.459  1.00  0.00     0.074 A 
ATOM     68  C   UNL     1       3.642   8.655 -18.826  1.00  0.00     0.031 C 
ATOM     69  C   UNL     1       4.869  10.809 -18.769  1.00  0.00     0.031 A 
BRANCH  56  70
ATOM     70  C   UNL     1      10.002  13.523 -16.639  1.00  0.00    -0.014 A 
ATOM     71  C   UNL     1      11.246  13.672 -17.280  1.00  0.00     0.010 A 
ATOM     72  C   UNL     1       9.488  14.597 -15.890  1.00  0.00     0.010 A 
ATOM     73  C   UNL     1      11.977  14.854 -17.141  1.00  0.00     0.020 A 
ATOM     74  C   UNL     1      10.202  15.793 -15.774  1.00  0.00     0.020 A 
ATOM     75  C   UNL     1      11.451  15.908 -16.388  1.00  0.00     0.054 A 
BRANCH  75  76
ATOM     76  S   UNL     1      12.413  17.439 -16.247  1.00  0.00     0.124 S 
ATOM     77  O   UNL     1      13.511  17.026 -15.377  1.00  0.00    -0.237 OA
ATOM     78  O   UNL     1      12.780  17.715 -17.633  1.00  0.00    -0.237 OA
ATOM     79  O   UNL     1      11.473  18.387 -15.653  1.00  0.00    -0.744 OA
ENDBRANCH  75  76
ENDBRANCH  56  70
BRANCH  57  80
ATOM     80  C   UNL     1       4.843   4.969 -17.147  1.00  0.00    -0.014 A 
ATOM     81  C   UNL     1       4.649   4.300 -18.368  1.00  0.00     0.010 A 
ATOM     82  C   UNL     1       4.296   4.419 -15.973  1.00  0.00     0.010 A 
ATOM     83  C   UNL     1       3.909   3.115 -18.418  1.00  0.00     0.020 A 
ATOM     84  C   UNL     1       3.582   3.218 -16.013  1.00  0.00     0.020 A 
ATOM     85  C   UNL     1       3.383   2.580 -17.239  1.00  0.00     0.054 A 
BRANCH  85  86
ATOM     86  S   UNL     1       2.469   1.015 -17.321  1.00  0.00     0.124 S 
ATOM     87  O   UNL     1       1.225   1.423 -17.965  1.00  0.00    -0.237 OA
ATOM     88  O   UNL     1       3.354   0.176 -18.126  1.00  0.00    -0.237 OA
ATOM     89  O   UNL     1       2.349   0.615 -15.920  1.00  0.00    -0.744 OA
ENDBRANCH  85  86
ENDBRANCH  57  80
BRANCH  69  90
ATOM     90  C   UNL     1       3.748  11.424 -19.564  1.00  0.00    -0.014 A 
ATOM     91  C   UNL     1       2.489  11.662 -18.984  1.00  0.00     0.010 A 
ATOM     92  C   UNL     1       3.978  11.826 -20.892  1.00  0.00     0.010 A 
ATOM     93  C   UNL     1       1.473  12.268 -19.727  1.00  0.00     0.020 A 
ATOM     94  C   UNL     1       2.973  12.460 -21.629  1.00  0.00     0.020 A 
ATOM     95  C   UNL     1       1.722  12.666 -21.044  1.00  0.00     0.054 A 
BRANCH  95  96
ATOM     96  S   UNL     1       0.402  13.499 -21.967  1.00  0.00     0.124 S 
ATOM     97  O   UNL     1      -0.528  12.404 -22.223  1.00  0.00    -0.237 OA
ATOM     98  O   UNL     1      -0.062  14.509 -21.018  1.00  0.00    -0.237 OA
ATOM     99  O   UNL     1       1.083  14.028 -23.147  1.00  0.00    -0.744 OA
ENDBRANCH  95  96
ENDBRANCH  69  90
ENDBRANCH  43  44
ENDBRANCH  35  38
ENDBRANCH  33  34
ENDBRANCH  32  33
ENDBRANCH  31  32
ENDBRANCH   1  31
TORSDOF 19
