REMARK SMILES CN(C)c1cc(C(F)(F)F)cc(-c2cccc(/C=C/C(=O)NCCCCCCNC(=O)c3ccc(-c4c5nc(c(-c6ccc(S(=O)(=O)[O-])cc6)c6ccc([nH]6)c(-c6ccc(S(=O)(=O)[O-])cc6)c6nc(c(-c7ccc(S(=O)(=O)[O-])cc7)c7ccc4[nH]7)C=C6)C=C5)cc3)c2)n1
REMARK SMILES IDX 25 1 24 2 23 3 22 4 20 5 21 6 19 8 18 9 17 10 13 11 14 12
REMARK SMILES IDX 92 13 15 14 16 15 12 16 4 17 5 18 93 19 6 20 11 21 2 22 1 23
REMARK SMILES IDX 3 24 7 25 8 26 9 27 10 28 26 29 27 30 28 31 29 32 30 33
REMARK SMILES IDX 31 35 32 36 33 37 91 38 34 39 90 40 35 41 36 42 37 43 84 44
REMARK SMILES IDX 38 45 89 46 83 47 85 48 39 49 88 50 82 51 81 52 40 54 70 55
REMARK SMILES IDX 51 56 69 57 52 58 55 59 68 60 86 61 53 62 54 63 67 65 87 66
REMARK SMILES IDX 56 67 41 68 42 69 50 70 43 71 49 72 44 73 45 74 46 75 47 76
REMARK SMILES IDX 48 77 71 78 72 79 80 80 73 81 79 82 74 83 75 84 76 85 77 86
REMARK SMILES IDX 78 87 57 88 58 89 66 90 59 91 65 92 60 93 61 94 62 95 63 96
REMARK SMILES IDX 64 97
REMARK H PARENT 22 7 29 34 85 53 55 64
REMARK Flexibility Score: inf
ROOT
ATOM      1  C   UNL     1       0.862   3.403  11.799  1.00  0.00     0.002 C 
ENDROOT
BRANCH   1   2
ATOM      2  C   UNL     1       0.411   2.510  10.634  1.00  0.00     0.021 C 
BRANCH   2   3
ATOM      3  C   UNL     1       0.124   1.067  11.052  1.00  0.00     0.116 C 
BRANCH   3   4
ATOM      4  N   UNL     1      -1.174   0.978  11.697  1.00  0.00    -0.353 N 
ATOM      5  C   UNL     1      -2.325   0.363  11.323  1.00  0.00     0.243 C 
ATOM      6  O   UNL     1      -3.296   0.386  12.079  1.00  0.00    -0.270 OA
ATOM      7  H   UNL     1      -1.229   1.448  12.561  1.00  0.00     0.163 HD
BRANCH   5   8
ATOM      8  C   UNL     1      -2.410  -0.420  10.070  1.00  0.00     0.072 C 
ATOM      9  C   UNL     1      -1.924  -0.028   8.884  1.00  0.00     0.014 C 
BRANCH   9  10
ATOM     10  C   UNL     1      -2.000  -0.820   7.649  1.00  0.00    -0.025 A 
ATOM     11  C   UNL     1      -0.962  -1.405   5.508  1.00  0.00     0.001 A 
ATOM     12  C   UNL     1      -2.120  -2.119   5.168  1.00  0.00     0.010 A 
ATOM     13  C   UNL     1      -0.918  -0.765   6.758  1.00  0.00     0.018 A 
ATOM     14  C   UNL     1      -3.195  -2.203   6.056  1.00  0.00     0.001 A 
ATOM     15  C   UNL     1      -3.137  -1.552   7.290  1.00  0.00     0.008 A 
BRANCH  11  16
ATOM     16  C   UNL     1       0.153  -1.280   4.566  1.00  0.00     0.073 A 
ATOM     17  C   UNL     1       0.861  -0.344   2.541  1.00  0.00     0.129 A 
ATOM     18  C   UNL     1       2.124  -0.899   2.719  1.00  0.00     0.060 A 
ATOM     19  N   UNL     1      -0.108  -0.540   3.462  1.00  0.00    -0.231 NA
ATOM     20  C   UNL     1       2.413  -1.641   3.871  1.00  0.00     0.061 A 
ATOM     21  C   UNL     1       1.399  -1.838   4.809  1.00  0.00     0.042 A 
BRANCH  17  22
ATOM     22  N   UNL     1       0.582   0.459   1.448  1.00  0.00    -0.363 N 
ATOM     23  C   UNL     1       1.016   0.058   0.124  1.00  0.00     0.144 C 
ATOM     24  C   UNL     1      -0.510   1.406   1.589  1.00  0.00     0.144 C 
ENDBRANCH  17  22
BRANCH  20  25
ATOM     25  C   UNL     1       3.796  -2.173   4.125  1.00  0.00     0.416 C 
ATOM     26  F   UNL     1       4.362  -1.614   5.229  1.00  0.00    -0.166 F 
ATOM     27  F   UNL     1       3.798  -3.517   4.340  1.00  0.00    -0.166 F 
ATOM     28  F   UNL     1       4.663  -1.953   3.100  1.00  0.00    -0.166 F 
ENDBRANCH  20  25
ENDBRANCH  11  16
ENDBRANCH   9  10
ENDBRANCH   5   8
ENDBRANCH   3   4
ENDBRANCH   2   3
ENDBRANCH   1   2
BRANCH   1  29
ATOM     29  C   UNL     1       2.163   2.961  12.482  1.00  0.00     0.002 C 
BRANCH  29  30
ATOM     30  C   UNL     1       3.358   2.787  11.541  1.00  0.00     0.021 C 
BRANCH  30  31
ATOM     31  C   UNL     1       3.766   4.059  10.806  1.00  0.00     0.116 C 
BRANCH  31  32
ATOM     32  N   UNL     1       4.223   5.087  11.729  1.00  0.00    -0.352 N 
ATOM     33  C   UNL     1       5.433   5.735  11.775  1.00  0.00     0.251 C 
ATOM     34  H   UNL     1       3.573   5.355  12.418  1.00  0.00     0.163 HD
ATOM     35  O   UNL     1       5.741   6.389  12.765  1.00  0.00    -0.269 OA
BRANCH  33  36
ATOM     36  C   UNL     1       6.361   5.629  10.630  1.00  0.00     0.039 A 
ATOM     37  C   UNL     1       7.719   5.409  10.874  1.00  0.00     0.014 A 
ATOM     38  C   UNL     1       5.892   5.759   9.320  1.00  0.00     0.014 A 
ATOM     39  C   UNL     1       8.597   5.263   9.798  1.00  0.00     0.010 A 
ATOM     40  C   UNL     1       6.755   5.540   8.251  1.00  0.00     0.010 A 
ATOM     41  C   UNL     1       8.117   5.296   8.478  1.00  0.00    -0.014 A 
BRANCH  41  42
ATOM     42  C   UNL     1       9.025   5.083   7.322  1.00  0.00     0.031 A 
ATOM     43  C   UNL     1       9.244   6.187   6.322  1.00  0.00     0.074 A 
ATOM     44  C   UNL     1       9.608   3.881   7.145  1.00  0.00     0.049 A 
ATOM     45  N   UNL     1       9.944   6.170   5.217  1.00  0.00    -0.248 NA
ATOM     46  C   UNL     1       8.571   7.470   6.586  1.00  0.00     0.031 C 
ATOM     47  C   UNL     1       9.445   2.721   8.026  1.00  0.00     0.029 A 
ATOM     48  N   UNL     1      10.449   3.430   6.158  1.00  0.00    -0.354 N 
ATOM     49  C   UNL     1       9.794   7.432   4.654  1.00  0.00     0.074 A 
ATOM     50  C   UNL     1       8.886   8.169   5.506  1.00  0.00     0.031 C 
ATOM     51  C   UNL     1      10.181   1.703   7.553  1.00  0.00     0.029 A 
ATOM     52  C   UNL     1      10.831   2.118   6.314  1.00  0.00     0.049 A 
ATOM     53  H   UNL     1      10.750   3.993   5.409  1.00  0.00     0.167 HD
ATOM     54  C   UNL     1      10.378   7.942   3.543  1.00  0.00     0.031 A 
ATOM     55  C   UNL     1      11.607   1.334   5.541  1.00  0.00     0.031 A 
ATOM     56  C   UNL     1      11.280   7.205   2.698  1.00  0.00     0.049 A 
ATOM     57  C   UNL     1      12.213   1.912   4.290  1.00  0.00     0.074 A 
ATOM     58  C   UNL     1      11.946   7.639   1.566  1.00  0.00     0.029 A 
ATOM     59  N   UNL     1      11.644   5.881   2.893  1.00  0.00    -0.354 N 
ATOM     60  N   UNL     1      12.101   3.126   3.805  1.00  0.00    -0.248 NA
ATOM     61  C   UNL     1      13.061   1.018   3.490  1.00  0.00     0.031 C 
ATOM     62  C   UNL     1      12.673   6.563   1.047  1.00  0.00     0.029 A 
ATOM     63  C   UNL     1      12.510   5.476   1.892  1.00  0.00     0.049 A 
ATOM     64  H   UNL     1      11.332   5.313   3.634  1.00  0.00     0.167 HD
ATOM     65  C   UNL     1      12.890   3.149   2.660  1.00  0.00     0.074 A 
ATOM     66  C   UNL     1      13.487   1.835   2.536  1.00  0.00     0.031 C 
ATOM     67  C   UNL     1      13.102   4.166   1.788  1.00  0.00     0.031 A 
BRANCH  54  68
ATOM     68  C   UNL     1      10.062   9.371   3.183  1.00  0.00    -0.014 A 
ATOM     69  C   UNL     1      10.530  10.435   3.976  1.00  0.00     0.010 A 
ATOM     70  C   UNL     1       9.332   9.659   2.016  1.00  0.00     0.010 A 
ATOM     71  C   UNL     1      10.241  11.757   3.631  1.00  0.00     0.020 A 
ATOM     72  C   UNL     1       9.066  10.983   1.651  1.00  0.00     0.020 A 
ATOM     73  C   UNL     1       9.510  12.023   2.470  1.00  0.00     0.054 A 
BRANCH  73  74
ATOM     74  S   UNL     1       9.176  13.751   2.033  1.00  0.00     0.124 S 
ATOM     75  O   UNL     1       8.197  14.134   3.047  1.00  0.00    -0.237 OA
ATOM     76  O   UNL     1      10.491  14.373   2.163  1.00  0.00    -0.237 OA
ATOM     77  O   UNL     1       8.660  13.671   0.669  1.00  0.00    -0.744 OA
ENDBRANCH  73  74
ENDBRANCH  54  68
BRANCH  55  78
ATOM     78  C   UNL     1      11.854  -0.085   5.921  1.00  0.00    -0.014 A 
ATOM     79  C   UNL     1      13.136  -0.511   6.310  1.00  0.00     0.010 A 
ATOM     80  C   UNL     1      10.807  -1.025   5.880  1.00  0.00     0.010 A 
ATOM     81  C   UNL     1      13.376  -1.855   6.614  1.00  0.00     0.020 A 
ATOM     82  C   UNL     1      11.035  -2.362   6.216  1.00  0.00     0.020 A 
ATOM     83  C   UNL     1      12.323  -2.773   6.563  1.00  0.00     0.054 A 
BRANCH  83  84
ATOM     84  S   UNL     1      12.652  -4.507   6.980  1.00  0.00     0.124 S 
ATOM     85  O   UNL     1      13.395  -4.964   5.810  1.00  0.00    -0.237 OA
ATOM     86  O   UNL     1      13.423  -4.394   8.216  1.00  0.00    -0.237 OA
ATOM     87  O   UNL     1      11.317  -5.080   7.138  1.00  0.00    -0.744 OA
ENDBRANCH  83  84
ENDBRANCH  55  78
BRANCH  67  88
ATOM     88  C   UNL     1      14.051   3.916   0.646  1.00  0.00    -0.014 A 
ATOM     89  C   UNL     1      13.703   3.073  -0.423  1.00  0.00     0.010 A 
ATOM     90  C   UNL     1      15.291   4.582   0.619  1.00  0.00     0.010 A 
ATOM     91  C   UNL     1      14.591   2.876  -1.484  1.00  0.00     0.020 A 
ATOM     92  C   UNL     1      16.168   4.412  -0.455  1.00  0.00     0.020 A 
ATOM     93  C   UNL     1      15.817   3.549  -1.494  1.00  0.00     0.054 A 
BRANCH  93  94
ATOM     94  S   UNL     1      16.930   3.313  -2.907  1.00  0.00     0.124 S 
ATOM     95  O   UNL     1      17.418   1.954  -2.687  1.00  0.00    -0.237 OA
ATOM     96  O   UNL     1      16.035   3.483  -4.049  1.00  0.00    -0.237 OA
ATOM     97  O   UNL     1      17.928   4.368  -2.743  1.00  0.00    -0.744 OA
ENDBRANCH  93  94
ENDBRANCH  67  88
ENDBRANCH  41  42
ENDBRANCH  33  36
ENDBRANCH  31  32
ENDBRANCH  30  31
ENDBRANCH  29  30
ENDBRANCH   1  29
TORSDOF 20
