REMARK SMILES Cc1ccccc1C(=O)Nc1cc(C(=O)NCCCCCCNC(=O)c2ccc(-c3c4nc(c(-c5ccc(S(=O)(=O)[O-])cc5)c5ccc([nH]5)c(-c5ccc(S(=O)(=O)[O-])cc5)c5nc(c(-c6ccc(S(=O)(=O)[O-])cc6)c6ccc3[nH]6)C=C5)C=C4)cc2)ccc1N1CC[NH+](CC(=O)Nc2ccc(F)cc2)CC1
REMARK SMILES IDX 19 1 18 2 17 3 16 4 14 5 15 6 13 8 11 9 12 10 88 11 87 12
REMARK SMILES IDX 86 13 10 14 8 15 9 16 7 18 1 19 2 20 3 21 4 22 6 23 5 24
REMARK SMILES IDX 89 25 90 26 105 27 91 28 104 29 92 30 93 32 94 33 95 34
REMARK SMILES IDX 96 35 97 37 98 38 103 39 99 40 102 41 100 42 101 43 20 44
REMARK SMILES IDX 21 45 22 46 23 47 24 48 25 50 26 51 27 52 85 53 28 54 84 55
REMARK SMILES IDX 29 56 30 57 31 58 78 59 32 60 83 61 77 62 79 63 33 64 82 65
REMARK SMILES IDX 76 66 75 67 34 69 64 70 45 71 63 72 46 73 49 74 62 75 80 76
REMARK SMILES IDX 47 77 48 78 61 80 81 81 50 82 35 83 36 84 44 85 37 86 43 87
REMARK SMILES IDX 38 88 39 89 40 90 41 91 42 92 65 93 66 94 74 95 67 96 73 97
REMARK SMILES IDX 68 98 69 99 70 100 71 101 72 102 51 103 52 104 60 105 53 106
REMARK SMILES IDX 59 107 54 108 55 109 56 110 57 111 58 112
REMARK H PARENT 16 7 10 17 92 31 96 36 23 49 79 68 49 79
REMARK Flexibility Score: inf
ROOT
ATOM      1  C   UNL     1       0.335  -1.481  -5.299  1.00  0.00     0.002 C 
ENDROOT
BRANCH   1   2
ATOM      2  C   UNL     1       1.041  -0.751  -4.149  1.00  0.00     0.021 C 
BRANCH   2   3
ATOM      3  C   UNL     1       1.206  -1.596  -2.883  1.00  0.00     0.116 C 
BRANCH   3   4
ATOM      4  N   UNL     1       2.457  -2.339  -2.882  1.00  0.00    -0.352 N 
ATOM      5  C   UNL     1       3.701  -2.097  -2.352  1.00  0.00     0.251 C 
ATOM      6  O   UNL     1       4.541  -2.994  -2.458  1.00  0.00    -0.269 OA
ATOM      7  H   UNL     1       2.400  -3.196  -3.364  1.00  0.00     0.163 HD
BRANCH   5   8
ATOM      8  C   UNL     1       4.079  -0.854  -1.613  1.00  0.00     0.042 A 
ATOM      9  C   UNL     1       3.658   1.370  -0.750  1.00  0.00     0.065 A 
ATOM     10  C   UNL     1       3.331   0.311  -1.603  1.00  0.00     0.042 A 
ATOM     11  C   UNL     1       4.856   1.393   0.023  1.00  0.00     0.061 A 
ATOM     12  C   UNL     1       5.657   0.246  -0.086  1.00  0.00     0.029 A 
ATOM     13  C   UNL     1       5.262  -0.865  -0.857  1.00  0.00     0.016 A 
BRANCH   9  14
ATOM     14  N   UNL     1       2.759   2.443  -0.690  1.00  0.00    -0.320 N 
ATOM     15  C   UNL     1       1.443   2.449  -0.260  1.00  0.00     0.255 C 
ATOM     16  O   UNL     1       0.939   3.544   0.014  1.00  0.00    -0.269 OA
ATOM     17  H   UNL     1       3.111   3.310  -0.996  1.00  0.00     0.170 HD
BRANCH  15  18
ATOM     18  C   UNL     1       0.583   1.239  -0.082  1.00  0.00     0.043 A 
ATOM     19  C   UNL     1       2.078  -0.175   1.499  1.00  0.00     0.045 C 
ATOM     20  C   UNL     1       0.852   0.074   0.668  1.00  0.00    -0.038 A 
ATOM     21  C   UNL     1      -0.110  -0.963   0.682  1.00  0.00     0.004 A 
ATOM     22  C   UNL     1      -1.350  -0.814   0.064  1.00  0.00     0.000 A 
ATOM     23  C   UNL     1      -0.695   1.383  -0.662  1.00  0.00     0.014 A 
ATOM     24  C   UNL     1      -1.655   0.374  -0.582  1.00  0.00     0.001 A 
ENDBRANCH  15  18
ENDBRANCH   9  14
BRANCH  11  25
ATOM     25  N   UNL     1       5.207   2.442   0.873  1.00  0.00    -0.359 N 
ATOM     26  C   UNL     1       6.561   2.591   1.476  1.00  0.00     0.178 C 
ATOM     27  C   UNL     1       4.191   3.107   1.688  1.00  0.00     0.178 C 
ATOM     28  C   UNL     1       6.824   4.027   2.083  1.00  0.00     0.284 C 
ATOM     29  C   UNL     1       4.528   4.598   1.719  1.00  0.00     0.284 C 
ATOM     30  N   UNL     1       5.686   4.840   2.573  1.00  0.00    -0.324 N 
ATOM     31  H   UNL     1       5.993   5.809   2.488  1.00  0.00     0.348 HD
BRANCH  30  32
ATOM     32  C   UNL     1       5.388   4.831   4.021  1.00  0.00     0.364 C 
BRANCH  32  33
ATOM     33  C   UNL     1       5.240   3.478   4.713  1.00  0.00     0.279 C 
ATOM     34  O   UNL     1       6.243   2.770   4.895  1.00  0.00    -0.268 OA
ATOM     35  N   UNL     1       4.071   2.987   5.230  1.00  0.00    -0.321 N 
ATOM     36  H   UNL     1       4.243   2.271   5.883  1.00  0.00     0.170 HD
BRANCH  35  37
ATOM     37  C   UNL     1       2.688   3.228   5.084  1.00  0.00     0.041 A 
ATOM     38  C   UNL     1       1.834   2.408   5.844  1.00  0.00     0.029 A 
ATOM     39  C   UNL     1       2.098   4.109   4.183  1.00  0.00     0.029 A 
ATOM     40  C   UNL     1       0.445   2.432   5.663  1.00  0.00     0.041 A 
ATOM     41  C   UNL     1       0.713   4.100   3.956  1.00  0.00     0.041 A 
ATOM     42  C   UNL     1      -0.102   3.260   4.697  1.00  0.00     0.123 A 
ATOM     43  F   UNL     1      -1.424   3.253   4.487  1.00  0.00    -0.207 F 
ENDBRANCH  35  37
ENDBRANCH  32  33
ENDBRANCH  30  32
ENDBRANCH  11  25
ENDBRANCH   5   8
ENDBRANCH   3   4
ENDBRANCH   2   3
ENDBRANCH   1   2
BRANCH   1  44
ATOM     44  C   UNL     1      -1.091  -1.991  -5.012  1.00  0.00     0.002 C 
BRANCH  44  45
ATOM     45  C   UNL     1      -2.054  -0.984  -4.378  1.00  0.00     0.021 C 
BRANCH  45  46
ATOM     46  C   UNL     1      -2.428   0.170  -5.292  1.00  0.00     0.116 C 
BRANCH  46  47
ATOM     47  N   UNL     1      -3.564  -0.087  -6.166  1.00  0.00    -0.352 N 
ATOM     48  C   UNL     1      -4.299   0.992  -6.661  1.00  0.00     0.251 C 
ATOM     49  H   UNL     1      -3.812  -1.009  -6.405  1.00  0.00     0.163 HD
ATOM     50  O   UNL     1      -5.426   1.289  -6.323  1.00  0.00    -0.269 OA
BRANCH  48  51
ATOM     51  C   UNL     1      -3.515   1.854  -7.573  1.00  0.00     0.039 A 
ATOM     52  C   UNL     1      -3.549   1.639  -8.951  1.00  0.00     0.014 A 
ATOM     53  C   UNL     1      -2.543   2.665  -6.987  1.00  0.00     0.014 A 
ATOM     54  C   UNL     1      -2.506   2.128  -9.738  1.00  0.00     0.010 A 
ATOM     55  C   UNL     1      -1.463   3.053  -7.748  1.00  0.00     0.010 A 
ATOM     56  C   UNL     1      -1.426   2.759  -9.117  1.00  0.00    -0.014 A 
BRANCH  56  57
ATOM     57  C   UNL     1      -0.182   3.128  -9.781  1.00  0.00     0.031 A 
ATOM     58  C   UNL     1       0.105   4.557 -10.051  1.00  0.00     0.074 A 
ATOM     59  C   UNL     1       0.777   2.197  -9.989  1.00  0.00     0.049 A 
ATOM     60  N   UNL     1       1.015   4.979 -10.863  1.00  0.00    -0.248 NA
ATOM     61  C   UNL     1      -0.660   5.641  -9.441  1.00  0.00     0.031 C 
ATOM     62  C   UNL     1       2.190   2.444 -10.269  1.00  0.00     0.029 A 
ATOM     63  N   UNL     1       0.631   0.827 -10.206  1.00  0.00    -0.354 N 
ATOM     64  C   UNL     1       1.169   6.331 -10.646  1.00  0.00     0.074 A 
ATOM     65  C   UNL     1       0.049   6.708  -9.818  1.00  0.00     0.031 C 
ATOM     66  C   UNL     1       2.693   1.377 -10.907  1.00  0.00     0.029 A 
ATOM     67  C   UNL     1       1.578   0.489 -11.188  1.00  0.00     0.049 A 
ATOM     68  H   UNL     1      -0.006   0.220  -9.762  1.00  0.00     0.167 HD
ATOM     69  C   UNL     1       2.304   6.954 -11.073  1.00  0.00     0.031 A 
ATOM     70  C   UNL     1       1.260  -0.004 -12.421  1.00  0.00     0.031 A 
ATOM     71  C   UNL     1       3.154   6.052 -11.846  1.00  0.00     0.049 A 
ATOM     72  C   UNL     1       1.803   0.842 -13.556  1.00  0.00     0.074 A 
ATOM     73  C   UNL     1       4.305   5.340 -11.549  1.00  0.00     0.029 A 
ATOM     74  N   UNL     1       2.682   5.553 -13.052  1.00  0.00    -0.354 N 
ATOM     75  N   UNL     1       2.245   2.061 -13.411  1.00  0.00    -0.248 NA
ATOM     76  C   UNL     1       1.863   0.401 -14.946  1.00  0.00     0.031 C 
ATOM     77  C   UNL     1       4.486   4.360 -12.562  1.00  0.00     0.029 A 
ATOM     78  C   UNL     1       3.461   4.498 -13.481  1.00  0.00     0.049 A 
ATOM     79  H   UNL     1       1.899   5.904 -13.535  1.00  0.00     0.167 HD
ATOM     80  C   UNL     1       2.650   2.564 -14.621  1.00  0.00     0.074 A 
ATOM     81  C   UNL     1       2.395   1.479 -15.552  1.00  0.00     0.031 C 
ATOM     82  C   UNL     1       3.151   3.831 -14.741  1.00  0.00     0.031 A 
BRANCH  69  83
ATOM     83  C   UNL     1       2.767   8.305 -10.570  1.00  0.00    -0.014 A 
ATOM     84  C   UNL     1       4.145   8.612 -10.570  1.00  0.00     0.010 A 
ATOM     85  C   UNL     1       1.916   9.293 -10.041  1.00  0.00     0.010 A 
ATOM     86  C   UNL     1       4.649   9.789  -9.994  1.00  0.00     0.020 A 
ATOM     87  C   UNL     1       2.407  10.459  -9.430  1.00  0.00     0.020 A 
ATOM     88  C   UNL     1       3.776  10.695  -9.400  1.00  0.00     0.054 A 
BRANCH  88  89
ATOM     89  S   UNL     1       4.445  12.174  -8.596  1.00  0.00     0.124 S 
ATOM     90  O   UNL     1       5.353  11.607  -7.601  1.00  0.00    -0.237 OA
ATOM     91  O   UNL     1       5.084  12.874  -9.706  1.00  0.00    -0.237 OA
ATOM     92  O   UNL     1       3.263  12.833  -8.044  1.00  0.00    -0.744 OA
ENDBRANCH  88  89
ENDBRANCH  69  83
BRANCH  70  93
ATOM     93  C   UNL     1      -0.007  -0.791 -12.449  1.00  0.00    -0.014 A 
ATOM     94  C   UNL     1      -0.004  -2.027 -11.765  1.00  0.00     0.010 A 
ATOM     95  C   UNL     1      -1.234  -0.145 -12.679  1.00  0.00     0.010 A 
ATOM     96  C   UNL     1      -1.161  -2.492 -11.134  1.00  0.00     0.020 A 
ATOM     97  C   UNL     1      -2.401  -0.621 -12.059  1.00  0.00     0.020 A 
ATOM     98  C   UNL     1      -2.330  -1.736 -11.218  1.00  0.00     0.054 A 
BRANCH  98  99
ATOM     99  S   UNL     1      -3.686  -2.118 -10.063  1.00  0.00     0.124 S 
ATOM    100  O   UNL     1      -3.866  -3.554 -10.248  1.00  0.00    -0.237 OA
ATOM    101  O   UNL     1      -3.119  -1.712  -8.774  1.00  0.00    -0.237 OA
ATOM    102  O   UNL     1      -4.780  -1.279 -10.542  1.00  0.00    -0.744 OA
ENDBRANCH  98  99
ENDBRANCH  70  93
BRANCH  82 103
ATOM    103  C   UNL     1       3.466   4.584 -16.020  1.00  0.00    -0.014 A 
ATOM    104  C   UNL     1       3.020   4.221 -17.299  1.00  0.00     0.010 A 
ATOM    105  C   UNL     1       4.170   5.814 -15.925  1.00  0.00     0.010 A 
ATOM    106  C   UNL     1       3.295   5.017 -18.424  1.00  0.00     0.020 A 
ATOM    107  C   UNL     1       4.411   6.637 -17.029  1.00  0.00     0.020 A 
ATOM    108  C   UNL     1       3.988   6.220 -18.282  1.00  0.00     0.054 A 
BRANCH 108 109
ATOM    109  S   UNL     1       4.267   7.272 -19.729  1.00  0.00     0.124 S 
ATOM    110  O   UNL     1       5.484   6.693 -20.292  1.00  0.00    -0.237 OA
ATOM    111  O   UNL     1       3.055   7.068 -20.519  1.00  0.00    -0.237 OA
ATOM    112  O   UNL     1       4.412   8.609 -19.160  1.00  0.00    -0.744 OA
ENDBRANCH 108 109
ENDBRANCH  82 103
ENDBRANCH  56  57
ENDBRANCH  48  51
ENDBRANCH  46  47
ENDBRANCH  45  46
ENDBRANCH  44  45
ENDBRANCH   1  44
TORSDOF 22
