REMARK SMILES CC(C)n1cncc1C[NH2+][C@@H]1CCC[C@H](C(=O)NCCCCCCNC(=O)c2ccc(-c3c4nc(c(-c5ccc(S(=O)(=O)[O-])cc5)c5ccc([nH]5)c(-c5ccc(S(=O)(=O)[O-])cc5)c5nc(c(-c6ccc(S(=O)(=O)[O-])cc6)c6ccc3[nH]6)C=C5)C=C4)cc2)C1
REMARK SMILES IDX 21 1 20 2 19 3 18 4 16 5 17 6 15 8 11 9 12 10 88 11 13 12
REMARK SMILES IDX 14 13 10 14 9 17 8 18 4 19 5 20 6 21 7 22 2 23 1 24 3 25
REMARK SMILES IDX 22 26 23 27 24 28 25 29 26 30 27 32 28 33 29 34 87 35 30 36
REMARK SMILES IDX 86 37 31 38 32 39 33 40 80 41 34 42 85 43 79 44 81 45 35 46
REMARK SMILES IDX 84 47 78 48 77 49 36 51 66 52 47 53 65 54 48 55 51 56 64 57
REMARK SMILES IDX 82 58 49 59 50 60 63 62 83 63 52 64 37 65 38 66 46 67 39 68
REMARK SMILES IDX 45 69 40 70 41 71 42 72 43 73 44 74 67 75 68 76 76 77 69 78
REMARK SMILES IDX 75 79 70 80 71 81 72 82 73 83 74 84 53 85 54 86 62 87 55 88
REMARK SMILES IDX 61 89 56 90 57 91 58 92 59 93 60 94
REMARK H PARENT 18 7 10 15 10 16 25 31 81 50 51 61
REMARK Flexibility Score: inf
ROOT
ATOM      1  C   UNL     1      -5.691   8.010   1.871  1.00  0.00     0.002 C 
ENDROOT
BRANCH   1   2
ATOM      2  C   UNL     1      -4.445   7.138   2.047  1.00  0.00     0.021 C 
BRANCH   2   3
ATOM      3  C   UNL     1      -4.150   6.184   0.892  1.00  0.00     0.116 C 
BRANCH   3   4
ATOM      4  N   UNL     1      -3.784   6.879  -0.331  1.00  0.00    -0.356 N 
ATOM      5  C   UNL     1      -2.692   6.750  -1.137  1.00  0.00     0.223 C 
ATOM      6  O   UNL     1      -2.667   7.408  -2.182  1.00  0.00    -0.275 OA
ATOM      7  H   UNL     1      -4.434   7.557  -0.627  1.00  0.00     0.163 HD
BRANCH   5   8
ATOM      8  C   UNL     1      -1.531   5.828  -0.776  1.00  0.00     0.084 C 
ATOM      9  C   UNL     1      -1.007   3.378  -0.095  1.00  0.00     0.183 C 
ATOM     10  C   UNL     1      -0.527   3.950   1.248  1.00  0.00     0.065 C 
ATOM     11  C   UNL     1      -1.963   4.351  -0.804  1.00  0.00     0.078 C 
ATOM     12  C   UNL     1       0.148   5.301   1.055  1.00  0.00     0.007 C 
ATOM     13  C   UNL     1      -0.829   6.317   0.496  1.00  0.00     0.014 C 
BRANCH   9  14
ATOM     14  N   UNL     1      -1.694   2.074  -0.048  1.00  0.00    -0.339 N 
ATOM     15  H   UNL     1      -2.697   2.248  -0.111  1.00  0.00     0.346 HD
ATOM     16  H   UNL     1      -1.312   1.536  -0.826  1.00  0.00     0.346 HD
BRANCH  14  17
ATOM     17  C   UNL     1      -1.456   1.267   1.139  1.00  0.00     0.317 C 
BRANCH  17  18
ATOM     18  C   UNL     1      -1.850  -0.146   0.897  1.00  0.00     0.093 A 
ATOM     19  N   UNL     1      -0.995  -1.225   0.819  1.00  0.00    -0.327 N 
ATOM     20  C   UNL     1      -1.774  -2.346   0.669  1.00  0.00     0.200 A 
ATOM     21  N   UNL     1      -3.051  -2.055   0.608  1.00  0.00    -0.245 NA
ATOM     22  C   UNL     1      -3.110  -0.696   0.755  1.00  0.00     0.140 A 
BRANCH  19  23
ATOM     23  C   UNL     1       0.464  -1.270   0.881  1.00  0.00     0.082 C 
ATOM     24  C   UNL     1       1.143  -0.402  -0.180  1.00  0.00     0.031 C 
ATOM     25  C   UNL     1       0.999  -1.004   2.288  1.00  0.00     0.031 C 
ENDBRANCH  19  23
ENDBRANCH  17  18
ENDBRANCH  14  17
ENDBRANCH   9  14
ENDBRANCH   5   8
ENDBRANCH   3   4
ENDBRANCH   2   3
ENDBRANCH   1   2
BRANCH   1  26
ATOM     26  C   UNL     1      -6.996   7.273   1.543  1.00  0.00     0.002 C 
BRANCH  26  27
ATOM     27  C   UNL     1      -7.379   6.102   2.458  1.00  0.00     0.021 C 
BRANCH  27  28
ATOM     28  C   UNL     1      -7.635   6.480   3.912  1.00  0.00     0.116 C 
BRANCH  28  29
ATOM     29  N   UNL     1      -8.786   7.364   4.063  1.00  0.00    -0.352 N 
ATOM     30  C   UNL     1      -9.178   8.074   5.175  1.00  0.00     0.251 C 
ATOM     31  H   UNL     1      -9.355   7.467   3.267  1.00  0.00     0.163 HD
ATOM     32  O   UNL     1     -10.334   8.489   5.269  1.00  0.00    -0.269 OA
BRANCH  30  33
ATOM     33  C   UNL     1      -8.211   8.312   6.260  1.00  0.00     0.039 A 
ATOM     34  C   UNL     1      -8.582   8.117   7.592  1.00  0.00     0.014 A 
ATOM     35  C   UNL     1      -6.913   8.702   5.938  1.00  0.00     0.014 A 
ATOM     36  C   UNL     1      -7.614   8.222   8.590  1.00  0.00     0.010 A 
ATOM     37  C   UNL     1      -5.935   8.706   6.913  1.00  0.00     0.010 A 
ATOM     38  C   UNL     1      -6.278   8.489   8.248  1.00  0.00    -0.014 A 
BRANCH  38  39
ATOM     39  C   UNL     1      -5.235   8.423   9.278  1.00  0.00     0.031 A 
ATOM     40  C   UNL     1      -5.187   7.170  10.088  1.00  0.00     0.074 A 
ATOM     41  C   UNL     1      -4.210   9.295   9.384  1.00  0.00     0.049 A 
ATOM     42  N   UNL     1      -5.384   7.032  11.359  1.00  0.00    -0.248 NA
ATOM     43  C   UNL     1      -4.955   5.901   9.380  1.00  0.00     0.031 C 
ATOM     44  C   UNL     1      -3.872  10.406   8.489  1.00  0.00     0.029 A 
ATOM     45  N   UNL     1      -3.163   9.280  10.259  1.00  0.00    -0.354 N 
ATOM     46  C   UNL     1      -5.106   5.698  11.654  1.00  0.00     0.074 A 
ATOM     47  C   UNL     1      -4.995   5.022  10.384  1.00  0.00     0.031 C 
ATOM     48  C   UNL     1      -2.594  10.783   8.707  1.00  0.00     0.029 A 
ATOM     49  C   UNL     1      -2.092  10.072   9.868  1.00  0.00     0.049 A 
ATOM     50  H   UNL     1      -3.167   8.756  11.093  1.00  0.00     0.167 HD
ATOM     51  C   UNL     1      -4.770   5.284  12.910  1.00  0.00     0.031 A 
ATOM     52  C   UNL     1      -0.863  10.126  10.433  1.00  0.00     0.031 A 
ATOM     53  C   UNL     1      -5.048   6.288  13.905  1.00  0.00     0.049 A 
ATOM     54  C   UNL     1      -0.980   9.610  11.815  1.00  0.00     0.074 A 
ATOM     55  C   UNL     1      -6.168   6.980  14.320  1.00  0.00     0.029 A 
ATOM     56  N   UNL     1      -3.972   6.973  14.418  1.00  0.00    -0.354 N 
ATOM     57  N   UNL     1      -1.644  10.220  12.755  1.00  0.00    -0.248 NA
ATOM     58  C   UNL     1      -0.665   8.217  12.082  1.00  0.00     0.031 C 
ATOM     59  C   UNL     1      -5.696   8.287  14.644  1.00  0.00     0.029 A 
ATOM     60  C   UNL     1      -4.312   8.300  14.452  1.00  0.00     0.049 A 
ATOM     61  H   UNL     1      -3.115   6.583  14.706  1.00  0.00     0.167 HD
ATOM     62  C   UNL     1      -2.198   9.204  13.517  1.00  0.00     0.074 A 
ATOM     63  C   UNL     1      -1.449   8.008  13.143  1.00  0.00     0.031 C 
ATOM     64  C   UNL     1      -3.389   9.378  14.164  1.00  0.00     0.031 A 
BRANCH  51  65
ATOM     65  C   UNL     1      -3.828   4.133  13.199  1.00  0.00    -0.014 A 
ATOM     66  C   UNL     1      -3.599   3.757  14.541  1.00  0.00     0.010 A 
ATOM     67  C   UNL     1      -2.942   3.613  12.234  1.00  0.00     0.010 A 
ATOM     68  C   UNL     1      -2.487   2.982  14.903  1.00  0.00     0.020 A 
ATOM     69  C   UNL     1      -1.861   2.799  12.578  1.00  0.00     0.020 A 
ATOM     70  C   UNL     1      -1.613   2.527  13.917  1.00  0.00     0.054 A 
BRANCH  70  71
ATOM     71  S   UNL     1      -0.102   1.654  14.398  1.00  0.00     0.124 S 
ATOM     72  O   UNL     1       0.673   2.723  15.020  1.00  0.00    -0.237 OA
ATOM     73  O   UNL     1      -0.608   0.627  15.305  1.00  0.00    -0.237 OA
ATOM     74  O   UNL     1       0.421   1.154  13.129  1.00  0.00    -0.744 OA
ENDBRANCH  70  71
ENDBRANCH  51  65
BRANCH  52  75
ATOM     75  C   UNL     1       0.439  10.390   9.778  1.00  0.00    -0.014 A 
ATOM     76  C   UNL     1       1.580  10.694  10.540  1.00  0.00     0.010 A 
ATOM     77  C   UNL     1       0.620  10.072   8.416  1.00  0.00     0.010 A 
ATOM     78  C   UNL     1       2.864  10.608   9.979  1.00  0.00     0.020 A 
ATOM     79  C   UNL     1       1.895   9.996   7.847  1.00  0.00     0.020 A 
ATOM     80  C   UNL     1       3.014  10.235   8.641  1.00  0.00     0.054 A 
BRANCH  80  81
ATOM     81  S   UNL     1       4.678   9.920   7.982  1.00  0.00     0.124 S 
ATOM     82  O   UNL     1       5.232  11.267   7.879  1.00  0.00    -0.237 OA
ATOM     83  O   UNL     1       5.270   9.068   9.009  1.00  0.00    -0.237 OA
ATOM     84  O   UNL     1       4.421   9.255   6.705  1.00  0.00    -0.744 OA
ENDBRANCH  80  81
ENDBRANCH  52  75
BRANCH  64  85
ATOM     85  C   UNL     1      -3.907  10.787  14.349  1.00  0.00    -0.014 A 
ATOM     86  C   UNL     1      -4.153  11.678  13.287  1.00  0.00     0.010 A 
ATOM     87  C   UNL     1      -4.265  11.186  15.650  1.00  0.00     0.010 A 
ATOM     88  C   UNL     1      -4.693  12.950  13.525  1.00  0.00     0.020 A 
ATOM     89  C   UNL     1      -4.825  12.443  15.892  1.00  0.00     0.020 A 
ATOM     90  C   UNL     1      -5.021  13.327  14.830  1.00  0.00     0.054 A 
BRANCH  90  91
ATOM     91  S   UNL     1      -5.739  14.966  15.129  1.00  0.00     0.124 S 
ATOM     92  O   UNL     1      -4.613  15.858  14.867  1.00  0.00    -0.237 OA
ATOM     93  O   UNL     1      -6.829  15.026  14.157  1.00  0.00    -0.237 OA
ATOM     94  O   UNL     1      -6.169  14.908  16.525  1.00  0.00    -0.744 OA
ENDBRANCH  90  91
ENDBRANCH  64  85
ENDBRANCH  38  39
ENDBRANCH  30  33
ENDBRANCH  28  29
ENDBRANCH  27  28
ENDBRANCH  26  27
ENDBRANCH   1  26
TORSDOF 20
