REMARK SMILES CC1(C)Oc2ccc(NC(=O)[C@H]3CC=CC[C@@H]3C(=O)NCCCCCCNC(=O)c3ccc(-c4c5nc(c(-c6ccc(S(=O)(=O)[O-])cc6)c6ccc([nH]6)c(-c6ccc(S(=O)(=O)[O-])cc6)c6nc(c(-c7ccc(S(=O)(=O)[O-])cc7)c7ccc4[nH]7)C=C6)C=C5)cc3)cc2NC1=O
REMARK SMILES IDX 24 1 23 2 22 3 21 4 20 5 18 6 19 7 17 9 12 10 13 11 14 12
REMARK SMILES IDX 16 13 15 14 10 15 9 16 11 18 8 19 1 20 2 21 3 22 4 23 93 24
REMARK SMILES IDX 5 25 92 26 94 27 6 28 91 29 7 31 90 32 25 33 26 34 27 35
REMARK SMILES IDX 28 36 29 38 30 39 31 40 89 41 32 42 88 43 33 44 34 45 35 46
REMARK SMILES IDX 82 47 36 48 87 49 81 50 83 51 37 52 86 53 80 54 79 55 38 57
REMARK SMILES IDX 68 58 49 59 67 60 50 61 53 62 66 63 84 64 51 65 52 66 65 68
REMARK SMILES IDX 85 69 54 70 39 71 40 72 48 73 41 74 47 75 42 76 43 77 44 78
REMARK SMILES IDX 45 79 46 80 69 81 70 82 78 83 71 84 77 85 72 86 73 87 74 88
REMARK SMILES IDX 75 89 76 90 55 91 56 92 64 93 57 94 63 95 58 96 59 97 60 98
REMARK SMILES IDX 61 99 62 100
REMARK H PARENT 20 8 9 17 92 30 27 37 83 56 53 67
REMARK Flexibility Score: inf
ROOT
ATOM      1  C   UNL     1       5.592  -6.318  -3.627  1.00  0.00     0.002 C 
ENDROOT
BRANCH   1   2
ATOM      2  C   UNL     1       5.197  -7.798  -3.544  1.00  0.00     0.002 C 
BRANCH   2   3
ATOM      3  C   UNL     1       4.399  -8.188  -2.297  1.00  0.00     0.021 C 
BRANCH   3   4
ATOM      4  C   UNL     1       3.100  -7.404  -2.148  1.00  0.00     0.116 C 
BRANCH   4   5
ATOM      5  N   UNL     1       2.016  -8.028  -2.885  1.00  0.00    -0.356 N 
ATOM      6  C   UNL     1       0.893  -8.730  -2.605  1.00  0.00     0.224 C 
ATOM      7  O   UNL     1       0.278  -9.093  -3.618  1.00  0.00    -0.275 OA
ATOM      8  H   UNL     1       2.128  -7.907  -3.855  1.00  0.00     0.163 HD
BRANCH   6   9
ATOM      9  C   UNL     1       0.269  -8.954  -1.211  1.00  0.00     0.095 C 
ATOM     10  C   UNL     1       1.197  -9.042   0.011  1.00  0.00     0.095 C 
ATOM     11  C   UNL     1       1.974 -10.374   0.053  1.00  0.00     0.041 C 
ATOM     12  C   UNL     1       1.258 -11.562  -0.512  1.00  0.00    -0.030 C 
ATOM     13  C   UNL     1      -0.672 -10.185  -1.258  1.00  0.00     0.041 C 
ATOM     14  C   UNL     1       0.054 -11.484  -1.089  1.00  0.00    -0.030 C 
BRANCH  10  15
ATOM     15  C   UNL     1       0.441  -8.737   1.305  1.00  0.00     0.228 C 
ATOM     16  N   UNL     1       0.249  -7.455   1.762  1.00  0.00    -0.326 N 
ATOM     17  H   UNL     1      -0.157  -7.437   2.659  1.00  0.00     0.169 HD
ATOM     18  O   UNL     1       0.006  -9.649   2.016  1.00  0.00    -0.274 OA
BRANCH  16  19
ATOM     19  C   UNL     1       0.493  -6.155   1.261  1.00  0.00     0.043 A 
ATOM     20  C   UNL     1       1.059   0.087   0.169  1.00  0.00     0.067 C 
ATOM     21  C   UNL     1       0.385  -1.223   0.583  1.00  0.00     0.182 C 
ATOM     22  C   UNL     1      -1.084  -1.195   0.125  1.00  0.00     0.067 C 
ATOM     23  O   UNL     1       1.056  -2.256  -0.145  1.00  0.00    -0.476 OA
ATOM     24  C   UNL     1       0.413  -1.379   2.123  1.00  0.00     0.268 C 
ATOM     25  C   UNL     1       0.865  -3.504   0.371  1.00  0.00     0.144 A 
ATOM     26  N   UNL     1       0.384  -2.679   2.574  1.00  0.00    -0.319 N 
ATOM     27  O   UNL     1       0.336  -0.442   2.912  1.00  0.00    -0.270 OA
ATOM     28  C   UNL     1       1.033  -4.556  -0.505  1.00  0.00     0.051 A 
ATOM     29  C   UNL     1       0.528  -3.757   1.699  1.00  0.00     0.086 A 
ATOM     30  H   UNL     1       0.259  -2.852   3.535  1.00  0.00     0.170 HD
ATOM     31  C   UNL     1       0.820  -5.859  -0.059  1.00  0.00     0.030 A 
ATOM     32  C   UNL     1       0.349  -5.075   2.148  1.00  0.00     0.056 A 
ENDBRANCH  16  19
ENDBRANCH  10  15
ENDBRANCH   6   9
ENDBRANCH   4   5
ENDBRANCH   3   4
ENDBRANCH   2   3
ENDBRANCH   1   2
BRANCH   1  33
ATOM     33  C   UNL     1       6.268  -5.752  -2.377  1.00  0.00     0.021 C 
BRANCH  33  34
ATOM     34  C   UNL     1       7.516  -6.508  -1.940  1.00  0.00     0.116 C 
BRANCH  34  35
ATOM     35  N   UNL     1       8.538  -6.526  -2.975  1.00  0.00    -0.352 N 
ATOM     36  C   UNL     1       9.832  -6.065  -2.938  1.00  0.00     0.251 C 
ATOM     37  H   UNL     1       8.260  -6.927  -3.830  1.00  0.00     0.163 HD
ATOM     38  O   UNL     1      10.480  -5.977  -3.973  1.00  0.00    -0.269 OA
BRANCH  36  39
ATOM     39  C   UNL     1      10.425  -5.657  -1.646  1.00  0.00     0.039 A 
ATOM     40  C   UNL     1      10.207  -6.417  -0.496  1.00  0.00     0.014 A 
ATOM     41  C   UNL     1      11.200  -4.496  -1.583  1.00  0.00     0.014 A 
ATOM     42  C   UNL     1      10.609  -5.926   0.739  1.00  0.00     0.010 A 
ATOM     43  C   UNL     1      11.697  -4.061  -0.350  1.00  0.00     0.010 A 
ATOM     44  C   UNL     1      11.367  -4.746   0.829  1.00  0.00    -0.014 A 
BRANCH  44  45
ATOM     45  C   UNL     1      11.817  -4.278   2.166  1.00  0.00     0.031 A 
ATOM     46  C   UNL     1      11.359  -2.955   2.722  1.00  0.00     0.074 A 
ATOM     47  C   UNL     1      12.596  -5.090   2.909  1.00  0.00     0.049 A 
ATOM     48  N   UNL     1      11.599  -2.438   3.901  1.00  0.00    -0.248 NA
ATOM     49  C   UNL     1      10.534  -2.099   1.854  1.00  0.00     0.031 C 
ATOM     50  C   UNL     1      13.102  -6.394   2.472  1.00  0.00     0.029 A 
ATOM     51  N   UNL     1      13.068  -4.967   4.192  1.00  0.00    -0.354 N 
ATOM     52  C   UNL     1      10.969  -1.199   3.911  1.00  0.00     0.074 A 
ATOM     53  C   UNL     1      10.368  -1.020   2.609  1.00  0.00     0.031 C 
ATOM     54  C   UNL     1      13.747  -6.979   3.490  1.00  0.00     0.029 A 
ATOM     55  C   UNL     1      13.773  -6.066   4.627  1.00  0.00     0.049 A 
ATOM     56  H   UNL     1      12.916  -4.168   4.748  1.00  0.00     0.167 HD
ATOM     57  C   UNL     1      10.886  -0.303   4.923  1.00  0.00     0.031 A 
ATOM     58  C   UNL     1      14.381  -6.317   5.803  1.00  0.00     0.031 A 
ATOM     59  C   UNL     1      11.471  -0.502   6.226  1.00  0.00     0.049 A 
ATOM     60  C   UNL     1      14.297  -5.292   6.897  1.00  0.00     0.074 A 
ATOM     61  C   UNL     1      11.400   0.331   7.328  1.00  0.00     0.029 A 
ATOM     62  N   UNL     1      12.229  -1.601   6.605  1.00  0.00    -0.354 N 
ATOM     63  N   UNL     1      13.654  -4.149   6.902  1.00  0.00    -0.248 NA
ATOM     64  C   UNL     1      15.012  -5.589   8.145  1.00  0.00     0.031 C 
ATOM     65  C   UNL     1      12.181  -0.221   8.345  1.00  0.00     0.029 A 
ATOM     66  C   UNL     1      12.668  -1.444   7.910  1.00  0.00     0.049 A 
ATOM     67  H   UNL     1      12.426  -2.377   6.032  1.00  0.00     0.167 HD
ATOM     68  C   UNL     1      13.888  -3.588   8.151  1.00  0.00     0.074 A 
ATOM     69  C   UNL     1      14.694  -4.539   8.891  1.00  0.00     0.031 C 
ATOM     70  C   UNL     1      13.485  -2.387   8.634  1.00  0.00     0.031 A 
BRANCH  57  71
ATOM     71  C   UNL     1      10.127   0.981   4.695  1.00  0.00    -0.014 A 
ATOM     72  C   UNL     1      10.810   2.212   4.745  1.00  0.00     0.010 A 
ATOM     73  C   UNL     1       8.725   0.985   4.588  1.00  0.00     0.010 A 
ATOM     74  C   UNL     1      10.104   3.418   4.748  1.00  0.00     0.020 A 
ATOM     75  C   UNL     1       8.017   2.191   4.558  1.00  0.00     0.020 A 
ATOM     76  C   UNL     1       8.710   3.399   4.669  1.00  0.00     0.054 A 
BRANCH  76  77
ATOM     77  S   UNL     1       7.809   4.972   4.747  1.00  0.00     0.124 S 
ATOM     78  O   UNL     1       7.974   5.352   6.147  1.00  0.00    -0.237 OA
ATOM     79  O   UNL     1       8.528   5.797   3.779  1.00  0.00    -0.237 OA
ATOM     80  O   UNL     1       6.450   4.608   4.354  1.00  0.00    -0.744 OA
ENDBRANCH  76  77
ENDBRANCH  57  71
BRANCH  58  81
ATOM     81  C   UNL     1      15.101  -7.610   5.987  1.00  0.00    -0.014 A 
ATOM     82  C   UNL     1      16.225  -7.915   5.196  1.00  0.00     0.010 A 
ATOM     83  C   UNL     1      14.618  -8.579   6.884  1.00  0.00     0.010 A 
ATOM     84  C   UNL     1      16.806  -9.184   5.243  1.00  0.00     0.020 A 
ATOM     85  C   UNL     1      15.223  -9.838   6.964  1.00  0.00     0.020 A 
ATOM     86  C   UNL     1      16.291 -10.143   6.117  1.00  0.00     0.054 A 
BRANCH  86  87
ATOM     87  S   UNL     1      17.022 -11.803   6.112  1.00  0.00     0.124 S 
ATOM     88  O   UNL     1      16.502 -12.353   4.864  1.00  0.00    -0.237 OA
ATOM     89  O   UNL     1      18.454 -11.520   6.127  1.00  0.00    -0.237 OA
ATOM     90  O   UNL     1      16.496 -12.412   7.331  1.00  0.00    -0.744 OA
ENDBRANCH  86  87
ENDBRANCH  58  81
BRANCH  70  91
ATOM     91  C   UNL     1      13.926  -2.002  10.024  1.00  0.00    -0.014 A 
ATOM     92  C   UNL     1      12.972  -1.821  11.044  1.00  0.00     0.010 A 
ATOM     93  C   UNL     1      15.275  -1.710  10.293  1.00  0.00     0.010 A 
ATOM     94  C   UNL     1      13.353  -1.324  12.293  1.00  0.00     0.020 A 
ATOM     95  C   UNL     1      15.666  -1.249  11.554  1.00  0.00     0.020 A 
ATOM     96  C   UNL     1      14.698  -1.036  12.537  1.00  0.00     0.054 A 
BRANCH  96  97
ATOM     97  S   UNL     1      15.170  -0.376  14.159  1.00  0.00     0.124 S 
ATOM     98  O   UNL     1      14.690   1.000  14.084  1.00  0.00    -0.237 OA
ATOM     99  O   UNL     1      14.445  -1.247  15.082  1.00  0.00    -0.237 OA
ATOM    100  O   UNL     1      16.623  -0.530  14.183  1.00  0.00    -0.744 OA
ENDBRANCH  96  97
ENDBRANCH  70  91
ENDBRANCH  44  45
ENDBRANCH  36  39
ENDBRANCH  34  35
ENDBRANCH  33  34
ENDBRANCH   1  33
TORSDOF 18
