REMARK SMILES CCC(CC)[C@H](C(=O)NCCCCCCNC(=O)c1ccc(-c2c3nc(c(-c4ccc(S(=O)(=O)[O-])cc4)c4ccc([nH]4)c(-c4ccc(S(=O)(=O)[O-])cc4)c4nc(c(-c5ccc(S(=O)(=O)[O-])cc5)c5ccc2[nH]5)C=C4)C=C3)cc1)c1ccc(OC(F)F)cc1
REMARK SMILES IDX 12 1 11 2 10 3 9 4 7 5 8 6 6 8 3 9 2 10 1 11 4 12 5 13 79 14
REMARK SMILES IDX 80 15 88 16 81 17 87 18 82 19 83 20 84 21 85 22 86 23 13 24
REMARK SMILES IDX 14 25 15 26 16 27 17 28 18 30 19 31 20 32 78 33 21 34 77 35
REMARK SMILES IDX 22 36 23 37 24 38 71 39 25 40 76 41 70 42 72 43 26 44 75 45
REMARK SMILES IDX 69 46 68 47 27 49 57 50 38 51 56 52 39 53 42 54 55 55 73 56
REMARK SMILES IDX 40 57 41 58 54 60 74 61 43 62 28 63 29 64 37 65 30 66 36 67
REMARK SMILES IDX 31 68 32 69 33 70 34 71 35 72 58 73 59 74 67 75 60 76 66 77
REMARK SMILES IDX 61 78 62 79 63 80 64 81 65 82 44 83 45 84 53 85 46 86 52 87
REMARK SMILES IDX 47 88 48 89 49 90 50 91 51 92
REMARK H PARENT 9 7 16 29 72 48 42 59
REMARK Flexibility Score: inf
ROOT
ATOM      1  C   UNL     1       0.279  -2.112   0.318  1.00  0.00     0.002 C 
ENDROOT
BRANCH   1   2
ATOM      2  C   UNL     1      -0.643  -1.169   1.108  1.00  0.00     0.021 C 
BRANCH   2   3
ATOM      3  C   UNL     1       0.040  -0.059   1.904  1.00  0.00     0.116 C 
BRANCH   3   4
ATOM      4  N   UNL     1       0.747   0.983   1.187  1.00  0.00    -0.356 N 
ATOM      5  C   UNL     1       1.388   2.106   1.675  1.00  0.00     0.227 C 
ATOM      6  O   UNL     1       2.190   2.641   0.901  1.00  0.00    -0.274 OA
ATOM      7  H   UNL     1       0.774   0.875   0.209  1.00  0.00     0.163 HD
BRANCH   5   8
ATOM      8  C   UNL     1       1.052   2.742   3.074  1.00  0.00     0.111 C 
BRANCH   8   9
ATOM      9  C   UNL     1       1.631   2.043   4.421  1.00  0.00     0.005 C 
BRANCH   9  10
ATOM     10  C   UNL     1       1.736   0.506   4.348  1.00  0.00     0.001 C 
ATOM     11  C   UNL     1       2.334  -0.271   5.517  1.00  0.00     0.004 C 
ENDBRANCH   9  10
BRANCH   9  12
ATOM     12  C   UNL     1       2.922   2.591   5.061  1.00  0.00     0.001 C 
ATOM     13  C   UNL     1       4.188   2.325   4.253  1.00  0.00     0.004 C 
ENDBRANCH   9  12
ENDBRANCH   8   9
BRANCH   8  14
ATOM     14  C   UNL     1       1.188   4.303   3.005  1.00  0.00    -0.035 A 
ATOM     15  C   UNL     1       2.394   4.966   3.262  1.00  0.00     0.008 A 
ATOM     16  C   UNL     1       0.121   5.135   2.614  1.00  0.00     0.008 A 
ATOM     17  C   UNL     1       2.497   6.356   3.343  1.00  0.00     0.047 A 
ATOM     18  C   UNL     1       0.242   6.551   2.602  1.00  0.00     0.047 A 
ATOM     19  C   UNL     1       1.423   7.164   3.014  1.00  0.00     0.126 A 
BRANCH  19  20
ATOM     20  O   UNL     1       1.681   8.492   3.166  1.00  0.00    -0.435 OA
BRANCH  20  21
ATOM     21  C   UNL     1       0.907   9.433   2.448  1.00  0.00     0.542 C 
ATOM     22  F   UNL     1       0.886   9.120   1.131  1.00  0.00    -0.167 F 
ATOM     23  F   UNL     1      -0.365   9.443   2.909  1.00  0.00    -0.167 F 
ENDBRANCH  20  21
ENDBRANCH  19  20
ENDBRANCH   8  14
ENDBRANCH   5   8
ENDBRANCH   3   4
ENDBRANCH   2   3
ENDBRANCH   1   2
BRANCH   1  24
ATOM     24  C   UNL     1       1.532  -2.669   1.014  1.00  0.00     0.002 C 
BRANCH  24  25
ATOM     25  C   UNL     1       1.346  -3.449   2.320  1.00  0.00     0.021 C 
BRANCH  25  26
ATOM     26  C   UNL     1       0.380  -4.630   2.286  1.00  0.00     0.116 C 
BRANCH  26  27
ATOM     27  N   UNL     1       0.715  -5.627   1.284  1.00  0.00    -0.352 N 
ATOM     28  C   UNL     1       0.772  -7.000   1.382  1.00  0.00     0.251 C 
ATOM     29  H   UNL     1       0.935  -5.265   0.395  1.00  0.00     0.163 HD
ATOM     30  O   UNL     1       1.174  -7.658   0.432  1.00  0.00    -0.269 OA
BRANCH  28  31
ATOM     31  C   UNL     1       0.382  -7.682   2.640  1.00  0.00     0.039 A 
ATOM     32  C   UNL     1       1.186  -8.723   3.117  1.00  0.00     0.014 A 
ATOM     33  C   UNL     1      -0.767  -7.316   3.344  1.00  0.00     0.014 A 
ATOM     34  C   UNL     1       0.881  -9.340   4.335  1.00  0.00     0.010 A 
ATOM     35  C   UNL     1      -1.031  -7.883   4.590  1.00  0.00     0.010 A 
ATOM     36  C   UNL     1      -0.207  -8.897   5.104  1.00  0.00    -0.014 A 
BRANCH  36  37
ATOM     37  C   UNL     1      -0.493  -9.466   6.448  1.00  0.00     0.031 A 
ATOM     38  C   UNL     1      -1.785 -10.196   6.705  1.00  0.00     0.074 A 
ATOM     39  C   UNL     1       0.380  -9.268   7.458  1.00  0.00     0.049 A 
ATOM     40  N   UNL     1      -2.249 -10.682   7.829  1.00  0.00    -0.248 NA
ATOM     41  C   UNL     1      -2.683 -10.384   5.554  1.00  0.00     0.031 C 
ATOM     42  C   UNL     1       1.656  -8.558   7.349  1.00  0.00     0.029 A 
ATOM     43  N   UNL     1       0.322  -9.639   8.780  1.00  0.00    -0.354 N 
ATOM     44  C   UNL     1      -3.493 -11.222   7.524  1.00  0.00     0.074 A 
ATOM     45  C   UNL     1      -3.735 -10.956   6.122  1.00  0.00     0.031 C 
ATOM     46  C   UNL     1       2.270  -8.567   8.543  1.00  0.00     0.029 A 
ATOM     47  C   UNL     1       1.413  -9.237   9.516  1.00  0.00     0.049 A 
ATOM     48  H   UNL     1      -0.430 -10.145   9.164  1.00  0.00     0.167 HD
ATOM     49  C   UNL     1      -4.349 -11.895   8.330  1.00  0.00     0.031 A 
ATOM     50  C   UNL     1       1.689  -9.379  10.828  1.00  0.00     0.031 A 
ATOM     51  C   UNL     1      -4.104 -12.161   9.723  1.00  0.00     0.049 A 
ATOM     52  C   UNL     1       0.702 -10.093  11.712  1.00  0.00     0.074 A 
ATOM     53  C   UNL     1      -4.893 -12.868  10.615  1.00  0.00     0.029 A 
ATOM     54  N   UNL     1      -2.990 -11.733  10.429  1.00  0.00    -0.354 N 
ATOM     55  N   UNL     1      -0.446 -10.640  11.392  1.00  0.00    -0.248 NA
ATOM     56  C   UNL     1       1.052 -10.216  13.134  1.00  0.00     0.031 C 
ATOM     57  C   UNL     1      -4.284 -12.818  11.872  1.00  0.00     0.029 A 
ATOM     58  C   UNL     1      -3.082 -12.140  11.750  1.00  0.00     0.049 A 
ATOM     59  H   UNL     1      -2.244 -11.216  10.048  1.00  0.00     0.167 HD
ATOM     60  C   UNL     1      -0.937 -11.204  12.565  1.00  0.00     0.074 A 
ATOM     61  C   UNL     1       0.043 -10.941  13.598  1.00  0.00     0.031 C 
ATOM     62  C   UNL     1      -2.095 -11.880  12.767  1.00  0.00     0.031 A 
BRANCH  49  63
ATOM     63  C   UNL     1      -5.636 -12.393   7.724  1.00  0.00    -0.014 A 
ATOM     64  C   UNL     1      -5.638 -13.437   6.781  1.00  0.00     0.010 A 
ATOM     65  C   UNL     1      -6.865 -11.848   8.141  1.00  0.00     0.010 A 
ATOM     66  C   UNL     1      -6.840 -13.898   6.237  1.00  0.00     0.020 A 
ATOM     67  C   UNL     1      -8.071 -12.328   7.623  1.00  0.00     0.020 A 
ATOM     68  C   UNL     1      -8.049 -13.341   6.661  1.00  0.00     0.054 A 
BRANCH  68  69
ATOM     69  S   UNL     1      -9.593 -13.981   5.958  1.00  0.00     0.124 S 
ATOM     70  O   UNL     1      -9.535 -13.472   4.590  1.00  0.00    -0.237 OA
ATOM     71  O   UNL     1      -9.432 -15.426   6.097  1.00  0.00    -0.237 OA
ATOM     72  O   UNL     1     -10.631 -13.389   6.798  1.00  0.00    -0.744 OA
ENDBRANCH  68  69
ENDBRANCH  49  63
BRANCH  50  73
ATOM     73  C   UNL     1       2.959  -8.838  11.390  1.00  0.00    -0.014 A 
ATOM     74  C   UNL     1       3.960  -9.707  11.860  1.00  0.00     0.010 A 
ATOM     75  C   UNL     1       3.171  -7.449  11.469  1.00  0.00     0.010 A 
ATOM     76  C   UNL     1       5.134  -9.200  12.424  1.00  0.00     0.020 A 
ATOM     77  C   UNL     1       4.358  -6.938  12.002  1.00  0.00     0.020 A 
ATOM     78  C   UNL     1       5.326  -7.817  12.491  1.00  0.00     0.054 A 
BRANCH  78  79
ATOM     79  S   UNL     1       6.871  -7.182  13.198  1.00  0.00     0.124 S 
ATOM     80  O   UNL     1       6.692  -7.463  14.619  1.00  0.00    -0.237 OA
ATOM     81  O   UNL     1       7.883  -7.984  12.516  1.00  0.00    -0.237 OA
ATOM     82  O   UNL     1       6.857  -5.767  12.833  1.00  0.00    -0.744 OA
ENDBRANCH  78  79
ENDBRANCH  50  73
BRANCH  62  83
ATOM     83  C   UNL     1      -2.351 -12.430  14.146  1.00  0.00    -0.014 A 
ATOM     84  C   UNL     1      -2.667 -11.586  15.226  1.00  0.00     0.010 A 
ATOM     85  C   UNL     1      -2.340 -13.823  14.346  1.00  0.00     0.010 A 
ATOM     86  C   UNL     1      -2.942 -12.125  16.486  1.00  0.00     0.020 A 
ATOM     87  C   UNL     1      -2.645 -14.367  15.596  1.00  0.00     0.020 A 
ATOM     88  C   UNL     1      -2.934 -13.512  16.662  1.00  0.00     0.054 A 
BRANCH  88  89
ATOM     89  S   UNL     1      -3.352 -14.187  18.293  1.00  0.00     0.124 S 
ATOM     90  O   UNL     1      -2.171 -13.840  19.078  1.00  0.00    -0.237 OA
ATOM     91  O   UNL     1      -4.571 -13.458  18.636  1.00  0.00    -0.237 OA
ATOM     92  O   UNL     1      -3.537 -15.614  18.042  1.00  0.00    -0.744 OA
ENDBRANCH  88  89
ENDBRANCH  62  83
ENDBRANCH  36  37
ENDBRANCH  28  31
ENDBRANCH  26  27
ENDBRANCH  25  26
ENDBRANCH  24  25
ENDBRANCH   1  24
TORSDOF 22
