REMARK SMILES Cc1ccc(C(=O)NCCCCCCNC(=O)c2ccc(-c3c4nc(c(-c5ccc(S(=O)(=O)[O-])cc5)c5ccc([nH]5)c(-c5ccc(S(=O)(=O)[O-])cc5)c5nc(c(-c6ccc(S(=O)(=O)[O-])cc6)c6ccc3[nH]6)C=C5)C=C4)cc2)cc1NC(=O)c1ccc(Br)o1
REMARK SMILES IDX 12 1 11 2 10 3 9 4 8 5 6 6 7 7 5 9 1 10 2 11 3 12 79 13 4 14
REMARK SMILES IDX 78 15 80 16 81 17 82 19 83 20 84 21 88 22 85 23 86 24 87 25
REMARK SMILES IDX 13 26 14 27 15 28 16 29 17 31 18 32 19 33 77 34 20 35 76 36
REMARK SMILES IDX 21 37 22 38 23 39 70 40 24 41 75 42 69 43 71 44 25 45 74 46
REMARK SMILES IDX 68 47 67 48 26 50 56 51 37 52 55 53 38 54 41 55 54 56 72 57
REMARK SMILES IDX 39 58 40 59 53 61 73 62 42 63 27 64 28 65 36 66 29 67 35 68
REMARK SMILES IDX 30 69 31 70 32 71 33 72 34 73 57 74 58 75 66 76 59 77 65 78
REMARK SMILES IDX 60 79 61 80 62 81 63 82 64 83 43 84 44 85 52 86 45 87 51 88
REMARK SMILES IDX 46 89 47 90 48 91 49 92 50 93
REMARK H PARENT 8 8 80 18 15 30 71 49 41 60
REMARK Flexibility Score: inf
ROOT
ATOM      1  C   UNL     1      -6.553   4.095   0.011  1.00  0.00     0.002 C 
ENDROOT
BRANCH   1   2
ATOM      2  C   UNL     1      -5.948   3.432  -1.235  1.00  0.00     0.002 C 
BRANCH   2   3
ATOM      3  C   UNL     1      -4.484   2.952  -1.207  1.00  0.00     0.021 C 
BRANCH   3   4
ATOM      4  C   UNL     1      -4.014   2.092  -0.025  1.00  0.00     0.116 C 
BRANCH   4   5
ATOM      5  N   UNL     1      -3.980   0.676  -0.350  1.00  0.00    -0.352 N 
ATOM      6  C   UNL     1      -3.044  -0.323  -0.371  1.00  0.00     0.251 C 
ATOM      7  O   UNL     1      -3.516  -1.450  -0.578  1.00  0.00    -0.269 OA
ATOM      8  H   UNL     1      -4.866   0.348  -0.628  1.00  0.00     0.163 HD
BRANCH   6   9
ATOM      9  C   UNL     1      -1.553  -0.227  -0.162  1.00  0.00     0.041 A 
ATOM     10  C   UNL     1       2.772  -0.696   0.122  1.00  0.00     0.046 C 
ATOM     11  C   UNL     1       1.282  -0.440   0.079  1.00  0.00    -0.027 A 
ATOM     12  C   UNL     1       0.478  -1.582   0.036  1.00  0.00     0.006 A 
ATOM     13  C   UNL     1       0.665   0.834   0.076  1.00  0.00     0.045 A 
ATOM     14  C   UNL     1      -0.906  -1.473  -0.060  1.00  0.00     0.014 A 
ATOM     15  C   UNL     1      -0.742   0.922  -0.109  1.00  0.00     0.040 A 
BRANCH  13  16
ATOM     16  N   UNL     1       1.522   1.933   0.302  1.00  0.00    -0.319 N 
ATOM     17  C   UNL     1       1.396   3.284   0.476  1.00  0.00     0.291 C 
ATOM     18  H   UNL     1       2.465   1.651   0.346  1.00  0.00     0.170 HD
ATOM     19  O   UNL     1       2.427   3.901   0.754  1.00  0.00    -0.265 OA
BRANCH  17  20
ATOM     20  C   UNL     1       0.136   3.932   0.342  1.00  0.00     0.193 A 
ATOM     21  C   UNL     1      -0.896   4.169   1.226  1.00  0.00     0.057 A 
ATOM     22  O   UNL     1      -0.125   4.517  -0.856  1.00  0.00    -0.444 OA
ATOM     23  C   UNL     1      -1.836   4.961   0.522  1.00  0.00     0.059 A 
ATOM     24  C   UNL     1      -1.322   5.133  -0.743  1.00  0.00     0.170 A 
ATOM     25  Br  UNL     1      -2.122   6.031  -2.152  1.00  0.00    -0.008 Br
ENDBRANCH  17  20
ENDBRANCH  13  16
ENDBRANCH   6   9
ENDBRANCH   4   5
ENDBRANCH   3   4
ENDBRANCH   2   3
ENDBRANCH   1   2
BRANCH   1  26
ATOM     26  C   UNL     1      -5.963   5.412   0.525  1.00  0.00     0.021 C 
BRANCH  26  27
ATOM     27  C   UNL     1      -6.031   6.609  -0.431  1.00  0.00     0.116 C 
BRANCH  27  28
ATOM     28  N   UNL     1      -6.394   7.843   0.279  1.00  0.00    -0.352 N 
ATOM     29  C   UNL     1      -6.275   9.165  -0.126  1.00  0.00     0.251 C 
ATOM     30  H   UNL     1      -6.779   7.712   1.176  1.00  0.00     0.163 HD
ATOM     31  O   UNL     1      -6.574  10.100   0.574  1.00  0.00    -0.269 OA
BRANCH  29  32
ATOM     32  C   UNL     1      -5.784   9.382  -1.497  1.00  0.00     0.039 A 
ATOM     33  C   UNL     1      -6.707   9.728  -2.489  1.00  0.00     0.014 A 
ATOM     34  C   UNL     1      -4.485   9.004  -1.806  1.00  0.00     0.014 A 
ATOM     35  C   UNL     1      -6.382   9.498  -3.822  1.00  0.00     0.010 A 
ATOM     36  C   UNL     1      -4.182   8.750  -3.127  1.00  0.00     0.010 A 
ATOM     37  C   UNL     1      -5.152   8.916  -4.120  1.00  0.00    -0.014 A 
BRANCH  37  38
ATOM     38  C   UNL     1      -4.820   8.351  -5.421  1.00  0.00     0.031 A 
ATOM     39  C   UNL     1      -3.912   9.087  -6.328  1.00  0.00     0.074 A 
ATOM     40  C   UNL     1      -5.290   7.134  -5.782  1.00  0.00     0.049 A 
ATOM     41  N   UNL     1      -3.947   8.994  -7.615  1.00  0.00    -0.248 NA
ATOM     42  C   UNL     1      -2.895  10.020  -5.845  1.00  0.00     0.031 C 
ATOM     43  C   UNL     1      -4.879   6.345  -6.944  1.00  0.00     0.029 A 
ATOM     44  N   UNL     1      -6.335   6.376  -5.268  1.00  0.00    -0.354 N 
ATOM     45  C   UNL     1      -2.799   9.579  -8.095  1.00  0.00     0.074 A 
ATOM     46  C   UNL     1      -2.224  10.282  -6.971  1.00  0.00     0.031 C 
ATOM     47  C   UNL     1      -5.847   5.456  -7.224  1.00  0.00     0.029 A 
ATOM     48  C   UNL     1      -6.965   5.756  -6.349  1.00  0.00     0.049 A 
ATOM     49  H   UNL     1      -6.585   6.292  -4.319  1.00  0.00     0.167 HD
ATOM     50  C   UNL     1      -2.353   9.280  -9.346  1.00  0.00     0.031 A 
ATOM     51  C   UNL     1      -8.230   6.044  -6.782  1.00  0.00     0.031 A 
ATOM     52  C   UNL     1      -3.237   8.345 -10.034  1.00  0.00     0.049 A 
ATOM     53  C   UNL     1      -8.278   6.514  -8.231  1.00  0.00     0.074 A 
ATOM     54  C   UNL     1      -3.172   6.977 -10.251  1.00  0.00     0.029 A 
ATOM     55  N   UNL     1      -4.537   8.729 -10.339  1.00  0.00    -0.354 N 
ATOM     56  N   UNL     1      -7.239   6.932  -8.901  1.00  0.00    -0.248 NA
ATOM     57  C   UNL     1      -9.500   6.577  -9.029  1.00  0.00     0.031 C 
ATOM     58  C   UNL     1      -4.461   6.531 -10.642  1.00  0.00     0.029 A 
ATOM     59  C   UNL     1      -5.301   7.629 -10.685  1.00  0.00     0.049 A 
ATOM     60  H   UNL     1      -4.869   9.655 -10.312  1.00  0.00     0.167 HD
ATOM     61  C   UNL     1      -7.609   7.305 -10.170  1.00  0.00     0.074 A 
ATOM     62  C   UNL     1      -9.038   7.051 -10.202  1.00  0.00     0.031 C 
ATOM     63  C   UNL     1      -6.699   7.791 -11.071  1.00  0.00     0.031 A 
BRANCH  50  64
ATOM     64  C   UNL     1      -0.943   9.597  -9.780  1.00  0.00    -0.014 A 
ATOM     65  C   UNL     1      -0.231   8.676 -10.573  1.00  0.00     0.010 A 
ATOM     66  C   UNL     1      -0.250  10.760  -9.390  1.00  0.00     0.010 A 
ATOM     67  C   UNL     1       1.126   8.849 -10.873  1.00  0.00     0.020 A 
ATOM     68  C   UNL     1       1.120  10.928  -9.649  1.00  0.00     0.020 A 
ATOM     69  C   UNL     1       1.803   9.963 -10.383  1.00  0.00     0.054 A 
BRANCH  69  70
ATOM     70  S   UNL     1       3.579  10.119 -10.709  1.00  0.00     0.124 S 
ATOM     71  O   UNL     1       4.104   8.845 -10.220  1.00  0.00    -0.237 OA
ATOM     72  O   UNL     1       3.615  10.300 -12.156  1.00  0.00    -0.237 OA
ATOM     73  O   UNL     1       3.974  11.287  -9.924  1.00  0.00    -0.744 OA
ENDBRANCH  69  70
ENDBRANCH  50  64
BRANCH  51  74
ATOM     74  C   UNL     1      -9.170   6.476  -5.710  1.00  0.00    -0.014 A 
ATOM     75  C   UNL     1      -9.545   5.519  -4.744  1.00  0.00     0.010 A 
ATOM     76  C   UNL     1      -9.363   7.838  -5.421  1.00  0.00     0.010 A 
ATOM     77  C   UNL     1      -9.951   5.912  -3.466  1.00  0.00     0.020 A 
ATOM     78  C   UNL     1      -9.781   8.235  -4.140  1.00  0.00     0.020 A 
ATOM     79  C   UNL     1     -10.022   7.270  -3.157  1.00  0.00     0.054 A 
BRANCH  79  80
ATOM     80  S   UNL     1     -10.242   7.740  -1.412  1.00  0.00     0.124 S 
ATOM     81  O   UNL     1     -11.639   7.399  -1.174  1.00  0.00    -0.237 OA
ATOM     82  O   UNL     1      -9.266   6.888  -0.733  1.00  0.00    -0.237 OA
ATOM     83  O   UNL     1      -9.928   9.165  -1.404  1.00  0.00    -0.744 OA
ENDBRANCH  79  80
ENDBRANCH  51  74
BRANCH  63  84
ATOM     84  C   UNL     1      -6.976   8.399 -12.437  1.00  0.00    -0.014 A 
ATOM     85  C   UNL     1      -8.239   8.764 -12.922  1.00  0.00     0.010 A 
ATOM     86  C   UNL     1      -5.871   8.713 -13.275  1.00  0.00     0.010 A 
ATOM     87  C   UNL     1      -8.397   9.367 -14.182  1.00  0.00     0.020 A 
ATOM     88  C   UNL     1      -6.011   9.353 -14.510  1.00  0.00     0.020 A 
ATOM     89  C   UNL     1      -7.282   9.659 -14.968  1.00  0.00     0.054 A 
BRANCH  89  90
ATOM     90  S   UNL     1      -7.503  10.498 -16.556  1.00  0.00     0.124 S 
ATOM     91  O   UNL     1      -7.888   9.393 -17.430  1.00  0.00    -0.237 OA
ATOM     92  O   UNL     1      -8.561  11.464 -16.266  1.00  0.00    -0.237 OA
ATOM     93  O   UNL     1      -6.192  11.083 -16.825  1.00  0.00    -0.744 OA
ENDBRANCH  89  90
ENDBRANCH  63  84
ENDBRANCH  37  38
ENDBRANCH  29  32
ENDBRANCH  27  28
ENDBRANCH  26  27
ENDBRANCH   1  26
TORSDOF 18
