REMARK SMILES CC(C)C(=O)Nc1ccc2c([C@@H](C(=O)NCCCCCCNC(=O)c3ccc(-c4c5nc(c(-c6ccc(S(=O)(=O)[O-])cc6)c6ccc([nH]6)c(-c6ccc(S(=O)(=O)[O-])cc6)c6nc(c(-c7ccc(S(=O)(=O)[O-])cc7)c7ccc4[nH]7)C=C6)C=C5)cc3)[NH+]3CC[NH+](Cc4ccccc4)CC3)c[nH]c2c1
REMARK SMILES IDX 18 1 17 2 16 3 15 4 13 5 14 6 12 8 11 9 7 10 8 11 101 12
REMARK SMILES IDX 9 13 100 14 10 15 99 16 98 17 6 19 4 20 5 21 2 23 1 24 3 25
REMARK SMILES IDX 85 26 86 27 97 28 87 30 96 31 88 32 89 34 90 35 91 36 95 37
REMARK SMILES IDX 92 38 94 39 93 40 19 41 20 42 21 43 22 44 23 45 24 47 25 48
REMARK SMILES IDX 26 49 84 50 27 51 83 52 28 53 29 54 30 55 77 56 31 57 82 58
REMARK SMILES IDX 76 59 78 60 32 61 81 62 75 63 74 64 33 66 63 67 44 68 62 69
REMARK SMILES IDX 45 70 48 71 61 72 79 73 46 74 47 75 60 77 80 78 49 79 34 80
REMARK SMILES IDX 35 81 43 82 36 83 42 84 37 85 38 86 39 87 40 88 41 89 64 90
REMARK SMILES IDX 65 91 73 92 66 93 72 94 67 95 68 96 69 97 70 98 71 99 50 100
REMARK SMILES IDX 51 101 59 102 52 103 58 104 53 105 54 106 55 107 56 108
REMARK SMILES IDX 57 109
REMARK H PARENT 15 7 99 18 6 22 85 29 88 33 22 46 78 65 48 76
REMARK Flexibility Score: inf
ROOT
ATOM      1  C   UNL     1      -1.404   3.361  -7.513  1.00  0.00     0.002 C 
ENDROOT
BRANCH   1   2
ATOM      2  C   UNL     1      -0.914   3.114  -6.083  1.00  0.00     0.021 C 
BRANCH   2   3
ATOM      3  C   UNL     1       0.497   2.535  -6.020  1.00  0.00     0.116 C 
BRANCH   3   4
ATOM      4  N   UNL     1       1.466   3.505  -6.466  1.00  0.00    -0.351 N 
ATOM      5  C   UNL     1       2.167   4.420  -5.731  1.00  0.00     0.283 C 
ATOM      6  O   UNL     1       2.819   5.237  -6.393  1.00  0.00    -0.268 OA
ATOM      7  H   UNL     1       1.647   3.509  -7.434  1.00  0.00     0.163 HD
BRANCH   5   8
ATOM      8  C   UNL     1       2.219   4.313  -4.171  1.00  0.00     0.308 C 
BRANCH   8   9
ATOM      9  C   UNL     1       0.895   4.442  -3.448  1.00  0.00     0.044 A 
ATOM     10  C   UNL     1      -1.129   1.982  -0.706  1.00  0.00     0.043 A 
ATOM     11  C   UNL     1      -0.140   1.361  -1.453  1.00  0.00     0.027 A 
ATOM     12  C   UNL     1      -1.565   3.268  -1.039  1.00  0.00     0.052 A 
ATOM     13  C   UNL     1       0.624   2.079  -2.368  1.00  0.00     0.013 A 
ATOM     14  C   UNL     1      -0.824   3.964  -2.006  1.00  0.00     0.048 A 
ATOM     15  C   UNL     1       0.301   3.423  -2.627  1.00  0.00     0.009 A 
ATOM     16  N   UNL     1      -0.980   5.233  -2.507  1.00  0.00    -0.361 N 
ATOM     17  C   UNL     1       0.016   5.512  -3.405  1.00  0.00     0.094 A 
ATOM     18  H   UNL     1      -1.703   5.852  -2.257  1.00  0.00     0.166 HD
BRANCH  10  19
ATOM     19  N   UNL     1      -1.709   1.333   0.387  1.00  0.00    -0.326 N 
ATOM     20  C   UNL     1      -1.124   0.569   1.360  1.00  0.00     0.226 C 
ATOM     21  O   UNL     1      -1.874  -0.062   2.114  1.00  0.00    -0.274 OA
ATOM     22  H   UNL     1      -2.684   1.441   0.469  1.00  0.00     0.169 HD
BRANCH  20  23
ATOM     23  C   UNL     1       0.392   0.566   1.639  1.00  0.00     0.072 C 
ATOM     24  C   UNL     1       1.235  -0.365   0.774  1.00  0.00     0.018 C 
ATOM     25  C   UNL     1       1.000   1.963   1.763  1.00  0.00     0.018 C 
ENDBRANCH  20  23
ENDBRANCH  10  19
ENDBRANCH   8   9
BRANCH   8  26
ATOM     26  N   UNL     1       3.206   5.250  -3.614  1.00  0.00    -0.312 N 
ATOM     27  C   UNL     1       3.007   6.672  -3.866  1.00  0.00     0.325 C 
ATOM     28  C   UNL     1       3.811   4.910  -2.333  1.00  0.00     0.325 C 
ATOM     29  H   UNL     1       3.973   5.043  -4.254  1.00  0.00     0.349 HD
ATOM     30  C   UNL     1       2.704   7.563  -2.640  1.00  0.00     0.324 C 
ATOM     31  C   UNL     1       3.464   5.834  -1.142  1.00  0.00     0.324 C 
ATOM     32  N   UNL     1       3.439   7.276  -1.408  1.00  0.00    -0.322 N 
ATOM     33  H   UNL     1       2.909   7.688  -0.639  1.00  0.00     0.348 HD
BRANCH  32  34
ATOM     34  C   UNL     1       4.704   7.998  -1.244  1.00  0.00     0.299 C 
BRANCH  34  35
ATOM     35  C   UNL     1       5.844   7.642  -2.169  1.00  0.00     0.006 A 
ATOM     36  C   UNL     1       6.818   6.714  -1.774  1.00  0.00     0.009 A 
ATOM     37  C   UNL     1       5.932   8.202  -3.451  1.00  0.00     0.009 A 
ATOM     38  C   UNL     1       7.800   6.292  -2.671  1.00  0.00     0.001 A 
ATOM     39  C   UNL     1       6.896   7.759  -4.357  1.00  0.00     0.001 A 
ATOM     40  C   UNL     1       7.823   6.796  -3.970  1.00  0.00     0.000 A 
ENDBRANCH  34  35
ENDBRANCH  32  34
ENDBRANCH   8  26
ENDBRANCH   5   8
ENDBRANCH   3   4
ENDBRANCH   2   3
ENDBRANCH   1   2
BRANCH   1  41
ATOM     41  C   UNL     1      -1.359   2.129  -8.420  1.00  0.00     0.002 C 
BRANCH  41  42
ATOM     42  C   UNL     1      -2.045   0.889  -7.841  1.00  0.00     0.021 C 
BRANCH  42  43
ATOM     43  C   UNL     1      -3.511   1.097  -7.487  1.00  0.00     0.116 C 
BRANCH  43  44
ATOM     44  N   UNL     1      -4.298   1.427  -8.662  1.00  0.00    -0.352 N 
ATOM     45  C   UNL     1      -5.442   0.834  -9.120  1.00  0.00     0.251 C 
ATOM     46  H   UNL     1      -3.962   2.179  -9.202  1.00  0.00     0.163 HD
ATOM     47  O   UNL     1      -5.842   1.074 -10.261  1.00  0.00    -0.269 OA
BRANCH  45  48
ATOM     48  C   UNL     1      -6.192  -0.091  -8.247  1.00  0.00     0.039 A 
ATOM     49  C   UNL     1      -6.723  -1.259  -8.798  1.00  0.00     0.014 A 
ATOM     50  C   UNL     1      -6.407   0.214  -6.899  1.00  0.00     0.014 A 
ATOM     51  C   UNL     1      -7.462  -2.127  -7.994  1.00  0.00     0.010 A 
ATOM     52  C   UNL     1      -7.080  -0.688  -6.082  1.00  0.00     0.010 A 
ATOM     53  C   UNL     1      -7.642  -1.850  -6.629  1.00  0.00    -0.014 A 
BRANCH  53  54
ATOM     54  C   UNL     1      -8.477  -2.732  -5.777  1.00  0.00     0.031 A 
ATOM     55  C   UNL     1      -9.768  -2.209  -5.203  1.00  0.00     0.074 A 
ATOM     56  C   UNL     1      -8.064  -3.982  -5.496  1.00  0.00     0.049 A 
ATOM     57  N   UNL     1     -10.627  -2.811  -4.422  1.00  0.00    -0.248 NA
ATOM     58  C   UNL     1     -10.127  -0.818  -5.528  1.00  0.00     0.031 C 
ATOM     59  C   UNL     1      -6.814  -4.587  -5.962  1.00  0.00     0.029 A 
ATOM     60  N   UNL     1      -8.654  -4.970  -4.750  1.00  0.00    -0.354 N 
ATOM     61  C   UNL     1     -11.613  -1.870  -4.148  1.00  0.00     0.074 A 
ATOM     62  C   UNL     1     -11.220  -0.641  -4.801  1.00  0.00     0.031 C 
ATOM     63  C   UNL     1      -6.746  -5.852  -5.516  1.00  0.00     0.029 A 
ATOM     64  C   UNL     1      -7.929  -6.137  -4.709  1.00  0.00     0.049 A 
ATOM     65  H   UNL     1      -9.515  -4.855  -4.288  1.00  0.00     0.167 HD
ATOM     66  C   UNL     1     -12.756  -2.020  -3.438  1.00  0.00     0.031 A 
ATOM     67  C   UNL     1      -8.192  -7.307  -4.096  1.00  0.00     0.031 A 
ATOM     68  C   UNL     1     -13.154  -3.250  -2.809  1.00  0.00     0.049 A 
ATOM     69  C   UNL     1      -9.478  -7.457  -3.330  1.00  0.00     0.074 A 
ATOM     70  C   UNL     1     -14.316  -3.524  -2.108  1.00  0.00     0.029 A 
ATOM     71  N   UNL     1     -12.404  -4.417  -2.813  1.00  0.00    -0.354 N 
ATOM     72  N   UNL     1     -10.426  -6.572  -3.129  1.00  0.00    -0.248 NA
ATOM     73  C   UNL     1      -9.741  -8.771  -2.728  1.00  0.00     0.031 C 
ATOM     74  C   UNL     1     -14.249  -4.846  -1.654  1.00  0.00     0.029 A 
ATOM     75  C   UNL     1     -13.072  -5.410  -2.120  1.00  0.00     0.049 A 
ATOM     76  H   UNL     1     -11.526  -4.522  -3.246  1.00  0.00     0.167 HD
ATOM     77  C   UNL     1     -11.413  -7.234  -2.407  1.00  0.00     0.074 A 
ATOM     78  C   UNL     1     -10.951  -8.594  -2.216  1.00  0.00     0.031 C 
ATOM     79  C   UNL     1     -12.598  -6.760  -1.947  1.00  0.00     0.031 A 
BRANCH  66  80
ATOM     80  C   UNL     1     -13.654  -0.817  -3.304  1.00  0.00    -0.014 A 
ATOM     81  C   UNL     1     -14.362  -0.312  -4.411  1.00  0.00     0.010 A 
ATOM     82  C   UNL     1     -13.811  -0.196  -2.052  1.00  0.00     0.010 A 
ATOM     83  C   UNL     1     -15.171   0.819  -4.279  1.00  0.00     0.020 A 
ATOM     84  C   UNL     1     -14.644   0.918  -1.909  1.00  0.00     0.020 A 
ATOM     85  C   UNL     1     -15.303   1.431  -3.029  1.00  0.00     0.054 A 
BRANCH  85  86
ATOM     86  S   UNL     1     -16.369   2.890  -2.882  1.00  0.00     0.124 S 
ATOM     87  O   UNL     1     -15.555   3.922  -3.520  1.00  0.00    -0.237 OA
ATOM     88  O   UNL     1     -17.565   2.490  -3.619  1.00  0.00    -0.237 OA
ATOM     89  O   UNL     1     -16.551   3.044  -1.440  1.00  0.00    -0.744 OA
ENDBRANCH  85  86
ENDBRANCH  66  80
BRANCH  67  90
ATOM     90  C   UNL     1      -7.233  -8.439  -4.213  1.00  0.00    -0.014 A 
ATOM     91  C   UNL     1      -7.550  -9.564  -4.995  1.00  0.00     0.010 A 
ATOM     92  C   UNL     1      -5.990  -8.391  -3.557  1.00  0.00     0.010 A 
ATOM     93  C   UNL     1      -6.652 -10.630  -5.101  1.00  0.00     0.020 A 
ATOM     94  C   UNL     1      -5.078  -9.443  -3.682  1.00  0.00     0.020 A 
ATOM     95  C   UNL     1      -5.420 -10.562  -4.444  1.00  0.00     0.054 A 
BRANCH  95  96
ATOM     96  S   UNL     1      -4.249 -11.934  -4.636  1.00  0.00     0.124 S 
ATOM     97  O   UNL     1      -4.846 -12.963  -3.791  1.00  0.00    -0.237 OA
ATOM     98  O   UNL     1      -4.293 -12.190  -6.073  1.00  0.00    -0.237 OA
ATOM     99  O   UNL     1      -2.988 -11.377  -4.149  1.00  0.00    -0.744 OA
ENDBRANCH  95  96
ENDBRANCH  67  90
BRANCH  79 100
ATOM    100  C   UNL     1     -13.503  -7.732  -1.239  1.00  0.00    -0.014 A 
ATOM    101  C   UNL     1     -13.210  -8.199   0.054  1.00  0.00     0.010 A 
ATOM    102  C   UNL     1     -14.691  -8.149  -1.867  1.00  0.00     0.010 A 
ATOM    103  C   UNL     1     -14.071  -9.096   0.691  1.00  0.00     0.020 A 
ATOM    104  C   UNL     1     -15.568  -9.023  -1.222  1.00  0.00     0.020 A 
ATOM    105  C   UNL     1     -15.243  -9.505   0.048  1.00  0.00     0.054 A 
BRANCH 105 106
ATOM    106  S   UNL     1     -16.362 -10.645   0.906  1.00  0.00     0.124 S 
ATOM    107  O   UNL     1     -15.653 -11.916   0.782  1.00  0.00    -0.237 OA
ATOM    108  O   UNL     1     -16.418 -10.086   2.255  1.00  0.00    -0.237 OA
ATOM    109  O   UNL     1     -17.606 -10.548   0.146  1.00  0.00    -0.744 OA
ENDBRANCH 105 106
ENDBRANCH  79 100
ENDBRANCH  53  54
ENDBRANCH  45  48
ENDBRANCH  43  44
ENDBRANCH  42  43
ENDBRANCH  41  42
ENDBRANCH   1  41
TORSDOF 22
