REMARK SMILES Cc1ccc(NC(=O)NC2CCCC2)cc1/C=C/C(=O)NCCCCCCNC(=O)c1ccc(-c2c3nc(c(-c4ccc(S(=O)(=O)[O-])cc4)c4ccc([nH]4)c(-c4ccc(S(=O)(=O)[O-])cc4)c4nc(c(-c5ccc(S(=O)(=O)[O-])cc5)c5ccc2[nH]5)C=C4)C=C3)cc1
REMARK SMILES IDX 24 1 23 2 22 3 21 4 19 5 20 6 18 8 17 9 16 10 1 11 2 12 3 13
REMARK SMILES IDX 4 14 15 15 5 16 6 17 7 18 8 20 9 21 10 23 11 24 14 25 12 26
REMARK SMILES IDX 13 27 25 28 26 29 27 30 28 31 29 32 30 34 31 35 32 36 90 37
REMARK SMILES IDX 33 38 89 39 34 40 35 41 36 42 83 43 37 44 88 45 82 46 84 47
REMARK SMILES IDX 38 48 87 49 81 50 80 51 39 53 69 54 50 55 68 56 51 57 54 58
REMARK SMILES IDX 67 59 85 60 52 61 53 62 66 64 86 65 55 66 40 67 41 68 49 69
REMARK SMILES IDX 42 70 48 71 43 72 44 73 45 74 46 75 47 76 70 77 71 78 79 79
REMARK SMILES IDX 72 80 78 81 73 82 74 83 75 84 76 85 77 86 56 87 57 88 65 89
REMARK SMILES IDX 58 90 64 91 59 92 60 93 61 94 62 95 63 96
REMARK H PARENT 21 7 6 19 9 22 28 33 84 52 54 63
REMARK Flexibility Score: inf
ROOT
ATOM      1  C   UNL     1       5.414   5.106  -1.101  1.00  0.00     0.002 C 
ENDROOT
BRANCH   1   2
ATOM      2  C   UNL     1       4.317   4.050  -0.917  1.00  0.00     0.021 C 
BRANCH   2   3
ATOM      3  C   UNL     1       3.334   4.360   0.210  1.00  0.00     0.116 C 
BRANCH   3   4
ATOM      4  N   UNL     1       2.280   5.257  -0.226  1.00  0.00    -0.353 N 
ATOM      5  C   UNL     1       0.929   5.100  -0.170  1.00  0.00     0.243 C 
ATOM      6  O   UNL     1       0.175   6.034  -0.431  1.00  0.00    -0.270 OA
ATOM      7  H   UNL     1       2.587   6.106  -0.621  1.00  0.00     0.163 HD
BRANCH   5   8
ATOM      8  C   UNL     1       0.362   3.824   0.312  1.00  0.00     0.072 C 
ATOM      9  C   UNL     1       0.622   2.635  -0.253  1.00  0.00     0.014 C 
BRANCH   9  10
ATOM     10  C   UNL     1       0.048   1.411   0.316  1.00  0.00    -0.020 A 
ATOM     11  C   UNL     1       2.355   0.411   0.755  1.00  0.00     0.045 C 
ATOM     12  C   UNL     1       0.858   0.416   0.898  1.00  0.00    -0.044 A 
ATOM     13  C   UNL     1       0.246  -0.648   1.574  1.00  0.00     0.006 A 
ATOM     14  C   UNL     1      -1.138  -0.808   1.533  1.00  0.00     0.026 A 
ATOM     15  C   UNL     1      -1.342   1.221   0.258  1.00  0.00     0.034 A 
ATOM     16  C   UNL     1      -1.909   0.049   0.757  1.00  0.00     0.043 A 
BRANCH  16  17
ATOM     17  N   UNL     1      -3.233  -0.244   0.417  1.00  0.00    -0.308 N 
ATOM     18  C   UNL     1      -3.846  -1.413   0.117  1.00  0.00     0.319 C 
ATOM     19  H   UNL     1      -3.826   0.542   0.391  1.00  0.00     0.171 HD
ATOM     20  O   UNL     1      -5.078  -1.468   0.178  1.00  0.00    -0.248 OA
ATOM     21  N   UNL     1      -3.195  -2.491  -0.374  1.00  0.00    -0.335 N 
ATOM     22  H   UNL     1      -3.771  -3.283  -0.476  1.00  0.00     0.165 HD
BRANCH  21  23
ATOM     23  C   UNL     1      -1.821  -2.722  -0.782  1.00  0.00     0.083 C 
ATOM     24  C   UNL     1      -1.556  -4.137  -1.295  1.00  0.00     0.025 C 
ATOM     25  C   UNL     1      -1.324  -1.887  -1.957  1.00  0.00     0.025 C 
ATOM     26  C   UNL     1      -0.149  -4.021  -1.881  1.00  0.00     0.002 C 
ATOM     27  C   UNL     1      -0.007  -2.564  -2.331  1.00  0.00     0.002 C 
ENDBRANCH  21  23
ENDBRANCH  16  17
ENDBRANCH   9  10
ENDBRANCH   5   8
ENDBRANCH   3   4
ENDBRANCH   2   3
ENDBRANCH   1   2
BRANCH   1  28
ATOM     28  C   UNL     1       6.301   5.386   0.127  1.00  0.00     0.002 C 
BRANCH  28  29
ATOM     29  C   UNL     1       6.861   4.155   0.847  1.00  0.00     0.021 C 
BRANCH  29  30
ATOM     30  C   UNL     1       7.843   3.355   0.000  1.00  0.00     0.116 C 
BRANCH  30  31
ATOM     31  N   UNL     1       9.227   3.519   0.413  1.00  0.00    -0.352 N 
ATOM     32  C   UNL     1      10.269   2.697   0.013  1.00  0.00     0.251 C 
ATOM     33  H   UNL     1       9.439   4.266   1.019  1.00  0.00     0.163 HD
ATOM     34  O   UNL     1      11.235   2.432   0.707  1.00  0.00    -0.269 OA
BRANCH  32  35
ATOM     35  C   UNL     1      10.214   2.264  -1.399  1.00  0.00     0.039 A 
ATOM     36  C   UNL     1      10.987   2.972  -2.325  1.00  0.00     0.014 A 
ATOM     37  C   UNL     1       9.223   1.375  -1.810  1.00  0.00     0.014 A 
ATOM     38  C   UNL     1      10.672   2.892  -3.679  1.00  0.00     0.010 A 
ATOM     39  C   UNL     1       8.862   1.362  -3.144  1.00  0.00     0.010 A 
ATOM     40  C   UNL     1       9.559   2.149  -4.074  1.00  0.00    -0.014 A 
BRANCH  40  41
ATOM     41  C   UNL     1       9.010   2.171  -5.428  1.00  0.00     0.031 A 
ATOM     42  C   UNL     1       9.236   1.024  -6.338  1.00  0.00     0.074 A 
ATOM     43  C   UNL     1       8.243   3.203  -5.845  1.00  0.00     0.049 A 
ATOM     44  N   UNL     1       9.126   1.077  -7.625  1.00  0.00    -0.248 NA
ATOM     45  C   UNL     1       9.662  -0.284  -5.853  1.00  0.00     0.031 C 
ATOM     46  C   UNL     1       7.393   3.238  -7.033  1.00  0.00     0.029 A 
ATOM     47  N   UNL     1       8.259   4.528  -5.407  1.00  0.00    -0.354 N 
ATOM     48  C   UNL     1       9.173  -0.213  -8.100  1.00  0.00     0.074 A 
ATOM     49  C   UNL     1       9.580  -1.015  -6.968  1.00  0.00     0.031 C 
ATOM     50  C   UNL     1       7.236   4.516  -7.407  1.00  0.00     0.029 A 
ATOM     51  C   UNL     1       8.102   5.318  -6.560  1.00  0.00     0.049 A 
ATOM     52  H   UNL     1       8.359   4.845  -4.480  1.00  0.00     0.167 HD
ATOM     53  C   UNL     1       8.747  -0.491  -9.365  1.00  0.00     0.031 A 
ATOM     54  C   UNL     1       9.039   6.210  -7.000  1.00  0.00     0.031 A 
ATOM     55  C   UNL     1       8.397   0.713 -10.115  1.00  0.00     0.049 A 
ATOM     56  C   UNL     1       9.534   5.934  -8.411  1.00  0.00     0.074 A 
ATOM     57  C   UNL     1       7.210   1.310 -10.508  1.00  0.00     0.029 A 
ATOM     58  N   UNL     1       9.391   1.643 -10.368  1.00  0.00    -0.354 N 
ATOM     59  N   UNL     1       9.143   4.933  -9.150  1.00  0.00    -0.248 NA
ATOM     60  C   UNL     1      10.595   6.713  -9.055  1.00  0.00     0.031 C 
ATOM     61  C   UNL     1       7.508   2.614 -10.999  1.00  0.00     0.029 A 
ATOM     62  C   UNL     1       8.874   2.803 -10.908  1.00  0.00     0.049 A 
ATOM     63  H   UNL     1      10.347   1.495 -10.185  1.00  0.00     0.167 HD
ATOM     64  C   UNL     1       9.895   4.887 -10.293  1.00  0.00     0.074 A 
ATOM     65  C   UNL     1      10.781   6.031 -10.199  1.00  0.00     0.031 C 
ATOM     66  C   UNL     1       9.784   3.890 -11.215  1.00  0.00     0.031 A 
BRANCH  53  67
ATOM     67  C   UNL     1       8.436  -1.892  -9.843  1.00  0.00    -0.014 A 
ATOM     68  C   UNL     1       7.434  -2.093 -10.815  1.00  0.00     0.010 A 
ATOM     69  C   UNL     1       9.057  -3.052  -9.344  1.00  0.00     0.010 A 
ATOM     70  C   UNL     1       6.995  -3.375 -11.178  1.00  0.00     0.020 A 
ATOM     71  C   UNL     1       8.601  -4.340  -9.663  1.00  0.00     0.020 A 
ATOM     72  C   UNL     1       7.558  -4.494 -10.570  1.00  0.00     0.054 A 
BRANCH  72  73
ATOM     73  S   UNL     1       6.902  -6.137 -10.959  1.00  0.00     0.124 S 
ATOM     74  O   UNL     1       5.476  -5.982 -10.682  1.00  0.00    -0.237 OA
ATOM     75  O   UNL     1       7.259  -6.292 -12.366  1.00  0.00    -0.237 OA
ATOM     76  O   UNL     1       7.613  -7.021 -10.036  1.00  0.00    -0.744 OA
ENDBRANCH  72  73
ENDBRANCH  53  67
BRANCH  54  77
ATOM     77  C   UNL     1       9.863   6.806  -5.910  1.00  0.00    -0.014 A 
ATOM     78  C   UNL     1       9.207   7.638  -4.976  1.00  0.00     0.010 A 
ATOM     79  C   UNL     1      11.102   6.241  -5.565  1.00  0.00     0.010 A 
ATOM     80  C   UNL     1       9.682   7.749  -3.667  1.00  0.00     0.020 A 
ATOM     81  C   UNL     1      11.588   6.366  -4.256  1.00  0.00     0.020 A 
ATOM     82  C   UNL     1      10.834   7.054  -3.300  1.00  0.00     0.054 A 
BRANCH  82  83
ATOM     83  S   UNL     1      11.229   6.917  -1.529  1.00  0.00     0.124 S 
ATOM     84  O   UNL     1      11.301   8.314  -1.115  1.00  0.00    -0.237 OA
ATOM     85  O   UNL     1      10.085   6.163  -1.012  1.00  0.00    -0.237 OA
ATOM     86  O   UNL     1      12.495   6.191  -1.525  1.00  0.00    -0.744 OA
ENDBRANCH  82  83
ENDBRANCH  54  77
BRANCH  66  87
ATOM     87  C   UNL     1      10.581   3.847 -12.485  1.00  0.00    -0.014 A 
ATOM     88  C   UNL     1      10.718   4.971 -13.316  1.00  0.00     0.010 A 
ATOM     89  C   UNL     1      11.112   2.623 -12.945  1.00  0.00     0.010 A 
ATOM     90  C   UNL     1      11.407   4.887 -14.533  1.00  0.00     0.020 A 
ATOM     91  C   UNL     1      11.786   2.526 -14.166  1.00  0.00     0.020 A 
ATOM     92  C   UNL     1      11.946   3.666 -14.945  1.00  0.00     0.054 A 
BRANCH  92  93
ATOM     93  S   UNL     1      12.806   3.567 -16.537  1.00  0.00     0.124 S 
ATOM     94  O   UNL     1      11.974   4.395 -17.407  1.00  0.00    -0.237 OA
ATOM     95  O   UNL     1      14.115   4.124 -16.206  1.00  0.00    -0.237 OA
ATOM     96  O   UNL     1      12.794   2.140 -16.850  1.00  0.00    -0.744 OA
ENDBRANCH  92  93
ENDBRANCH  66  87
ENDBRANCH  40  41
ENDBRANCH  32  35
ENDBRANCH  30  31
ENDBRANCH  29  30
ENDBRANCH  28  29
ENDBRANCH   1  28
TORSDOF 19
