REMARK SMILES CC(C)Cc1cc(C(=O)N[C@@H](CO)C(=O)NCCCCCCNC(=O)c2ccc(-c3c4nc(c(-c5ccc(S(=O)(=O)[O-])cc5)c5ccc([nH]5)c(-c5ccc(S(=O)(=O)[O-])cc5)c5nc(c(-c6ccc(S(=O)(=O)[O-])cc6)c6ccc3[nH]6)C=C5)C=C4)cc2)n(C)n1
REMARK SMILES IDX 19 1 18 2 17 3 16 4 14 5 15 6 11 8 10 9 8 10 9 11 7 13 5 14
REMARK SMILES IDX 6 15 88 16 86 17 87 18 4 19 2 20 1 21 3 22 12 23 13 24 20 26
REMARK SMILES IDX 21 27 22 28 23 29 24 30 25 32 26 33 27 34 85 35 28 36 84 37
REMARK SMILES IDX 29 38 30 39 31 40 78 41 32 42 83 43 77 44 79 45 33 46 82 47
REMARK SMILES IDX 76 48 75 49 34 51 64 52 45 53 63 54 46 55 49 56 62 57 80 58
REMARK SMILES IDX 47 59 48 60 61 62 81 63 50 64 35 65 36 66 44 67 37 68 43 69
REMARK SMILES IDX 38 70 39 71 40 72 41 73 42 74 65 75 66 76 74 77 67 78 73 79
REMARK SMILES IDX 68 80 69 81 70 82 71 83 72 84 51 85 52 86 60 87 53 88 59 89
REMARK SMILES IDX 54 90 55 91 56 92 57 93 58 94
REMARK H PARENT 16 7 10 12 13 25 23 31 79 50 49 61
REMARK Flexibility Score: inf
ROOT
ATOM      1  C   UNL     1      -1.819  -1.006  10.200  1.00  0.00     0.002 C 
ENDROOT
BRANCH   1   2
ATOM      2  C   UNL     1      -2.446  -1.409   8.863  1.00  0.00     0.021 C 
BRANCH   2   3
ATOM      3  C   UNL     1      -3.274  -0.311   8.210  1.00  0.00     0.116 C 
BRANCH   3   4
ATOM      4  N   UNL     1      -2.454   0.841   7.915  1.00  0.00    -0.354 N 
ATOM      5  C   UNL     1      -2.382   1.609   6.806  1.00  0.00     0.244 C 
ATOM      6  O   UNL     1      -1.656   2.610   6.858  1.00  0.00    -0.273 OA
ATOM      7  H   UNL     1      -1.846   1.110   8.641  1.00  0.00     0.163 HD
BRANCH   5   8
ATOM      8  C   UNL     1      -3.221   1.343   5.551  1.00  0.00     0.197 C 
BRANCH   8   9
ATOM      9  N   UNL     1      -3.056   0.057   4.905  1.00  0.00    -0.337 N 
ATOM     10  C   UNL     1      -2.774  -0.325   3.627  1.00  0.00     0.270 C 
ATOM     11  O   UNL     1      -2.762  -1.555   3.495  1.00  0.00    -0.268 OA
ATOM     12  H   UNL     1      -3.174  -0.704   5.519  1.00  0.00     0.164 HD
BRANCH  10  13
ATOM     13  C   UNL     1      -2.447   0.535   2.498  1.00  0.00     0.126 A 
ATOM     14  C   UNL     1      -1.611   1.049   0.469  1.00  0.00     0.064 A 
ATOM     15  C   UNL     1      -1.917  -0.013   1.327  1.00  0.00     0.059 A 
ATOM     16  N   UNL     1      -1.949   2.208   1.019  1.00  0.00    -0.178 NA
ATOM     17  N   UNL     1      -2.533   1.879   2.190  1.00  0.00    -0.263 N 
ATOM     18  C   UNL     1      -3.210   2.987   2.816  1.00  0.00     0.174 C 
BRANCH  14  19
ATOM     19  C   UNL     1      -0.979   1.016  -0.875  1.00  0.00     0.061 C 
BRANCH  19  20
ATOM     20  C   UNL     1       0.554   1.127  -0.815  1.00  0.00    -0.011 C 
ATOM     21  C   UNL     1       1.193  -0.120  -0.198  1.00  0.00     0.008 C 
ATOM     22  C   UNL     1       1.105   1.358  -2.222  1.00  0.00     0.008 C 
ENDBRANCH  19  20
ENDBRANCH  14  19
ENDBRANCH  10  13
ENDBRANCH   8   9
BRANCH   8  23
ATOM     23  C   UNL     1      -4.703   1.703   5.747  1.00  0.00     0.191 C 
BRANCH  23  24
ATOM     24  O   UNL     1      -5.424   0.768   6.543  1.00  0.00    -0.394 OA
ATOM     25  H   UNL     1      -5.424  -0.098   6.105  1.00  0.00     0.210 HD
ENDBRANCH  23  24
ENDBRANCH   8  23
ENDBRANCH   5   8
ENDBRANCH   3   4
ENDBRANCH   2   3
ENDBRANCH   1   2
BRANCH   1  26
ATOM     26  C   UNL     1      -2.797  -0.412  11.219  1.00  0.00     0.002 C 
BRANCH  26  27
ATOM     27  C   UNL     1      -4.032  -1.270  11.500  1.00  0.00     0.021 C 
BRANCH  27  28
ATOM     28  C   UNL     1      -3.722  -2.709  11.885  1.00  0.00     0.116 C 
BRANCH  28  29
ATOM     29  N   UNL     1      -2.891  -2.786  13.074  1.00  0.00    -0.352 N 
ATOM     30  C   UNL     1      -3.099  -3.513  14.216  1.00  0.00     0.251 C 
ATOM     31  H   UNL     1      -2.070  -2.244  13.056  1.00  0.00     0.163 HD
ATOM     32  O   UNL     1      -2.410  -3.311  15.213  1.00  0.00    -0.269 OA
BRANCH  30  33
ATOM     33  C   UNL     1      -4.173  -4.525  14.239  1.00  0.00     0.039 A 
ATOM     34  C   UNL     1      -5.044  -4.561  15.328  1.00  0.00     0.014 A 
ATOM     35  C   UNL     1      -4.329  -5.419  13.174  1.00  0.00     0.014 A 
ATOM     36  C   UNL     1      -6.104  -5.468  15.328  1.00  0.00     0.010 A 
ATOM     37  C   UNL     1      -5.433  -6.263  13.139  1.00  0.00     0.010 A 
ATOM     38  C   UNL     1      -6.325  -6.304  14.220  1.00  0.00    -0.014 A 
BRANCH  38  39
ATOM     39  C   UNL     1      -7.481  -7.234  14.182  1.00  0.00     0.031 A 
ATOM     40  C   UNL     1      -7.252  -8.720  14.127  1.00  0.00     0.074 A 
ATOM     41  C   UNL     1      -8.733  -6.737  14.144  1.00  0.00     0.049 A 
ATOM     42  N   UNL     1      -8.131  -9.686  14.051  1.00  0.00    -0.248 NA
ATOM     43  C   UNL     1      -5.853  -9.181  14.134  1.00  0.00     0.031 C 
ATOM     44  C   UNL     1      -9.081  -5.313  14.152  1.00  0.00     0.029 A 
ATOM     45  N   UNL     1      -9.947  -7.373  14.091  1.00  0.00    -0.354 N 
ATOM     46  C   UNL     1      -7.394 -10.863  13.987  1.00  0.00     0.074 A 
ATOM     47  C   UNL     1      -5.998 -10.489  13.977  1.00  0.00     0.031 C 
ATOM     48  C   UNL     1     -10.417  -5.187  14.136  1.00  0.00     0.029 A 
ATOM     49  C   UNL     1     -11.021  -6.514  14.071  1.00  0.00     0.049 A 
ATOM     50  H   UNL     1     -10.041  -8.353  14.068  1.00  0.00     0.167 HD
ATOM     51  C   UNL     1      -7.840 -12.141  13.960  1.00  0.00     0.031 A 
ATOM     52  C   UNL     1     -12.343  -6.765  14.000  1.00  0.00     0.031 A 
ATOM     53  C   UNL     1      -9.232 -12.506  13.976  1.00  0.00     0.049 A 
ATOM     54  C   UNL     1     -12.813  -8.193  13.951  1.00  0.00     0.074 A 
ATOM     55  C   UNL     1      -9.787 -13.774  14.007  1.00  0.00     0.029 A 
ATOM     56  N   UNL     1     -10.288 -11.607  13.957  1.00  0.00    -0.354 N 
ATOM     57  N   UNL     1     -12.102  -9.295  13.963  1.00  0.00    -0.248 NA
ATOM     58  C   UNL     1     -14.264  -8.411  13.891  1.00  0.00     0.031 C 
ATOM     59  C   UNL     1     -11.178 -13.642  13.941  1.00  0.00     0.029 A 
ATOM     60  C   UNL     1     -11.492 -12.292  13.943  1.00  0.00     0.049 A 
ATOM     61  H   UNL     1     -10.195 -10.627  13.953  1.00  0.00     0.167 HD
ATOM     62  C   UNL     1     -13.021 -10.339  13.942  1.00  0.00     0.074 A 
ATOM     63  C   UNL     1     -14.338  -9.735  13.933  1.00  0.00     0.031 C 
ATOM     64  C   UNL     1     -12.795 -11.676  13.931  1.00  0.00     0.031 A 
BRANCH  51  65
ATOM     65  C   UNL     1      -6.811 -13.240  13.898  1.00  0.00    -0.014 A 
ATOM     66  C   UNL     1      -5.961 -13.507  14.988  1.00  0.00     0.010 A 
ATOM     67  C   UNL     1      -6.720 -14.047  12.749  1.00  0.00     0.010 A 
ATOM     68  C   UNL     1      -5.014 -14.531  14.914  1.00  0.00     0.020 A 
ATOM     69  C   UNL     1      -5.795 -15.094  12.684  1.00  0.00     0.020 A 
ATOM     70  C   UNL     1      -4.937 -15.319  13.762  1.00  0.00     0.054 A 
BRANCH  70  71
ATOM     71  S   UNL     1      -3.716 -16.658  13.706  1.00  0.00     0.124 S 
ATOM     72  O   UNL     1      -2.461 -15.918  13.602  1.00  0.00    -0.237 OA
ATOM     73  O   UNL     1      -3.936 -17.344  14.977  1.00  0.00    -0.237 OA
ATOM     74  O   UNL     1      -4.089 -17.420  12.517  1.00  0.00    -0.744 OA
ENDBRANCH  70  71
ENDBRANCH  51  65
BRANCH  52  75
ATOM     75  C   UNL     1     -13.313  -5.635  13.978  1.00  0.00    -0.014 A 
ATOM     76  C   UNL     1     -14.166  -5.401  15.071  1.00  0.00     0.010 A 
ATOM     77  C   UNL     1     -13.381  -4.778  12.865  1.00  0.00     0.010 A 
ATOM     78  C   UNL     1     -15.081  -4.344  15.043  1.00  0.00     0.020 A 
ATOM     79  C   UNL     1     -14.271  -3.701  12.846  1.00  0.00     0.020 A 
ATOM     80  C   UNL     1     -15.125  -3.498  13.931  1.00  0.00     0.054 A 
BRANCH  80  81
ATOM     81  S   UNL     1     -16.286  -2.104  13.938  1.00  0.00     0.124 S 
ATOM     82  O   UNL     1     -17.571  -2.777  13.780  1.00  0.00    -0.237 OA
ATOM     83  O   UNL     1     -16.043  -1.500  15.246  1.00  0.00    -0.237 OA
ATOM     84  O   UNL     1     -15.857  -1.297  12.798  1.00  0.00    -0.744 OA
ENDBRANCH  80  81
ENDBRANCH  52  75
BRANCH  64  85
ATOM     85  C   UNL     1     -13.998 -12.583  13.945  1.00  0.00    -0.014 A 
ATOM     86  C   UNL     1     -14.835 -12.706  12.823  1.00  0.00     0.010 A 
ATOM     87  C   UNL     1     -14.258 -13.368  15.084  1.00  0.00     0.010 A 
ATOM     88  C   UNL     1     -15.932 -13.573  12.851  1.00  0.00     0.020 A 
ATOM     89  C   UNL     1     -15.333 -14.260  15.104  1.00  0.00     0.020 A 
ATOM     90  C   UNL     1     -16.172 -14.345  13.992  1.00  0.00     0.054 A 
BRANCH  90  91
ATOM     91  S   UNL     1     -17.576 -15.494  13.986  1.00  0.00     0.124 S 
ATOM     92  O   UNL     1     -18.714 -14.584  14.069  1.00  0.00    -0.237 OA
ATOM     93  O   UNL     1     -17.416 -16.187  12.710  1.00  0.00    -0.237 OA
ATOM     94  O   UNL     1     -17.352 -16.321  15.170  1.00  0.00    -0.744 OA
ENDBRANCH  90  91
ENDBRANCH  64  85
ENDBRANCH  38  39
ENDBRANCH  30  33
ENDBRANCH  28  29
ENDBRANCH  27  28
ENDBRANCH  26  27
ENDBRANCH   1  26
TORSDOF 22
