REMARK SMILES O=C(NCCCCCCNC(=O)c1cccc2c1ccn2Cc1ccncc1)c1ccc(-c2c3nc(c(-c4ccc(S(=O)(=O)[O-])cc4)c4ccc([nH]4)c(-c4ccc(S(=O)(=O)[O-])cc4)c4nc(c(-c5ccc(S(=O)(=O)[O-])cc5)c5ccc2[nH]5)C=C4)C=C3)cc1
REMARK SMILES IDX 6 1 5 2 4 3 3 4 1 5 2 6 29 8 30 9 88 10 31 11 87 12 32 13
REMARK SMILES IDX 33 14 34 15 81 16 35 17 86 18 80 19 82 20 36 21 85 22 79 23
REMARK SMILES IDX 78 24 37 26 67 27 48 28 66 29 49 30 52 31 65 32 83 33 50 34
REMARK SMILES IDX 51 35 64 37 84 38 53 39 38 40 39 41 47 42 40 43 46 44 41 45
REMARK SMILES IDX 42 46 43 47 44 48 45 49 68 50 69 51 77 52 70 53 76 54 71 55
REMARK SMILES IDX 72 56 73 57 74 58 75 59 54 60 55 61 63 62 56 63 62 64 57 65
REMARK SMILES IDX 58 66 59 67 60 68 61 69 7 70 8 71 9 72 10 73 11 74 12 76
REMARK SMILES IDX 13 77 14 78 18 79 15 80 17 81 19 82 16 83 21 84 20 85 22 86
REMARK SMILES IDX 23 87 24 88 28 89 25 90 27 91 26 92
REMARK H PARENT 3 7 82 25 52 36 10 75
REMARK Flexibility Score: inf
ROOT
ATOM      1  C   UNL     1       4.292   3.309   2.480  1.00  0.00     0.002 C 
ENDROOT
BRANCH   1   2
ATOM      2  C   UNL     1       4.742   2.937   1.060  1.00  0.00     0.021 C 
BRANCH   2   3
ATOM      3  C   UNL     1       4.360   1.536   0.620  1.00  0.00     0.116 C 
BRANCH   3   4
ATOM      4  N   UNL     1       2.911   1.334   0.503  1.00  0.00    -0.352 N 
ATOM      5  O   UNL     1       1.095   0.202  -0.260  1.00  0.00    -0.269 OA
ATOM      6  C   UNL     1       2.219   0.163   0.207  1.00  0.00     0.251 C 
ATOM      7  H   UNL     1       2.354   2.132   0.655  1.00  0.00     0.163 HD
BRANCH   6   8
ATOM      8  C   UNL     1       2.880  -1.126   0.493  1.00  0.00     0.039 A 
ATOM      9  C   UNL     1       2.686  -2.286  -0.259  1.00  0.00     0.014 A 
ATOM     10  C   UNL     1       3.753  -1.134   1.569  1.00  0.00     0.014 A 
ATOM     11  C   UNL     1       3.405  -3.427   0.102  1.00  0.00     0.010 A 
ATOM     12  C   UNL     1       4.692  -2.109   1.671  1.00  0.00     0.010 A 
ATOM     13  C   UNL     1       4.403  -3.320   1.087  1.00  0.00    -0.014 A 
BRANCH  13  14
ATOM     14  C   UNL     1       5.213  -4.435   1.543  1.00  0.00     0.031 A 
ATOM     15  C   UNL     1       5.927  -5.118   0.454  1.00  0.00     0.074 A 
ATOM     16  C   UNL     1       5.449  -4.702   2.848  1.00  0.00     0.049 A 
ATOM     17  N   UNL     1       5.590  -6.232  -0.095  1.00  0.00    -0.248 NA
ATOM     18  C   UNL     1       7.000  -4.396  -0.245  1.00  0.00     0.031 C 
ATOM     19  C   UNL     1       5.056  -3.931   4.040  1.00  0.00     0.029 A 
ATOM     20  N   UNL     1       6.190  -5.705   3.388  1.00  0.00    -0.354 N 
ATOM     21  C   UNL     1       6.563  -6.483  -1.048  1.00  0.00     0.074 A 
ATOM     22  C   UNL     1       7.249  -5.232  -1.255  1.00  0.00     0.031 C 
ATOM     23  C   UNL     1       5.740  -4.371   5.122  1.00  0.00     0.029 A 
ATOM     24  C   UNL     1       6.468  -5.567   4.745  1.00  0.00     0.049 A 
ATOM     25  H   UNL     1       6.507  -6.472   2.858  1.00  0.00     0.167 HD
ATOM     26  C   UNL     1       6.894  -7.760  -1.378  1.00  0.00     0.031 A 
ATOM     27  C   UNL     1       7.225  -6.396   5.507  1.00  0.00     0.031 A 
ATOM     28  C   UNL     1       5.937  -8.700  -0.842  1.00  0.00     0.049 A 
ATOM     29  C   UNL     1       7.239  -7.702   4.808  1.00  0.00     0.074 A 
ATOM     30  C   UNL     1       4.586  -8.915  -1.024  1.00  0.00     0.029 A 
ATOM     31  N   UNL     1       6.268  -9.286   0.359  1.00  0.00    -0.354 N 
ATOM     32  N   UNL     1       6.178  -8.442   4.648  1.00  0.00    -0.248 NA
ATOM     33  C   UNL     1       8.338  -7.979   3.898  1.00  0.00     0.031 C 
ATOM     34  C   UNL     1       4.085  -9.243   0.269  1.00  0.00     0.029 A 
ATOM     35  C   UNL     1       5.157  -9.304   1.164  1.00  0.00     0.049 A 
ATOM     36  H   UNL     1       7.156  -9.636   0.600  1.00  0.00     0.167 HD
ATOM     37  C   UNL     1       6.295  -8.951   3.363  1.00  0.00     0.074 A 
ATOM     38  C   UNL     1       7.693  -8.726   2.998  1.00  0.00     0.031 C 
ATOM     39  C   UNL     1       5.190  -9.250   2.618  1.00  0.00     0.031 A 
BRANCH  26  40
ATOM     40  C   UNL     1       8.265  -8.179  -1.835  1.00  0.00    -0.014 A 
ATOM     41  C   UNL     1       9.406  -7.358  -1.736  1.00  0.00     0.010 A 
ATOM     42  C   UNL     1       8.480  -9.529  -2.176  1.00  0.00     0.010 A 
ATOM     43  C   UNL     1      10.690  -7.837  -1.991  1.00  0.00     0.020 A 
ATOM     44  C   UNL     1       9.770 -10.033  -2.392  1.00  0.00     0.020 A 
ATOM     45  C   UNL     1      10.865  -9.176  -2.310  1.00  0.00     0.054 A 
BRANCH  45  46
ATOM     46  S   UNL     1      12.551  -9.771  -2.567  1.00  0.00     0.124 S 
ATOM     47  O   UNL     1      12.927  -9.076  -3.796  1.00  0.00    -0.237 OA
ATOM     48  O   UNL     1      13.229  -9.320  -1.355  1.00  0.00    -0.237 OA
ATOM     49  O   UNL     1      12.389 -11.217  -2.691  1.00  0.00    -0.744 OA
ENDBRANCH  45  46
ENDBRANCH  26  40
BRANCH  27  50
ATOM     50  C   UNL     1       8.268  -6.030   6.502  1.00  0.00    -0.014 A 
ATOM     51  C   UNL     1       8.927  -4.788   6.406  1.00  0.00     0.010 A 
ATOM     52  C   UNL     1       8.857  -7.024   7.312  1.00  0.00     0.010 A 
ATOM     53  C   UNL     1      10.178  -4.583   7.002  1.00  0.00     0.020 A 
ATOM     54  C   UNL     1      10.113  -6.825   7.912  1.00  0.00     0.020 A 
ATOM     55  C   UNL     1      10.785  -5.619   7.714  1.00  0.00     0.054 A 
BRANCH  55  56
ATOM     56  S   UNL     1      12.498  -5.389   8.276  1.00  0.00     0.124 S 
ATOM     57  O   UNL     1      13.229  -5.340   7.012  1.00  0.00    -0.237 OA
ATOM     58  O   UNL     1      12.426  -4.125   9.005  1.00  0.00    -0.237 OA
ATOM     59  O   UNL     1      12.755  -6.567   9.101  1.00  0.00    -0.744 OA
ENDBRANCH  55  56
ENDBRANCH  27  50
BRANCH  39  60
ATOM     60  C   UNL     1       3.843  -9.338   3.312  1.00  0.00    -0.014 A 
ATOM     61  C   UNL     1       3.098 -10.513   3.102  1.00  0.00     0.010 A 
ATOM     62  C   UNL     1       3.220  -8.267   3.987  1.00  0.00     0.010 A 
ATOM     63  C   UNL     1       1.764 -10.607   3.503  1.00  0.00     0.020 A 
ATOM     64  C   UNL     1       1.885  -8.367   4.421  1.00  0.00     0.020 A 
ATOM     65  C   UNL     1       1.160  -9.530   4.150  1.00  0.00     0.054 A 
BRANCH  65  66
ATOM     66  S   UNL     1      -0.591  -9.687   4.602  1.00  0.00     0.124 S 
ATOM     67  O   UNL     1      -1.253  -9.636   3.300  1.00  0.00    -0.237 OA
ATOM     68  O   UNL     1      -0.635 -10.985   5.271  1.00  0.00    -0.237 OA
ATOM     69  O   UNL     1      -0.839  -8.538   5.469  1.00  0.00    -0.744 OA
ENDBRANCH  65  66
ENDBRANCH  39  60
ENDBRANCH  13  14
ENDBRANCH   6   8
ENDBRANCH   3   4
ENDBRANCH   2   3
ENDBRANCH   1   2
BRANCH   1  70
ATOM     70  C   UNL     1       4.822   2.455   3.642  1.00  0.00     0.002 C 
BRANCH  70  71
ATOM     71  C   UNL     1       6.340   2.267   3.728  1.00  0.00     0.021 C 
BRANCH  71  72
ATOM     72  C   UNL     1       7.170   3.544   3.640  1.00  0.00     0.116 C 
BRANCH  72  73
ATOM     73  N   UNL     1       6.827   4.508   4.669  1.00  0.00    -0.352 N 
ATOM     74  C   UNL     1       7.657   5.192   5.521  1.00  0.00     0.251 C 
ATOM     75  H   UNL     1       5.866   4.698   4.769  1.00  0.00     0.163 HD
ATOM     76  O   UNL     1       7.184   5.926   6.384  1.00  0.00    -0.269 OA
BRANCH  74  77
ATOM     77  C   UNL     1       9.118   5.038   5.393  1.00  0.00     0.049 A 
ATOM     78  C   UNL     1       9.766   5.356   4.191  1.00  0.00     0.014 A 
ATOM     79  C   UNL     1       9.861   4.555   6.491  1.00  0.00     0.012 A 
ATOM     80  C   UNL     1      11.137   5.157   4.064  1.00  0.00     0.003 A 
ATOM     81  C   UNL     1      11.249   4.398   6.354  1.00  0.00     0.049 A 
ATOM     82  C   UNL     1       9.512   4.104   7.792  1.00  0.00     0.029 A 
ATOM     83  C   UNL     1      11.900   4.683   5.139  1.00  0.00     0.027 A 
ATOM     84  N   UNL     1      11.722   3.936   7.572  1.00  0.00    -0.343 N 
ATOM     85  C   UNL     1      10.657   3.652   8.396  1.00  0.00     0.087 A 
BRANCH  84  86
ATOM     86  C   UNL     1      13.117   3.673   7.926  1.00  0.00     0.157 C 
BRANCH  86  87
ATOM     87  C   UNL     1      13.668   4.657   8.938  1.00  0.00    -0.025 A 
ATOM     88  C   UNL     1      13.176   4.718  10.248  1.00  0.00     0.025 A 
ATOM     89  C   UNL     1      14.727   5.511   8.607  1.00  0.00     0.025 A 
ATOM     90  C   UNL     1      13.721   5.630  11.139  1.00  0.00     0.111 A 
ATOM     91  C   UNL     1      15.220   6.377   9.576  1.00  0.00     0.111 A 
ATOM     92  N   UNL     1      14.736   6.462  10.833  1.00  0.00    -0.265 NA
ENDBRANCH  86  87
ENDBRANCH  84  86
ENDBRANCH  74  77
ENDBRANCH  72  73
ENDBRANCH  71  72
ENDBRANCH  70  71
ENDBRANCH   1  70
TORSDOF 18
