REMARK SMILES Cc1nccn1CCC[NH+]1CCC2(CC1)[C@@H](C(=O)NCCCCCCNC(=O)c1ccc(-c3c4nc(c(-c5ccc(S(=O)(=O)[O-])cc5)c5ccc([nH]5)c(-c5ccc(S(=O)(=O)[O-])cc5)c5nc(c(-c6ccc(S(=O)(=O)[O-])cc6)c6ccc3[nH]6)C=C5)C=C4)cc1)CC(=O)N2C
REMARK SMILES IDX 22 1 21 2 20 3 19 4 17 5 18 6 16 8 10 9 11 10 15 11 12 13
REMARK SMILES IDX 14 14 13 15 92 16 89 17 90 18 93 19 91 20 9 21 8 22 7 23
REMARK SMILES IDX 6 24 1 25 2 26 3 27 4 28 5 29 23 30 24 31 25 32 26 33 27 34
REMARK SMILES IDX 28 36 29 37 30 38 88 39 31 40 87 41 32 42 33 43 34 44 81 45
REMARK SMILES IDX 35 46 86 47 80 48 82 49 36 50 85 51 79 52 78 53 37 55 67 56
REMARK SMILES IDX 48 57 66 58 49 59 52 60 65 61 83 62 50 63 51 64 64 66 84 67
REMARK SMILES IDX 53 68 38 69 39 70 47 71 40 72 46 73 41 74 42 75 43 76 44 77
REMARK SMILES IDX 45 78 68 79 69 80 77 81 70 82 76 83 71 84 72 85 73 86 74 87
REMARK SMILES IDX 75 88 54 89 55 90 63 91 56 92 62 93 57 94 58 95 59 96 60 97
REMARK SMILES IDX 61 98
REMARK H PARENT 19 7 10 12 26 35 82 54 52 65
REMARK Flexibility Score: inf
ROOT
ATOM      1  C   UNL     1      -3.098   4.939  -1.597  1.00  0.00     0.002 C 
ENDROOT
BRANCH   1   2
ATOM      2  C   UNL     1      -2.811   6.305  -0.951  1.00  0.00     0.021 C 
BRANCH   2   3
ATOM      3  C   UNL     1      -1.381   6.820  -1.015  1.00  0.00     0.116 C 
BRANCH   3   4
ATOM      4  N   UNL     1      -0.800   7.184  -2.278  1.00  0.00    -0.356 N 
ATOM      5  C   UNL     1       0.451   7.658  -2.540  1.00  0.00     0.226 C 
ATOM      6  O   UNL     1       0.809   7.581  -3.725  1.00  0.00    -0.275 OA
ATOM      7  H   UNL     1      -1.385   7.076  -3.062  1.00  0.00     0.163 HD
BRANCH   5   8
ATOM      8  C   UNL     1       1.400   8.379  -1.549  1.00  0.00     0.114 C 
ATOM      9  N   UNL     1       3.400   5.564   1.184  1.00  0.00    -0.335 N 
ATOM     10  C   UNL     1       3.959   6.925   1.076  1.00  0.00     0.264 C 
ATOM     11  C   UNL     1       1.961   5.683   1.334  1.00  0.00     0.264 C 
ATOM     12  H   UNL     1       3.773   5.102   2.013  1.00  0.00     0.348 HD
ATOM     13  C   UNL     1       3.398   7.769  -0.080  1.00  0.00     0.091 C 
ATOM     14  C   UNL     1       1.272   6.511   0.263  1.00  0.00     0.091 C 
ATOM     15  C   UNL     1       1.841   7.871  -0.122  1.00  0.00     0.065 C 
ATOM     16  N   UNL     1       1.365   8.964   0.748  1.00  0.00    -0.339 N 
ATOM     17  C   UNL     1       0.966   9.841  -1.395  1.00  0.00     0.116 C 
ATOM     18  C   UNL     1       0.958  10.102   0.073  1.00  0.00     0.223 C 
ATOM     19  C   UNL     1       1.117   8.879   2.175  1.00  0.00     0.147 C 
ATOM     20  O   UNL     1       0.618  11.159   0.580  1.00  0.00    -0.275 OA
BRANCH   9  21
ATOM     21  C   UNL     1       3.837   4.660   0.111  1.00  0.00     0.264 C 
BRANCH  21  22
ATOM     22  C   UNL     1       3.860   3.158   0.482  1.00  0.00     0.083 C 
BRANCH  22  23
ATOM     23  C   UNL     1       2.556   2.372   0.675  1.00  0.00     0.129 C 
BRANCH  23  24
ATOM     24  N   UNL     1       1.853   1.968  -0.531  1.00  0.00    -0.335 N 
ATOM     25  C   UNL     1       1.341  -0.420   0.172  1.00  0.00     0.087 C 
ATOM     26  C   UNL     1       1.303   0.723  -0.776  1.00  0.00     0.105 A 
ATOM     27  N   UNL     1       0.699   0.702  -1.949  1.00  0.00    -0.242 NA
ATOM     28  C   UNL     1       0.820   1.962  -2.457  1.00  0.00     0.131 A 
ATOM     29  C   UNL     1       1.503   2.770  -1.582  1.00  0.00     0.107 A 
ENDBRANCH  23  24
ENDBRANCH  22  23
ENDBRANCH  21  22
ENDBRANCH   9  21
ENDBRANCH   5   8
ENDBRANCH   3   4
ENDBRANCH   2   3
ENDBRANCH   1   2
BRANCH   1  30
ATOM     30  C   UNL     1      -2.070   3.799  -1.487  1.00  0.00     0.002 C 
BRANCH  30  31
ATOM     31  C   UNL     1      -1.591   3.316  -0.109  1.00  0.00     0.021 C 
BRANCH  31  32
ATOM     32  C   UNL     1      -2.633   2.738   0.827  1.00  0.00     0.116 C 
BRANCH  32  33
ATOM     33  N   UNL     1      -3.295   1.530   0.318  1.00  0.00    -0.352 N 
ATOM     34  C   UNL     1      -4.388   0.865   0.856  1.00  0.00     0.251 C 
ATOM     35  H   UNL     1      -2.917   1.144  -0.505  1.00  0.00     0.163 HD
ATOM     36  O   UNL     1      -4.628  -0.307   0.574  1.00  0.00    -0.269 OA
BRANCH  34  37
ATOM     37  C   UNL     1      -5.254   1.599   1.795  1.00  0.00     0.039 A 
ATOM     38  C   UNL     1      -5.741   1.039   2.981  1.00  0.00     0.014 A 
ATOM     39  C   UNL     1      -5.467   2.937   1.506  1.00  0.00     0.014 A 
ATOM     40  C   UNL     1      -6.328   1.881   3.928  1.00  0.00     0.010 A 
ATOM     41  C   UNL     1      -5.802   3.781   2.525  1.00  0.00     0.010 A 
ATOM     42  C   UNL     1      -6.317   3.266   3.709  1.00  0.00    -0.014 A 
BRANCH  42  43
ATOM     43  C   UNL     1      -6.735   4.230   4.724  1.00  0.00     0.031 A 
ATOM     44  C   UNL     1      -6.067   4.094   6.048  1.00  0.00     0.074 A 
ATOM     45  C   UNL     1      -7.452   5.332   4.398  1.00  0.00     0.049 A 
ATOM     46  N   UNL     1      -6.615   3.797   7.179  1.00  0.00    -0.248 NA
ATOM     47  C   UNL     1      -4.596   4.174   6.107  1.00  0.00     0.031 C 
ATOM     48  C   UNL     1      -7.918   5.744   3.063  1.00  0.00     0.029 A 
ATOM     49  N   UNL     1      -7.774   6.410   5.160  1.00  0.00    -0.354 N 
ATOM     50  C   UNL     1      -5.603   3.876   8.132  1.00  0.00     0.074 A 
ATOM     51  C   UNL     1      -4.364   3.909   7.395  1.00  0.00     0.031 C 
ATOM     52  C   UNL     1      -8.188   7.066   3.064  1.00  0.00     0.029 A 
ATOM     53  C   UNL     1      -8.109   7.548   4.429  1.00  0.00     0.049 A 
ATOM     54  H   UNL     1      -7.770   6.389   6.144  1.00  0.00     0.167 HD
ATOM     55  C   UNL     1      -5.871   4.166   9.437  1.00  0.00     0.031 A 
ATOM     56  C   UNL     1      -8.283   8.807   4.901  1.00  0.00     0.031 A 
ATOM     57  C   UNL     1      -7.283   4.095   9.714  1.00  0.00     0.049 A 
ATOM     58  C   UNL     1      -8.539   8.684   6.356  1.00  0.00     0.074 A 
ATOM     59  C   UNL     1      -8.243   3.108   9.618  1.00  0.00     0.029 A 
ATOM     60  N   UNL     1      -7.966   5.290   9.764  1.00  0.00    -0.354 N 
ATOM     61  N   UNL     1      -9.604   8.111   6.843  1.00  0.00    -0.248 NA
ATOM     62  C   UNL     1      -7.408   8.770   7.266  1.00  0.00     0.031 C 
ATOM     63  C   UNL     1      -9.405   3.776   9.131  1.00  0.00     0.029 A 
ATOM     64  C   UNL     1      -9.120   5.140   9.040  1.00  0.00     0.049 A 
ATOM     65  H   UNL     1      -7.677   6.105  10.236  1.00  0.00     0.167 HD
ATOM     66  C   UNL     1      -9.142   7.370   7.921  1.00  0.00     0.074 A 
ATOM     67  C   UNL     1      -7.812   7.908   8.206  1.00  0.00     0.031 C 
ATOM     68  C   UNL     1      -9.755   6.204   8.289  1.00  0.00     0.031 A 
BRANCH  55  69
ATOM     69  C   UNL     1      -4.928   4.907  10.356  1.00  0.00    -0.014 A 
ATOM     70  C   UNL     1      -5.300   5.093  11.704  1.00  0.00     0.010 A 
ATOM     71  C   UNL     1      -3.833   5.661   9.887  1.00  0.00     0.010 A 
ATOM     72  C   UNL     1      -4.661   6.043  12.512  1.00  0.00     0.020 A 
ATOM     73  C   UNL     1      -3.159   6.577  10.697  1.00  0.00     0.020 A 
ATOM     74  C   UNL     1      -3.603   6.790  11.995  1.00  0.00     0.054 A 
BRANCH  74  75
ATOM     75  S   UNL     1      -2.860   8.096  13.003  1.00  0.00     0.124 S 
ATOM     76  O   UNL     1      -3.957   9.054  13.107  1.00  0.00    -0.237 OA
ATOM     77  O   UNL     1      -2.518   7.383  14.230  1.00  0.00    -0.237 OA
ATOM     78  O   UNL     1      -1.718   8.535  12.203  1.00  0.00    -0.744 OA
ENDBRANCH  74  75
ENDBRANCH  55  69
BRANCH  56  79
ATOM     79  C   UNL     1      -7.999  10.099   4.228  1.00  0.00    -0.014 A 
ATOM     80  C   UNL     1      -8.463  11.314   4.766  1.00  0.00     0.010 A 
ATOM     81  C   UNL     1      -7.035  10.168   3.200  1.00  0.00     0.010 A 
ATOM     82  C   UNL     1      -7.927  12.544   4.348  1.00  0.00     0.020 A 
ATOM     83  C   UNL     1      -6.503  11.390   2.771  1.00  0.00     0.020 A 
ATOM     84  C   UNL     1      -6.930  12.572   3.370  1.00  0.00     0.054 A 
BRANCH  84  85
ATOM     85  S   UNL     1      -6.096  14.142   2.986  1.00  0.00     0.124 S 
ATOM     86  O   UNL     1      -7.134  14.880   2.274  1.00  0.00    -0.237 OA
ATOM     87  O   UNL     1      -5.752  14.649   4.311  1.00  0.00    -0.237 OA
ATOM     88  O   UNL     1      -4.955  13.730   2.169  1.00  0.00    -0.744 OA
ENDBRANCH  84  85
ENDBRANCH  56  79
BRANCH  68  89
ATOM     89  C   UNL     1     -11.103   5.878   7.682  1.00  0.00    -0.014 A 
ATOM     90  C   UNL     1     -11.321   5.700   6.300  1.00  0.00     0.010 A 
ATOM     91  C   UNL     1     -12.156   5.582   8.565  1.00  0.00     0.010 A 
ATOM     92  C   UNL     1     -12.566   5.268   5.818  1.00  0.00     0.020 A 
ATOM     93  C   UNL     1     -13.391   5.131   8.094  1.00  0.00     0.020 A 
ATOM     94  C   UNL     1     -13.595   4.987   6.721  1.00  0.00     0.054 A 
BRANCH  94  95
ATOM     95  S   UNL     1     -15.192   4.389   6.100  1.00  0.00     0.124 S 
ATOM     96  O   UNL     1     -15.733   5.568   5.429  1.00  0.00    -0.237 OA
ATOM     97  O   UNL     1     -14.809   3.286   5.223  1.00  0.00    -0.237 OA
ATOM     98  O   UNL     1     -15.907   3.986   7.311  1.00  0.00    -0.744 OA
ENDBRANCH  94  95
ENDBRANCH  68  89
ENDBRANCH  42  43
ENDBRANCH  34  37
ENDBRANCH  32  33
ENDBRANCH  31  32
ENDBRANCH  30  31
ENDBRANCH   1  30
TORSDOF 20
