REMARK SMILES O=C(NCCCCCCNC(=O)c1cccnc1C(=O)Nc1ccc(Cl)cn1)c1ccc(-c2c3nc(c(-c4ccc(S(=O)(=O)[O-])cc4)c4ccc([nH]4)c(-c4ccc(S(=O)(=O)[O-])cc4)c4nc(c(-c5ccc(S(=O)(=O)[O-])cc5)c5ccc2[nH]5)C=C4)C=C3)cc1
REMARK SMILES IDX 6 1 5 2 4 3 3 4 1 5 2 6 29 8 30 9 88 10 31 11 87 12 32 13
REMARK SMILES IDX 33 14 34 15 81 16 35 17 86 18 80 19 82 20 36 21 85 22 79 23
REMARK SMILES IDX 78 24 37 26 67 27 48 28 66 29 49 30 52 31 65 32 83 33 50 34
REMARK SMILES IDX 51 35 64 37 84 38 53 39 38 40 39 41 47 42 40 43 46 44 41 45
REMARK SMILES IDX 42 46 43 47 44 48 45 49 68 50 69 51 77 52 70 53 76 54 71 55
REMARK SMILES IDX 72 56 73 57 74 58 75 59 54 60 55 61 63 62 56 63 62 64 57 65
REMARK SMILES IDX 58 66 59 67 60 68 61 69 7 70 8 71 9 72 10 73 11 74 12 76
REMARK SMILES IDX 13 77 14 78 18 79 15 80 17 81 16 82 19 83 20 84 21 85 22 87
REMARK SMILES IDX 23 88 28 89 24 90 27 91 25 92 26 93
REMARK H PARENT 3 7 82 25 52 36 10 75 21 86
REMARK Flexibility Score: inf
ROOT
ATOM      1  C   UNL     1       4.647   1.997  -3.147  1.00  0.00     0.002 C 
ENDROOT
BRANCH   1   2
ATOM      2  C   UNL     1       4.855   0.608  -2.559  1.00  0.00     0.021 C 
BRANCH   2   3
ATOM      3  C   UNL     1       4.518   0.495  -1.084  1.00  0.00     0.116 C 
BRANCH   3   4
ATOM      4  N   UNL     1       3.097   0.628  -0.800  1.00  0.00    -0.352 N 
ATOM      5  O   UNL     1       1.151   0.043   0.210  1.00  0.00    -0.269 OA
ATOM      6  C   UNL     1       2.366  -0.076   0.136  1.00  0.00     0.251 C 
ATOM      7  H   UNL     1       2.603   1.292  -1.333  1.00  0.00     0.163 HD
BRANCH   6   8
ATOM      8  C   UNL     1       3.095  -1.011   1.022  1.00  0.00     0.039 A 
ATOM      9  C   UNL     1       4.256  -0.578   1.663  1.00  0.00     0.014 A 
ATOM     10  C   UNL     1       2.681  -2.341   1.122  1.00  0.00     0.014 A 
ATOM     11  C   UNL     1       5.095  -1.511   2.251  1.00  0.00     0.010 A 
ATOM     12  C   UNL     1       3.475  -3.258   1.821  1.00  0.00     0.010 A 
ATOM     13  C   UNL     1       4.706  -2.858   2.362  1.00  0.00    -0.014 A 
BRANCH  13  14
ATOM     14  C   UNL     1       5.581  -3.780   3.131  1.00  0.00     0.031 A 
ATOM     15  C   UNL     1       6.247  -4.968   2.492  1.00  0.00     0.074 A 
ATOM     16  C   UNL     1       5.829  -3.474   4.421  1.00  0.00     0.049 A 
ATOM     17  N   UNL     1       7.097  -5.811   3.025  1.00  0.00    -0.248 NA
ATOM     18  C   UNL     1       5.921  -5.258   1.087  1.00  0.00     0.031 C 
ATOM     19  C   UNL     1       5.223  -2.353   5.150  1.00  0.00     0.029 A 
ATOM     20  N   UNL     1       6.678  -4.040   5.335  1.00  0.00    -0.354 N 
ATOM     21  C   UNL     1       7.396  -6.737   2.031  1.00  0.00     0.074 A 
ATOM     22  C   UNL     1       6.619  -6.366   0.868  1.00  0.00     0.031 C 
ATOM     23  C   UNL     1       5.777  -2.267   6.366  1.00  0.00     0.029 A 
ATOM     24  C   UNL     1       6.710  -3.372   6.536  1.00  0.00     0.049 A 
ATOM     25  H   UNL     1       7.213  -4.845   5.150  1.00  0.00     0.167 HD
ATOM     26  C   UNL     1       8.244  -7.794   2.087  1.00  0.00     0.031 A 
ATOM     27  C   UNL     1       7.398  -3.625   7.664  1.00  0.00     0.031 A 
ATOM     28  C   UNL     1       9.009  -8.158   3.253  1.00  0.00     0.049 A 
ATOM     29  C   UNL     1       8.319  -4.806   7.697  1.00  0.00     0.074 A 
ATOM     30  C   UNL     1       9.897  -9.210   3.407  1.00  0.00     0.029 A 
ATOM     31  N   UNL     1       8.983  -7.482   4.464  1.00  0.00    -0.354 N 
ATOM     32  N   UNL     1       8.591  -5.661   6.740  1.00  0.00    -0.248 NA
ATOM     33  C   UNL     1       9.023  -5.059   8.959  1.00  0.00     0.031 C 
ATOM     34  C   UNL     1      10.373  -9.196   4.723  1.00  0.00     0.029 A 
ATOM     35  C   UNL     1       9.826  -8.102   5.373  1.00  0.00     0.049 A 
ATOM     36  H   UNL     1       8.445  -6.679   4.651  1.00  0.00     0.167 HD
ATOM     37  C   UNL     1       9.500  -6.557   7.287  1.00  0.00     0.074 A 
ATOM     38  C   UNL     1       9.762  -6.112   8.642  1.00  0.00     0.031 C 
ATOM     39  C   UNL     1      10.058  -7.657   6.723  1.00  0.00     0.031 A 
BRANCH  26  40
ATOM     40  C   UNL     1       8.386  -8.650   0.854  1.00  0.00    -0.014 A 
ATOM     41  C   UNL     1       9.088  -8.187  -0.274  1.00  0.00     0.010 A 
ATOM     42  C   UNL     1       7.882  -9.965   0.851  1.00  0.00     0.010 A 
ATOM     43  C   UNL     1       9.263  -9.013  -1.388  1.00  0.00     0.020 A 
ATOM     44  C   UNL     1       8.076 -10.802  -0.253  1.00  0.00     0.020 A 
ATOM     45  C   UNL     1       8.757 -10.316  -1.371  1.00  0.00     0.054 A 
BRANCH  45  46
ATOM     46  S   UNL     1       9.039 -11.378  -2.815  1.00  0.00     0.124 S 
ATOM     47  O   UNL     1       8.138 -10.788  -3.802  1.00  0.00    -0.237 OA
ATOM     48  O   UNL     1      10.464 -11.191  -3.076  1.00  0.00    -0.237 OA
ATOM     49  O   UNL     1       8.664 -12.710  -2.347  1.00  0.00    -0.744 OA
ENDBRANCH  45  46
ENDBRANCH  26  40
BRANCH  27  50
ATOM     50  C   UNL     1       7.198  -2.763   8.859  1.00  0.00    -0.014 A 
ATOM     51  C   UNL     1       8.226  -1.931   9.335  1.00  0.00     0.010 A 
ATOM     52  C   UNL     1       5.953  -2.759   9.518  1.00  0.00     0.010 A 
ATOM     53  C   UNL     1       8.020  -1.130  10.462  1.00  0.00     0.020 A 
ATOM     54  C   UNL     1       5.732  -1.934  10.621  1.00  0.00     0.020 A 
ATOM     55  C   UNL     1       6.774  -1.138  11.097  1.00  0.00     0.054 A 
BRANCH  55  56
ATOM     56  S   UNL     1       6.511  -0.063  12.534  1.00  0.00     0.124 S 
ATOM     57  O   UNL     1       7.203  -0.797  13.589  1.00  0.00    -0.237 OA
ATOM     58  O   UNL     1       7.140   1.188  12.114  1.00  0.00    -0.237 OA
ATOM     59  O   UNL     1       5.056  -0.009  12.656  1.00  0.00    -0.744 OA
ENDBRANCH  55  56
ENDBRANCH  27  50
BRANCH  39  60
ATOM     60  C   UNL     1      11.014  -8.440   7.581  1.00  0.00    -0.014 A 
ATOM     61  C   UNL     1      10.553  -9.203   8.669  1.00  0.00     0.010 A 
ATOM     62  C   UNL     1      12.391  -8.409   7.297  1.00  0.00     0.010 A 
ATOM     63  C   UNL     1      11.458  -9.878   9.492  1.00  0.00     0.020 A 
ATOM     64  C   UNL     1      13.296  -9.107   8.100  1.00  0.00     0.020 A 
ATOM     65  C   UNL     1      12.825  -9.818   9.206  1.00  0.00     0.054 A 
BRANCH  65  66
ATOM     66  S   UNL     1      13.982 -10.703  10.286  1.00  0.00     0.124 S 
ATOM     67  O   UNL     1      14.021  -9.838  11.461  1.00  0.00    -0.237 OA
ATOM     68  O   UNL     1      13.323 -11.993  10.476  1.00  0.00    -0.237 OA
ATOM     69  O   UNL     1      15.216 -10.750   9.505  1.00  0.00    -0.744 OA
ENDBRANCH  65  66
ENDBRANCH  39  60
ENDBRANCH  13  14
ENDBRANCH   6   8
ENDBRANCH   3   4
ENDBRANCH   2   3
ENDBRANCH   1   2
BRANCH   1  70
ATOM     70  C   UNL     1       5.460   3.120  -2.499  1.00  0.00     0.002 C 
BRANCH  70  71
ATOM     71  C   UNL     1       6.986   2.992  -2.464  1.00  0.00     0.021 C 
BRANCH  71  72
ATOM     72  C   UNL     1       7.705   2.423  -3.686  1.00  0.00     0.116 C 
BRANCH  72  73
ATOM     73  N   UNL     1       7.284   2.969  -4.965  1.00  0.00    -0.352 N 
ATOM     74  C   UNL     1       8.007   3.636  -5.921  1.00  0.00     0.253 C 
ATOM     75  H   UNL     1       6.331   2.841  -5.179  1.00  0.00     0.163 HD
ATOM     76  O   UNL     1       7.575   3.759  -7.060  1.00  0.00    -0.269 OA
BRANCH  74  77
ATOM     77  C   UNL     1       9.354   4.091  -5.619  1.00  0.00     0.071 A 
ATOM     78  C   UNL     1      10.331   3.080  -5.698  1.00  0.00     0.018 A 
ATOM     79  C   UNL     1       9.732   5.387  -5.287  1.00  0.00     0.141 A 
ATOM     80  C   UNL     1      11.653   3.366  -5.404  1.00  0.00     0.021 A 
ATOM     81  N   UNL     1      11.045   5.658  -4.989  1.00  0.00    -0.250 NA
ATOM     82  C   UNL     1      11.959   4.662  -5.051  1.00  0.00     0.112 A 
BRANCH  79  83
ATOM     83  C   UNL     1       8.885   6.655  -5.222  1.00  0.00     0.276 C 
ATOM     84  O   UNL     1       9.249   7.589  -4.503  1.00  0.00    -0.267 OA
ATOM     85  N   UNL     1       7.947   6.906  -6.190  1.00  0.00    -0.305 N 
ATOM     86  H   UNL     1       8.236   7.520  -6.903  1.00  0.00     0.171 HD
BRANCH  85  87
ATOM     87  C   UNL     1       6.649   6.426  -6.317  1.00  0.00     0.132 A 
ATOM     88  C   UNL     1       5.966   5.800  -5.283  1.00  0.00     0.049 A 
ATOM     89  N   UNL     1       6.116   6.601  -7.543  1.00  0.00    -0.238 NA
ATOM     90  C   UNL     1       4.739   5.192  -5.569  1.00  0.00     0.026 A 
ATOM     91  C   UNL     1       4.956   5.950  -7.806  1.00  0.00     0.134 A 
ATOM     92  C   UNL     1       4.251   5.223  -6.866  1.00  0.00     0.059 A 
ATOM     93  Cl  UNL     1       2.824   4.369  -7.283  1.00  0.00    -0.083 Cl
ENDBRANCH  85  87
ENDBRANCH  79  83
ENDBRANCH  74  77
ENDBRANCH  72  73
ENDBRANCH  71  72
ENDBRANCH  70  71
ENDBRANCH   1  70
TORSDOF 18
