REMARK SMILES COC(=O)c1sc(NC(=O)[C@H]2CC=CC[C@H]2C(=O)NCCCCCCNC(=O)c2ccc(-c3c4nc(c(-c5ccc(S(=O)(=O)[O-])cc5)c5ccc([nH]5)c(-c5ccc(S(=O)(=O)[O-])cc5)c5nc(c(-c6ccc(S(=O)(=O)[O-])cc6)c6ccc3[nH]6)C=C5)C=C4)cc2)nc1C
REMARK SMILES IDX 22 1 21 2 20 3 19 4 17 5 18 6 16 8 11 9 12 10 13 11 15 12
REMARK SMILES IDX 14 13 9 14 8 15 10 17 7 18 5 19 6 20 90 21 89 22 91 23 3 24
REMARK SMILES IDX 4 25 2 26 1 27 23 28 24 29 25 30 26 31 27 32 28 34 29 35
REMARK SMILES IDX 30 36 88 37 31 38 87 39 32 40 33 41 34 42 81 43 35 44 86 45
REMARK SMILES IDX 80 46 82 47 36 48 85 49 79 50 78 51 37 53 67 54 48 55 66 56
REMARK SMILES IDX 49 57 52 58 65 59 83 60 50 61 51 62 64 64 84 65 53 66 38 67
REMARK SMILES IDX 39 68 47 69 40 70 46 71 41 72 42 73 43 74 44 75 45 76 68 77
REMARK SMILES IDX 69 78 77 79 70 80 76 81 71 82 72 83 73 84 74 85 75 86 54 87
REMARK SMILES IDX 55 88 63 89 56 90 62 91 57 92 58 93 59 94 60 95 61 96
REMARK H PARENT 19 7 8 16 26 33 82 52 52 63
REMARK Flexibility Score: inf
ROOT
ATOM      1  C   UNL     1       0.911   4.078 -11.045  1.00  0.00     0.002 C 
ENDROOT
BRANCH   1   2
ATOM      2  C   UNL     1       0.473   4.018  -9.582  1.00  0.00     0.021 C 
BRANCH   2   3
ATOM      3  C   UNL     1      -0.713   4.916  -9.239  1.00  0.00     0.116 C 
BRANCH   3   4
ATOM      4  N   UNL     1      -1.950   4.409  -9.800  1.00  0.00    -0.356 N 
ATOM      5  C   UNL     1      -3.141   4.098  -9.227  1.00  0.00     0.224 C 
ATOM      6  O   UNL     1      -4.002   3.592  -9.956  1.00  0.00    -0.275 OA
ATOM      7  H   UNL     1      -1.921   4.265 -10.773  1.00  0.00     0.163 HD
BRANCH   5   8
ATOM      8  C   UNL     1      -3.463   4.378  -7.763  1.00  0.00     0.095 C 
ATOM      9  C   UNL     1      -3.020   3.293  -6.742  1.00  0.00     0.095 C 
ATOM     10  C   UNL     1      -3.486   3.731  -5.346  1.00  0.00     0.041 C 
ATOM     11  C   UNL     1      -3.077   5.122  -4.983  1.00  0.00    -0.030 C 
ATOM     12  C   UNL     1      -3.217   5.848  -7.364  1.00  0.00     0.041 C 
ATOM     13  C   UNL     1      -2.961   6.083  -5.907  1.00  0.00    -0.030 C 
BRANCH   9  14
ATOM     14  C   UNL     1      -1.587   2.772  -6.961  1.00  0.00     0.230 C 
ATOM     15  N   UNL     1      -0.544   3.164  -6.172  1.00  0.00    -0.302 N 
ATOM     16  H   UNL     1       0.132   3.801  -6.500  1.00  0.00     0.172 HD
ATOM     17  O   UNL     1      -1.340   2.071  -7.948  1.00  0.00    -0.274 OA
BRANCH  15  18
ATOM     18  C   UNL     1      -0.470   2.642  -4.910  1.00  0.00     0.190 A 
ATOM     19  C   UNL     1       0.305   1.952  -2.743  1.00  0.00     0.137 A 
ATOM     20  S   UNL     1       0.979   2.856  -4.053  1.00  0.00    -0.089 S 
ATOM     21  C   UNL     1      -1.002   1.605  -3.052  1.00  0.00     0.065 A 
ATOM     22  N   UNL     1      -1.387   1.924  -4.332  1.00  0.00    -0.224 NA
ATOM     23  C   UNL     1      -2.055   0.986  -2.209  1.00  0.00     0.069 C 
BRANCH  19  24
ATOM     24  C   UNL     1       1.078   1.681  -1.560  1.00  0.00     0.350 C 
ATOM     25  O   UNL     1       1.991   2.366  -1.107  1.00  0.00    -0.245 OA
BRANCH  24  26
ATOM     26  O   UNL     1       0.640   0.518  -1.005  1.00  0.00    -0.465 OA
ATOM     27  C   UNL     1       1.278   0.130   0.209  1.00  0.00     0.282 C 
ENDBRANCH  24  26
ENDBRANCH  19  24
ENDBRANCH  15  18
ENDBRANCH   9  14
ENDBRANCH   5   8
ENDBRANCH   3   4
ENDBRANCH   2   3
ENDBRANCH   1   2
BRANCH   1  28
ATOM     28  C   UNL     1       1.455   5.435 -11.492  1.00  0.00     0.002 C 
BRANCH  28  29
ATOM     29  C   UNL     1       2.561   6.009 -10.604  1.00  0.00     0.021 C 
BRANCH  29  30
ATOM     30  C   UNL     1       3.723   5.057 -10.335  1.00  0.00     0.116 C 
BRANCH  30  31
ATOM     31  N   UNL     1       4.393   4.659 -11.559  1.00  0.00    -0.352 N 
ATOM     32  C   UNL     1       5.714   4.796 -11.900  1.00  0.00     0.251 C 
ATOM     33  H   UNL     1       3.821   4.232 -12.238  1.00  0.00     0.163 HD
ATOM     34  O   UNL     1       6.076   4.612 -13.057  1.00  0.00    -0.269 OA
BRANCH  32  35
ATOM     35  C   UNL     1       6.693   5.182 -10.863  1.00  0.00     0.039 A 
ATOM     36  C   UNL     1       7.624   6.181 -11.151  1.00  0.00     0.014 A 
ATOM     37  C   UNL     1       6.693   4.554  -9.613  1.00  0.00     0.014 A 
ATOM     38  C   UNL     1       8.533   6.578 -10.169  1.00  0.00     0.010 A 
ATOM     39  C   UNL     1       7.549   5.003  -8.613  1.00  0.00     0.010 A 
ATOM     40  C   UNL     1       8.489   6.009  -8.885  1.00  0.00    -0.014 A 
BRANCH  40  41
ATOM     41  C   UNL     1       9.435   6.441  -7.826  1.00  0.00     0.031 A 
ATOM     42  C   UNL     1      10.439   5.468  -7.267  1.00  0.00     0.074 A 
ATOM     43  C   UNL     1       9.363   7.695  -7.338  1.00  0.00     0.049 A 
ATOM     44  N   UNL     1      11.330   5.653  -6.327  1.00  0.00    -0.248 NA
ATOM     45  C   UNL     1      10.425   4.103  -7.820  1.00  0.00     0.031 C 
ATOM     46  C   UNL     1       8.405   8.718  -7.767  1.00  0.00     0.029 A 
ATOM     47  N   UNL     1      10.108   8.324  -6.372  1.00  0.00    -0.354 N 
ATOM     48  C   UNL     1      11.969   4.428  -6.165  1.00  0.00     0.074 A 
ATOM     49  C   UNL     1      11.329   3.495  -7.065  1.00  0.00     0.031 C 
ATOM     50  C   UNL     1       8.642   9.853  -7.091  1.00  0.00     0.029 A 
ATOM     51  C   UNL     1       9.738   9.630  -6.153  1.00  0.00     0.049 A 
ATOM     52  H   UNL     1      10.839   7.882  -5.883  1.00  0.00     0.167 HD
ATOM     53  C   UNL     1      13.009   4.114  -5.356  1.00  0.00     0.031 A 
ATOM     54  C   UNL     1      10.223  10.546  -5.291  1.00  0.00     0.031 A 
ATOM     55  C   UNL     1      13.649   5.050  -4.470  1.00  0.00     0.049 A 
ATOM     56  C   UNL     1      11.376  10.172  -4.400  1.00  0.00     0.074 A 
ATOM     57  C   UNL     1      14.746   4.846  -3.652  1.00  0.00     0.029 A 
ATOM     58  N   UNL     1      13.250   6.365  -4.284  1.00  0.00    -0.354 N 
ATOM     59  N   UNL     1      12.012   9.028  -4.312  1.00  0.00    -0.248 NA
ATOM     60  C   UNL     1      11.888  11.219  -3.505  1.00  0.00     0.031 C 
ATOM     61  C   UNL     1      14.975   6.020  -2.928  1.00  0.00     0.029 A 
ATOM     62  C   UNL     1      14.063   6.977  -3.345  1.00  0.00     0.049 A 
ATOM     63  H   UNL     1      12.500   6.799  -4.750  1.00  0.00     0.167 HD
ATOM     64  C   UNL     1      13.019   9.227  -3.373  1.00  0.00     0.074 A 
ATOM     65  C   UNL     1      12.915  10.604  -2.935  1.00  0.00     0.031 C 
ATOM     66  C   UNL     1      13.946   8.349  -2.917  1.00  0.00     0.031 A 
BRANCH  53  67
ATOM     67  C   UNL     1      13.513   2.694  -5.386  1.00  0.00    -0.014 A 
ATOM     68  C   UNL     1      14.178   2.179  -6.514  1.00  0.00     0.010 A 
ATOM     69  C   UNL     1      13.357   1.874  -4.253  1.00  0.00     0.010 A 
ATOM     70  C   UNL     1      14.639   0.860  -6.524  1.00  0.00     0.020 A 
ATOM     71  C   UNL     1      13.845   0.564  -4.247  1.00  0.00     0.020 A 
ATOM     72  C   UNL     1      14.468   0.060  -5.390  1.00  0.00     0.054 A 
BRANCH  72  73
ATOM     73  S   UNL     1      15.100  -1.640  -5.422  1.00  0.00     0.124 S 
ATOM     74  O   UNL     1      14.159  -2.294  -6.327  1.00  0.00    -0.237 OA
ATOM     75  O   UNL     1      16.454  -1.468  -5.942  1.00  0.00    -0.237 OA
ATOM     76  O   UNL     1      15.021  -2.067  -4.027  1.00  0.00    -0.744 OA
ENDBRANCH  72  73
ENDBRANCH  53  67
BRANCH  54  77
ATOM     77  C   UNL     1       9.626  11.909  -5.243  1.00  0.00    -0.014 A 
ATOM     78  C   UNL     1      10.345  13.024  -5.708  1.00  0.00     0.010 A 
ATOM     79  C   UNL     1       8.324  12.097  -4.744  1.00  0.00     0.010 A 
ATOM     80  C   UNL     1       9.782  14.303  -5.657  1.00  0.00     0.020 A 
ATOM     81  C   UNL     1       7.746  13.369  -4.719  1.00  0.00     0.020 A 
ATOM     82  C   UNL     1       8.484  14.466  -5.166  1.00  0.00     0.054 A 
BRANCH  82  83
ATOM     83  S   UNL     1       7.753  16.127  -5.158  1.00  0.00     0.124 S 
ATOM     84  O   UNL     1       8.484  16.775  -4.073  1.00  0.00    -0.237 OA
ATOM     85  O   UNL     1       8.055  16.610  -6.503  1.00  0.00    -0.237 OA
ATOM     86  O   UNL     1       6.337  15.876  -4.897  1.00  0.00    -0.744 OA
ENDBRANCH  82  83
ENDBRANCH  54  77
BRANCH  66  87
ATOM     87  C   UNL     1      14.952   8.859  -1.918  1.00  0.00    -0.014 A 
ATOM     88  C   UNL     1      14.582   9.166  -0.596  1.00  0.00     0.010 A 
ATOM     89  C   UNL     1      16.300   8.986  -2.299  1.00  0.00     0.010 A 
ATOM     90  C   UNL     1      15.536   9.628   0.314  1.00  0.00     0.020 A 
ATOM     91  C   UNL     1      17.263   9.417  -1.383  1.00  0.00     0.020 A 
ATOM     92  C   UNL     1      16.871   9.751  -0.086  1.00  0.00     0.054 A 
BRANCH  92  93
ATOM     93  S   UNL     1      18.096  10.320   1.125  1.00  0.00     0.124 S 
ATOM     94  O   UNL     1      17.772  11.739   1.241  1.00  0.00    -0.237 OA
ATOM     95  O   UNL     1      17.788   9.507   2.299  1.00  0.00    -0.237 OA
ATOM     96  O   UNL     1      19.377  10.024   0.488  1.00  0.00    -0.744 OA
ENDBRANCH  92  93
ENDBRANCH  66  87
ENDBRANCH  40  41
ENDBRANCH  32  35
ENDBRANCH  30  31
ENDBRANCH  29  30
ENDBRANCH  28  29
ENDBRANCH   1  28
TORSDOF 20
