REMARK SMILES C/C(=N/OCc1ccccc1Nc1c(Cl)cccc1Cl)C(=O)NCCCCCCNC(=O)c1ccc(-c2c3nc(c(-c4ccc(S(=O)(=O)[O-])cc4)c4ccc([nH]4)c(-c4ccc(S(=O)(=O)[O-])cc4)c4nc(c(-c5ccc(S(=O)(=O)[O-])cc5)c5ccc2[nH]5)C=C4)C=C3)cc1
REMARK SMILES IDX 25 1 24 2 23 3 21 4 22 5 2 7 1 8 3 9 4 10 5 11 6 12 7 13
REMARK SMILES IDX 11 14 8 15 10 16 9 17 12 18 13 20 14 21 19 22 15 23 16 24
REMARK SMILES IDX 18 25 20 26 17 27 26 28 27 29 28 30 29 31 30 32 31 33 32 35
REMARK SMILES IDX 33 36 34 37 92 38 35 39 91 40 36 41 37 42 38 43 85 44 39 45
REMARK SMILES IDX 90 46 84 47 86 48 40 49 89 50 83 51 82 52 41 54 71 55 52 56
REMARK SMILES IDX 70 57 53 58 56 59 69 60 87 61 54 62 55 63 68 65 88 66 57 67
REMARK SMILES IDX 42 68 43 69 51 70 44 71 50 72 45 73 46 74 47 75 48 76 49 77
REMARK SMILES IDX 72 78 73 79 81 80 74 81 80 82 75 83 76 84 77 85 78 86 79 87
REMARK SMILES IDX 58 88 59 89 67 90 60 91 66 92 61 93 62 94 63 95 64 96 65 97
REMARK H PARENT 23 6 12 19 30 34 86 53 56 64
REMARK Flexibility Score: inf
ROOT
ATOM      1  C   UNL     1      -1.235  -5.063  -0.022  1.00  0.00     0.021 C 
ENDROOT
BRANCH   1   2
ATOM      2  C   UNL     1       0.176  -4.545   0.299  1.00  0.00     0.116 C 
BRANCH   2   3
ATOM      3  N   UNL     1       0.564  -3.571  -0.698  1.00  0.00    -0.351 N 
ATOM      4  C   UNL     1       0.384  -2.213  -0.747  1.00  0.00     0.268 C 
ATOM      5  O   UNL     1       0.564  -1.649  -1.829  1.00  0.00    -0.268 OA
ATOM      6  H   UNL     1       1.040  -3.948  -1.474  1.00  0.00     0.163 HD
BRANCH   4   7
ATOM      7  C   UNL     1       0.123  -1.313   0.453  1.00  0.00     0.141 C 
ATOM      8  C   UNL     1       0.947  -0.043   0.435  1.00  0.00     0.077 C 
ATOM      9  N   UNL     1      -0.726  -1.433   1.431  1.00  0.00    -0.086 NA
BRANCH   9  10
ATOM     10  O   UNL     1      -1.465  -2.608   1.419  1.00  0.00    -0.390 OA
BRANCH  10  11
ATOM     11  C   UNL     1      -2.022  -2.890   2.716  1.00  0.00     0.302 C 
BRANCH  11  12
ATOM     12  C   UNL     1      -1.100  -2.704   3.913  1.00  0.00     0.016 A 
ATOM     13  C   UNL     1      -0.383  -3.801   4.422  1.00  0.00     0.009 A 
ATOM     14  C   UNL     1      -1.016  -1.452   4.566  1.00  0.00     0.045 A 
ATOM     15  C   UNL     1       0.336  -3.687   5.612  1.00  0.00     0.001 A 
ATOM     16  C   UNL     1      -0.364  -1.385   5.804  1.00  0.00     0.026 A 
ATOM     17  C   UNL     1       0.321  -2.489   6.317  1.00  0.00     0.002 A 
BRANCH  14  18
ATOM     18  N   UNL     1      -1.679  -0.343   4.004  1.00  0.00    -0.353 N 
ATOM     19  H   UNL     1      -2.090  -0.516   3.126  1.00  0.00     0.167 HD
BRANCH  18  20
ATOM     20  C   UNL     1      -1.856   0.970   4.482  1.00  0.00     0.076 A 
ATOM     21  C   UNL     1      -3.164   1.462   4.670  1.00  0.00     0.066 A 
ATOM     22  C   UNL     1      -0.795   1.885   4.615  1.00  0.00     0.066 A 
ATOM     23  Cl  UNL     1      -4.548   0.451   4.413  1.00  0.00    -0.082 Cl
ATOM     24  C   UNL     1      -3.397   2.784   5.062  1.00  0.00     0.023 A 
ATOM     25  C   UNL     1      -1.029   3.208   5.012  1.00  0.00     0.023 A 
ATOM     26  Cl  UNL     1       0.844   1.462   4.246  1.00  0.00    -0.082 Cl
ATOM     27  C   UNL     1      -2.328   3.654   5.244  1.00  0.00     0.003 A 
ENDBRANCH  18  20
ENDBRANCH  14  18
ENDBRANCH  11  12
ENDBRANCH  10  11
ENDBRANCH   9  10
ENDBRANCH   4   7
ENDBRANCH   2   3
ENDBRANCH   1   2
BRANCH   1  28
ATOM     28  C   UNL     1      -1.249  -6.362  -0.831  1.00  0.00     0.002 C 
BRANCH  28  29
ATOM     29  C   UNL     1      -0.765  -7.588  -0.050  1.00  0.00     0.002 C 
BRANCH  29  30
ATOM     30  C   UNL     1      -1.526  -7.880   1.248  1.00  0.00     0.021 C 
BRANCH  30  31
ATOM     31  C   UNL     1      -3.023  -8.125   1.069  1.00  0.00     0.116 C 
BRANCH  31  32
ATOM     32  N   UNL     1      -3.275  -9.304   0.256  1.00  0.00    -0.352 N 
ATOM     33  C   UNL     1      -3.910 -10.474   0.591  1.00  0.00     0.251 C 
ATOM     34  H   UNL     1      -2.942  -9.256  -0.669  1.00  0.00     0.163 HD
ATOM     35  O   UNL     1      -3.794 -11.460  -0.130  1.00  0.00    -0.269 OA
BRANCH  33  36
ATOM     36  C   UNL     1      -4.731 -10.545   1.819  1.00  0.00     0.039 A 
ATOM     37  C   UNL     1      -4.635 -11.675   2.637  1.00  0.00     0.014 A 
ATOM     38  C   UNL     1      -5.620  -9.516   2.144  1.00  0.00     0.014 A 
ATOM     39  C   UNL     1      -5.397 -11.750   3.805  1.00  0.00     0.010 A 
ATOM     40  C   UNL     1      -6.330  -9.564   3.341  1.00  0.00     0.010 A 
ATOM     41  C   UNL     1      -6.232 -10.685   4.179  1.00  0.00    -0.014 A 
BRANCH  41  42
ATOM     42  C   UNL     1      -7.016 -10.726   5.440  1.00  0.00     0.031 A 
ATOM     43  C   UNL     1      -8.521 -10.745   5.394  1.00  0.00     0.074 A 
ATOM     44  C   UNL     1      -6.375 -10.681   6.624  1.00  0.00     0.049 A 
ATOM     45  N   UNL     1      -9.376 -10.718   6.385  1.00  0.00    -0.248 NA
ATOM     46  C   UNL     1      -9.146 -10.774   4.062  1.00  0.00     0.031 C 
ATOM     47  C   UNL     1      -4.922 -10.621   6.799  1.00  0.00     0.029 A 
ATOM     48  N   UNL     1      -6.864 -10.670   7.906  1.00  0.00    -0.354 N 
ATOM     49  C   UNL     1     -10.636 -10.708   5.797  1.00  0.00     0.074 A 
ATOM     50  C   UNL     1     -10.434 -10.686   4.365  1.00  0.00     0.031 C 
ATOM     51  C   UNL     1      -4.638 -10.602   8.111  1.00  0.00     0.029 A 
ATOM     52  C   UNL     1      -5.885 -10.610   8.869  1.00  0.00     0.049 A 
ATOM     53  H   UNL     1      -7.825 -10.703   8.117  1.00  0.00     0.167 HD
ATOM     54  C   UNL     1     -11.851 -10.732   6.395  1.00  0.00     0.031 A 
ATOM     55  C   UNL     1      -5.979 -10.558  10.212  1.00  0.00     0.031 A 
ATOM     56  C   UNL     1     -12.047 -10.767   7.820  1.00  0.00     0.049 A 
ATOM     57  C   UNL     1      -7.339 -10.584  10.853  1.00  0.00     0.074 A 
ATOM     58  C   UNL     1     -13.237 -10.849   8.523  1.00  0.00     0.029 A 
ATOM     59  N   UNL     1     -11.029 -10.720   8.761  1.00  0.00    -0.354 N 
ATOM     60  N   UNL     1      -8.518 -10.638  10.280  1.00  0.00    -0.248 NA
ATOM     61  C   UNL     1      -7.380 -10.556  12.322  1.00  0.00     0.031 C 
ATOM     62  C   UNL     1     -12.940 -10.805   9.890  1.00  0.00     0.029 A 
ATOM     63  C   UNL     1     -11.563 -10.750  10.038  1.00  0.00     0.049 A 
ATOM     64  H   UNL     1     -10.069 -10.671   8.551  1.00  0.00     0.167 HD
ATOM     65  C   UNL     1      -9.441 -10.675  11.319  1.00  0.00     0.074 A 
ATOM     66  C   UNL     1      -8.683 -10.653  12.554  1.00  0.00     0.031 C 
ATOM     67  C   UNL     1     -10.794 -10.726  11.256  1.00  0.00     0.031 A 
BRANCH  54  68
ATOM     68  C   UNL     1     -13.066 -10.717   5.504  1.00  0.00    -0.014 A 
ATOM     69  C   UNL     1     -13.402 -11.833   4.715  1.00  0.00     0.010 A 
ATOM     70  C   UNL     1     -13.903  -9.587   5.480  1.00  0.00     0.010 A 
ATOM     71  C   UNL     1     -14.526 -11.802   3.886  1.00  0.00     0.020 A 
ATOM     72  C   UNL     1     -15.045  -9.563   4.673  1.00  0.00     0.020 A 
ATOM     73  C   UNL     1     -15.339 -10.665   3.867  1.00  0.00     0.054 A 
BRANCH  73  74
ATOM     74  S   UNL     1     -16.802 -10.659   2.796  1.00  0.00     0.124 S 
ATOM     75  O   UNL     1     -16.204 -10.505   1.472  1.00  0.00    -0.237 OA
ATOM     76  O   UNL     1     -17.403 -11.963   3.065  1.00  0.00    -0.237 OA
ATOM     77  O   UNL     1     -17.573  -9.511   3.267  1.00  0.00    -0.744 OA
ENDBRANCH  73  74
ENDBRANCH  54  68
BRANCH  55  78
ATOM     78  C   UNL     1      -4.743 -10.495  11.040  1.00  0.00    -0.014 A 
ATOM     79  C   UNL     1      -4.337 -11.607  11.799  1.00  0.00     0.010 A 
ATOM     80  C   UNL     1      -3.956  -9.329  11.058  1.00  0.00     0.010 A 
ATOM     81  C   UNL     1      -3.175 -11.549  12.574  1.00  0.00     0.020 A 
ATOM     82  C   UNL     1      -2.780  -9.277  11.811  1.00  0.00     0.020 A 
ATOM     83  C   UNL     1      -2.402 -10.384  12.573  1.00  0.00     0.054 A 
BRANCH  83  84
ATOM     84  S   UNL     1      -0.868 -10.350  13.541  1.00  0.00     0.124 S 
ATOM     85  O   UNL     1      -1.372 -10.226  14.905  1.00  0.00    -0.237 OA
ATOM     86  O   UNL     1      -0.254 -11.633  13.207  1.00  0.00    -0.237 OA
ATOM     87  O   UNL     1      -0.164  -9.178  13.024  1.00  0.00    -0.744 OA
ENDBRANCH  83  84
ENDBRANCH  55  78
BRANCH  67  88
ATOM     88  C   UNL     1     -11.545 -10.794  12.559  1.00  0.00    -0.014 A 
ATOM     89  C   UNL     1     -11.653  -9.671  13.397  1.00  0.00     0.010 A 
ATOM     90  C   UNL     1     -12.198 -11.986  12.921  1.00  0.00     0.010 A 
ATOM     91  C   UNL     1     -12.377  -9.748  14.591  1.00  0.00     0.020 A 
ATOM     92  C   UNL     1     -12.945 -12.059  14.099  1.00  0.00     0.020 A 
ATOM     93  C   UNL     1     -13.017 -10.943  14.934  1.00  0.00     0.054 A 
BRANCH  93  94
ATOM     94  S   UNL     1     -13.988 -11.005  16.465  1.00  0.00     0.124 S 
ATOM     95  O   UNL     1     -12.943 -11.063  17.484  1.00  0.00    -0.237 OA
ATOM     96  O   UNL     1     -14.748  -9.759  16.415  1.00  0.00    -0.237 OA
ATOM     97  O   UNL     1     -14.786 -12.221  16.320  1.00  0.00    -0.744 OA
ENDBRANCH  93  94
ENDBRANCH  67  88
ENDBRANCH  41  42
ENDBRANCH  33  36
ENDBRANCH  31  32
ENDBRANCH  30  31
ENDBRANCH  29  30
ENDBRANCH  28  29
ENDBRANCH   1  28
TORSDOF 21
