REMARK SMILES Cc1cc(S(=O)(=O)Nc2ccc(Cl)cc2F)ccc1OCC(=O)NCCCCCCNC(=O)c1ccc(-c2c3nc(c(-c4ccc(S(=O)(=O)[O-])cc4)c4ccc([nH]4)c(-c4ccc(S(=O)(=O)[O-])cc4)c4nc(c(-c5ccc(S(=O)(=O)[O-])cc5)c5ccc2[nH]5)C=C4)C=C3)cc1
REMARK SMILES IDX 26 1 25 2 24 3 22 4 23 5 21 7 20 8 19 9 1 10 2 11 3 12 4 13
REMARK SMILES IDX 18 14 17 15 5 16 6 17 7 18 8 19 9 21 10 22 15 23 11 24 14 25
REMARK SMILES IDX 16 26 12 27 13 28 27 29 28 30 29 31 30 32 31 33 32 34 33 36
REMARK SMILES IDX 34 37 35 38 93 39 36 40 92 41 37 42 38 43 39 44 86 45 40 46
REMARK SMILES IDX 91 47 85 48 87 49 41 50 90 51 84 52 83 53 42 55 72 56 53 57
REMARK SMILES IDX 71 58 54 59 57 60 70 61 88 62 55 63 56 64 69 66 89 67 58 68
REMARK SMILES IDX 43 69 44 70 52 71 45 72 51 73 46 74 47 75 48 76 49 77 50 78
REMARK SMILES IDX 73 79 74 80 82 81 75 82 81 83 76 84 77 85 78 86 79 87 80 88
REMARK SMILES IDX 59 89 60 90 68 91 61 92 67 93 62 94 63 95 64 96 65 97 66 98
REMARK H PARENT 24 6 8 20 31 35 87 54 57 65
REMARK Flexibility Score: inf
ROOT
ATOM      1  C   UNL     1       0.558   3.004   3.584  1.00  0.00     0.021 C 
ENDROOT
BRANCH   1   2
ATOM      2  C   UNL     1       1.710   3.470   2.697  1.00  0.00     0.116 C 
BRANCH   2   3
ATOM      3  N   UNL     1       2.726   2.455   2.500  1.00  0.00    -0.353 N 
ATOM      4  C   UNL     1       3.231   1.987   1.321  1.00  0.00     0.257 C 
ATOM      5  O   UNL     1       4.238   1.276   1.338  1.00  0.00    -0.271 OA
ATOM      6  H   UNL     1       3.098   2.053   3.318  1.00  0.00     0.163 HD
BRANCH   4   7
ATOM      7  C   UNL     1       2.580   2.416   0.005  1.00  0.00     0.329 C 
BRANCH   7   8
ATOM      8  O   UNL     1       1.194   2.211  -0.161  1.00  0.00    -0.484 OA
BRANCH   8   9
ATOM      9  C   UNL     1       0.624   0.983   0.009  1.00  0.00     0.123 A 
ATOM     10  C   UNL     1       2.517  -0.581  -0.798  1.00  0.00     0.048 C 
ATOM     11  C   UNL     1       1.120  -0.280  -0.341  1.00  0.00    -0.008 A 
ATOM     12  C   UNL     1       0.244  -1.386  -0.257  1.00  0.00     0.029 A 
ATOM     13  C   UNL     1      -1.076  -1.255   0.193  1.00  0.00     0.088 A 
ATOM     14  C   UNL     1      -0.682   1.087   0.516  1.00  0.00     0.048 A 
ATOM     15  C   UNL     1      -1.510  -0.026   0.665  1.00  0.00     0.026 A 
BRANCH  13  16
ATOM     16  S   UNL     1      -2.134  -2.672  -0.021  1.00  0.00     0.262 S 
ATOM     17  O   UNL     1      -2.040  -3.076  -1.409  1.00  0.00    -0.201 OA
ATOM     18  O   UNL     1      -1.772  -3.602   1.030  1.00  0.00    -0.201 OA
BRANCH  16  19
ATOM     19  N   UNL     1      -3.723  -2.257   0.309  1.00  0.00    -0.277 N 
ATOM     20  H   UNL     1      -4.252  -2.894   0.842  1.00  0.00     0.180 HD
BRANCH  19  21
ATOM     21  C   UNL     1      -4.375  -1.062  -0.113  1.00  0.00     0.085 A 
ATOM     22  C   UNL     1      -5.344  -0.557   0.764  1.00  0.00     0.031 A 
ATOM     23  C   UNL     1      -4.065  -0.329  -1.266  1.00  0.00     0.148 A 
ATOM     24  C   UNL     1      -5.889   0.714   0.562  1.00  0.00     0.023 A 
ATOM     25  C   UNL     1      -4.601   0.942  -1.469  1.00  0.00     0.062 A 
ATOM     26  F   UNL     1      -3.173  -0.779  -2.157  1.00  0.00    -0.205 F 
ATOM     27  C   UNL     1      -5.490   1.469  -0.537  1.00  0.00     0.044 A 
ATOM     28  Cl  UNL     1      -6.063   3.079  -0.723  1.00  0.00    -0.084 Cl
ENDBRANCH  19  21
ENDBRANCH  16  19
ENDBRANCH  13  16
ENDBRANCH   8   9
ENDBRANCH   7   8
ENDBRANCH   4   7
ENDBRANCH   2   3
ENDBRANCH   1   2
BRANCH   1  29
ATOM     29  C   UNL     1       0.926   2.580   5.010  1.00  0.00     0.002 C 
BRANCH  29  30
ATOM     30  C   UNL     1       1.835   3.520   5.811  1.00  0.00     0.002 C 
BRANCH  30  31
ATOM     31  C   UNL     1       1.447   4.998   5.850  1.00  0.00     0.021 C 
BRANCH  31  32
ATOM     32  C   UNL     1       0.116   5.277   6.536  1.00  0.00     0.116 C 
BRANCH  32  33
ATOM     33  N   UNL     1       0.240   6.207   7.655  1.00  0.00    -0.352 N 
ATOM     34  C   UNL     1      -0.761   6.886   8.328  1.00  0.00     0.251 C 
ATOM     35  H   UNL     1       1.157   6.372   7.973  1.00  0.00     0.163 HD
ATOM     36  O   UNL     1      -0.546   7.755   9.153  1.00  0.00    -0.269 OA
BRANCH  34  37
ATOM     37  C   UNL     1      -2.138   6.393   8.126  1.00  0.00     0.039 A 
ATOM     38  C   UNL     1      -2.724   5.723   9.205  1.00  0.00     0.014 A 
ATOM     39  C   UNL     1      -2.659   6.299   6.840  1.00  0.00     0.014 A 
ATOM     40  C   UNL     1      -3.708   4.778   8.954  1.00  0.00     0.010 A 
ATOM     41  C   UNL     1      -3.555   5.284   6.577  1.00  0.00     0.010 A 
ATOM     42  C   UNL     1      -4.030   4.490   7.627  1.00  0.00    -0.014 A 
BRANCH  42  43
ATOM     43  C   UNL     1      -4.819   3.325   7.255  1.00  0.00     0.031 A 
ATOM     44  C   UNL     1      -6.253   3.510   6.957  1.00  0.00     0.074 A 
ATOM     45  C   UNL     1      -4.249   2.100   7.212  1.00  0.00     0.049 A 
ATOM     46  N   UNL     1      -7.159   2.610   7.137  1.00  0.00    -0.248 NA
ATOM     47  C   UNL     1      -6.787   4.784   6.481  1.00  0.00     0.031 C 
ATOM     48  C   UNL     1      -4.863   0.863   6.737  1.00  0.00     0.029 A 
ATOM     49  N   UNL     1      -3.067   1.675   7.828  1.00  0.00    -0.354 N 
ATOM     50  C   UNL     1      -8.319   3.079   6.564  1.00  0.00     0.074 A 
ATOM     51  C   UNL     1      -8.056   4.458   6.228  1.00  0.00     0.031 C 
ATOM     52  C   UNL     1      -4.258  -0.170   7.346  1.00  0.00     0.029 A 
ATOM     53  C   UNL     1      -3.322   0.384   8.313  1.00  0.00     0.049 A 
ATOM     54  H   UNL     1      -2.226   2.180   7.905  1.00  0.00     0.167 HD
ATOM     55  C   UNL     1      -9.342   2.221   6.296  1.00  0.00     0.031 A 
ATOM     56  C   UNL     1      -3.271   0.057   9.637  1.00  0.00     0.031 A 
ATOM     57  C   UNL     1      -9.062   0.882   6.797  1.00  0.00     0.049 A 
ATOM     58  C   UNL     1      -4.604  -0.445  10.162  1.00  0.00     0.074 A 
ATOM     59  C   UNL     1      -8.535  -0.255   6.206  1.00  0.00     0.029 A 
ATOM     60  N   UNL     1      -8.989   0.681   8.171  1.00  0.00    -0.354 N 
ATOM     61  N   UNL     1      -5.739  -0.297   9.531  1.00  0.00    -0.248 NA
ATOM     62  C   UNL     1      -4.769  -1.131  11.441  1.00  0.00     0.031 C 
ATOM     63  C   UNL     1      -8.024  -1.085   7.239  1.00  0.00     0.029 A 
ATOM     64  C   UNL     1      -8.286  -0.475   8.454  1.00  0.00     0.049 A 
ATOM     65  H   UNL     1      -9.383   1.279   8.847  1.00  0.00     0.167 HD
ATOM     66  C   UNL     1      -6.753  -0.859  10.263  1.00  0.00     0.074 A 
ATOM     67  C   UNL     1      -6.094  -1.371  11.451  1.00  0.00     0.031 C 
ATOM     68  C   UNL     1      -8.051  -0.867   9.837  1.00  0.00     0.031 A 
BRANCH  55  69
ATOM     69  C   UNL     1     -10.406   2.570   5.288  1.00  0.00    -0.014 A 
ATOM     70  C   UNL     1     -10.833   1.596   4.364  1.00  0.00     0.010 A 
ATOM     71  C   UNL     1     -10.948   3.862   5.142  1.00  0.00     0.010 A 
ATOM     72  C   UNL     1     -11.664   1.920   3.283  1.00  0.00     0.020 A 
ATOM     73  C   UNL     1     -11.745   4.210   4.041  1.00  0.00     0.020 A 
ATOM     74  C   UNL     1     -12.088   3.236   3.108  1.00  0.00     0.054 A 
BRANCH  74  75
ATOM     75  S   UNL     1     -13.059   3.656   1.636  1.00  0.00     0.124 S 
ATOM     76  O   UNL     1     -12.233   3.127   0.552  1.00  0.00    -0.237 OA
ATOM     77  O   UNL     1     -14.312   2.946   1.877  1.00  0.00    -0.237 OA
ATOM     78  O   UNL     1     -13.149   5.114   1.685  1.00  0.00    -0.744 OA
ENDBRANCH  74  75
ENDBRANCH  55  69
BRANCH  56  79
ATOM     79  C   UNL     1      -2.228   0.775  10.421  1.00  0.00    -0.014 A 
ATOM     80  C   UNL     1      -0.882   0.418  10.183  1.00  0.00     0.010 A 
ATOM     81  C   UNL     1      -2.493   2.000  11.056  1.00  0.00     0.010 A 
ATOM     82  C   UNL     1       0.159   1.319  10.435  1.00  0.00     0.020 A 
ATOM     83  C   UNL     1      -1.449   2.909  11.305  1.00  0.00     0.020 A 
ATOM     84  C   UNL     1      -0.140   2.585  10.934  1.00  0.00     0.054 A 
BRANCH  84  85
ATOM     85  S   UNL     1       1.187   3.828  11.009  1.00  0.00     0.124 S 
ATOM     86  O   UNL     1       2.319   3.059  11.521  1.00  0.00    -0.237 OA
ATOM     87  O   UNL     1       1.298   4.244   9.611  1.00  0.00    -0.237 OA
ATOM     88  O   UNL     1       0.652   4.831  11.923  1.00  0.00    -0.744 OA
ENDBRANCH  84  85
ENDBRANCH  56  79
BRANCH  68  89
ATOM     89  C   UNL     1      -9.244  -1.311  10.649  1.00  0.00    -0.014 A 
ATOM     90  C   UNL     1      -9.314  -1.236  12.048  1.00  0.00     0.010 A 
ATOM     91  C   UNL     1     -10.425  -1.688   9.964  1.00  0.00     0.010 A 
ATOM     92  C   UNL     1     -10.493  -1.566  12.734  1.00  0.00     0.020 A 
ATOM     93  C   UNL     1     -11.616  -1.975  10.633  1.00  0.00     0.020 A 
ATOM     94  C   UNL     1     -11.637  -1.932  12.022  1.00  0.00     0.054 A 
BRANCH  94  95
ATOM     95  S   UNL     1     -13.183  -2.269  12.903  1.00  0.00     0.124 S 
ATOM     96  O   UNL     1     -13.090  -3.709  13.132  1.00  0.00    -0.237 OA
ATOM     97  O   UNL     1     -13.071  -1.436  14.098  1.00  0.00    -0.237 OA
ATOM     98  O   UNL     1     -14.211  -1.849  11.954  1.00  0.00    -0.744 OA
ENDBRANCH  94  95
ENDBRANCH  68  89
ENDBRANCH  42  43
ENDBRANCH  34  37
ENDBRANCH  32  33
ENDBRANCH  31  32
ENDBRANCH  30  31
ENDBRANCH  29  30
ENDBRANCH   1  29
TORSDOF 21
