REMARK SMILES CCCc1c(C(=O)NCCCCCCNC(=O)c2ccc(-c3c4nc(c(-c5ccc(S(=O)(=O)[O-])cc5)c5ccc([nH]5)c(-c5ccc(S(=O)(=O)[O-])cc5)c5nc(c(-c6ccc(S(=O)(=O)[O-])cc6)c6ccc3[nH]6)C=C5)C=C4)cc2)nnn1-c1ccccc1[N+](=O)[O-]
REMARK SMILES IDX 12 1 11 2 10 3 9 4 8 5 6 6 7 7 5 9 4 10 80 11 78 12 79 13
REMARK SMILES IDX 3 14 2 15 1 16 81 17 82 18 86 19 83 20 85 21 84 22 87 23
REMARK SMILES IDX 88 24 89 25 13 26 14 27 15 28 16 29 17 31 18 32 19 33 77 34
REMARK SMILES IDX 20 35 76 36 21 37 22 38 23 39 70 40 24 41 75 42 69 43 71 44
REMARK SMILES IDX 25 45 74 46 68 47 67 48 26 50 56 51 37 52 55 53 38 54 41 55
REMARK SMILES IDX 54 56 72 57 39 58 40 59 53 61 73 62 42 63 27 64 28 65 36 66
REMARK SMILES IDX 29 67 35 68 30 69 31 70 32 71 33 72 34 73 57 74 58 75 66 76
REMARK SMILES IDX 59 77 65 78 60 79 61 80 62 81 63 82 64 83 43 84 44 85 52 86
REMARK SMILES IDX 45 87 51 88 46 89 47 90 48 91 49 92 50 93
REMARK H PARENT 8 8 15 30 71 49 41 60
REMARK Flexibility Score: inf
ROOT
ATOM      1  C   UNL     1      -0.830  -3.120   0.141  1.00  0.00     0.002 C 
ENDROOT
BRANCH   1   2
ATOM      2  C   UNL     1      -2.219  -2.486   0.342  1.00  0.00     0.002 C 
BRANCH   2   3
ATOM      3  C   UNL     1      -2.324  -1.119   1.025  1.00  0.00     0.021 C 
BRANCH   3   4
ATOM      4  C   UNL     1      -1.360  -0.040   0.564  1.00  0.00     0.116 C 
BRANCH   4   5
ATOM      5  N   UNL     1      -1.558   0.550  -0.719  1.00  0.00    -0.351 N 
ATOM      6  C   UNL     1      -0.998   1.710  -1.212  1.00  0.00     0.273 C 
ATOM      7  O   UNL     1      -1.185   1.904  -2.418  1.00  0.00    -0.267 OA
ATOM      8  H   UNL     1      -2.168   0.072  -1.326  1.00  0.00     0.163 HD
BRANCH   6   9
ATOM      9  C   UNL     1      -0.269   2.710  -0.398  1.00  0.00     0.174 A 
ATOM     10  C   UNL     1       0.539   2.732   0.757  1.00  0.00     0.078 A 
ATOM     11  N   UNL     1       0.868   4.092   0.884  1.00  0.00    -0.210 N 
ATOM     12  N   UNL     1      -0.392   4.014  -0.853  1.00  0.00    -0.124 NA
ATOM     13  N   UNL     1       0.202   4.832  -0.013  1.00  0.00    -0.061 NA
BRANCH  10  14
ATOM     14  C   UNL     1       0.934   1.771   1.846  1.00  0.00     0.059 C 
BRANCH  14  15
ATOM     15  C   UNL     1       1.682   0.476   1.537  1.00  0.00     0.003 C 
ATOM     16  C   UNL     1       2.203   0.217   0.135  1.00  0.00     0.004 C 
ENDBRANCH  14  15
ENDBRANCH  10  14
BRANCH  11  17
ATOM     17  C   UNL     1       1.619   4.750   1.889  1.00  0.00     0.144 A 
ATOM     18  C   UNL     1       0.985   5.777   2.608  1.00  0.00     0.036 A 
ATOM     19  C   UNL     1       2.929   4.387   2.233  1.00  0.00     0.294 A 
ATOM     20  C   UNL     1       1.626   6.366   3.702  1.00  0.00     0.003 A 
ATOM     21  C   UNL     1       3.571   4.981   3.332  1.00  0.00     0.088 A 
ATOM     22  C   UNL     1       2.908   5.960   4.072  1.00  0.00     0.007 A 
BRANCH  19  23
ATOM     23  N   UNL     1       3.710   3.456   1.426  1.00  0.00     0.065 N 
ATOM     24  O   UNL     1       4.447   2.663   2.029  1.00  0.00    -0.258 OA
ATOM     25  O   UNL     1       3.595   3.521   0.197  1.00  0.00    -0.258 OA
ENDBRANCH  19  23
ENDBRANCH  11  17
ENDBRANCH   6   9
ENDBRANCH   4   5
ENDBRANCH   3   4
ENDBRANCH   2   3
ENDBRANCH   1   2
BRANCH   1  26
ATOM     26  C   UNL     1       0.097  -3.308   1.351  1.00  0.00     0.021 C 
BRANCH  26  27
ATOM     27  C   UNL     1      -0.484  -4.088   2.514  1.00  0.00     0.116 C 
BRANCH  27  28
ATOM     28  N   UNL     1      -0.823  -5.476   2.190  1.00  0.00    -0.352 N 
ATOM     29  C   UNL     1      -1.346  -6.453   3.029  1.00  0.00     0.251 C 
ATOM     30  H   UNL     1      -0.660  -5.751   1.259  1.00  0.00     0.163 HD
ATOM     31  O   UNL     1      -1.256  -7.637   2.746  1.00  0.00    -0.269 OA
BRANCH  29  32
ATOM     32  C   UNL     1      -2.027  -6.024   4.266  1.00  0.00     0.039 A 
ATOM     33  C   UNL     1      -1.976  -6.746   5.465  1.00  0.00     0.014 A 
ATOM     34  C   UNL     1      -2.731  -4.831   4.197  1.00  0.00     0.014 A 
ATOM     35  C   UNL     1      -2.602  -6.215   6.595  1.00  0.00     0.010 A 
ATOM     36  C   UNL     1      -3.092  -4.193   5.341  1.00  0.00     0.010 A 
ATOM     37  C   UNL     1      -3.156  -4.934   6.511  1.00  0.00    -0.014 A 
BRANCH  37  38
ATOM     38  C   UNL     1      -3.816  -4.260   7.617  1.00  0.00     0.031 A 
ATOM     39  C   UNL     1      -2.893  -3.799   8.684  1.00  0.00     0.074 A 
ATOM     40  C   UNL     1      -5.070  -3.777   7.449  1.00  0.00     0.049 A 
ATOM     41  N   UNL     1      -2.815  -4.225   9.900  1.00  0.00    -0.248 NA
ATOM     42  C   UNL     1      -1.800  -2.879   8.310  1.00  0.00     0.031 C 
ATOM     43  C   UNL     1      -5.910  -3.848   6.240  1.00  0.00     0.029 A 
ATOM     44  N   UNL     1      -5.791  -2.949   8.245  1.00  0.00    -0.354 N 
ATOM     45  C   UNL     1      -1.839  -3.442  10.507  1.00  0.00     0.074 A 
ATOM     46  C   UNL     1      -1.083  -2.851   9.434  1.00  0.00     0.031 C 
ATOM     47  C   UNL     1      -6.850  -2.880   6.289  1.00  0.00     0.029 A 
ATOM     48  C   UNL     1      -6.770  -2.216   7.578  1.00  0.00     0.049 A 
ATOM     49  H   UNL     1      -5.635  -2.872   9.214  1.00  0.00     0.167 HD
ATOM     50  C   UNL     1      -1.925  -3.082  11.820  1.00  0.00     0.031 A 
ATOM     51  C   UNL     1      -7.384  -1.085   8.022  1.00  0.00     0.031 A 
ATOM     52  C   UNL     1      -2.979  -3.806  12.490  1.00  0.00     0.049 A 
ATOM     53  C   UNL     1      -7.165  -1.040   9.496  1.00  0.00     0.074 A 
ATOM     54  C   UNL     1      -3.278  -5.143  12.667  1.00  0.00     0.029 A 
ATOM     55  N   UNL     1      -4.154  -3.121  12.717  1.00  0.00    -0.354 N 
ATOM     56  N   UNL     1      -7.637  -1.942  10.315  1.00  0.00    -0.248 NA
ATOM     57  C   UNL     1      -6.004  -0.308   9.985  1.00  0.00     0.031 C 
ATOM     58  C   UNL     1      -4.689  -5.224  12.481  1.00  0.00     0.029 A 
ATOM     59  C   UNL     1      -5.183  -3.929  12.309  1.00  0.00     0.049 A 
ATOM     60  H   UNL     1      -4.239  -2.219  13.101  1.00  0.00     0.167 HD
ATOM     61  C   UNL     1      -6.594  -2.205  11.196  1.00  0.00     0.074 A 
ATOM     62  C   UNL     1      -5.645  -1.107  10.995  1.00  0.00     0.031 C 
ATOM     63  C   UNL     1      -6.436  -3.436  11.772  1.00  0.00     0.031 A 
BRANCH  50  64
ATOM     64  C   UNL     1      -1.387  -1.787  12.386  1.00  0.00    -0.014 A 
ATOM     65  C   UNL     1      -1.535  -1.551  13.769  1.00  0.00     0.010 A 
ATOM     66  C   UNL     1      -1.000  -0.687  11.593  1.00  0.00     0.010 A 
ATOM     67  C   UNL     1      -1.404  -0.266  14.307  1.00  0.00     0.020 A 
ATOM     68  C   UNL     1      -0.819   0.589  12.127  1.00  0.00     0.020 A 
ATOM     69  C   UNL     1      -1.064   0.800  13.475  1.00  0.00     0.054 A 
BRANCH  69  70
ATOM     70  S   UNL     1      -1.015   2.475  14.153  1.00  0.00     0.124 S 
ATOM     71  O   UNL     1      -2.420   2.706  14.477  1.00  0.00    -0.237 OA
ATOM     72  O   UNL     1      -0.116   2.319  15.293  1.00  0.00    -0.237 OA
ATOM     73  O   UNL     1      -0.485   3.273  13.050  1.00  0.00    -0.744 OA
ENDBRANCH  69  70
ENDBRANCH  50  64
BRANCH  51  74
ATOM     74  C   UNL     1      -7.747   0.111   7.200  1.00  0.00    -0.014 A 
ATOM     75  C   UNL     1      -8.469   1.196   7.737  1.00  0.00     0.010 A 
ATOM     76  C   UNL     1      -7.152   0.308   5.934  1.00  0.00     0.010 A 
ATOM     77  C   UNL     1      -8.530   2.438   7.069  1.00  0.00     0.020 A 
ATOM     78  C   UNL     1      -7.218   1.532   5.258  1.00  0.00     0.020 A 
ATOM     79  C   UNL     1      -7.881   2.604   5.843  1.00  0.00     0.054 A 
BRANCH  79  80
ATOM     80  S   UNL     1      -7.772   4.251   5.075  1.00  0.00     0.124 S 
ATOM     81  O   UNL     1      -9.134   4.465   4.598  1.00  0.00    -0.237 OA
ATOM     82  O   UNL     1      -7.349   5.094   6.190  1.00  0.00    -0.237 OA
ATOM     83  O   UNL     1      -6.767   4.072   4.027  1.00  0.00    -0.744 OA
ENDBRANCH  79  80
ENDBRANCH  51  74
BRANCH  63  84
ATOM     84  C   UNL     1      -7.542  -4.461  11.650  1.00  0.00    -0.014 A 
ATOM     85  C   UNL     1      -8.004  -4.985  10.426  1.00  0.00     0.010 A 
ATOM     86  C   UNL     1      -7.986  -5.062  12.841  1.00  0.00     0.010 A 
ATOM     87  C   UNL     1      -8.901  -6.066  10.401  1.00  0.00     0.020 A 
ATOM     88  C   UNL     1      -8.862  -6.148  12.823  1.00  0.00     0.020 A 
ATOM     89  C   UNL     1      -9.324  -6.641  11.604  1.00  0.00     0.054 A 
BRANCH  89  90
ATOM     90  S   UNL     1     -10.450  -8.063  11.572  1.00  0.00     0.124 S 
ATOM     91  O   UNL     1     -11.687  -7.477  11.063  1.00  0.00    -0.237 OA
ATOM     92  O   UNL     1      -9.776  -8.993  10.669  1.00  0.00    -0.237 OA
ATOM     93  O   UNL     1     -10.502  -8.498  12.968  1.00  0.00    -0.744 OA
ENDBRANCH  89  90
ENDBRANCH  63  84
ENDBRANCH  37  38
ENDBRANCH  29  32
ENDBRANCH  27  28
ENDBRANCH  26  27
ENDBRANCH   1  26
TORSDOF 20
