REMARK SMILES C=CCN(CC(=O)NCCCCCCNC(=O)c1ccc(-c2c3nc(c(-c4ccc(S(=O)(=O)[O-])cc4)c4ccc([nH]4)c(-c4ccc(S(=O)(=O)[O-])cc4)c4nc(c(-c5ccc(S(=O)(=O)[O-])cc5)c5ccc2[nH]5)C=C4)C=C3)cc1)C(=O)/C=C/c1ccc(OC)cc1
REMARK SMILES IDX 10 1 9 2 8 3 6 4 7 5 5 7 4 8 3 9 2 10 1 11 78 12 79 13 80 14
REMARK SMILES IDX 81 15 82 16 83 17 89 18 84 19 88 20 85 21 86 22 87 23 11 24
REMARK SMILES IDX 12 25 13 26 14 27 15 28 16 29 17 31 18 32 19 33 77 34 20 35
REMARK SMILES IDX 76 36 21 37 22 38 23 39 70 40 24 41 75 42 69 43 71 44 25 45
REMARK SMILES IDX 74 46 68 47 67 48 26 50 56 51 37 52 55 53 38 54 41 55 54 56
REMARK SMILES IDX 72 57 39 58 40 59 53 61 73 62 42 63 27 64 28 65 36 66 29 67
REMARK SMILES IDX 35 68 30 69 31 70 32 71 33 72 34 73 57 74 58 75 66 76 59 77
REMARK SMILES IDX 65 78 60 79 61 80 62 81 63 82 64 83 43 84 44 85 52 86 45 87
REMARK SMILES IDX 51 88 46 89 47 90 48 91 49 92 50 93
REMARK H PARENT 8 6 15 30 71 49 41 60
REMARK Flexibility Score: inf
ROOT
ATOM      1  C   UNL     1      -4.271  -0.208  -0.815  1.00  0.00     0.021 C 
ENDROOT
BRANCH   1   2
ATOM      2  C   UNL     1      -4.307  -0.613   0.655  1.00  0.00     0.116 C 
BRANCH   2   3
ATOM      3  N   UNL     1      -4.605  -2.014   0.836  1.00  0.00    -0.355 N 
ATOM      4  C   UNL     1      -3.816  -2.992   1.362  1.00  0.00     0.239 C 
ATOM      5  O   UNL     1      -4.363  -4.041   1.716  1.00  0.00    -0.273 OA
ATOM      6  H   UNL     1      -5.499  -2.302   0.540  1.00  0.00     0.163 HD
BRANCH   4   7
ATOM      7  C   UNL     1      -2.323  -2.745   1.643  1.00  0.00     0.220 C 
BRANCH   7   8
ATOM      8  N   UNL     1      -1.539  -2.205   0.523  1.00  0.00    -0.326 N 
BRANCH   8   9
ATOM      9  C   UNL     1      -0.925  -0.890   0.720  1.00  0.00     0.147 C 
BRANCH   9  10
ATOM     10  C   UNL     1       0.566  -0.983   0.824  1.00  0.00    -0.014 C 
ATOM     11  C   UNL     1       1.389  -0.212   0.099  1.00  0.00     0.006 C 
ENDBRANCH   9  10
ENDBRANCH   8   9
BRANCH   8  12
ATOM     12  C   UNL     1      -1.355  -2.814  -0.710  1.00  0.00     0.247 C 
ATOM     13  O   UNL     1      -0.768  -2.244  -1.635  1.00  0.00    -0.270 OA
BRANCH  12  14
ATOM     14  C   UNL     1      -1.933  -4.149  -1.053  1.00  0.00     0.072 C 
ATOM     15  C   UNL     1      -2.177  -5.209  -0.273  1.00  0.00     0.014 C 
BRANCH  15  16
ATOM     16  C   UNL     1      -2.710  -6.474  -0.780  1.00  0.00    -0.025 A 
ATOM     17  C   UNL     1      -4.039  -6.826  -0.529  1.00  0.00     0.012 A 
ATOM     18  C   UNL     1      -1.871  -7.383  -1.427  1.00  0.00     0.012 A 
ATOM     19  C   UNL     1      -4.509  -8.091  -0.892  1.00  0.00     0.047 A 
ATOM     20  C   UNL     1      -2.342  -8.652  -1.783  1.00  0.00     0.047 A 
ATOM     21  C   UNL     1      -3.660  -9.017  -1.504  1.00  0.00     0.118 A 
BRANCH  21  22
ATOM     22  O   UNL     1      -4.229 -10.234  -1.764  1.00  0.00    -0.497 OA
ATOM     23  C   UNL     1      -3.387 -11.218  -2.351  1.00  0.00     0.278 C 
ENDBRANCH  21  22
ENDBRANCH  15  16
ENDBRANCH  12  14
ENDBRANCH   8  12
ENDBRANCH   7   8
ENDBRANCH   4   7
ENDBRANCH   2   3
ENDBRANCH   1   2
BRANCH   1  24
ATOM     24  C   UNL     1      -5.638  -0.251  -1.507  1.00  0.00     0.002 C 
BRANCH  24  25
ATOM     25  C   UNL     1      -6.757   0.506  -0.782  1.00  0.00     0.002 C 
BRANCH  25  26
ATOM     26  C   UNL     1      -6.436   1.961  -0.432  1.00  0.00     0.021 C 
BRANCH  26  27
ATOM     27  C   UNL     1      -6.129   2.843  -1.636  1.00  0.00     0.116 C 
BRANCH  27  28
ATOM     28  N   UNL     1      -7.280   2.973  -2.514  1.00  0.00    -0.352 N 
ATOM     29  C   UNL     1      -7.902   4.112  -2.958  1.00  0.00     0.251 C 
ATOM     30  H   UNL     1      -7.666   2.127  -2.836  1.00  0.00     0.163 HD
ATOM     31  O   UNL     1      -8.997   4.037  -3.512  1.00  0.00    -0.269 OA
BRANCH  29  32
ATOM     32  C   UNL     1      -7.258   5.426  -2.753  1.00  0.00     0.039 A 
ATOM     33  C   UNL     1      -8.034   6.503  -2.319  1.00  0.00     0.014 A 
ATOM     34  C   UNL     1      -5.892   5.596  -2.995  1.00  0.00     0.014 A 
ATOM     35  C   UNL     1      -7.429   7.739  -2.081  1.00  0.00     0.010 A 
ATOM     36  C   UNL     1      -5.277   6.804  -2.680  1.00  0.00     0.010 A 
ATOM     37  C   UNL     1      -6.041   7.893  -2.234  1.00  0.00    -0.014 A 
BRANCH  37  38
ATOM     38  C   UNL     1      -5.373   9.189  -1.951  1.00  0.00     0.031 A 
ATOM     39  C   UNL     1      -4.671   9.931  -3.057  1.00  0.00     0.074 A 
ATOM     40  C   UNL     1      -5.351   9.670  -0.692  1.00  0.00     0.049 A 
ATOM     41  N   UNL     1      -3.987  11.044  -2.998  1.00  0.00    -0.248 NA
ATOM     42  C   UNL     1      -4.722   9.330  -4.401  1.00  0.00     0.031 C 
ATOM     43  C   UNL     1      -5.965   9.027   0.473  1.00  0.00     0.029 A 
ATOM     44  N   UNL     1      -4.786  10.811  -0.180  1.00  0.00    -0.354 N 
ATOM     45  C   UNL     1      -3.515  11.268  -4.286  1.00  0.00     0.074 A 
ATOM     46  C   UNL     1      -3.942  10.147  -5.093  1.00  0.00     0.031 C 
ATOM     47  C   UNL     1      -5.768   9.797   1.555  1.00  0.00     0.029 A 
ATOM     48  C   UNL     1      -4.977  10.963   1.174  1.00  0.00     0.049 A 
ATOM     49  H   UNL     1      -4.291  11.460  -0.730  1.00  0.00     0.167 HD
ATOM     50  C   UNL     1      -2.808  12.321  -4.761  1.00  0.00     0.031 A 
ATOM     51  C   UNL     1      -4.557  11.928   2.016  1.00  0.00     0.031 A 
ATOM     52  C   UNL     1      -2.392  13.438  -3.955  1.00  0.00     0.049 A 
ATOM     53  C   UNL     1      -3.755  13.078   1.469  1.00  0.00     0.074 A 
ATOM     54  C   UNL     1      -1.717  14.580  -4.351  1.00  0.00     0.029 A 
ATOM     55  N   UNL     1      -2.609  13.556  -2.590  1.00  0.00    -0.354 N 
ATOM     56  N   UNL     1      -3.374  13.303   0.234  1.00  0.00    -0.248 NA
ATOM     57  C   UNL     1      -3.338  14.111   2.427  1.00  0.00     0.031 C 
ATOM     58  C   UNL     1      -1.472  15.358  -3.216  1.00  0.00     0.029 A 
ATOM     59  C   UNL     1      -2.058  14.737  -2.124  1.00  0.00     0.049 A 
ATOM     60  H   UNL     1      -3.085  12.896  -2.035  1.00  0.00     0.167 HD
ATOM     61  C   UNL     1      -2.700  14.520   0.261  1.00  0.00     0.074 A 
ATOM     62  C   UNL     1      -2.740  14.988   1.632  1.00  0.00     0.031 C 
ATOM     63  C   UNL     1      -2.106  15.191  -0.756  1.00  0.00     0.031 A 
BRANCH  50  64
ATOM     64  C   UNL     1      -2.431  12.310  -6.220  1.00  0.00    -0.014 A 
ATOM     65  C   UNL     1      -3.405  12.446  -7.226  1.00  0.00     0.010 A 
ATOM     66  C   UNL     1      -1.078  12.205  -6.591  1.00  0.00     0.010 A 
ATOM     67  C   UNL     1      -3.039  12.436  -8.574  1.00  0.00     0.020 A 
ATOM     68  C   UNL     1      -0.703  12.227  -7.938  1.00  0.00     0.020 A 
ATOM     69  C   UNL     1      -1.689  12.326  -8.922  1.00  0.00     0.054 A 
BRANCH  69  70
ATOM     70  S   UNL     1      -1.242  12.344 -10.679  1.00  0.00     0.124 S 
ATOM     71  O   UNL     1      -1.732  11.043 -11.128  1.00  0.00    -0.237 OA
ATOM     72  O   UNL     1      -1.978  13.500 -11.184  1.00  0.00    -0.237 OA
ATOM     73  O   UNL     1       0.212  12.490 -10.667  1.00  0.00    -0.744 OA
ENDBRANCH  69  70
ENDBRANCH  50  64
BRANCH  51  74
ATOM     74  C   UNL     1      -4.896  11.852   3.464  1.00  0.00    -0.014 A 
ATOM     75  C   UNL     1      -5.791  12.771   4.040  1.00  0.00     0.010 A 
ATOM     76  C   UNL     1      -4.326  10.854   4.277  1.00  0.00     0.010 A 
ATOM     77  C   UNL     1      -6.094  12.707   5.404  1.00  0.00     0.020 A 
ATOM     78  C   UNL     1      -4.650  10.768   5.634  1.00  0.00     0.020 A 
ATOM     79  C   UNL     1      -5.523  11.704   6.191  1.00  0.00     0.054 A 
BRANCH  79  80
ATOM     80  S   UNL     1      -5.965  11.614   7.949  1.00  0.00     0.124 S 
ATOM     81  O   UNL     1      -5.268  12.773   8.497  1.00  0.00    -0.237 OA
ATOM     82  O   UNL     1      -7.422  11.708   7.912  1.00  0.00    -0.237 OA
ATOM     83  O   UNL     1      -5.442  10.314   8.366  1.00  0.00    -0.744 OA
ENDBRANCH  79  80
ENDBRANCH  51  74
BRANCH  63  84
ATOM     84  C   UNL     1      -1.486  16.527  -0.441  1.00  0.00    -0.014 A 
ATOM     85  C   UNL     1      -0.307  16.629   0.319  1.00  0.00     0.010 A 
ATOM     86  C   UNL     1      -2.064  17.698  -0.968  1.00  0.00     0.010 A 
ATOM     87  C   UNL     1       0.262  17.879   0.576  1.00  0.00     0.020 A 
ATOM     88  C   UNL     1      -1.480  18.946  -0.741  1.00  0.00     0.020 A 
ATOM     89  C   UNL     1      -0.327  19.030   0.042  1.00  0.00     0.054 A 
BRANCH  89  90
ATOM     90  S   UNL     1       0.457  20.635   0.351  1.00  0.00     0.124 S 
ATOM     91  O   UNL     1       0.159  20.852   1.765  1.00  0.00    -0.237 OA
ATOM     92  O   UNL     1       1.859  20.371   0.037  1.00  0.00    -0.237 OA
ATOM     93  O   UNL     1      -0.223  21.539  -0.574  1.00  0.00    -0.744 OA
ENDBRANCH  89  90
ENDBRANCH  63  84
ENDBRANCH  37  38
ENDBRANCH  29  32
ENDBRANCH  27  28
ENDBRANCH  26  27
ENDBRANCH  25  26
ENDBRANCH  24  25
ENDBRANCH   1  24
TORSDOF 23
