REMARK SMILES CCS(=O)(=O)/N=c1/[nH]c(C)c(C(=O)NCCCCCCNC(=O)c2ccc(-c3c4nc(c(-c5ccc(S(=O)(=O)[O-])cc5)c5ccc([nH]5)c(-c5ccc(S(=O)(=O)[O-])cc5)c5nc(c(-c6ccc(S(=O)(=O)[O-])cc6)c6ccc3[nH]6)C=C5)C=C4)cc2)s1
REMARK SMILES IDX 18 1 17 2 16 3 15 4 14 5 12 6 13 7 11 9 6 10 7 11 8 12 84 13
REMARK SMILES IDX 9 14 10 16 3 17 4 18 5 19 2 20 1 21 19 22 20 23 21 24 22 25
REMARK SMILES IDX 23 27 24 28 25 29 83 30 26 31 82 32 27 33 28 34 29 35 76 36
REMARK SMILES IDX 30 37 81 38 75 39 77 40 31 41 80 42 74 43 73 44 32 46 62 47
REMARK SMILES IDX 43 48 61 49 44 50 47 51 60 52 78 53 45 54 46 55 59 57 79 58
REMARK SMILES IDX 48 59 33 60 34 61 42 62 35 63 41 64 36 65 37 66 38 67 39 68
REMARK SMILES IDX 40 69 63 70 64 71 72 72 65 73 71 74 66 75 67 76 68 77 69 78
REMARK SMILES IDX 70 79 49 80 50 81 58 82 51 83 57 84 52 85 53 86 54 87 55 88
REMARK SMILES IDX 56 89
REMARK H PARENT 14 8 8 15 21 26 77 45 47 56
REMARK Flexibility Score: inf
ROOT
ATOM      1  C   UNL     1       9.637   9.072  -0.908  1.00  0.00     0.002 C 
ENDROOT
BRANCH   1   2
ATOM      2  C   UNL     1       8.804   9.119  -2.192  1.00  0.00     0.002 C 
BRANCH   2   3
ATOM      3  C   UNL     1       8.193   7.806  -2.687  1.00  0.00     0.021 C 
BRANCH   3   4
ATOM      4  C   UNL     1       7.402   6.986  -1.676  1.00  0.00     0.116 C 
BRANCH   4   5
ATOM      5  N   UNL     1       6.188   7.611  -1.211  1.00  0.00    -0.351 N 
ATOM      6  C   UNL     1       4.999   7.067  -0.822  1.00  0.00     0.263 C 
ATOM      7  O   UNL     1       4.138   7.853  -0.418  1.00  0.00    -0.268 OA
ATOM      8  H   UNL     1       6.223   8.594  -1.167  1.00  0.00     0.163 HD
BRANCH   6   9
ATOM      9  C   UNL     1       4.706   5.600  -0.914  1.00  0.00     0.114 A 
ATOM     10  N   UNL     1       2.502   2.475  -0.822  1.00  0.00    -0.135 NA
ATOM     11  C   UNL     1       3.312   3.465  -0.950  1.00  0.00     0.199 A 
ATOM     12  N   UNL     1       4.661   3.322  -0.771  1.00  0.00    -0.333 N 
ATOM     13  S   UNL     1       3.009   5.170  -1.278  1.00  0.00    -0.091 S 
ATOM     14  C   UNL     1       5.420   4.477  -0.668  1.00  0.00     0.037 A 
ATOM     15  H   UNL     1       5.077   2.431  -0.718  1.00  0.00     0.169 HD
ATOM     16  C   UNL     1       6.824   4.308  -0.190  1.00  0.00     0.066 C 
BRANCH  10  17
ATOM     17  S   UNL     1       0.902   2.583  -0.938  1.00  0.00     0.255 S 
ATOM     18  O   UNL     1       0.492   2.180  -2.272  1.00  0.00    -0.205 OA
ATOM     19  O   UNL     1       0.400   3.802  -0.346  1.00  0.00    -0.205 OA
BRANCH  17  20
ATOM     20  C   UNL     1       0.435   1.278   0.187  1.00  0.00     0.159 C 
ATOM     21  C   UNL     1       1.031  -0.072  -0.157  1.00  0.00     0.023 C 
ENDBRANCH  17  20
ENDBRANCH  10  17
ENDBRANCH   6   9
ENDBRANCH   4   5
ENDBRANCH   3   4
ENDBRANCH   2   3
ENDBRANCH   1   2
BRANCH   1  22
ATOM     22  C   UNL     1      10.729   8.003  -0.821  1.00  0.00     0.021 C 
BRANCH  22  23
ATOM     23  C   UNL     1      11.710   7.935  -1.986  1.00  0.00     0.116 C 
BRANCH  23  24
ATOM     24  N   UNL     1      12.432   9.176  -2.198  1.00  0.00    -0.352 N 
ATOM     25  C   UNL     1      13.782   9.392  -2.340  1.00  0.00     0.251 C 
ATOM     26  H   UNL     1      11.871   9.983  -2.249  1.00  0.00     0.163 HD
ATOM     27  O   UNL     1      14.209  10.542  -2.390  1.00  0.00    -0.269 OA
BRANCH  25  28
ATOM     28  C   UNL     1      14.725   8.251  -2.401  1.00  0.00     0.039 A 
ATOM     29  C   UNL     1      15.906   8.319  -1.657  1.00  0.00     0.014 A 
ATOM     30  C   UNL     1      14.465   7.129  -3.193  1.00  0.00     0.014 A 
ATOM     31  C   UNL     1      16.795   7.239  -1.659  1.00  0.00     0.010 A 
ATOM     32  C   UNL     1      15.318   6.027  -3.142  1.00  0.00     0.010 A 
ATOM     33  C   UNL     1      16.493   6.070  -2.375  1.00  0.00    -0.014 A 
BRANCH  33  34
ATOM     34  C   UNL     1      17.390   4.886  -2.329  1.00  0.00     0.031 A 
ATOM     35  C   UNL     1      18.086   4.410  -3.577  1.00  0.00     0.074 A 
ATOM     36  C   UNL     1      17.535   4.202  -1.176  1.00  0.00     0.049 A 
ATOM     37  N   UNL     1      18.855   3.364  -3.744  1.00  0.00    -0.248 NA
ATOM     38  C   UNL     1      17.871   5.198  -4.802  1.00  0.00     0.031 C 
ATOM     39  C   UNL     1      16.888   4.538   0.095  1.00  0.00     0.029 A 
ATOM     40  N   UNL     1      18.267   3.077  -0.886  1.00  0.00    -0.354 N 
ATOM     41  C   UNL     1      19.202   3.359  -5.091  1.00  0.00     0.074 A 
ATOM     42  C   UNL     1      18.523   4.479  -5.705  1.00  0.00     0.031 C 
ATOM     43  C   UNL     1      17.270   3.654   1.031  1.00  0.00     0.029 A 
ATOM     44  C   UNL     1      18.154   2.665   0.421  1.00  0.00     0.049 A 
ATOM     45  H   UNL     1      18.821   2.609  -1.552  1.00  0.00     0.167 HD
ATOM     46  C   UNL     1      20.025   2.510  -5.753  1.00  0.00     0.031 A 
ATOM     47  C   UNL     1      18.692   1.607   1.058  1.00  0.00     0.031 A 
ATOM     48  C   UNL     1      20.711   1.405  -5.137  1.00  0.00     0.049 A 
ATOM     49  C   UNL     1      19.596   0.674   0.299  1.00  0.00     0.074 A 
ATOM     50  C   UNL     1      21.608   0.522  -5.713  1.00  0.00     0.029 A 
ATOM     51  N   UNL     1      20.579   1.031  -3.808  1.00  0.00    -0.354 N 
ATOM     52  N   UNL     1      19.958   0.722  -0.961  1.00  0.00    -0.248 NA
ATOM     53  C   UNL     1      20.174  -0.449   1.050  1.00  0.00     0.031 C 
ATOM     54  C   UNL     1      21.979  -0.417  -4.745  1.00  0.00     0.029 A 
ATOM     55  C   UNL     1      21.360  -0.083  -3.551  1.00  0.00     0.049 A 
ATOM     56  H   UNL     1      20.014   1.490  -3.146  1.00  0.00     0.167 HD
ATOM     57  C   UNL     1      20.829  -0.346  -1.145  1.00  0.00     0.074 A 
ATOM     58  C   UNL     1      20.950  -1.014   0.135  1.00  0.00     0.031 C 
ATOM     59  C   UNL     1      21.473  -0.736  -2.272  1.00  0.00     0.031 A 
BRANCH  46  60
ATOM     60  C   UNL     1      20.227   2.741  -7.228  1.00  0.00    -0.014 A 
ATOM     61  C   UNL     1      20.960   3.846  -7.697  1.00  0.00     0.010 A 
ATOM     62  C   UNL     1      19.724   1.811  -8.156  1.00  0.00     0.010 A 
ATOM     63  C   UNL     1      21.153   4.038  -9.068  1.00  0.00     0.020 A 
ATOM     64  C   UNL     1      19.939   1.984  -9.527  1.00  0.00     0.020 A 
ATOM     65  C   UNL     1      20.639   3.106  -9.974  1.00  0.00     0.054 A 
BRANCH  65  66
ATOM     66  S   UNL     1      20.930   3.366 -11.746  1.00  0.00     0.124 S 
ATOM     67  O   UNL     1      20.032   4.481 -12.037  1.00  0.00    -0.237 OA
ATOM     68  O   UNL     1      22.355   3.679 -11.794  1.00  0.00    -0.237 OA
ATOM     69  O   UNL     1      20.554   2.090 -12.350  1.00  0.00    -0.744 OA
ENDBRANCH  65  66
ENDBRANCH  46  60
BRANCH  47  70
ATOM     70  C   UNL     1      18.397   1.375   2.499  1.00  0.00    -0.014 A 
ATOM     71  C   UNL     1      19.395   1.558   3.473  1.00  0.00     0.010 A 
ATOM     72  C   UNL     1      17.112   0.973   2.906  1.00  0.00     0.010 A 
ATOM     73  C   UNL     1      19.120   1.321   4.823  1.00  0.00     0.020 A 
ATOM     74  C   UNL     1      16.825   0.762   4.258  1.00  0.00     0.020 A 
ATOM     75  C   UNL     1      17.836   0.925   5.207  1.00  0.00     0.054 A 
BRANCH  75  76
ATOM     76  S   UNL     1      17.488   0.664   6.968  1.00  0.00     0.124 S 
ATOM     77  O   UNL     1      18.160  -0.606   7.225  1.00  0.00    -0.237 OA
ATOM     78  O   UNL     1      18.095   1.840   7.588  1.00  0.00    -0.237 OA
ATOM     79  O   UNL     1      16.028   0.625   7.024  1.00  0.00    -0.744 OA
ENDBRANCH  75  76
ENDBRANCH  47  70
BRANCH  59  80
ATOM     80  C   UNL     1      22.399  -1.919  -2.169  1.00  0.00    -0.014 A 
ATOM     81  C   UNL     1      21.902  -3.226  -2.025  1.00  0.00     0.010 A 
ATOM     82  C   UNL     1      23.789  -1.721  -2.275  1.00  0.00     0.010 A 
ATOM     83  C   UNL     1      22.780  -4.311  -1.959  1.00  0.00     0.020 A 
ATOM     84  C   UNL     1      24.668  -2.806  -2.238  1.00  0.00     0.020 A 
ATOM     85  C   UNL     1      24.158  -4.094  -2.066  1.00  0.00     0.054 A 
BRANCH  85  86
ATOM     86  S   UNL     1      25.273  -5.524  -2.024  1.00  0.00     0.124 S 
ATOM     87  O   UNL     1      25.243  -5.890  -0.611  1.00  0.00    -0.237 OA
ATOM     88  O   UNL     1      24.622  -6.465  -2.931  1.00  0.00    -0.237 OA
ATOM     89  O   UNL     1      26.545  -4.985  -2.502  1.00  0.00    -0.744 OA
ENDBRANCH  85  86
ENDBRANCH  59  80
ENDBRANCH  33  34
ENDBRANCH  25  28
ENDBRANCH  23  24
ENDBRANCH  22  23
ENDBRANCH   1  22
TORSDOF 18
