REMARK SMILES O=C(NCCCCCCNC(=O)[C@@H](Cc1ccccc1Br)CC(F)(F)F)c1ccc(-c2c3nc(c(-c4ccc(S(=O)(=O)[O-])cc4)c4ccc([nH]4)c(-c4ccc(S(=O)(=O)[O-])cc4)c4nc(c(-c5ccc(S(=O)(=O)[O-])cc5)c5ccc2[nH]5)C=C4)C=C3)cc1
REMARK SMILES IDX 6 1 5 2 4 3 3 4 1 5 2 6 27 8 28 9 86 10 29 11 85 12 30 13
REMARK SMILES IDX 31 14 32 15 79 16 33 17 84 18 78 19 80 20 34 21 83 22 77 23
REMARK SMILES IDX 76 24 35 26 65 27 46 28 64 29 47 30 50 31 63 32 81 33 48 34
REMARK SMILES IDX 49 35 62 37 82 38 51 39 36 40 37 41 45 42 38 43 44 44 39 45
REMARK SMILES IDX 40 46 41 47 42 48 43 49 66 50 67 51 75 52 68 53 74 54 69 55
REMARK SMILES IDX 70 56 71 57 72 58 73 59 52 60 53 61 61 62 54 63 60 64 55 65
REMARK SMILES IDX 56 66 57 67 58 68 59 69 7 70 8 71 9 72 10 73 11 74 12 76
REMARK SMILES IDX 13 77 14 78 15 79 16 80 20 81 17 82 19 83 21 84 18 85 22 86
REMARK SMILES IDX 23 87 24 88 25 89 26 90
REMARK H PARENT 3 7 80 25 50 36 10 75
REMARK Flexibility Score: inf
ROOT
ATOM      1  C   UNL     1       3.752  -3.846  -0.618  1.00  0.00     0.002 C 
ENDROOT
BRANCH   1   2
ATOM      2  C   UNL     1       4.437  -2.676   0.095  1.00  0.00     0.021 C 
BRANCH   2   3
ATOM      3  C   UNL     1       4.370  -1.345  -0.649  1.00  0.00     0.116 C 
BRANCH   3   4
ATOM      4  N   UNL     1       3.001  -0.878  -0.812  1.00  0.00    -0.352 N 
ATOM      5  O   UNL     1       1.121   0.250  -0.310  1.00  0.00    -0.269 OA
ATOM      6  C   UNL     1       2.341   0.168  -0.213  1.00  0.00     0.251 C 
ATOM      7  H   UNL     1       2.461  -1.395  -1.453  1.00  0.00     0.163 HD
BRANCH   6   8
ATOM      8  C   UNL     1       3.091   1.187   0.557  1.00  0.00     0.039 A 
ATOM      9  C   UNL     1       4.296   1.703   0.078  1.00  0.00     0.014 A 
ATOM     10  C   UNL     1       2.557   1.666   1.757  1.00  0.00     0.014 A 
ATOM     11  C   UNL     1       5.038   2.579   0.865  1.00  0.00     0.010 A 
ATOM     12  C   UNL     1       3.264   2.614   2.506  1.00  0.00     0.010 A 
ATOM     13  C   UNL     1       4.529   3.051   2.086  1.00  0.00    -0.014 A 
BRANCH  13  14
ATOM     14  C   UNL     1       5.324   4.026   2.879  1.00  0.00     0.031 A 
ATOM     15  C   UNL     1       5.855   3.670   4.242  1.00  0.00     0.074 A 
ATOM     16  C   UNL     1       5.601   5.232   2.343  1.00  0.00     0.049 A 
ATOM     17  N   UNL     1       6.619   4.377   5.037  1.00  0.00    -0.248 NA
ATOM     18  C   UNL     1       5.476   2.358   4.789  1.00  0.00     0.031 C 
ATOM     19  C   UNL     1       5.138   5.699   1.033  1.00  0.00     0.029 A 
ATOM     20  N   UNL     1       6.360   6.272   2.815  1.00  0.00    -0.354 N 
ATOM     21  C   UNL     1       6.791   3.611   6.185  1.00  0.00     0.074 A 
ATOM     22  C   UNL     1       6.033   2.393   5.992  1.00  0.00     0.031 C 
ATOM     23  C   UNL     1       5.670   6.904   0.782  1.00  0.00     0.029 A 
ATOM     24  C   UNL     1       6.463   7.322   1.933  1.00  0.00     0.049 A 
ATOM     25  H   UNL     1       6.790   6.268   3.701  1.00  0.00     0.167 HD
ATOM     26  C   UNL     1       7.516   3.894   7.295  1.00  0.00     0.031 A 
ATOM     27  C   UNL     1       7.118   8.494   2.034  1.00  0.00     0.031 A 
ATOM     28  C   UNL     1       8.272   5.106   7.482  1.00  0.00     0.049 A 
ATOM     29  C   UNL     1       7.905   8.787   3.280  1.00  0.00     0.074 A 
ATOM     30  C   UNL     1       9.069   5.466   8.556  1.00  0.00     0.029 A 
ATOM     31  N   UNL     1       8.322   6.157   6.579  1.00  0.00    -0.354 N 
ATOM     32  N   UNL     1       8.087   8.030   4.335  1.00  0.00    -0.248 NA
ATOM     33  C   UNL     1       8.581  10.089   3.343  1.00  0.00     0.031 C 
ATOM     34  C   UNL     1       9.560   6.756   8.324  1.00  0.00     0.029 A 
ATOM     35  C   UNL     1       9.119   7.174   7.079  1.00  0.00     0.049 A 
ATOM     36  H   UNL     1       7.860   6.177   5.710  1.00  0.00     0.167 HD
ATOM     37  C   UNL     1       8.923   8.753   5.177  1.00  0.00     0.074 A 
ATOM     38  C   UNL     1       9.219  10.001   4.502  1.00  0.00     0.031 C 
ATOM     39  C   UNL     1       9.405   8.412   6.398  1.00  0.00     0.031 A 
BRANCH  26  40
ATOM     40  C   UNL     1       7.497   2.885   8.416  1.00  0.00    -0.014 A 
ATOM     41  C   UNL     1       8.155   1.648   8.301  1.00  0.00     0.010 A 
ATOM     42  C   UNL     1       6.836   3.197   9.619  1.00  0.00     0.010 A 
ATOM     43  C   UNL     1       8.112   0.723   9.348  1.00  0.00     0.020 A 
ATOM     44  C   UNL     1       6.814   2.286  10.679  1.00  0.00     0.020 A 
ATOM     45  C   UNL     1       7.435   1.045  10.529  1.00  0.00     0.054 A 
BRANCH  45  46
ATOM     46  S   UNL     1       7.396  -0.173  11.873  1.00  0.00     0.124 S 
ATOM     47  O   UNL     1       6.447  -1.157  11.357  1.00  0.00    -0.237 OA
ATOM     48  O   UNL     1       8.785  -0.619  11.942  1.00  0.00    -0.237 OA
ATOM     49  O   UNL     1       6.932   0.596  13.025  1.00  0.00    -0.744 OA
ENDBRANCH  45  46
ENDBRANCH  26  40
BRANCH  27  50
ATOM     50  C   UNL     1       7.067   9.469   0.911  1.00  0.00    -0.014 A 
ATOM     51  C   UNL     1       8.207   9.714   0.126  1.00  0.00     0.010 A 
ATOM     52  C   UNL     1       5.867  10.137   0.605  1.00  0.00     0.010 A 
ATOM     53  C   UNL     1       8.152  10.619  -0.937  1.00  0.00     0.020 A 
ATOM     54  C   UNL     1       5.801  11.020  -0.476  1.00  0.00     0.020 A 
ATOM     55  C   UNL     1       6.947  11.264  -1.234  1.00  0.00     0.054 A 
BRANCH  55  56
ATOM     56  S   UNL     1       6.883  12.389  -2.655  1.00  0.00     0.124 S 
ATOM     57  O   UNL     1       7.596  13.557  -2.148  1.00  0.00    -0.237 OA
ATOM     58  O   UNL     1       7.574  11.627  -3.692  1.00  0.00    -0.237 OA
ATOM     59  O   UNL     1       5.452  12.575  -2.878  1.00  0.00    -0.744 OA
ENDBRANCH  55  56
ENDBRANCH  27  50
BRANCH  39  60
ATOM     60  C   UNL     1      10.345   9.383   7.061  1.00  0.00    -0.014 A 
ATOM     61  C   UNL     1       9.888  10.602   7.591  1.00  0.00     0.010 A 
ATOM     62  C   UNL     1      11.707   9.051   7.179  1.00  0.00     0.010 A 
ATOM     63  C   UNL     1      10.785  11.492   8.189  1.00  0.00     0.020 A 
ATOM     64  C   UNL     1      12.602   9.925   7.800  1.00  0.00     0.020 A 
ATOM     65  C   UNL     1      12.138  11.149   8.285  1.00  0.00     0.054 A 
BRANCH  65  66
ATOM     66  S   UNL     1      13.281  12.308   9.085  1.00  0.00     0.124 S 
ATOM     67  O   UNL     1      13.445  13.331   8.056  1.00  0.00    -0.237 OA
ATOM     68  O   UNL     1      12.538  12.725  10.272  1.00  0.00    -0.237 OA
ATOM     69  O   UNL     1      14.466  11.496   9.352  1.00  0.00    -0.744 OA
ENDBRANCH  65  66
ENDBRANCH  39  60
ENDBRANCH  13  14
ENDBRANCH   6   8
ENDBRANCH   3   4
ENDBRANCH   2   3
ENDBRANCH   1   2
BRANCH   1  70
ATOM     70  C   UNL     1       4.255  -4.146  -2.036  1.00  0.00     0.002 C 
BRANCH  70  71
ATOM     71  C   UNL     1       5.761  -4.402  -2.148  1.00  0.00     0.021 C 
BRANCH  71  72
ATOM     72  C   UNL     1       6.223  -5.671  -1.429  1.00  0.00     0.116 C 
BRANCH  72  73
ATOM     73  N   UNL     1       6.558  -6.711  -2.376  1.00  0.00    -0.356 N 
ATOM     74  C   UNL     1       7.739  -7.180  -2.832  1.00  0.00     0.223 C 
ATOM     75  H   UNL     1       5.774  -7.165  -2.761  1.00  0.00     0.163 HD
ATOM     76  O   UNL     1       7.687  -8.048  -3.711  1.00  0.00    -0.275 OA
BRANCH  74  77
ATOM     77  C   UNL     1       9.104  -6.726  -2.312  1.00  0.00     0.092 C 
BRANCH  77  78
ATOM     78  C   UNL     1       9.580  -5.355  -2.860  1.00  0.00     0.050 C 
BRANCH  78  79
ATOM     79  C   UNL     1       9.294  -3.980  -2.280  1.00  0.00    -0.033 A 
ATOM     80  C   UNL     1       9.060  -3.754  -0.916  1.00  0.00     0.005 A 
ATOM     81  C   UNL     1       9.373  -2.828  -3.100  1.00  0.00     0.021 A 
ATOM     82  C   UNL     1       8.782  -2.475  -0.412  1.00  0.00     0.000 A 
ATOM     83  C   UNL     1       9.117  -1.544  -2.593  1.00  0.00     0.016 A 
ATOM     84  Br  UNL     1       9.897  -2.899  -4.933  1.00  0.00    -0.051 Br
ATOM     85  C   UNL     1       8.797  -1.371  -1.252  1.00  0.00     0.001 A 
ENDBRANCH  78  79
ENDBRANCH  77  78
BRANCH  77  86
ATOM     86  C   UNL     1       9.410  -7.085  -0.858  1.00  0.00     0.129 C 
BRANCH  86  87
ATOM     87  C   UNL     1       9.147  -8.545  -0.537  1.00  0.00     0.389 C 
ATOM     88  F   UNL     1       9.765  -9.373  -1.401  1.00  0.00    -0.171 F 
ATOM     89  F   UNL     1       9.611  -8.831   0.702  1.00  0.00    -0.171 F 
ATOM     90  F   UNL     1       7.828  -8.824  -0.542  1.00  0.00    -0.171 F 
ENDBRANCH  86  87
ENDBRANCH  77  86
ENDBRANCH  74  77
ENDBRANCH  72  73
ENDBRANCH  71  72
ENDBRANCH  70  71
ENDBRANCH   1  70
TORSDOF 20
