REMARK SMILES O=C1C[C@H](c2cn[nH]c2C(=O)NCCCCCCNC(=O)c2ccc(-c3c4nc(c(-c5ccc(S(=O)(=O)[O-])cc5)c5ccc([nH]5)c(-c5ccc(S(=O)(=O)[O-])cc5)c5nc(c(-c6ccc(S(=O)(=O)[O-])cc6)c6ccc3[nH]6)C=C5)C=C4)cc2)c2c(-c3cccs3)n[nH]c2N1
REMARK SMILES IDX 16 1 15 2 14 3 13 4 12 5 10 6 11 7 9 9 5 10 6 11 7 12 8 13
REMARK SMILES IDX 4 15 1 16 2 17 3 18 92 19 91 20 82 22 90 23 83 24 89 25
REMARK SMILES IDX 84 27 85 28 88 29 86 30 87 31 17 32 18 33 19 34 20 35 21 37
REMARK SMILES IDX 22 38 23 39 81 40 24 41 80 42 25 43 26 44 27 45 74 46 28 47
REMARK SMILES IDX 79 48 73 49 75 50 29 51 78 52 72 53 71 54 30 56 60 57 41 58
REMARK SMILES IDX 59 59 42 60 45 61 58 62 76 63 43 64 44 65 57 67 77 68 46 69
REMARK SMILES IDX 31 70 32 71 40 72 33 73 39 74 34 75 35 76 36 77 37 78 38 79
REMARK SMILES IDX 61 80 62 81 70 82 63 83 69 84 64 85 65 86 66 87 67 88 68 89
REMARK SMILES IDX 47 90 48 91 56 92 49 93 55 94 50 95 51 96 52 97 53 98 54 99
REMARK H PARENT 12 8 8 14 92 21 90 26 19 36 75 55 45 66
REMARK Flexibility Score: inf
ROOT
ATOM      1  C   UNL     1       5.982  -3.379   2.373  1.00  0.00     0.002 C 
ENDROOT
BRANCH   1   2
ATOM      2  C   UNL     1       4.822  -3.629   1.402  1.00  0.00     0.002 C 
BRANCH   2   3
ATOM      3  C   UNL     1       4.067  -2.390   0.910  1.00  0.00     0.021 C 
BRANCH   3   4
ATOM      4  C   UNL     1       5.101  -1.079   0.386  1.00  0.00     0.116 C 
BRANCH   4   5
ATOM      5  N   UNL     1       5.538  -0.428  -1.621  1.00  0.00    -0.351 N 
ATOM      6  C   UNL     1       5.549   0.432  -2.754  1.00  0.00     0.269 C 
ATOM      7  O   UNL     1       6.184   0.019  -3.729  1.00  0.00    -0.268 OA
ATOM      8  H   UNL     1       6.037  -1.204  -1.967  1.00  0.00     0.163 HD
BRANCH   6   9
ATOM      9  C   UNL     1       4.970   1.753  -2.769  1.00  0.00     0.126 A 
ATOM     10  C   UNL     1       4.309   2.492  -1.802  1.00  0.00     0.011 A 
ATOM     11  C   UNL     1       4.088   3.748  -2.398  1.00  0.00     0.140 A 
ATOM     12  N   UNL     1       4.569   3.812  -3.642  1.00  0.00    -0.183 NA
ATOM     13  N   UNL     1       5.064   2.579  -3.853  1.00  0.00    -0.273 N 
ATOM     14  H   UNL     1       5.458   2.298  -4.710  1.00  0.00     0.190 HD
BRANCH  10  15
ATOM     15  C   UNL     1       3.994   2.007  -0.431  1.00  0.00     0.069 C 
ATOM     16  O   UNL     1       0.552   0.354  -0.311  1.00  0.00    -0.275 OA
ATOM     17  C   UNL     1       1.751   0.477  -0.577  1.00  0.00     0.226 C 
ATOM     18  C   UNL     1       2.481   1.796  -0.190  1.00  0.00     0.114 C 
ATOM     19  N   UNL     1       2.398  -0.609  -1.114  1.00  0.00    -0.311 N 
ATOM     20  C   UNL     1       3.752  -0.662  -0.986  1.00  0.00     0.132 A 
ATOM     21  H   UNL     1       1.901  -1.323  -1.574  1.00  0.00     0.171 HD
ATOM     22  C   UNL     1       4.663   0.706  -0.347  1.00  0.00     0.031 A 
ATOM     23  N   UNL     1       4.927  -2.067  -1.231  1.00  0.00    -0.262 N 
ATOM     24  C   UNL     1       6.515   0.145  -0.153  1.00  0.00     0.108 A 
ATOM     25  N   UNL     1       6.651  -1.542  -0.674  1.00  0.00    -0.173 NA
ATOM     26  H   UNL     1       4.690  -2.951  -1.595  1.00  0.00     0.192 HD
BRANCH  24  27
ATOM     27  C   UNL     1       7.630   1.100   0.062  1.00  0.00     0.055 A 
ATOM     28  C   UNL     1       8.777   1.105  -0.695  1.00  0.00     0.022 A 
ATOM     29  S   UNL     1       7.561   2.386   1.171  1.00  0.00    -0.142 S 
ATOM     30  C   UNL     1       9.584   2.245  -0.404  1.00  0.00     0.012 A 
ATOM     31  C   UNL     1       9.070   2.992   0.636  1.00  0.00     0.065 A 
ENDBRANCH  24  27
ENDBRANCH  10  15
ENDBRANCH   6   9
ENDBRANCH   4   5
ENDBRANCH   3   4
ENDBRANCH   2   3
ENDBRANCH   1   2
BRANCH   1  32
ATOM     32  C   UNL     1       5.680  -2.467   3.573  1.00  0.00     0.021 C 
BRANCH  32  33
ATOM     33  C   UNL     1       4.525  -2.959   4.427  1.00  0.00     0.116 C 
BRANCH  33  34
ATOM     34  N   UNL     1       4.718  -4.349   4.850  1.00  0.00    -0.352 N 
ATOM     35  C   UNL     1       3.883  -5.178   5.571  1.00  0.00     0.251 C 
ATOM     36  H   UNL     1       5.574  -4.753   4.578  1.00  0.00     0.163 HD
ATOM     37  O   UNL     1       4.317  -6.170   6.143  1.00  0.00    -0.269 OA
BRANCH  35  38
ATOM     38  C   UNL     1       2.446  -4.890   5.566  1.00  0.00     0.039 A 
ATOM     39  C   UNL     1       1.581  -5.145   6.633  1.00  0.00     0.014 A 
ATOM     40  C   UNL     1       1.954  -4.366   4.390  1.00  0.00     0.014 A 
ATOM     41  C   UNL     1       0.221  -4.889   6.446  1.00  0.00     0.010 A 
ATOM     42  C   UNL     1       0.797  -3.681   4.474  1.00  0.00     0.010 A 
ATOM     43  C   UNL     1      -0.165  -4.204   5.294  1.00  0.00    -0.014 A 
BRANCH  43  44
ATOM     44  C   UNL     1      -1.497  -3.752   4.966  1.00  0.00     0.031 A 
ATOM     45  C   UNL     1      -1.979  -2.744   5.937  1.00  0.00     0.074 A 
ATOM     46  C   UNL     1      -2.068  -4.035   3.770  1.00  0.00     0.049 A 
ATOM     47  N   UNL     1      -2.724  -2.988   6.961  1.00  0.00    -0.248 NA
ATOM     48  C   UNL     1      -1.342  -1.411   5.980  1.00  0.00     0.031 C 
ATOM     49  C   UNL     1      -1.546  -4.774   2.609  1.00  0.00     0.029 A 
ATOM     50  N   UNL     1      -3.285  -3.645   3.318  1.00  0.00    -0.354 N 
ATOM     51  C   UNL     1      -2.896  -1.765   7.590  1.00  0.00     0.074 A 
ATOM     52  C   UNL     1      -1.817  -0.933   7.133  1.00  0.00     0.031 C 
ATOM     53  C   UNL     1      -2.353  -4.580   1.533  1.00  0.00     0.029 A 
ATOM     54  C   UNL     1      -3.526  -3.837   1.957  1.00  0.00     0.049 A 
ATOM     55  H   UNL     1      -3.961  -3.250   3.915  1.00  0.00     0.167 HD
ATOM     56  C   UNL     1      -4.085  -1.446   8.171  1.00  0.00     0.031 A 
ATOM     57  C   UNL     1      -4.614  -3.385   1.267  1.00  0.00     0.031 A 
ATOM     58  C   UNL     1      -4.947  -2.604   8.225  1.00  0.00     0.049 A 
ATOM     59  C   UNL     1      -5.672  -3.143   2.294  1.00  0.00     0.074 A 
ATOM     60  C   UNL     1      -4.861  -3.838   8.839  1.00  0.00     0.029 A 
ATOM     61  N   UNL     1      -5.831  -2.754   7.177  1.00  0.00    -0.354 N 
ATOM     62  N   UNL     1      -6.181  -4.115   3.007  1.00  0.00    -0.248 NA
ATOM     63  C   UNL     1      -5.710  -1.826   2.919  1.00  0.00     0.031 C 
ATOM     64  C   UNL     1      -5.303  -4.766   7.851  1.00  0.00     0.029 A 
ATOM     65  C   UNL     1      -5.763  -4.055   6.739  1.00  0.00     0.049 A 
ATOM     66  H   UNL     1      -6.411  -2.050   6.806  1.00  0.00     0.167 HD
ATOM     67  C   UNL     1      -6.197  -3.635   4.312  1.00  0.00     0.074 A 
ATOM     68  C   UNL     1      -5.930  -2.196   4.187  1.00  0.00     0.031 C 
ATOM     69  C   UNL     1      -6.077  -4.476   5.386  1.00  0.00     0.031 A 
BRANCH  56  70
ATOM     70  C   UNL     1      -4.628  -0.047   8.290  1.00  0.00    -0.014 A 
ATOM     71  C   UNL     1      -5.856   0.131   8.957  1.00  0.00     0.010 A 
ATOM     72  C   UNL     1      -4.122   1.058   7.574  1.00  0.00     0.010 A 
ATOM     73  C   UNL     1      -6.570   1.330   8.860  1.00  0.00     0.020 A 
ATOM     74  C   UNL     1      -4.809   2.272   7.500  1.00  0.00     0.020 A 
ATOM     75  C   UNL     1      -6.044   2.390   8.123  1.00  0.00     0.054 A 
BRANCH  75  76
ATOM     76  S   UNL     1      -7.013   3.908   7.955  1.00  0.00     0.124 S 
ATOM     77  O   UNL     1      -8.182   3.441   7.215  1.00  0.00    -0.237 OA
ATOM     78  O   UNL     1      -7.249   4.275   9.348  1.00  0.00    -0.237 OA
ATOM     79  O   UNL     1      -6.122   4.804   7.221  1.00  0.00    -0.744 OA
ENDBRANCH  75  76
ENDBRANCH  56  70
BRANCH  57  80
ATOM     80  C   UNL     1      -4.622  -2.716  -0.073  1.00  0.00    -0.014 A 
ATOM     81  C   UNL     1      -5.817  -2.393  -0.754  1.00  0.00     0.010 A 
ATOM     82  C   UNL     1      -3.437  -2.120  -0.552  1.00  0.00     0.010 A 
ATOM     83  C   UNL     1      -5.828  -1.469  -1.824  1.00  0.00     0.020 A 
ATOM     84  C   UNL     1      -3.439  -1.199  -1.610  1.00  0.00     0.020 A 
ATOM     85  C   UNL     1      -4.638  -0.857  -2.229  1.00  0.00     0.054 A 
BRANCH  85  86
ATOM     86  S   UNL     1      -4.670   0.477  -3.472  1.00  0.00     0.124 S 
ATOM     87  O   UNL     1      -5.021  -0.241  -4.694  1.00  0.00    -0.237 OA
ATOM     88  O   UNL     1      -5.696   1.375  -2.952  1.00  0.00    -0.237 OA
ATOM     89  O   UNL     1      -3.309   1.012  -3.442  1.00  0.00    -0.744 OA
ENDBRANCH  85  86
ENDBRANCH  57  80
BRANCH  69  90
ATOM     90  C   UNL     1      -6.109  -5.976   5.146  1.00  0.00    -0.014 A 
ATOM     91  C   UNL     1      -5.138  -6.702   4.420  1.00  0.00     0.010 A 
ATOM     92  C   UNL     1      -7.083  -6.702   5.850  1.00  0.00     0.010 A 
ATOM     93  C   UNL     1      -5.170  -8.110   4.380  1.00  0.00     0.020 A 
ATOM     94  C   UNL     1      -7.110  -8.097   5.829  1.00  0.00     0.020 A 
ATOM     95  C   UNL     1      -6.164  -8.798   5.082  1.00  0.00     0.054 A 
BRANCH  95  96
ATOM     96  S   UNL     1      -6.215 -10.614   5.043  1.00  0.00     0.124 S 
ATOM     97  O   UNL     1      -6.570 -10.890   3.654  1.00  0.00    -0.237 OA
ATOM     98  O   UNL     1      -4.857 -10.988   5.431  1.00  0.00    -0.237 OA
ATOM     99  O   UNL     1      -7.246 -10.954   6.022  1.00  0.00    -0.744 OA
ENDBRANCH  95  96
ENDBRANCH  69  90
ENDBRANCH  43  44
ENDBRANCH  35  38
ENDBRANCH  33  34
ENDBRANCH  32  33
ENDBRANCH   1  32
TORSDOF 18
