REMARK SMILES [NH3+][C@@H](Cc1c[nH]c2ccccc12)C(=O)N[C@@H](CS)C(=O)N[C@@H](CO)C(=O)NCCCCCCNC(=O)c1ccc(-c2c3nc(c(-c4ccc(S(=O)(=O)[O-])cc4)c4ccc([nH]4)c(-c4ccc(S(=O)(=O)[O-])cc4)c4nc(c(-c5ccc(S(=O)(=O)[O-])cc5)c5ccc2[nH]5)C=C4)C=C3)cc1
REMARK SMILES IDX 29 1 28 2 27 3 25 4 26 5 22 7 21 8 19 9 20 10 16 12 15 13
REMARK SMILES IDX 13 14 14 15 2 17 1 18 3 22 4 23 5 24 12 25 6 26 7 27 11 28
REMARK SMILES IDX 8 30 10 31 9 32 17 33 18 34 23 36 24 37 30 39 31 40 32 41
REMARK SMILES IDX 33 42 34 43 35 44 36 46 37 47 38 48 96 49 39 50 95 51 40 52
REMARK SMILES IDX 41 53 42 54 89 55 43 56 94 57 88 58 90 59 44 60 93 61 87 62
REMARK SMILES IDX 86 63 45 65 75 66 56 67 74 68 57 69 60 70 73 71 91 72 58 73
REMARK SMILES IDX 59 74 72 76 92 77 61 78 46 79 47 80 55 81 48 82 54 83 49 84
REMARK SMILES IDX 50 85 51 86 52 87 53 88 76 89 77 90 85 91 78 92 84 93 79 94
REMARK SMILES IDX 80 95 81 96 82 97 83 98 62 99 63 100 71 101 64 102 70 103
REMARK SMILES IDX 65 104 66 105 67 106 68 107 69 108
REMARK H PARENT 27 6 21 11 15 16 1 19 1 20 1 21 6 29 18 35 24 38 34 45 90 64
REMARK H PARENT 60 75
REMARK Flexibility Score: inf
ROOT
ATOM      1  C   UNL     1      -4.496   0.318  -7.341  1.00  0.00     0.021 C 
ENDROOT
BRANCH   1   2
ATOM      2  C   UNL     1      -5.135   0.548  -5.977  1.00  0.00     0.116 C 
BRANCH   2   3
ATOM      3  N   UNL     1      -5.362  -0.698  -5.274  1.00  0.00    -0.354 N 
ATOM      4  C   UNL     1      -5.191  -1.023  -3.967  1.00  0.00     0.244 C 
ATOM      5  O   UNL     1      -5.688  -2.084  -3.577  1.00  0.00    -0.273 OA
ATOM      6  H   UNL     1      -5.697  -1.432  -5.838  1.00  0.00     0.163 HD
BRANCH   4   7
ATOM      7  C   UNL     1      -4.459  -0.107  -2.987  1.00  0.00     0.197 C 
BRANCH   7   8
ATOM      8  N   UNL     1      -3.120   0.252  -3.452  1.00  0.00    -0.340 N 
ATOM      9  C   UNL     1      -2.252   0.785  -2.559  1.00  0.00     0.244 C 
ATOM     10  O   UNL     1      -2.176   2.013  -2.501  1.00  0.00    -0.273 OA
ATOM     11  H   UNL     1      -2.856   0.109  -4.390  1.00  0.00     0.164 HD
BRANCH   9  12
ATOM     12  C   UNL     1      -1.449  -0.146  -1.638  1.00  0.00     0.181 C 
BRANCH  12  13
ATOM     13  N   UNL     1      -1.550   0.388  -0.293  1.00  0.00    -0.338 N 
ATOM     14  C   UNL     1      -0.695   1.315   0.248  1.00  0.00     0.279 C 
ATOM     15  O   UNL     1      -1.179   2.109   1.062  1.00  0.00    -0.268 OA
ATOM     16  H   UNL     1      -2.286   0.061   0.273  1.00  0.00     0.164 HD
BRANCH  14  17
ATOM     17  C   UNL     1       0.835   1.317  -0.056  1.00  0.00     0.275 C 
BRANCH  17  18
ATOM     18  N   UNL     1       1.402  -0.034   0.171  1.00  0.00    -0.347 N 
ATOM     19  H   UNL     1       2.402  -0.021  -0.031  1.00  0.00     0.345 HD
ATOM     20  H   UNL     1       0.940  -0.705  -0.442  1.00  0.00     0.345 HD
ATOM     21  H   UNL     1       1.255  -0.305   1.144  1.00  0.00     0.345 HD
ENDBRANCH  17  18
BRANCH  17  22
ATOM     22  C   UNL     1       1.347   2.083  -1.307  1.00  0.00     0.113 C 
BRANCH  22  23
ATOM     23  C   UNL     1       1.294   1.423  -2.667  1.00  0.00    -0.016 A 
ATOM     24  C   UNL     1       1.782   0.181  -3.043  1.00  0.00     0.087 A 
ATOM     25  C   UNL     1       0.702   1.987  -3.854  1.00  0.00     0.003 A 
ATOM     26  N   UNL     1       1.355  -0.088  -4.319  1.00  0.00    -0.361 N 
ATOM     27  C   UNL     1       0.665   0.986  -4.826  1.00  0.00     0.046 A 
ATOM     28  C   UNL     1       0.135   3.240  -4.171  1.00  0.00     0.010 A 
ATOM     29  H   UNL     1       1.520  -0.929  -4.803  1.00  0.00     0.166 HD
ATOM     30  C   UNL     1       0.021   1.146  -6.060  1.00  0.00     0.026 A 
ATOM     31  C   UNL     1      -0.482   3.430  -5.413  1.00  0.00     0.001 A 
ATOM     32  C   UNL     1      -0.556   2.389  -6.334  1.00  0.00     0.002 A 
ENDBRANCH  22  23
ENDBRANCH  17  22
ENDBRANCH  14  17
ENDBRANCH  12  13
BRANCH  12  33
ATOM     33  C   UNL     1      -1.522  -1.668  -1.806  1.00  0.00     0.101 C 
BRANCH  33  34
ATOM     34  S   UNL     1      -2.807  -2.598  -0.920  1.00  0.00    -0.177 SA
ATOM     35  H   UNL     1      -2.588  -2.510   0.420  1.00  0.00     0.102 HD
ENDBRANCH  33  34
ENDBRANCH  12  33
ENDBRANCH   9  12
ENDBRANCH   7   8
BRANCH   7  36
ATOM     36  C   UNL     1      -5.304   1.097  -2.531  1.00  0.00     0.191 C 
BRANCH  36  37
ATOM     37  O   UNL     1      -5.332   2.161  -3.476  1.00  0.00    -0.394 OA
ATOM     38  H   UNL     1      -4.434   2.502  -3.606  1.00  0.00     0.210 HD
ENDBRANCH  36  37
ENDBRANCH   7  36
ENDBRANCH   4   7
ENDBRANCH   2   3
ENDBRANCH   1   2
BRANCH   1  39
ATOM     39  C   UNL     1      -5.333  -0.550  -8.283  1.00  0.00     0.002 C 
BRANCH  39  40
ATOM     40  C   UNL     1      -6.800  -0.129  -8.409  1.00  0.00     0.002 C 
BRANCH  40  41
ATOM     41  C   UNL     1      -7.018   1.334  -8.801  1.00  0.00     0.021 C 
BRANCH  41  42
ATOM     42  C   UNL     1      -6.311   1.750 -10.082  1.00  0.00     0.116 C 
BRANCH  42  43
ATOM     43  N   UNL     1      -6.754   0.966 -11.222  1.00  0.00    -0.352 N 
ATOM     44  C   UNL     1      -7.233   1.405 -12.431  1.00  0.00     0.251 C 
ATOM     45  H   UNL     1      -6.705  -0.011 -11.112  1.00  0.00     0.163 HD
ATOM     46  O   UNL     1      -7.768   0.625 -13.206  1.00  0.00    -0.269 OA
BRANCH  44  47
ATOM     47  C   UNL     1      -7.103   2.837 -12.771  1.00  0.00     0.039 A 
ATOM     48  C   UNL     1      -8.207   3.514 -13.291  1.00  0.00     0.014 A 
ATOM     49  C   UNL     1      -5.895   3.507 -12.556  1.00  0.00     0.014 A 
ATOM     50  C   UNL     1      -8.112   4.881 -13.553  1.00  0.00     0.010 A 
ATOM     51  C   UNL     1      -5.828   4.882 -12.741  1.00  0.00     0.010 A 
ATOM     52  C   UNL     1      -6.932   5.581 -13.253  1.00  0.00    -0.014 A 
BRANCH  52  53
ATOM     53  C   UNL     1      -6.815   7.041 -13.487  1.00  0.00     0.031 A 
ATOM     54  C   UNL     1      -5.808   7.559 -14.478  1.00  0.00     0.074 A 
ATOM     55  C   UNL     1      -7.562   7.899 -12.764  1.00  0.00     0.049 A 
ATOM     56  N   UNL     1      -5.487   8.796 -14.758  1.00  0.00    -0.248 NA
ATOM     57  C   UNL     1      -5.040   6.555 -15.234  1.00  0.00     0.031 C 
ATOM     58  C   UNL     1      -8.552   7.518 -11.754  1.00  0.00     0.029 A 
ATOM     59  N   UNL     1      -7.596   9.270 -12.761  1.00  0.00    -0.354 N 
ATOM     60  C   UNL     1      -4.473   8.718 -15.705  1.00  0.00     0.074 A 
ATOM     61  C   UNL     1      -4.193   7.314 -15.912  1.00  0.00     0.031 C 
ATOM     62  C   UNL     1      -9.112   8.629 -11.247  1.00  0.00     0.029 A 
ATOM     63  C   UNL     1      -8.489   9.798 -11.858  1.00  0.00     0.049 A 
ATOM     64  H   UNL     1      -7.035   9.825 -13.350  1.00  0.00     0.167 HD
ATOM     65  C   UNL     1      -3.844   9.723 -16.358  1.00  0.00     0.031 A 
ATOM     66  C   UNL     1      -8.765  11.080 -11.546  1.00  0.00     0.031 A 
ATOM     67  C   UNL     1      -4.135  11.117 -16.154  1.00  0.00     0.049 A 
ATOM     68  C   UNL     1      -8.034  12.181 -12.267  1.00  0.00     0.074 A 
ATOM     69  C   UNL     1      -3.587  12.212 -16.800  1.00  0.00     0.029 A 
ATOM     70  N   UNL     1      -5.051  11.610 -15.237  1.00  0.00    -0.354 N 
ATOM     71  N   UNL     1      -7.114  12.087 -13.199  1.00  0.00    -0.248 NA
ATOM     72  C   UNL     1      -8.385  13.560 -11.903  1.00  0.00     0.031 C 
ATOM     73  C   UNL     1      -4.129  13.369 -16.231  1.00  0.00     0.029 A 
ATOM     74  C   UNL     1      -5.067  12.993 -15.282  1.00  0.00     0.049 A 
ATOM     75  H   UNL     1      -5.607  11.057 -14.642  1.00  0.00     0.167 HD
ATOM     76  C   UNL     1      -6.805  13.394 -13.558  1.00  0.00     0.074 A 
ATOM     77  C   UNL     1      -7.642  14.258 -12.751  1.00  0.00     0.031 C 
ATOM     78  C   UNL     1      -5.912  13.839 -14.477  1.00  0.00     0.031 A 
BRANCH  65  79
ATOM     79  C   UNL     1      -2.772   9.351 -17.350  1.00  0.00    -0.014 A 
ATOM     80  C   UNL     1      -3.090   8.702 -18.557  1.00  0.00     0.010 A 
ATOM     81  C   UNL     1      -1.432   9.695 -17.092  1.00  0.00     0.010 A 
ATOM     82  C   UNL     1      -2.084   8.369 -19.468  1.00  0.00     0.020 A 
ATOM     83  C   UNL     1      -0.427   9.392 -18.015  1.00  0.00     0.020 A 
ATOM     84  C   UNL     1      -0.758   8.716 -19.191  1.00  0.00     0.054 A 
BRANCH  84  85
ATOM     85  S   UNL     1       0.521   8.296 -20.405  1.00  0.00     0.124 S 
ATOM     86  O   UNL     1       0.599   6.843 -20.269  1.00  0.00    -0.237 OA
ATOM     87  O   UNL     1      -0.057   8.778 -21.657  1.00  0.00    -0.237 OA
ATOM     88  O   UNL     1       1.696   9.028 -19.940  1.00  0.00    -0.744 OA
ENDBRANCH  84  85
ENDBRANCH  65  79
BRANCH  66  89
ATOM     89  C   UNL     1      -9.785  11.393 -10.508  1.00  0.00    -0.014 A 
ATOM     90  C   UNL     1     -11.005  11.995 -10.862  1.00  0.00     0.010 A 
ATOM     91  C   UNL     1      -9.543  11.088  -9.155  1.00  0.00     0.010 A 
ATOM     92  C   UNL     1     -11.953  12.309  -9.883  1.00  0.00     0.020 A 
ATOM     93  C   UNL     1     -10.500  11.370  -8.177  1.00  0.00     0.020 A 
ATOM     94  C   UNL     1     -11.694  11.993  -8.546  1.00  0.00     0.054 A 
BRANCH  94  95
ATOM     95  S   UNL     1     -12.955  12.374  -7.298  1.00  0.00     0.124 S 
ATOM     96  O   UNL     1     -12.875  13.829  -7.221  1.00  0.00    -0.237 OA
ATOM     97  O   UNL     1     -14.170  11.838  -7.906  1.00  0.00    -0.237 OA
ATOM     98  O   UNL     1     -12.491  11.657  -6.113  1.00  0.00    -0.744 OA
ENDBRANCH  94  95
ENDBRANCH  66  89
BRANCH  78  99
ATOM     99  C   UNL     1      -5.826  15.326 -14.703  1.00  0.00    -0.014 A 
ATOM    100  C   UNL     1      -5.257  16.183 -13.745  1.00  0.00     0.010 A 
ATOM    101  C   UNL     1      -6.264  15.861 -15.928  1.00  0.00     0.010 A 
ATOM    102  C   UNL     1      -5.155  17.554 -13.998  1.00  0.00     0.020 A 
ATOM    103  C   UNL     1      -6.135  17.225 -16.198  1.00  0.00     0.020 A 
ATOM    104  C   UNL     1      -5.592  18.066 -15.225  1.00  0.00     0.054 A 
BRANCH 104 105
ATOM    105  S   UNL     1      -5.399  19.840 -15.549  1.00  0.00     0.124 S 
ATOM    106  O   UNL     1      -6.416  20.420 -14.675  1.00  0.00    -0.237 OA
ATOM    107  O   UNL     1      -4.015  20.088 -15.154  1.00  0.00    -0.237 OA
ATOM    108  O   UNL     1      -5.665  19.962 -16.980  1.00  0.00    -0.744 OA
ENDBRANCH 104 105
ENDBRANCH  78  99
ENDBRANCH  52  53
ENDBRANCH  44  47
ENDBRANCH  42  43
ENDBRANCH  41  42
ENDBRANCH  40  41
ENDBRANCH  39  40
ENDBRANCH   1  39
TORSDOF 27
