REMARK SMILES O=C(NCCCCCCNC(=O)C1(C[C@@H]2COc3ccccc32)CC[NH2+]CC1)c1ccc(-c2c3nc(c(-c4ccc(S(=O)(=O)[O-])cc4)c4ccc([nH]4)c(-c4ccc(S(=O)(=O)[O-])cc4)c4nc(c(-c5ccc(S(=O)(=O)[O-])cc5)c5ccc2[nH]5)C=C4)C=C3)cc1
REMARK SMILES IDX 6 1 5 2 4 3 3 4 1 5 2 6 29 8 30 9 88 10 31 11 87 12 32 13
REMARK SMILES IDX 33 14 34 15 81 16 35 17 86 18 80 19 82 20 36 21 85 22 79 23
REMARK SMILES IDX 78 24 37 26 67 27 48 28 66 29 49 30 52 31 65 32 83 33 50 34
REMARK SMILES IDX 51 35 64 37 84 38 53 39 38 40 39 41 47 42 40 43 46 44 41 45
REMARK SMILES IDX 42 46 43 47 44 48 45 49 68 50 69 51 77 52 70 53 76 54 71 55
REMARK SMILES IDX 72 56 73 57 74 58 75 59 54 60 55 61 63 62 56 63 62 64 57 65
REMARK SMILES IDX 58 66 59 67 60 68 61 69 7 70 8 71 9 72 10 73 11 74 12 76
REMARK SMILES IDX 13 77 24 78 28 79 25 80 27 81 26 82 14 85 15 86 16 87 23 88
REMARK SMILES IDX 17 89 18 90 22 91 19 92 21 93 20 94
REMARK H PARENT 3 7 82 25 52 36 10 75 26 83 26 84
REMARK Flexibility Score: inf
ROOT
ATOM      1  C   UNL     1       7.951  -6.757  14.063  1.00  0.00     0.002 C 
ENDROOT
BRANCH   1   2
ATOM      2  C   UNL     1       7.676  -8.095  14.755  1.00  0.00     0.021 C 
BRANCH   2   3
ATOM      3  C   UNL     1       8.685  -8.464  15.835  1.00  0.00     0.116 C 
BRANCH   3   4
ATOM      4  N   UNL     1       8.715  -7.477  16.899  1.00  0.00    -0.352 N 
ATOM      5  O   UNL     1       8.220  -6.638  18.930  1.00  0.00    -0.269 OA
ATOM      6  C   UNL     1       8.378  -7.624  18.220  1.00  0.00     0.251 C 
ATOM      7  H   UNL     1       9.019  -6.578  16.636  1.00  0.00     0.163 HD
BRANCH   6   8
ATOM      8  C   UNL     1       8.199  -8.982  18.771  1.00  0.00     0.039 A 
ATOM      9  C   UNL     1       9.134  -9.986  18.497  1.00  0.00     0.014 A 
ATOM     10  C   UNL     1       7.093  -9.246  19.580  1.00  0.00     0.014 A 
ATOM     11  C   UNL     1       8.904 -11.283  18.940  1.00  0.00     0.010 A 
ATOM     12  C   UNL     1       6.906 -10.531  20.089  1.00  0.00     0.010 A 
ATOM     13  C   UNL     1       7.799 -11.564  19.758  1.00  0.00    -0.014 A 
BRANCH  13  14
ATOM     14  C   UNL     1       7.620 -12.923  20.321  1.00  0.00     0.031 A 
ATOM     15  C   UNL     1       6.426 -13.757  19.955  1.00  0.00     0.074 A 
ATOM     16  C   UNL     1       8.535 -13.389  21.193  1.00  0.00     0.049 A 
ATOM     17  N   UNL     1       6.074 -14.933  20.408  1.00  0.00    -0.248 NA
ATOM     18  C   UNL     1       5.501 -13.194  18.959  1.00  0.00     0.031 C 
ATOM     19  C   UNL     1       9.739 -12.668  21.617  1.00  0.00     0.029 A 
ATOM     20  N   UNL     1       8.597 -14.572  21.882  1.00  0.00    -0.354 N 
ATOM     21  C   UNL     1       4.876 -15.241  19.774  1.00  0.00     0.074 A 
ATOM     22  C   UNL     1       4.550 -14.117  18.922  1.00  0.00     0.031 C 
ATOM     23  C   UNL     1      10.428 -13.431  22.476  1.00  0.00     0.029 A 
ATOM     24  C   UNL     1       9.684 -14.662  22.717  1.00  0.00     0.049 A 
ATOM     25  H   UNL     1       7.928 -15.288  21.787  1.00  0.00     0.167 HD
ATOM     26  C   UNL     1       4.119 -16.359  19.896  1.00  0.00     0.031 A 
ATOM     27  C   UNL     1      10.032 -15.611  23.606  1.00  0.00     0.031 A 
ATOM     28  C   UNL     1       4.449 -17.462  20.762  1.00  0.00     0.049 A 
ATOM     29  C   UNL     1       9.154 -16.818  23.760  1.00  0.00     0.074 A 
ATOM     30  C   UNL     1       3.763 -18.651  20.941  1.00  0.00     0.029 A 
ATOM     31  N   UNL     1       5.552 -17.508  21.604  1.00  0.00    -0.354 N 
ATOM     32  N   UNL     1       8.038 -17.107  23.133  1.00  0.00    -0.248 NA
ATOM     33  C   UNL     1       9.582 -17.829  24.733  1.00  0.00     0.031 C 
ATOM     34  C   UNL     1       4.418 -19.388  21.933  1.00  0.00     0.029 A 
ATOM     35  C   UNL     1       5.552 -18.692  22.322  1.00  0.00     0.049 A 
ATOM     36  H   UNL     1       6.234 -16.802  21.679  1.00  0.00     0.167 HD
ATOM     37  C   UNL     1       7.645 -18.349  23.615  1.00  0.00     0.074 A 
ATOM     38  C   UNL     1       8.646 -18.757  24.580  1.00  0.00     0.031 C 
ATOM     39  C   UNL     1       6.557 -19.086  23.280  1.00  0.00     0.031 A 
BRANCH  26  40
ATOM     40  C   UNL     1       2.837 -16.420  19.106  1.00  0.00    -0.014 A 
ATOM     41  C   UNL     1       2.843 -16.529  17.703  1.00  0.00     0.010 A 
ATOM     42  C   UNL     1       1.602 -16.385  19.780  1.00  0.00     0.010 A 
ATOM     43  C   UNL     1       1.641 -16.542  16.988  1.00  0.00     0.020 A 
ATOM     44  C   UNL     1       0.398 -16.429  19.071  1.00  0.00     0.020 A 
ATOM     45  C   UNL     1       0.426 -16.483  17.677  1.00  0.00     0.054 A 
BRANCH  45  46
ATOM     46  S   UNL     1      -1.117 -16.485  16.723  1.00  0.00     0.124 S 
ATOM     47  O   UNL     1      -1.110 -15.146  16.139  1.00  0.00    -0.237 OA
ATOM     48  O   UNL     1      -0.908 -17.580  15.779  1.00  0.00    -0.237 OA
ATOM     49  O   UNL     1      -2.148 -16.721  17.729  1.00  0.00    -0.744 OA
ENDBRANCH  45  46
ENDBRANCH  26  40
BRANCH  27  50
ATOM     50  C   UNL     1      11.266 -15.432  24.417  1.00  0.00    -0.014 A 
ATOM     51  C   UNL     1      12.403 -16.219  24.170  1.00  0.00     0.010 A 
ATOM     52  C   UNL     1      11.329 -14.424  25.398  1.00  0.00     0.010 A 
ATOM     53  C   UNL     1      13.582 -16.001  24.890  1.00  0.00     0.020 A 
ATOM     54  C   UNL     1      12.514 -14.184  26.098  1.00  0.00     0.020 A 
ATOM     55  C   UNL     1      13.632 -14.979  25.843  1.00  0.00     0.054 A 
BRANCH  55  56
ATOM     56  S   UNL     1      15.197 -14.665  26.703  1.00  0.00     0.124 S 
ATOM     57  O   UNL     1      15.290 -15.816  27.595  1.00  0.00    -0.237 OA
ATOM     58  O   UNL     1      16.159 -14.634  25.604  1.00  0.00    -0.237 OA
ATOM     59  O   UNL     1      14.974 -13.379  27.361  1.00  0.00    -0.744 OA
ENDBRANCH  55  56
ENDBRANCH  27  50
BRANCH  39  60
ATOM     60  C   UNL     1       6.411 -20.438  23.925  1.00  0.00    -0.014 A 
ATOM     61  C   UNL     1       6.050 -20.574  25.276  1.00  0.00     0.010 A 
ATOM     62  C   UNL     1       6.571 -21.594  23.137  1.00  0.00     0.010 A 
ATOM     63  C   UNL     1       5.871 -21.844  25.834  1.00  0.00     0.020 A 
ATOM     64  C   UNL     1       6.364 -22.862  23.683  1.00  0.00     0.020 A 
ATOM     65  C   UNL     1       6.025 -22.980  25.031  1.00  0.00     0.054 A 
BRANCH  65  66
ATOM     66  S   UNL     1       5.723 -24.612  25.761  1.00  0.00     0.124 S 
ATOM     67  O   UNL     1       6.896 -24.785  26.615  1.00  0.00    -0.237 OA
ATOM     68  O   UNL     1       4.457 -24.419  26.464  1.00  0.00    -0.237 OA
ATOM     69  O   UNL     1       5.658 -25.503  24.605  1.00  0.00    -0.744 OA
ENDBRANCH  65  66
ENDBRANCH  39  60
ENDBRANCH  13  14
ENDBRANCH   6   8
ENDBRANCH   3   4
ENDBRANCH   2   3
ENDBRANCH   1   2
BRANCH   1  70
ATOM     70  C   UNL     1       9.348  -6.618  13.449  1.00  0.00     0.002 C 
BRANCH  70  71
ATOM     71  C   UNL     1       9.777  -7.786  12.561  1.00  0.00     0.021 C 
BRANCH  71  72
ATOM     72  C   UNL     1       8.800  -8.092  11.427  1.00  0.00     0.116 C 
BRANCH  72  73
ATOM     73  N   UNL     1       8.958  -7.167  10.337  1.00  0.00    -0.356 N 
ATOM     74  C   UNL     1       9.734  -7.301   9.235  1.00  0.00     0.226 C 
ATOM     75  H   UNL     1       8.438  -6.333  10.400  1.00  0.00     0.163 HD
ATOM     76  O   UNL     1      10.440  -6.321   8.973  1.00  0.00    -0.274 OA
BRANCH  74  77
ATOM     77  C   UNL     1       9.812  -8.581   8.369  1.00  0.00     0.061 C 
ATOM     78  C   UNL     1       8.565  -9.496   8.345  1.00  0.00     0.078 C 
ATOM     79  C   UNL     1      11.079  -9.391   8.764  1.00  0.00     0.078 C 
ATOM     80  C   UNL     1       8.516 -10.701   9.288  1.00  0.00     0.261 C 
ATOM     81  C   UNL     1      10.883 -10.452   9.837  1.00  0.00     0.261 C 
ATOM     82  N   UNL     1       9.795 -11.358   9.506  1.00  0.00    -0.346 N 
ATOM     83  H   UNL     1      10.045 -11.860   8.654  1.00  0.00     0.346 HD
ATOM     84  H   UNL     1       9.674 -11.975  10.309  1.00  0.00     0.346 HD
BRANCH  77  85
ATOM     85  C   UNL     1      10.095  -8.076   6.881  1.00  0.00     0.029 C 
BRANCH  85  86
ATOM     86  C   UNL     1       9.154  -7.129   6.091  1.00  0.00     0.062 C 
ATOM     87  C   UNL     1       9.316  -5.619   6.359  1.00  0.00     0.238 C 
ATOM     88  C   UNL     1       7.685  -7.234   6.263  1.00  0.00     0.001 A 
ATOM     89  O   UNL     1       8.166  -5.128   7.087  1.00  0.00    -0.493 OA
ATOM     90  C   UNL     1       7.203  -6.071   6.845  1.00  0.00     0.122 A 
ATOM     91  C   UNL     1       6.817  -8.255   5.915  1.00  0.00     0.008 A 
ATOM     92  C   UNL     1       5.867  -5.898   7.145  1.00  0.00     0.047 A 
ATOM     93  C   UNL     1       5.461  -8.109   6.222  1.00  0.00     0.001 A 
ATOM     94  C   UNL     1       4.988  -6.937   6.835  1.00  0.00     0.004 A 
ENDBRANCH  85  86
ENDBRANCH  77  85
ENDBRANCH  74  77
ENDBRANCH  72  73
ENDBRANCH  71  72
ENDBRANCH  70  71
ENDBRANCH   1  70
TORSDOF 18
