REMARK SMILES O=C(NCCCCCCNC(=O)[C@H]1CC2(CCN(C(=O)C3CC3)CC2)CN1C(=O)CCn1cccn1)c1ccc(-c2c3nc(c(-c4ccc(S(=O)(=O)[O-])cc4)c4ccc([nH]4)c(-c4ccc(S(=O)(=O)[O-])cc4)c4nc(c(-c5ccc(S(=O)(=O)[O-])cc5)c5ccc2[nH]5)C=C4)C=C3)cc1
REMARK SMILES IDX 7 1 6 2 5 3 4 4 3 5 1 6 2 7 37 9 38 10 96 11 39 12 95 13
REMARK SMILES IDX 40 14 41 15 42 16 89 17 43 18 94 19 88 20 90 21 44 22 93 23
REMARK SMILES IDX 87 24 86 25 45 27 75 28 56 29 74 30 57 31 60 32 73 33 91 34
REMARK SMILES IDX 58 35 59 36 72 38 92 39 61 40 46 41 47 42 55 43 48 44 54 45
REMARK SMILES IDX 49 46 50 47 51 48 52 49 53 50 76 51 77 52 85 53 78 54 84 55
REMARK SMILES IDX 79 56 80 57 81 58 82 59 83 60 62 61 63 62 71 63 64 64 70 65
REMARK SMILES IDX 65 66 66 67 67 68 68 69 69 70 8 71 9 72 10 73 11 74 12 76
REMARK SMILES IDX 13 77 14 78 27 79 15 80 26 81 16 82 25 83 17 84 24 85 18 86
REMARK SMILES IDX 19 87 20 88 28 89 29 90 30 91 31 92 32 93 33 94 36 95 34 96
REMARK SMILES IDX 35 97 21 98 22 99 23 100
REMARK H PARENT 3 8 90 26 60 37 10 75
REMARK Flexibility Score: inf
ROOT
ATOM      1  C   UNL     1      13.973  -3.783  -8.955  1.00  0.00     0.002 C 
ENDROOT
BRANCH   1   2
ATOM      2  C   UNL     1      14.729  -2.662  -8.230  1.00  0.00     0.002 C 
BRANCH   2   3
ATOM      3  C   UNL     1      15.705  -3.122  -7.134  1.00  0.00     0.021 C 
BRANCH   3   4
ATOM      4  C   UNL     1      16.598  -4.291  -7.541  1.00  0.00     0.116 C 
BRANCH   4   5
ATOM      5  N   UNL     1      17.301  -4.060  -8.771  1.00  0.00    -0.352 N 
ATOM      6  O   UNL     1      18.799  -3.451 -10.262  1.00  0.00    -0.269 OA
ATOM      7  C   UNL     1      18.464  -3.431  -9.076  1.00  0.00     0.251 C 
ATOM      8  H   UNL     1      16.844  -4.436  -9.558  1.00  0.00     0.163 HD
BRANCH   7   9
ATOM      9  C   UNL     1      19.259  -2.654  -8.096  1.00  0.00     0.039 A 
ATOM     10  C   UNL     1      19.101  -2.653  -6.706  1.00  0.00     0.014 A 
ATOM     11  C   UNL     1      20.203  -1.796  -8.676  1.00  0.00     0.014 A 
ATOM     12  C   UNL     1      19.724  -1.686  -5.934  1.00  0.00     0.010 A 
ATOM     13  C   UNL     1      20.866  -0.865  -7.907  1.00  0.00     0.010 A 
ATOM     14  C   UNL     1      20.558  -0.761  -6.557  1.00  0.00    -0.014 A 
BRANCH  14  15
ATOM     15  C   UNL     1      21.302   0.183  -5.744  1.00  0.00     0.031 A 
ATOM     16  C   UNL     1      22.289  -0.505  -4.864  1.00  0.00     0.074 A 
ATOM     17  C   UNL     1      21.207   1.516  -5.941  1.00  0.00     0.049 A 
ATOM     18  N   UNL     1      22.274  -0.580  -3.574  1.00  0.00    -0.248 NA
ATOM     19  C   UNL     1      23.278  -1.408  -5.492  1.00  0.00     0.031 C 
ATOM     20  C   UNL     1      20.421   2.244  -6.943  1.00  0.00     0.029 A 
ATOM     21  N   UNL     1      21.888   2.522  -5.336  1.00  0.00    -0.354 N 
ATOM     22  C   UNL     1      23.410  -1.307  -3.226  1.00  0.00     0.074 A 
ATOM     23  C   UNL     1      23.851  -1.966  -4.425  1.00  0.00     0.031 C 
ATOM     24  C   UNL     1      20.878   3.516  -7.044  1.00  0.00     0.029 A 
ATOM     25  C   UNL     1      21.885   3.737  -6.021  1.00  0.00     0.049 A 
ATOM     26  H   UNL     1      22.352   2.403  -4.476  1.00  0.00     0.167 HD
ATOM     27  C   UNL     1      24.067  -1.062  -2.059  1.00  0.00     0.031 A 
ATOM     28  C   UNL     1      22.686   4.815  -5.778  1.00  0.00     0.031 A 
ATOM     29  C   UNL     1      23.244  -0.312  -1.145  1.00  0.00     0.049 A 
ATOM     30  C   UNL     1      23.200   4.649  -4.392  1.00  0.00     0.074 A 
ATOM     31  C   UNL     1      22.042  -0.538  -0.506  1.00  0.00     0.029 A 
ATOM     32  N   UNL     1      23.440   1.049  -1.123  1.00  0.00    -0.354 N 
ATOM     33  N   UNL     1      22.415   4.674  -3.349  1.00  0.00    -0.248 NA
ATOM     34  C   UNL     1      24.443   3.909  -4.226  1.00  0.00     0.031 C 
ATOM     35  C   UNL     1      21.355   0.709  -0.573  1.00  0.00     0.029 A 
ATOM     36  C   UNL     1      22.209   1.652  -1.151  1.00  0.00     0.049 A 
ATOM     37  H   UNL     1      24.310   1.509  -1.091  1.00  0.00     0.167 HD
ATOM     38  C   UNL     1      22.834   3.608  -2.565  1.00  0.00     0.074 A 
ATOM     39  C   UNL     1      24.120   3.198  -3.140  1.00  0.00     0.031 C 
ATOM     40  C   UNL     1      21.970   2.955  -1.731  1.00  0.00     0.031 A 
BRANCH  27  41
ATOM     41  C   UNL     1      25.573  -1.071  -1.942  1.00  0.00    -0.014 A 
ATOM     42  C   UNL     1      26.148  -0.777  -0.690  1.00  0.00     0.010 A 
ATOM     43  C   UNL     1      26.435  -1.054  -3.061  1.00  0.00     0.010 A 
ATOM     44  C   UNL     1      27.492  -0.401  -0.577  1.00  0.00     0.020 A 
ATOM     45  C   UNL     1      27.786  -0.718  -2.953  1.00  0.00     0.020 A 
ATOM     46  C   UNL     1      28.299  -0.361  -1.714  1.00  0.00     0.054 A 
BRANCH  46  47
ATOM     47  S   UNL     1      30.007   0.214  -1.564  1.00  0.00     0.124 S 
ATOM     48  O   UNL     1      29.823   1.603  -1.156  1.00  0.00    -0.237 OA
ATOM     49  O   UNL     1      30.541  -0.683  -0.543  1.00  0.00    -0.237 OA
ATOM     50  O   UNL     1      30.552   0.020  -2.906  1.00  0.00    -0.744 OA
ENDBRANCH  46  47
ENDBRANCH  27  41
BRANCH  28  51
ATOM     51  C   UNL     1      23.366   5.692  -6.781  1.00  0.00    -0.014 A 
ATOM     52  C   UNL     1      24.012   6.896  -6.419  1.00  0.00     0.010 A 
ATOM     53  C   UNL     1      23.633   5.189  -8.070  1.00  0.00     0.010 A 
ATOM     54  C   UNL     1      24.918   7.537  -7.295  1.00  0.00     0.020 A 
ATOM     55  C   UNL     1      24.533   5.818  -8.944  1.00  0.00     0.020 A 
ATOM     56  C   UNL     1      25.188   6.980  -8.548  1.00  0.00     0.054 A 
BRANCH  56  57
ATOM     57  S   UNL     1      26.477   7.705  -9.615  1.00  0.00     0.124 S 
ATOM     58  O   UNL     1      25.874   8.971 -10.021  1.00  0.00    -0.237 OA
ATOM     59  O   UNL     1      27.619   7.810  -8.713  1.00  0.00    -0.237 OA
ATOM     60  O   UNL     1      26.628   6.722 -10.687  1.00  0.00    -0.744 OA
ENDBRANCH  56  57
ENDBRANCH  28  51
BRANCH  40  61
ATOM     61  C   UNL     1      20.587   3.536  -1.523  1.00  0.00    -0.014 A 
ATOM     62  C   UNL     1      19.602   3.643  -2.529  1.00  0.00     0.010 A 
ATOM     63  C   UNL     1      20.223   3.837  -0.201  1.00  0.00     0.010 A 
ATOM     64  C   UNL     1      18.298   4.066  -2.215  1.00  0.00     0.020 A 
ATOM     65  C   UNL     1      18.926   4.240   0.120  1.00  0.00     0.020 A 
ATOM     66  C   UNL     1      17.971   4.366  -0.888  1.00  0.00     0.054 A 
BRANCH  66  67
ATOM     67  S   UNL     1      16.284   4.891  -0.470  1.00  0.00     0.124 S 
ATOM     68  O   UNL     1      16.188   6.197  -1.117  1.00  0.00    -0.237 OA
ATOM     69  O   UNL     1      15.460   3.836  -1.056  1.00  0.00    -0.237 OA
ATOM     70  O   UNL     1      16.283   4.925   0.992  1.00  0.00    -0.744 OA
ENDBRANCH  66  67
ENDBRANCH  40  61
ENDBRANCH  14  15
ENDBRANCH   7   9
ENDBRANCH   4   5
ENDBRANCH   3   4
ENDBRANCH   2   3
ENDBRANCH   1   2
BRANCH   1  71
ATOM     71  C   UNL     1      13.393  -4.845  -8.040  1.00  0.00     0.021 C 
BRANCH  71  72
ATOM     72  C   UNL     1      12.602  -4.247  -6.903  1.00  0.00     0.116 C 
BRANCH  72  73
ATOM     73  N   UNL     1      11.137  -3.850  -7.430  1.00  0.00    -0.354 N 
ATOM     74  C   UNL     1       9.165  -4.038  -6.952  1.00  0.00     0.242 C 
ATOM     75  H   UNL     1      11.220  -3.343  -8.270  1.00  0.00     0.163 HD
ATOM     76  O   UNL     1       8.095  -3.873  -7.659  1.00  0.00    -0.273 OA
BRANCH  74  77
ATOM     77  C   UNL     1       8.462  -4.523  -5.333  1.00  0.00     0.175 C 
ATOM     78  C   UNL     1       8.453  -6.059  -5.104  1.00  0.00     0.044 C 
ATOM     79  N   UNL     1       8.770  -3.968  -3.994  1.00  0.00    -0.330 N 
ATOM     80  C   UNL     1       8.747  -6.337  -3.612  1.00  0.00    -0.006 C 
ATOM     81  C   UNL     1       8.540  -4.968  -2.951  1.00  0.00     0.127 C 
ATOM     82  C   UNL     1      10.179  -6.825  -3.256  1.00  0.00     0.030 C 
ATOM     83  C   UNL     1       7.793  -7.465  -3.184  1.00  0.00     0.030 C 
ATOM     84  C   UNL     1      10.559  -8.185  -3.833  1.00  0.00     0.120 C 
ATOM     85  C   UNL     1       8.173  -8.777  -3.900  1.00  0.00     0.120 C 
ATOM     86  N   UNL     1       9.539  -9.194  -3.570  1.00  0.00    -0.342 N 
ATOM     87  C   UNL     1       9.729 -10.536  -3.229  1.00  0.00     0.225 C 
ATOM     88  O   UNL     1       8.789 -11.331  -3.282  1.00  0.00    -0.275 OA
BRANCH  79  89
ATOM     89  C   UNL     1       8.945  -2.646  -3.636  1.00  0.00     0.225 C 
ATOM     90  O   UNL     1       9.160  -2.327  -2.465  1.00  0.00    -0.275 OA
BRANCH  89  91
ATOM     91  C   UNL     1       8.929  -1.570  -4.705  1.00  0.00     0.124 C 
BRANCH  91  92
ATOM     92  C   UNL     1      10.216  -1.524  -5.496  1.00  0.00     0.154 C 
BRANCH  92  93
ATOM     93  N   UNL     1      10.310  -2.686  -6.344  1.00  0.00    -0.272 N 
ATOM     94  C   UNL     1      10.624  -4.447  -5.754  1.00  0.00     0.108 A 
ATOM     95  N   UNL     1       9.899  -2.708  -8.184  1.00  0.00    -0.182 NA
ATOM     96  C   UNL     1      10.367  -5.548  -7.190  1.00  0.00     0.042 A 
ATOM     97  C   UNL     1       9.925  -4.399  -8.716  1.00  0.00     0.135 A 
ENDBRANCH  92  93
ENDBRANCH  91  92
ENDBRANCH  89  91
ENDBRANCH  79  89
BRANCH  87  98
ATOM     98  C   UNL     1      11.009 -11.117  -2.719  1.00  0.00     0.079 C 
ATOM     99  C   UNL     1      12.433 -10.759  -3.021  1.00  0.00     0.014 C 
ATOM    100  C   UNL     1      11.840 -10.408  -1.680  1.00  0.00     0.014 C 
ENDBRANCH  87  98
ENDBRANCH  74  77
ENDBRANCH  72  73
ENDBRANCH  71  72
ENDBRANCH   1  71
TORSDOF 21
