REMARK SMILES CCc1n[nH]c2cc(CCC(=O)NCCCCCCNC(=O)c3ccc(-c4c5nc(c(-c6ccc(S(=O)(=O)[O-])cc6)c6ccc([nH]6)c(-c6ccc(S(=O)(=O)[O-])cc6)c6nc(c(-c7ccc(S(=O)(=O)[O-])cc7)c7ccc4[nH]7)C=C6)C=C5)cc3)ccc12
REMARK SMILES IDX 16 1 15 2 14 3 13 4 11 5 12 6 10 8 9 9 8 10 3 11 4 12 85 13
REMARK SMILES IDX 5 14 6 15 84 16 7 18 83 19 2 20 1 21 17 22 18 23 19 24 20 25
REMARK SMILES IDX 21 26 22 28 23 29 24 30 82 31 25 32 81 33 26 34 27 35 28 36
REMARK SMILES IDX 75 37 29 38 80 39 74 40 76 41 30 42 79 43 73 44 72 45 31 47
REMARK SMILES IDX 61 48 42 49 60 50 43 51 46 52 59 53 77 54 44 55 45 56 58 58
REMARK SMILES IDX 78 59 47 60 32 61 33 62 41 63 34 64 40 65 35 66 36 67 37 68
REMARK SMILES IDX 38 69 39 70 62 71 63 72 71 73 64 74 70 75 65 76 66 77 67 78
REMARK SMILES IDX 68 79 69 80 48 81 49 82 57 83 50 84 56 85 51 86 52 87 53 88
REMARK SMILES IDX 54 89 55 90
REMARK H PARENT 13 7 5 17 20 27 76 46 46 57
REMARK Flexibility Score: inf
ROOT
ATOM      1  C   UNL     1       2.224   3.449   4.338  1.00  0.00     0.002 C 
ENDROOT
BRANCH   1   2
ATOM      2  C   UNL     1       2.548   2.050   4.863  1.00  0.00     0.021 C 
BRANCH   2   3
ATOM      3  C   UNL     1       4.000   1.796   5.267  1.00  0.00     0.116 C 
BRANCH   3   4
ATOM      4  N   UNL     1       4.178   2.066   6.685  1.00  0.00    -0.356 N 
ATOM      5  C   UNL     1       4.195   1.203   7.740  1.00  0.00     0.220 C 
ATOM      6  O   UNL     1       4.089   1.672   8.877  1.00  0.00    -0.275 OA
ATOM      7  H   UNL     1       4.305   3.015   6.918  1.00  0.00     0.163 HD
BRANCH   5   8
ATOM      8  C   UNL     1       4.389  -0.288   7.536  1.00  0.00     0.105 C 
BRANCH   8   9
ATOM      9  C   UNL     1       3.101  -1.103   7.694  1.00  0.00     0.045 C 
BRANCH   9  10
ATOM     10  C   UNL     1       2.367  -1.312   6.388  1.00  0.00    -0.045 A 
ATOM     11  C   UNL     1       0.433  -1.183   2.674  1.00  0.00     0.070 A 
ATOM     12  N   UNL     1      -0.552  -0.312   2.942  1.00  0.00    -0.180 NA
ATOM     13  C   UNL     1       1.215  -1.461   3.830  1.00  0.00     0.023 A 
ATOM     14  N   UNL     1      -0.427  -0.079   4.259  1.00  0.00    -0.278 N 
ATOM     15  C   UNL     1       0.637  -0.710   4.845  1.00  0.00     0.066 A 
ATOM     16  C   UNL     1       2.347  -2.238   4.123  1.00  0.00     0.012 A 
ATOM     17  H   UNL     1      -1.049   0.497   4.761  1.00  0.00     0.190 HD
ATOM     18  C   UNL     1       1.162  -0.636   6.141  1.00  0.00     0.032 A 
ATOM     19  C   UNL     1       2.917  -2.145   5.401  1.00  0.00     0.004 A 
BRANCH  11  20
ATOM     20  C   UNL     1       0.610  -1.729   1.294  1.00  0.00     0.055 C 
ATOM     21  C   UNL     1       1.587  -0.935   0.438  1.00  0.00     0.011 C 
ENDBRANCH  11  20
ENDBRANCH   9  10
ENDBRANCH   8   9
ENDBRANCH   5   8
ENDBRANCH   3   4
ENDBRANCH   2   3
ENDBRANCH   1   2
BRANCH   1  22
ATOM     22  C   UNL     1       2.611   3.709   2.875  1.00  0.00     0.002 C 
BRANCH  22  23
ATOM     23  C   UNL     1       2.052   2.727   1.832  1.00  0.00     0.021 C 
BRANCH  23  24
ATOM     24  C   UNL     1       0.526   2.648   1.744  1.00  0.00     0.116 C 
BRANCH  24  25
ATOM     25  N   UNL     1      -0.055   3.709   0.941  1.00  0.00    -0.352 N 
ATOM     26  C   UNL     1      -0.623   3.679  -0.313  1.00  0.00     0.251 C 
ATOM     27  H   UNL     1      -0.040   4.599   1.363  1.00  0.00     0.163 HD
ATOM     28  O   UNL     1      -0.948   4.743  -0.837  1.00  0.00    -0.269 OA
BRANCH  26  29
ATOM     29  C   UNL     1      -0.816   2.414  -1.073  1.00  0.00     0.039 A 
ATOM     30  C   UNL     1      -0.485   2.408  -2.434  1.00  0.00     0.014 A 
ATOM     31  C   UNL     1      -1.376   1.264  -0.512  1.00  0.00     0.014 A 
ATOM     32  C   UNL     1      -0.646   1.247  -3.204  1.00  0.00     0.010 A 
ATOM     33  C   UNL     1      -1.485   0.088  -1.272  1.00  0.00     0.010 A 
ATOM     34  C   UNL     1      -1.109   0.055  -2.625  1.00  0.00    -0.014 A 
BRANCH  34  35
ATOM     35  C   UNL     1      -1.184  -1.213  -3.416  1.00  0.00     0.031 A 
ATOM     36  C   UNL     1      -2.502  -1.919  -3.634  1.00  0.00     0.074 A 
ATOM     37  C   UNL     1      -0.060  -1.768  -3.921  1.00  0.00     0.049 A 
ATOM     38  N   UNL     1      -2.742  -3.045  -4.262  1.00  0.00    -0.248 NA
ATOM     39  C   UNL     1      -3.701  -1.287  -3.063  1.00  0.00     0.031 C 
ATOM     40  C   UNL     1       1.291  -1.221  -3.783  1.00  0.00     0.029 A 
ATOM     41  N   UNL     1       0.128  -2.920  -4.652  1.00  0.00    -0.354 N 
ATOM     42  C   UNL     1      -4.112  -3.263  -4.150  1.00  0.00     0.074 A 
ATOM     43  C   UNL     1      -4.641  -2.175  -3.354  1.00  0.00     0.031 C 
ATOM     44  C   UNL     1       2.159  -2.017  -4.428  1.00  0.00     0.029 A 
ATOM     45  C   UNL     1       1.442  -3.160  -4.987  1.00  0.00     0.049 A 
ATOM     46  H   UNL     1      -0.611  -3.517  -4.912  1.00  0.00     0.167 HD
ATOM     47  C   UNL     1      -4.868  -4.261  -4.671  1.00  0.00     0.031 A 
ATOM     48  C   UNL     1       2.017  -4.181  -5.655  1.00  0.00     0.031 A 
ATOM     49  C   UNL     1      -4.355  -5.345  -5.470  1.00  0.00     0.049 A 
ATOM     50  C   UNL     1       1.163  -5.301  -6.192  1.00  0.00     0.074 A 
ATOM     51  C   UNL     1      -5.060  -6.373  -6.075  1.00  0.00     0.029 A 
ATOM     52  N   UNL     1      -3.018  -5.550  -5.772  1.00  0.00    -0.354 N 
ATOM     53  N   UNL     1      -0.137  -5.453  -6.118  1.00  0.00    -0.248 NA
ATOM     54  C   UNL     1       1.854  -6.381  -6.913  1.00  0.00     0.031 C 
ATOM     55  C   UNL     1      -4.145  -7.233  -6.689  1.00  0.00     0.029 A 
ATOM     56  C   UNL     1      -2.876  -6.701  -6.531  1.00  0.00     0.049 A 
ATOM     57  H   UNL     1      -2.279  -4.965  -5.489  1.00  0.00     0.167 HD
ATOM     58  C   UNL     1      -0.421  -6.623  -6.817  1.00  0.00     0.074 A 
ATOM     59  C   UNL     1       0.839  -7.137  -7.309  1.00  0.00     0.031 C 
ATOM     60  C   UNL     1      -1.624  -7.209  -7.035  1.00  0.00     0.031 A 
BRANCH  47  61
ATOM     61  C   UNL     1      -6.349  -4.240  -4.384  1.00  0.00    -0.014 A 
ATOM     62  C   UNL     1      -7.188  -3.263  -4.950  1.00  0.00     0.010 A 
ATOM     63  C   UNL     1      -6.920  -5.246  -3.581  1.00  0.00     0.010 A 
ATOM     64  C   UNL     1      -8.560  -3.264  -4.681  1.00  0.00     0.020 A 
ATOM     65  C   UNL     1      -8.296  -5.270  -3.336  1.00  0.00     0.020 A 
ATOM     66  C   UNL     1      -9.105  -4.267  -3.873  1.00  0.00     0.054 A 
BRANCH  66  67
ATOM     67  S   UNL     1     -10.890  -4.251  -3.554  1.00  0.00     0.124 S 
ATOM     68  O   UNL     1     -11.027  -3.102  -2.662  1.00  0.00    -0.237 OA
ATOM     69  O   UNL     1     -11.453  -4.078  -4.891  1.00  0.00    -0.237 OA
ATOM     70  O   UNL     1     -11.146  -5.550  -2.937  1.00  0.00    -0.744 OA
ENDBRANCH  66  67
ENDBRANCH  47  61
BRANCH  48  71
ATOM     71  C   UNL     1       3.494  -4.199  -5.861  1.00  0.00    -0.014 A 
ATOM     72  C   UNL     1       4.044  -4.032  -7.144  1.00  0.00     0.010 A 
ATOM     73  C   UNL     1       4.361  -4.389  -4.768  1.00  0.00     0.010 A 
ATOM     74  C   UNL     1       5.429  -4.074  -7.335  1.00  0.00     0.020 A 
ATOM     75  C   UNL     1       5.747  -4.400  -4.950  1.00  0.00     0.020 A 
ATOM     76  C   UNL     1       6.272  -4.255  -6.235  1.00  0.00     0.054 A 
BRANCH  76  77
ATOM     77  S   UNL     1       8.067  -4.258  -6.498  1.00  0.00     0.124 S 
ATOM     78  O   UNL     1       8.274  -5.538  -7.167  1.00  0.00    -0.237 OA
ATOM     79  O   UNL     1       8.266  -3.071  -7.326  1.00  0.00    -0.237 OA
ATOM     80  O   UNL     1       8.611  -4.163  -5.145  1.00  0.00    -0.744 OA
ENDBRANCH  76  77
ENDBRANCH  48  71
BRANCH  60  81
ATOM     81  C   UNL     1      -1.665  -8.449  -7.893  1.00  0.00    -0.014 A 
ATOM     82  C   UNL     1      -1.173  -9.683  -7.433  1.00  0.00     0.010 A 
ATOM     83  C   UNL     1      -2.281  -8.389  -9.158  1.00  0.00     0.010 A 
ATOM     84  C   UNL     1      -1.281 -10.829  -8.229  1.00  0.00     0.020 A 
ATOM     85  C   UNL     1      -2.417  -9.537  -9.944  1.00  0.00     0.020 A 
ATOM     86  C   UNL     1      -1.907 -10.749  -9.478  1.00  0.00     0.054 A 
BRANCH  86  87
ATOM     87  S   UNL     1      -2.094 -12.263 -10.461  1.00  0.00     0.124 S 
ATOM     88  O   UNL     1      -0.723 -12.515 -10.897  1.00  0.00    -0.237 OA
ATOM     89  O   UNL     1      -2.628 -13.213  -9.488  1.00  0.00    -0.237 OA
ATOM     90  O   UNL     1      -3.022 -11.877 -11.521  1.00  0.00    -0.744 OA
ENDBRANCH  86  87
ENDBRANCH  60  81
ENDBRANCH  34  35
ENDBRANCH  26  29
ENDBRANCH  24  25
ENDBRANCH  23  24
ENDBRANCH  22  23
ENDBRANCH   1  22
TORSDOF 19
