REMARK SMILES O=C(Cn1cc(/C=C2\SC(N3CCOCC3)=[NH+]C2=O)c2ccccc21)NCCCCCCNC(=O)c1ccc(-c2c3nc(c(-c4ccc(S(=O)(=O)[O-])cc4)c4ccc([nH]4)c(-c4ccc(S(=O)(=O)[O-])cc4)c4nc(c(-c5ccc(S(=O)(=O)[O-])cc5)c5ccc2[nH]5)C=C4)C=C3)cc1
REMARK SMILES IDX 30 1 29 2 28 3 27 4 26 5 1 6 2 7 3 9 4 10 5 11 25 12 6 13
REMARK SMILES IDX 20 14 24 15 21 16 23 17 22 18 7 19 8 20 9 21 18 22 10 23
REMARK SMILES IDX 17 24 19 25 11 26 12 28 16 29 13 30 15 31 14 32 31 33 32 34
REMARK SMILES IDX 33 35 34 36 35 38 36 39 37 40 95 41 38 42 94 43 39 44 40 45
REMARK SMILES IDX 41 46 88 47 42 48 93 49 87 50 89 51 43 52 92 53 86 54 85 55
REMARK SMILES IDX 44 57 74 58 55 59 73 60 56 61 59 62 72 63 90 64 57 65 58 66
REMARK SMILES IDX 71 68 91 69 60 70 45 71 46 72 54 73 47 74 53 75 48 76 49 77
REMARK SMILES IDX 50 78 51 79 52 80 75 81 76 82 84 83 77 84 83 85 78 86 79 87
REMARK SMILES IDX 80 88 81 89 82 90 61 91 62 92 70 93 63 94 69 95 64 96 65 97
REMARK SMILES IDX 66 98 67 99 68 100
REMARK H PARENT 26 8 17 27 33 37 89 56 59 67
REMARK Flexibility Score: inf
ROOT
ATOM      1  C   UNL     1       4.412   3.119   3.358  1.00  0.00     0.002 C 
ENDROOT
BRANCH   1   2
ATOM      2  C   UNL     1       3.984   1.664   3.561  1.00  0.00     0.002 C 
BRANCH   2   3
ATOM      3  C   UNL     1       2.511   1.365   3.271  1.00  0.00     0.021 C 
BRANCH   3   4
ATOM      4  C   UNL     1       2.088   1.604   1.823  1.00  0.00     0.116 C 
BRANCH   4   5
ATOM      5  N   UNL     1       2.792   0.732   0.902  1.00  0.00    -0.355 N 
ATOM      6  O   UNL     1       0.945  -0.434   0.193  1.00  0.00    -0.273 OA
ATOM      7  C   UNL     1       2.146  -0.187   0.100  1.00  0.00     0.239 C 
ATOM      8  H   UNL     1       3.773   0.799   0.846  1.00  0.00     0.163 HD
BRANCH   7   9
ATOM      9  C   UNL     1       3.038  -0.947  -0.863  1.00  0.00     0.222 C 
BRANCH   9  10
ATOM     10  N   UNL     1       3.764  -0.137  -1.839  1.00  0.00    -0.337 N 
ATOM     11  C   UNL     1       3.646   1.213  -2.035  1.00  0.00     0.095 A 
ATOM     12  C   UNL     1       4.707  -0.653  -2.717  1.00  0.00     0.049 A 
ATOM     13  C   UNL     1       4.594   1.595  -2.955  1.00  0.00     0.001 A 
ATOM     14  C   UNL     1       5.232   0.424  -3.441  1.00  0.00     0.007 A 
ATOM     15  C   UNL     1       5.144  -1.972  -2.932  1.00  0.00     0.027 A 
ATOM     16  C   UNL     1       6.220   0.175  -4.415  1.00  0.00     0.011 A 
ATOM     17  C   UNL     1       6.121  -2.191  -3.908  1.00  0.00     0.002 A 
ATOM     18  C   UNL     1       6.650  -1.135  -4.643  1.00  0.00     0.001 A 
BRANCH  13  19
ATOM     19  C   UNL     1       4.820   2.947  -3.340  1.00  0.00     0.034 C 
ATOM     20  C   UNL     1       5.310   3.914  -2.551  1.00  0.00     0.110 C 
ATOM     21  S   UNL     1       5.879   3.787  -0.936  1.00  0.00     0.006 SA
ATOM     22  C   UNL     1       5.436   5.326  -3.014  1.00  0.00     0.346 C 
ATOM     23  C   UNL     1       6.118   5.530  -0.898  1.00  0.00     0.319 C 
ATOM     24  N   UNL     1       5.832   6.155  -1.988  1.00  0.00    -0.200 N 
ATOM     25  O   UNL     1       5.222   5.658  -4.166  1.00  0.00    -0.240 OA
ATOM     26  N   UNL     1       6.516   6.091   0.281  1.00  0.00    -0.251 N 
ATOM     27  H   UNL     1       5.891   7.133  -2.080  1.00  0.00     0.316 HD
ATOM     28  C   UNL     1       7.698   5.670   1.033  1.00  0.00     0.265 C 
ATOM     29  C   UNL     1       5.954   7.361   0.761  1.00  0.00     0.265 C 
ATOM     30  C   UNL     1       7.341   5.568   2.518  1.00  0.00     0.206 C 
ATOM     31  C   UNL     1       5.627   7.193   2.255  1.00  0.00     0.206 C 
ATOM     32  O   UNL     1       6.781   6.790   3.019  1.00  0.00    -0.373 OA
ENDBRANCH  13  19
ENDBRANCH   9  10
ENDBRANCH   7   9
ENDBRANCH   4   5
ENDBRANCH   3   4
ENDBRANCH   2   3
ENDBRANCH   1   2
BRANCH   1  33
ATOM     33  C   UNL     1       3.700   4.160   4.233  1.00  0.00     0.021 C 
BRANCH  33  34
ATOM     34  C   UNL     1       3.868   3.962   5.738  1.00  0.00     0.116 C 
BRANCH  34  35
ATOM     35  N   UNL     1       5.252   3.862   6.154  1.00  0.00    -0.352 N 
ATOM     36  C   UNL     1       6.211   4.738   6.577  1.00  0.00     0.251 C 
ATOM     37  H   UNL     1       5.582   2.936   6.125  1.00  0.00     0.163 HD
ATOM     38  O   UNL     1       7.261   4.215   6.965  1.00  0.00    -0.269 OA
BRANCH  36  39
ATOM     39  C   UNL     1       6.116   6.225   6.561  1.00  0.00     0.039 A 
ATOM     40  C   UNL     1       5.033   6.979   6.109  1.00  0.00     0.014 A 
ATOM     41  C   UNL     1       7.278   6.907   6.977  1.00  0.00     0.014 A 
ATOM     42  C   UNL     1       5.148   8.365   5.976  1.00  0.00     0.010 A 
ATOM     43  C   UNL     1       7.395   8.286   6.853  1.00  0.00     0.010 A 
ATOM     44  C   UNL     1       6.348   9.010   6.296  1.00  0.00    -0.014 A 
BRANCH  44  45
ATOM     45  C   UNL     1       6.443  10.459   6.120  1.00  0.00     0.031 A 
ATOM     46  C   UNL     1       5.505  11.257   6.959  1.00  0.00     0.074 A 
ATOM     47  C   UNL     1       7.385  11.065   5.364  1.00  0.00     0.049 A 
ATOM     48  N   UNL     1       4.560  12.048   6.569  1.00  0.00    -0.248 NA
ATOM     49  C   UNL     1       5.558  11.061   8.416  1.00  0.00     0.031 C 
ATOM     50  C   UNL     1       8.545  10.455   4.705  1.00  0.00     0.029 A 
ATOM     51  N   UNL     1       7.561  12.395   5.111  1.00  0.00    -0.354 N 
ATOM     52  C   UNL     1       4.011  12.596   7.728  1.00  0.00     0.074 A 
ATOM     53  C   UNL     1       4.565  11.848   8.828  1.00  0.00     0.031 C 
ATOM     54  C   UNL     1       9.417  11.424   4.340  1.00  0.00     0.029 A 
ATOM     55  C   UNL     1       8.809  12.720   4.588  1.00  0.00     0.049 A 
ATOM     56  H   UNL     1       6.862  13.067   5.283  1.00  0.00     0.167 HD
ATOM     57  C   UNL     1       3.287  13.750   7.713  1.00  0.00     0.031 A 
ATOM     58  C   UNL     1       9.322  13.966   4.412  1.00  0.00     0.031 A 
ATOM     59  C   UNL     1       2.830  14.078   6.391  1.00  0.00     0.049 A 
ATOM     60  C   UNL     1       8.180  14.908   4.374  1.00  0.00     0.074 A 
ATOM     61  C   UNL     1       1.991  13.473   5.478  1.00  0.00     0.029 A 
ATOM     62  N   UNL     1       3.553  15.010   5.686  1.00  0.00    -0.354 N 
ATOM     63  N   UNL     1       7.281  14.918   3.431  1.00  0.00    -0.248 NA
ATOM     64  C   UNL     1       7.801  15.570   5.611  1.00  0.00     0.031 C 
ATOM     65  C   UNL     1       2.588  13.726   4.210  1.00  0.00     0.029 A 
ATOM     66  C   UNL     1       3.713  14.530   4.412  1.00  0.00     0.049 A 
ATOM     67  H   UNL     1       3.893  15.866   6.033  1.00  0.00     0.167 HD
ATOM     68  C   UNL     1       6.090  15.192   4.085  1.00  0.00     0.074 A 
ATOM     69  C   UNL     1       6.487  15.681   5.404  1.00  0.00     0.031 C 
ATOM     70  C   UNL     1       4.896  14.744   3.600  1.00  0.00     0.031 A 
BRANCH  57  71
ATOM     71  C   UNL     1       3.275  14.752   8.843  1.00  0.00    -0.014 A 
ATOM     72  C   UNL     1       4.201  14.722   9.906  1.00  0.00     0.010 A 
ATOM     73  C   UNL     1       2.480  15.913   8.730  1.00  0.00     0.010 A 
ATOM     74  C   UNL     1       4.326  15.774  10.815  1.00  0.00     0.020 A 
ATOM     75  C   UNL     1       2.628  16.996   9.611  1.00  0.00     0.020 A 
ATOM     76  C   UNL     1       3.548  16.913  10.653  1.00  0.00     0.054 A 
BRANCH  76  77
ATOM     77  S   UNL     1       3.822  18.297  11.787  1.00  0.00     0.124 S 
ATOM     78  O   UNL     1       3.314  17.756  13.045  1.00  0.00    -0.237 OA
ATOM     79  O   UNL     1       5.269  18.477  11.716  1.00  0.00    -0.237 OA
ATOM     80  O   UNL     1       3.030  19.378  11.206  1.00  0.00    -0.744 OA
ENDBRANCH  76  77
ENDBRANCH  57  71
BRANCH  58  81
ATOM     81  C   UNL     1      10.701  14.432   4.720  1.00  0.00    -0.014 A 
ATOM     82  C   UNL     1      11.452  13.775   5.715  1.00  0.00     0.010 A 
ATOM     83  C   UNL     1      11.144  15.703   4.296  1.00  0.00     0.010 A 
ATOM     84  C   UNL     1      12.547  14.395   6.329  1.00  0.00     0.020 A 
ATOM     85  C   UNL     1      12.244  16.331   4.908  1.00  0.00     0.020 A 
ATOM     86  C   UNL     1      12.913  15.686   5.949  1.00  0.00     0.054 A 
BRANCH  86  87
ATOM     87  S   UNL     1      14.208  16.528   6.907  1.00  0.00     0.124 S 
ATOM     88  O   UNL     1      13.562  16.704   8.204  1.00  0.00    -0.237 OA
ATOM     89  O   UNL     1      15.302  15.559   6.879  1.00  0.00    -0.237 OA
ATOM     90  O   UNL     1      14.452  17.757   6.158  1.00  0.00    -0.744 OA
ENDBRANCH  86  87
ENDBRANCH  58  81
BRANCH  70  91
ATOM     91  C   UNL     1       4.836  14.181   2.194  1.00  0.00    -0.014 A 
ATOM     92  C   UNL     1       3.837  14.689   1.343  1.00  0.00     0.010 A 
ATOM     93  C   UNL     1       5.561  13.047   1.775  1.00  0.00     0.010 A 
ATOM     94  C   UNL     1       3.525  14.056   0.140  1.00  0.00     0.020 A 
ATOM     95  C   UNL     1       5.273  12.424   0.550  1.00  0.00     0.020 A 
ATOM     96  C   UNL     1       4.232  12.915  -0.241  1.00  0.00     0.054 A 
BRANCH  96  97
ATOM     97  S   UNL     1       3.726  12.068  -1.762  1.00  0.00     0.124 S 
ATOM     98  O   UNL     1       2.445  11.481  -1.372  1.00  0.00    -0.237 OA
ATOM     99  O   UNL     1       3.643  13.162  -2.728  1.00  0.00    -0.237 OA
ATOM    100  O   UNL     1       4.801  11.109  -1.999  1.00  0.00    -0.744 OA
ENDBRANCH  96  97
ENDBRANCH  70  91
ENDBRANCH  44  45
ENDBRANCH  36  39
ENDBRANCH  34  35
ENDBRANCH  33  34
ENDBRANCH   1  33
TORSDOF 18
