REMARK SMILES O=C1NC(=O)/C(=C/c2ccc(OCc3cn(-c4ccc(C(=O)NCCCCCCNC(=O)c5ccc(-c6c7nc(c(-c8ccc(S(=O)(=O)[O-])cc8)c8ccc([nH]8)c(-c8ccc(S(=O)(=O)[O-])cc8)c8nc(c(-c9ccc(S(=O)(=O)[O-])cc9)c9ccc6[nH]9)C=C8)C=C7)cc5)cc4)nn3)cc2)S1
REMARK SMILES IDX 25 1 24 2 23 3 21 4 22 5 20 7 17 8 18 9 94 10 19 11 93 12
REMARK SMILES IDX 16 13 14 14 15 15 96 16 95 17 13 18 12 19 11 20 8 21 9 22
REMARK SMILES IDX 98 23 10 24 97 25 7 26 1 27 2 28 3 29 99 30 4 31 6 33 5 34
REMARK SMILES IDX 26 35 27 36 28 37 29 38 30 39 31 40 32 42 33 43 34 44 92 45
REMARK SMILES IDX 35 46 91 47 36 48 37 49 38 50 85 51 39 52 90 53 84 54 86 55
REMARK SMILES IDX 40 56 89 57 83 58 82 59 41 61 71 62 52 63 70 64 53 65 56 66
REMARK SMILES IDX 69 67 87 68 54 69 55 70 68 72 88 73 57 74 42 75 43 76 51 77
REMARK SMILES IDX 44 78 50 79 45 80 46 81 47 82 48 83 49 84 72 85 73 86 81 87
REMARK SMILES IDX 74 88 80 89 75 90 76 91 77 92 78 93 79 94 58 95 59 96 67 97
REMARK SMILES IDX 60 98 66 99 61 100 62 101 63 102 64 103 65 104
REMARK H PARENT 23 6 3 32 30 41 86 60 56 71
REMARK Flexibility Score: inf
ROOT
ATOM      1  C   UNL     1      -8.102  10.051  -2.427  1.00  0.00     0.021 C 
ENDROOT
BRANCH   1   2
ATOM      2  C   UNL     1      -7.670  10.486  -1.026  1.00  0.00     0.116 C 
BRANCH   2   3
ATOM      3  N   UNL     1      -8.291   9.636  -0.032  1.00  0.00    -0.352 N 
ATOM      4  C   UNL     1      -7.827   8.597   0.730  1.00  0.00     0.251 C 
ATOM      5  O   UNL     1      -8.632   8.062   1.494  1.00  0.00    -0.269 OA
ATOM      6  H   UNL     1      -9.239   9.847   0.128  1.00  0.00     0.163 HD
BRANCH   4   7
ATOM      7  C   UNL     1      -6.398   8.169   0.755  1.00  0.00     0.039 A 
ATOM      8  C   UNL     1      -3.682   7.556   1.120  1.00  0.00     0.066 A 
ATOM      9  C   UNL     1      -4.621   7.177   2.087  1.00  0.00     0.029 A 
ATOM     10  C   UNL     1      -4.107   8.151  -0.068  1.00  0.00     0.029 A 
ATOM     11  C   UNL     1      -5.964   7.514   1.916  1.00  0.00     0.016 A 
ATOM     12  C   UNL     1      -5.471   8.389  -0.269  1.00  0.00     0.016 A 
BRANCH   8  13
ATOM     13  N   UNL     1      -2.312   7.324   1.362  1.00  0.00    -0.220 N 
ATOM     14  C   UNL     1      -0.131   7.379   1.431  1.00  0.00     0.120 A 
ATOM     15  C   UNL     1      -1.221   7.995   0.852  1.00  0.00     0.144 A 
ATOM     16  N   UNL     1      -0.582   6.420   2.297  1.00  0.00    -0.131 NA
ATOM     17  N   UNL     1      -1.902   6.416   2.273  1.00  0.00    -0.062 NA
BRANCH  14  18
ATOM     18  C   UNL     1       1.330   7.673   1.341  1.00  0.00     0.289 C 
BRANCH  18  19
ATOM     19  O   UNL     1       2.043   6.995   0.295  1.00  0.00    -0.487 OA
BRANCH  19  20
ATOM     20  C   UNL     1       2.163   5.634   0.355  1.00  0.00     0.119 A 
ATOM     21  C   UNL     1       2.205   2.831   0.115  1.00  0.00    -0.024 A 
ATOM     22  C   UNL     1       2.663   3.634  -0.933  1.00  0.00     0.012 A 
ATOM     23  C   UNL     1       1.821   3.437   1.313  1.00  0.00     0.012 A 
ATOM     24  C   UNL     1       2.635   5.028  -0.812  1.00  0.00     0.047 A 
ATOM     25  C   UNL     1       1.829   4.828   1.441  1.00  0.00     0.047 A 
BRANCH  21  26
ATOM     26  C   UNL     1       2.133   1.376  -0.038  1.00  0.00     0.029 C 
ATOM     27  O   UNL     1      -2.413  -0.737   0.337  1.00  0.00    -0.261 OA
ATOM     28  C   UNL     1      -1.260  -0.437   0.097  1.00  0.00     0.290 C 
ATOM     29  N   UNL     1      -0.244  -1.318  -0.107  1.00  0.00    -0.282 N 
ATOM     30  S   UNL     1      -0.626   1.196   0.099  1.00  0.00    -0.022 SA
ATOM     31  C   UNL     1       1.028  -0.833  -0.136  1.00  0.00     0.265 C 
ATOM     32  H   UNL     1      -0.423  -2.278  -0.229  1.00  0.00     0.174 HD
ATOM     33  C   UNL     1       1.006   0.650  -0.039  1.00  0.00     0.083 C 
ATOM     34  O   UNL     1       2.037  -1.524  -0.166  1.00  0.00    -0.268 OA
ENDBRANCH  21  26
ENDBRANCH  19  20
ENDBRANCH  18  19
ENDBRANCH  14  18
ENDBRANCH   8  13
ENDBRANCH   4   7
ENDBRANCH   2   3
ENDBRANCH   1   2
BRANCH   1  35
ATOM     35  C   UNL     1      -9.509  10.540  -2.795  1.00  0.00     0.002 C 
BRANCH  35  36
ATOM     36  C   UNL     1      -9.727  12.059  -2.682  1.00  0.00     0.002 C 
BRANCH  36  37
ATOM     37  C   UNL     1      -8.681  12.949  -3.374  1.00  0.00     0.021 C 
BRANCH  37  38
ATOM     38  C   UNL     1      -8.745  12.885  -4.891  1.00  0.00     0.116 C 
BRANCH  38  39
ATOM     39  N   UNL     1      -9.999  13.448  -5.408  1.00  0.00    -0.352 N 
ATOM     40  C   UNL     1     -10.505  13.443  -6.695  1.00  0.00     0.251 C 
ATOM     41  H   UNL     1     -10.565  13.896  -4.738  1.00  0.00     0.163 HD
ATOM     42  O   UNL     1     -11.351  14.260  -7.036  1.00  0.00    -0.269 OA
BRANCH  40  43
ATOM     43  C   UNL     1     -10.021  12.424  -7.640  1.00  0.00     0.039 A 
ATOM     44  C   UNL     1      -9.894  12.652  -9.015  1.00  0.00     0.014 A 
ATOM     45  C   UNL     1      -9.679  11.194  -7.097  1.00  0.00     0.014 A 
ATOM     46  C   UNL     1      -9.390  11.626  -9.813  1.00  0.00     0.010 A 
ATOM     47  C   UNL     1      -8.921  10.326  -7.816  1.00  0.00     0.010 A 
ATOM     48  C   UNL     1      -8.916  10.464  -9.192  1.00  0.00    -0.014 A 
BRANCH  48  49
ATOM     49  C   UNL     1      -8.368   9.331  -9.912  1.00  0.00     0.031 A 
ATOM     50  C   UNL     1      -7.059   9.601 -10.545  1.00  0.00     0.074 A 
ATOM     51  C   UNL     1      -8.838   8.079  -9.706  1.00  0.00     0.049 A 
ATOM     52  N   UNL     1      -6.816   9.780 -11.799  1.00  0.00    -0.248 NA
ATOM     53  C   UNL     1      -5.916   9.907  -9.665  1.00  0.00     0.031 C 
ATOM     54  C   UNL     1      -9.868   7.631  -8.756  1.00  0.00     0.029 A 
ATOM     55  N   UNL     1      -8.370   6.906 -10.196  1.00  0.00    -0.354 N 
ATOM     56  C   UNL     1      -5.441   9.958 -11.885  1.00  0.00     0.074 A 
ATOM     57  C   UNL     1      -5.004  10.300 -10.556  1.00  0.00     0.031 C 
ATOM     58  C   UNL     1      -9.751   6.298  -8.560  1.00  0.00     0.029 A 
ATOM     59  C   UNL     1      -8.750   5.779  -9.476  1.00  0.00     0.049 A 
ATOM     60  H   UNL     1      -7.805   6.856 -11.001  1.00  0.00     0.167 HD
ATOM     61  C   UNL     1      -4.731   9.511 -12.959  1.00  0.00     0.031 A 
ATOM     62  C   UNL     1      -8.214   4.534  -9.584  1.00  0.00     0.031 A 
ATOM     63  C   UNL     1      -5.608   9.063 -14.016  1.00  0.00     0.049 A 
ATOM     64  C   UNL     1      -7.481   4.497 -10.881  1.00  0.00     0.074 A 
ATOM     65  C   UNL     1      -6.639   9.645 -14.728  1.00  0.00     0.029 A 
ATOM     66  N   UNL     1      -5.778   7.701 -14.147  1.00  0.00    -0.354 N 
ATOM     67  N   UNL     1      -8.072   4.601 -12.041  1.00  0.00    -0.248 NA
ATOM     68  C   UNL     1      -6.071   4.867 -10.873  1.00  0.00     0.031 C 
ATOM     69  C   UNL     1      -7.639   8.632 -14.808  1.00  0.00     0.029 A 
ATOM     70  C   UNL     1      -7.125   7.463 -14.240  1.00  0.00     0.049 A 
ATOM     71  H   UNL     1      -5.063   7.024 -14.168  1.00  0.00     0.167 HD
ATOM     72  C   UNL     1      -7.260   5.447 -12.786  1.00  0.00     0.074 A 
ATOM     73  C   UNL     1      -6.000   5.510 -12.043  1.00  0.00     0.031 C 
ATOM     74  C   UNL     1      -7.773   6.259 -13.760  1.00  0.00     0.031 A 
BRANCH  61  75
ATOM     75  C   UNL     1      -3.287   9.075 -12.901  1.00  0.00    -0.014 A 
ATOM     76  C   UNL     1      -2.656   8.687 -14.100  1.00  0.00     0.010 A 
ATOM     77  C   UNL     1      -2.606   8.786 -11.701  1.00  0.00     0.010 A 
ATOM     78  C   UNL     1      -1.450   7.976 -14.091  1.00  0.00     0.020 A 
ATOM     79  C   UNL     1      -1.380   8.121 -11.682  1.00  0.00     0.020 A 
ATOM     80  C   UNL     1      -0.828   7.686 -12.877  1.00  0.00     0.054 A 
BRANCH  80  81
ATOM     81  S   UNL     1       0.673   6.680 -12.866  1.00  0.00     0.124 S 
ATOM     82  O   UNL     1       0.171   5.390 -13.328  1.00  0.00    -0.237 OA
ATOM     83  O   UNL     1       1.533   7.400 -13.801  1.00  0.00    -0.237 OA
ATOM     84  O   UNL     1       1.103   6.723 -11.470  1.00  0.00    -0.744 OA
ENDBRANCH  80  81
ENDBRANCH  61  75
BRANCH  62  85
ATOM     85  C   UNL     1      -8.004   3.534  -8.500  1.00  0.00    -0.014 A 
ATOM     86  C   UNL     1      -7.617   2.210  -8.784  1.00  0.00     0.010 A 
ATOM     87  C   UNL     1      -7.926   3.954  -7.154  1.00  0.00     0.010 A 
ATOM     88  C   UNL     1      -7.115   1.364  -7.774  1.00  0.00     0.020 A 
ATOM     89  C   UNL     1      -7.436   3.117  -6.144  1.00  0.00     0.020 A 
ATOM     90  C   UNL     1      -7.006   1.833  -6.463  1.00  0.00     0.054 A 
BRANCH  90  91
ATOM     91  S   UNL     1      -6.182   0.813  -5.201  1.00  0.00     0.124 S 
ATOM     92  O   UNL     1      -7.148  -0.259  -4.987  1.00  0.00    -0.237 OA
ATOM     93  O   UNL     1      -4.941   0.425  -5.867  1.00  0.00    -0.237 OA
ATOM     94  O   UNL     1      -6.013   1.734  -4.077  1.00  0.00    -0.744 OA
ENDBRANCH  90  91
ENDBRANCH  62  85
BRANCH  74  95
ATOM     95  C   UNL     1      -9.196   6.043 -14.228  1.00  0.00    -0.014 A 
ATOM     96  C   UNL     1     -10.328   6.099 -13.391  1.00  0.00     0.010 A 
ATOM     97  C   UNL     1      -9.400   5.945 -15.617  1.00  0.00     0.010 A 
ATOM     98  C   UNL     1     -11.624   6.025 -13.930  1.00  0.00     0.020 A 
ATOM     99  C   UNL     1     -10.684   5.893 -16.160  1.00  0.00     0.020 A 
ATOM    100  C   UNL     1     -11.791   5.918 -15.314  1.00  0.00     0.054 A 
BRANCH 100 101
ATOM    101  S   UNL     1     -13.464   5.839 -16.013  1.00  0.00     0.124 S 
ATOM    102  O   UNL     1     -13.945   4.545 -15.536  1.00  0.00    -0.237 OA
ATOM    103  O   UNL     1     -14.117   7.008 -15.430  1.00  0.00    -0.237 OA
ATOM    104  O   UNL     1     -13.243   5.920 -17.457  1.00  0.00    -0.744 OA
ENDBRANCH 100 101
ENDBRANCH  74  95
ENDBRANCH  48  49
ENDBRANCH  40  43
ENDBRANCH  38  39
ENDBRANCH  37  38
ENDBRANCH  36  37
ENDBRANCH  35  36
ENDBRANCH   1  35
TORSDOF 21
