REMARK SMILES O=C(CSc1nnnn1-c1ccc(C(=O)NCCCCCCNC(=O)c2ccc(-c3c4nc(c(-c5ccc(S(=O)(=O)[O-])cc5)c5ccc([nH]5)c(-c5ccc(S(=O)(=O)[O-])cc5)c5nc(c(-c6ccc(S(=O)(=O)[O-])cc6)c6ccc3[nH]6)C=C5)C=C4)cc2)cc1)Nc1nc(-c2ccccc2)cs1
REMARK SMILES IDX 18 1 17 2 16 3 14 4 15 5 13 7 10 8 11 9 87 10 12 11 86 12
REMARK SMILES IDX 9 13 5 14 6 15 7 16 8 17 4 18 3 19 2 20 1 21 88 22 89 24
REMARK SMILES IDX 90 25 99 26 91 27 98 28 92 29 93 30 97 31 94 32 96 33 95 34
REMARK SMILES IDX 19 35 20 36 21 37 22 38 23 39 24 40 25 42 26 43 27 44 85 45
REMARK SMILES IDX 28 46 84 47 29 48 30 49 31 50 78 51 32 52 83 53 77 54 79 55
REMARK SMILES IDX 33 56 82 57 76 58 75 59 34 61 64 62 45 63 63 64 46 65 49 66
REMARK SMILES IDX 62 67 80 68 47 69 48 70 61 72 81 73 50 74 35 75 36 76 44 77
REMARK SMILES IDX 37 78 43 79 38 80 39 81 40 82 41 83 42 84 65 85 66 86 74 87
REMARK SMILES IDX 67 88 73 89 68 90 69 91 70 92 71 93 72 94 51 95 52 96 60 97
REMARK SMILES IDX 53 98 59 99 54 100 55 101 56 102 57 103 58 104
REMARK H PARENT 16 6 88 23 23 41 79 60 49 71
REMARK Flexibility Score: inf
ROOT
ATOM      1  C   UNL     1       9.712   4.980  -4.776  1.00  0.00     0.021 C 
ENDROOT
BRANCH   1   2
ATOM      2  C   UNL     1       9.551   4.350  -3.391  1.00  0.00     0.116 C 
BRANCH   2   3
ATOM      3  N   UNL     1       9.582   5.373  -2.363  1.00  0.00    -0.352 N 
ATOM      4  C   UNL     1       8.617   5.958  -1.584  1.00  0.00     0.251 C 
ATOM      5  O   UNL     1       8.991   6.805  -0.771  1.00  0.00    -0.269 OA
ATOM      6  H   UNL     1      10.486   5.721  -2.188  1.00  0.00     0.163 HD
BRANCH   4   7
ATOM      7  C   UNL     1       7.178   5.561  -1.604  1.00  0.00     0.039 A 
ATOM      8  C   UNL     1       4.546   4.630  -1.338  1.00  0.00     0.069 A 
ATOM      9  C   UNL     1       5.099   5.415  -0.326  1.00  0.00     0.029 A 
ATOM     10  C   UNL     1       5.250   4.406  -2.524  1.00  0.00     0.029 A 
ATOM     11  C   UNL     1       6.425   5.841  -0.448  1.00  0.00     0.016 A 
ATOM     12  C   UNL     1       6.537   4.932  -2.674  1.00  0.00     0.016 A 
BRANCH   8  13
ATOM     13  N   UNL     1       3.276   4.052  -1.159  1.00  0.00    -0.187 N 
ATOM     14  C   UNL     1       2.879   2.734  -1.310  1.00  0.00     0.214 A 
ATOM     15  N   UNL     1       1.587   2.655  -1.098  1.00  0.00    -0.101 NA
ATOM     16  N   UNL     1       1.194   3.916  -0.722  1.00  0.00    -0.022 NA
ATOM     17  N   UNL     1       2.231   4.742  -0.654  1.00  0.00    -0.039 NA
BRANCH  14  18
ATOM     18  S   UNL     1       3.983   1.395  -1.382  1.00  0.00    -0.074 SA
BRANCH  18  19
ATOM     19  C   UNL     1       2.871  -0.034  -1.293  1.00  0.00     0.178 C 
BRANCH  19  20
ATOM     20  C   UNL     1       2.099  -0.202   0.009  1.00  0.00     0.236 C 
ATOM     21  O   UNL     1       1.011  -0.775  -0.017  1.00  0.00    -0.274 OA
ATOM     22  N   UNL     1       2.753   0.227   1.144  1.00  0.00    -0.301 N 
ATOM     23  H   UNL     1       3.642   0.641   1.056  1.00  0.00     0.172 HD
BRANCH  22  24
ATOM     24  C   UNL     1       2.202   0.094   2.389  1.00  0.00     0.189 A 
ATOM     25  N   UNL     1       1.149  -0.586   2.761  1.00  0.00    -0.220 NA
ATOM     26  S   UNL     1       3.017   0.956   3.620  1.00  0.00    -0.105 S 
ATOM     27  C   UNL     1       0.884  -0.339   4.092  1.00  0.00     0.084 A 
ATOM     28  C   UNL     1       1.787   0.490   4.730  1.00  0.00     0.097 A 
BRANCH  27  29
ATOM     29  C   UNL     1      -0.271  -0.923   4.746  1.00  0.00     0.001 A 
ATOM     30  C   UNL     1      -0.365  -2.313   4.882  1.00  0.00     0.010 A 
ATOM     31  C   UNL     1      -1.317  -0.113   5.202  1.00  0.00     0.010 A 
ATOM     32  C   UNL     1      -1.488  -2.886   5.482  1.00  0.00     0.001 A 
ATOM     33  C   UNL     1      -2.445  -0.690   5.793  1.00  0.00     0.001 A 
ATOM     34  C   UNL     1      -2.527  -2.075   5.936  1.00  0.00     0.000 A 
ENDBRANCH  27  29
ENDBRANCH  22  24
ENDBRANCH  19  20
ENDBRANCH  18  19
ENDBRANCH  14  18
ENDBRANCH   8  13
ENDBRANCH   4   7
ENDBRANCH   2   3
ENDBRANCH   1   2
BRANCH   1  35
ATOM     35  C   UNL     1      11.170   5.309  -5.130  1.00  0.00     0.002 C 
BRANCH  35  36
ATOM     36  C   UNL     1      12.146   4.120  -5.089  1.00  0.00     0.002 C 
BRANCH  36  37
ATOM     37  C   UNL     1      11.722   2.874  -5.880  1.00  0.00     0.021 C 
BRANCH  37  38
ATOM     38  C   UNL     1      11.792   3.063  -7.388  1.00  0.00     0.116 C 
BRANCH  38  39
ATOM     39  N   UNL     1      13.172   3.182  -7.855  1.00  0.00    -0.352 N 
ATOM     40  C   UNL     1      13.625   3.487  -9.125  1.00  0.00     0.251 C 
ATOM     41  H   UNL     1      13.869   3.024  -7.178  1.00  0.00     0.163 HD
ATOM     42  O   UNL     1      14.757   3.205  -9.473  1.00  0.00    -0.269 OA
BRANCH  40  43
ATOM     43  C   UNL     1      12.696   4.168 -10.043  1.00  0.00     0.039 A 
ATOM     44  C   UNL     1      12.561   3.762 -11.373  1.00  0.00     0.014 A 
ATOM     45  C   UNL     1      11.918   5.198  -9.522  1.00  0.00     0.014 A 
ATOM     46  C   UNL     1      11.567   4.348 -12.154  1.00  0.00     0.010 A 
ATOM     47  C   UNL     1      10.849   5.665 -10.243  1.00  0.00     0.010 A 
ATOM     48  C   UNL     1      10.700   5.287 -11.575  1.00  0.00    -0.014 A 
BRANCH  48  49
ATOM     49  C   UNL     1       9.565   5.822 -12.321  1.00  0.00     0.031 A 
ATOM     50  C   UNL     1       8.594   4.807 -12.812  1.00  0.00     0.074 A 
ATOM     51  C   UNL     1       9.271   7.141 -12.341  1.00  0.00     0.049 A 
ATOM     52  N   UNL     1       8.354   4.458 -14.032  1.00  0.00    -0.248 NA
ATOM     53  C   UNL     1       7.885   3.990 -11.812  1.00  0.00     0.031 C 
ATOM     54  C   UNL     1       9.930   8.217 -11.586  1.00  0.00     0.029 A 
ATOM     55  N   UNL     1       8.230   7.787 -12.933  1.00  0.00    -0.354 N 
ATOM     56  C   UNL     1       7.302   3.545 -13.969  1.00  0.00     0.074 A 
ATOM     57  C   UNL     1       7.195   3.151 -12.587  1.00  0.00     0.031 C 
ATOM     58  C   UNL     1       9.131   9.305 -11.556  1.00  0.00     0.029 A 
ATOM     59  C   UNL     1       8.021   9.077 -12.460  1.00  0.00     0.049 A 
ATOM     60  H   UNL     1       7.673   7.377 -13.634  1.00  0.00     0.167 HD
ATOM     61  C   UNL     1       6.428   3.395 -15.004  1.00  0.00     0.031 A 
ATOM     62  C   UNL     1       7.005   9.909 -12.784  1.00  0.00     0.031 A 
ATOM     63  C   UNL     1       6.879   4.107 -16.170  1.00  0.00     0.049 A 
ATOM     64  C   UNL     1       6.464   9.454 -14.083  1.00  0.00     0.074 A 
ATOM     65  C   UNL     1       7.840   3.938 -17.140  1.00  0.00     0.029 A 
ATOM     66  N   UNL     1       6.486   5.422 -16.201  1.00  0.00    -0.354 N 
ATOM     67  N   UNL     1       7.167   9.442 -15.183  1.00  0.00    -0.248 NA
ATOM     68  C   UNL     1       5.237   8.670 -14.119  1.00  0.00     0.031 C 
ATOM     69  C   UNL     1       8.183   5.251 -17.580  1.00  0.00     0.029 A 
ATOM     70  C   UNL     1       7.390   6.177 -16.899  1.00  0.00     0.049 A 
ATOM     71  H   UNL     1       5.668   5.773 -15.780  1.00  0.00     0.167 HD
ATOM     72  C   UNL     1       6.707   8.338 -15.875  1.00  0.00     0.074 A 
ATOM     73  C   UNL     1       5.423   8.013 -15.267  1.00  0.00     0.031 C 
ATOM     74  C   UNL     1       7.540   7.601 -16.665  1.00  0.00     0.031 A 
BRANCH  61  75
ATOM     75  C   UNL     1       4.965   3.025 -14.860  1.00  0.00    -0.014 A 
ATOM     76  C   UNL     1       4.182   2.888 -16.028  1.00  0.00     0.010 A 
ATOM     77  C   UNL     1       4.269   3.087 -13.636  1.00  0.00     0.010 A 
ATOM     78  C   UNL     1       2.780   2.873 -15.976  1.00  0.00     0.020 A 
ATOM     79  C   UNL     1       2.873   3.036 -13.569  1.00  0.00     0.020 A 
ATOM     80  C   UNL     1       2.135   2.960 -14.743  1.00  0.00     0.054 A 
BRANCH  80  81
ATOM     81  S   UNL     1       0.327   3.037 -14.687  1.00  0.00     0.124 S 
ATOM     82  O   UNL     1       0.058   4.319 -15.330  1.00  0.00    -0.237 OA
ATOM     83  O   UNL     1      -0.057   1.851 -15.447  1.00  0.00    -0.237 OA
ATOM     84  O   UNL     1       0.028   2.977 -13.257  1.00  0.00    -0.744 OA
ENDBRANCH  80  81
ENDBRANCH  61  75
BRANCH  62  85
ATOM     85  C   UNL     1       6.314  10.890 -11.915  1.00  0.00    -0.014 A 
ATOM     86  C   UNL     1       5.523  11.912 -12.468  1.00  0.00     0.010 A 
ATOM     87  C   UNL     1       6.197  10.636 -10.532  1.00  0.00     0.010 A 
ATOM     88  C   UNL     1       4.588  12.603 -11.680  1.00  0.00     0.020 A 
ATOM     89  C   UNL     1       5.271  11.324  -9.741  1.00  0.00     0.020 A 
ATOM     90  C   UNL     1       4.450  12.286 -10.326  1.00  0.00     0.054 A 
BRANCH  90  91
ATOM     91  S   UNL     1       3.100  13.039  -9.369  1.00  0.00     0.124 S 
ATOM     92  O   UNL     1       3.545  14.424  -9.244  1.00  0.00    -0.237 OA
ATOM     93  O   UNL     1       1.942  12.822 -10.231  1.00  0.00    -0.237 OA
ATOM     94  O   UNL     1       3.094  12.274  -8.123  1.00  0.00    -0.744 OA
ENDBRANCH  90  91
ENDBRANCH  62  85
BRANCH  74  95
ATOM     95  C   UNL     1       8.783   8.261 -17.199  1.00  0.00    -0.014 A 
ATOM     96  C   UNL     1       9.876   8.662 -16.410  1.00  0.00     0.010 A 
ATOM     97  C   UNL     1       8.883   8.371 -18.597  1.00  0.00     0.010 A 
ATOM     98  C   UNL     1      11.040   9.167 -17.012  1.00  0.00     0.020 A 
ATOM     99  C   UNL     1      10.043   8.856 -19.202  1.00  0.00     0.020 A 
ATOM    100  C   UNL     1      11.115   9.257 -18.407  1.00  0.00     0.054 A 
BRANCH 100 101
ATOM    101  S   UNL     1      12.641   9.854 -19.189  1.00  0.00     0.124 S 
ATOM    102  O   UNL     1      12.645  11.271 -18.837  1.00  0.00    -0.237 OA
ATOM    103  O   UNL     1      13.674   9.042 -18.549  1.00  0.00    -0.237 OA
ATOM    104  O   UNL     1      12.436   9.571 -20.610  1.00  0.00    -0.744 OA
ENDBRANCH 100 101
ENDBRANCH  74  95
ENDBRANCH  48  49
ENDBRANCH  40  43
ENDBRANCH  38  39
ENDBRANCH  37  38
ENDBRANCH  36  37
ENDBRANCH  35  36
ENDBRANCH   1  35
TORSDOF 22
