REMARK SMILES O=C(NCCCCCCNC(=O)c1cc(-c2ccc(Cl)cc2)nc2c3c(C4CC4)cc(C(F)(F)F)nc3nn12)c1ccc(-c2c3nc(c(-c4ccc(S(=O)(=O)[O-])cc4)c4ccc([nH]4)c(-c4ccc(S(=O)(=O)[O-])cc4)c4nc(c(-c5ccc(S(=O)(=O)[O-])cc5)c5ccc2[nH]5)C=C4)C=C3)cc1
REMARK SMILES IDX 5 1 4 2 3 3 1 4 2 5 40 7 41 8 99 9 42 10 98 11 43 12 44 13
REMARK SMILES IDX 45 14 92 15 46 16 97 17 91 18 93 19 47 20 96 21 90 22 89 23
REMARK SMILES IDX 48 25 78 26 59 27 77 28 60 29 63 30 76 31 94 32 61 33 62 34
REMARK SMILES IDX 75 36 95 37 64 38 49 39 50 40 58 41 51 42 57 43 52 44 53 45
REMARK SMILES IDX 54 46 55 47 56 48 79 49 80 50 88 51 81 52 87 53 82 54 83 55
REMARK SMILES IDX 84 56 85 57 86 58 65 59 66 60 74 61 67 62 73 63 68 64 69 65
REMARK SMILES IDX 70 66 71 67 72 68 6 69 7 70 8 71 9 72 10 73 11 74 12 76
REMARK SMILES IDX 13 77 14 78 39 79 15 80 24 81 38 82 23 83 25 84 37 85 26 86
REMARK SMILES IDX 36 87 30 88 31 89 16 90 17 91 22 92 18 93 21 94 19 95 20 96
REMARK SMILES IDX 27 97 28 98 29 99 32 100 33 101 34 102 35 103
REMARK H PARENT 3 6 93 24 63 35 10 75
REMARK Flexibility Score: inf
ROOT
ATOM      1  C   UNL     1       4.571   0.396   2.750  1.00  0.00     0.021 C 
ENDROOT
BRANCH   1   2
ATOM      2  C   UNL     1       4.491  -0.440   1.478  1.00  0.00     0.116 C 
BRANCH   2   3
ATOM      3  N   UNL     1       3.147  -0.511   0.928  1.00  0.00    -0.352 N 
ATOM      4  O   UNL     1       1.551  -0.101  -0.642  1.00  0.00    -0.269 OA
ATOM      5  C   UNL     1       2.707   0.014  -0.268  1.00  0.00     0.251 C 
ATOM      6  H   UNL     1       2.476  -0.987   1.470  1.00  0.00     0.163 HD
BRANCH   5   7
ATOM      7  C   UNL     1       3.702   0.738  -1.077  1.00  0.00     0.039 A 
ATOM      8  C   UNL     1       4.718   0.015  -1.711  1.00  0.00     0.014 A 
ATOM      9  C   UNL     1       3.732   2.131  -1.002  1.00  0.00     0.014 A 
ATOM     10  C   UNL     1       5.830   0.695  -2.193  1.00  0.00     0.010 A 
ATOM     11  C   UNL     1       4.838   2.808  -1.507  1.00  0.00     0.010 A 
ATOM     12  C   UNL     1       5.903   2.091  -2.072  1.00  0.00    -0.014 A 
BRANCH  12  13
ATOM     13  C   UNL     1       7.120   2.766  -2.552  1.00  0.00     0.031 A 
ATOM     14  C   UNL     1       6.905   3.847  -3.552  1.00  0.00     0.074 A 
ATOM     15  C   UNL     1       8.238   2.832  -1.800  1.00  0.00     0.049 A 
ATOM     16  N   UNL     1       6.552   5.050  -3.208  1.00  0.00    -0.248 NA
ATOM     17  C   UNL     1       6.842   3.590  -4.989  1.00  0.00     0.031 C 
ATOM     18  C   UNL     1       8.262   2.714  -0.335  1.00  0.00     0.029 A 
ATOM     19  N   UNL     1       9.508   3.240  -2.126  1.00  0.00    -0.354 N 
ATOM     20  C   UNL     1       6.154   5.696  -4.359  1.00  0.00     0.074 A 
ATOM     21  C   UNL     1       6.375   4.763  -5.444  1.00  0.00     0.031 C 
ATOM     22  C   UNL     1       9.419   3.240   0.120  1.00  0.00     0.029 A 
ATOM     23  C   UNL     1      10.278   3.557  -1.012  1.00  0.00     0.049 A 
ATOM     24  H   UNL     1       9.838   3.302  -3.051  1.00  0.00     0.167 HD
ATOM     25  C   UNL     1       5.627   6.947  -4.364  1.00  0.00     0.031 A 
ATOM     26  C   UNL     1      11.316   4.435  -0.992  1.00  0.00     0.031 A 
ATOM     27  C   UNL     1       5.525   7.590  -3.089  1.00  0.00     0.049 A 
ATOM     28  C   UNL     1      10.599   5.745  -1.223  1.00  0.00     0.074 A 
ATOM     29  C   UNL     1       4.575   7.714  -2.098  1.00  0.00     0.029 A 
ATOM     30  N   UNL     1       6.641   8.211  -2.581  1.00  0.00    -0.354 N 
ATOM     31  N   UNL     1       9.953   6.448  -0.331  1.00  0.00    -0.248 NA
ATOM     32  C   UNL     1      10.331   6.130  -2.611  1.00  0.00     0.031 C 
ATOM     33  C   UNL     1       5.301   8.002  -0.900  1.00  0.00     0.029 A 
ATOM     34  C   UNL     1       6.656   7.974  -1.228  1.00  0.00     0.049 A 
ATOM     35  H   UNL     1       7.306   8.728  -3.091  1.00  0.00     0.167 HD
ATOM     36  C   UNL     1       8.978   7.148  -1.046  1.00  0.00     0.074 A 
ATOM     37  C   UNL     1       9.287   6.931  -2.445  1.00  0.00     0.031 C 
ATOM     38  C   UNL     1       7.867   7.702  -0.478  1.00  0.00     0.031 A 
BRANCH  25  39
ATOM     39  C   UNL     1       5.247   7.660  -5.598  1.00  0.00    -0.014 A 
ATOM     40  C   UNL     1       6.180   8.524  -6.192  1.00  0.00     0.010 A 
ATOM     41  C   UNL     1       3.933   7.612  -6.085  1.00  0.00     0.010 A 
ATOM     42  C   UNL     1       5.793   9.369  -7.231  1.00  0.00     0.020 A 
ATOM     43  C   UNL     1       3.543   8.453  -7.133  1.00  0.00     0.020 A 
ATOM     44  C   UNL     1       4.472   9.339  -7.685  1.00  0.00     0.054 A 
BRANCH  44  45
ATOM     45  S   UNL     1       3.978  10.535  -8.955  1.00  0.00     0.124 S 
ATOM     46  O   UNL     1       4.359  11.809  -8.350  1.00  0.00    -0.237 OA
ATOM     47  O   UNL     1       4.783  10.115 -10.099  1.00  0.00    -0.237 OA
ATOM     48  O   UNL     1       2.540  10.319  -9.094  1.00  0.00    -0.744 OA
ENDBRANCH  44  45
ENDBRANCH  25  39
BRANCH  26  49
ATOM     49  C   UNL     1      12.502   4.019  -1.818  1.00  0.00    -0.014 A 
ATOM     50  C   UNL     1      12.941   2.678  -1.729  1.00  0.00     0.010 A 
ATOM     51  C   UNL     1      13.211   4.874  -2.680  1.00  0.00     0.010 A 
ATOM     52  C   UNL     1      13.939   2.176  -2.566  1.00  0.00     0.020 A 
ATOM     53  C   UNL     1      14.199   4.374  -3.543  1.00  0.00     0.020 A 
ATOM     54  C   UNL     1      14.534   3.021  -3.500  1.00  0.00     0.054 A 
BRANCH  54  55
ATOM     55  S   UNL     1      15.716   2.306  -4.674  1.00  0.00     0.124 S 
ATOM     56  O   UNL     1      16.737   1.750  -3.790  1.00  0.00    -0.237 OA
ATOM     57  O   UNL     1      14.890   1.326  -5.375  1.00  0.00    -0.237 OA
ATOM     58  O   UNL     1      16.140   3.450  -5.476  1.00  0.00    -0.744 OA
ENDBRANCH  54  55
ENDBRANCH  26  49
BRANCH  38  59
ATOM     59  C   UNL     1       7.831   7.787   1.016  1.00  0.00    -0.014 A 
ATOM     60  C   UNL     1       8.583   8.773   1.675  1.00  0.00     0.010 A 
ATOM     61  C   UNL     1       6.959   6.978   1.767  1.00  0.00     0.010 A 
ATOM     62  C   UNL     1       8.416   8.992   3.045  1.00  0.00     0.020 A 
ATOM     63  C   UNL     1       6.779   7.201   3.136  1.00  0.00     0.020 A 
ATOM     64  C   UNL     1       7.492   8.225   3.761  1.00  0.00     0.054 A 
BRANCH  64  65
ATOM     65  S   UNL     1       7.194   8.632   5.503  1.00  0.00     0.124 S 
ATOM     66  O   UNL     1       8.527   8.541   6.090  1.00  0.00    -0.237 OA
ATOM     67  O   UNL     1       6.642   9.983   5.415  1.00  0.00    -0.237 OA
ATOM     68  O   UNL     1       6.247   7.611   5.948  1.00  0.00    -0.744 OA
ENDBRANCH  64  65
ENDBRANCH  38  59
ENDBRANCH  12  13
ENDBRANCH   5   7
ENDBRANCH   2   3
ENDBRANCH   1   2
BRANCH   1  69
ATOM     69  C   UNL     1       4.053  -0.307   4.005  1.00  0.00     0.002 C 
BRANCH  69  70
ATOM     70  C   UNL     1       4.638  -1.699   4.275  1.00  0.00     0.002 C 
BRANCH  70  71
ATOM     71  C   UNL     1       6.165  -1.814   4.189  1.00  0.00     0.021 C 
BRANCH  71  72
ATOM     72  C   UNL     1       6.936  -0.914   5.148  1.00  0.00     0.116 C 
BRANCH  72  73
ATOM     73  N   UNL     1       6.702  -1.288   6.532  1.00  0.00    -0.351 N 
ATOM     74  C   UNL     1       7.599  -1.514   7.530  1.00  0.00     0.270 C 
ATOM     75  H   UNL     1       5.756  -1.393   6.785  1.00  0.00     0.163 HD
ATOM     76  O   UNL     1       7.207  -1.938   8.618  1.00  0.00    -0.268 OA
BRANCH  74  77
ATOM     77  C   UNL     1       9.043  -1.364   7.264  1.00  0.00     0.134 A 
ATOM     78  C   UNL     1       9.789  -2.449   7.513  1.00  0.00     0.063 A 
ATOM     79  N   UNL     1       9.630  -0.189   6.800  1.00  0.00    -0.207 N 
ATOM     80  C   UNL     1      11.248  -2.290   7.266  1.00  0.00     0.075 A 
ATOM     81  C   UNL     1      11.015  -0.140   6.541  1.00  0.00     0.166 A 
ATOM     82  N   UNL     1       9.010   0.976   6.515  1.00  0.00    -0.145 NA
ATOM     83  N   UNL     1      11.830  -1.213   6.824  1.00  0.00    -0.228 NA
ATOM     84  C   UNL     1      11.228   1.101   5.968  1.00  0.00     0.069 A 
ATOM     85  C   UNL     1       9.951   1.738   5.976  1.00  0.00     0.184 A 
ATOM     86  C   UNL     1      12.421   1.641   5.459  1.00  0.00    -0.028 A 
ATOM     87  N   UNL     1       9.742   2.970   5.469  1.00  0.00    -0.222 NA
ATOM     88  C   UNL     1      12.162   2.933   4.947  1.00  0.00     0.038 A 
ATOM     89  C   UNL     1      10.873   3.547   4.957  1.00  0.00     0.147 A 
BRANCH  80  90
ATOM     90  C   UNL     1      12.043  -3.488   7.611  1.00  0.00     0.000 A 
ATOM     91  C   UNL     1      12.987  -3.402   8.637  1.00  0.00     0.012 A 
ATOM     92  C   UNL     1      11.787  -4.710   6.976  1.00  0.00     0.012 A 
ATOM     93  C   UNL     1      13.652  -4.557   9.057  1.00  0.00     0.021 A 
ATOM     94  C   UNL     1      12.462  -5.858   7.392  1.00  0.00     0.021 A 
ATOM     95  C   UNL     1      13.383  -5.779   8.438  1.00  0.00     0.041 A 
ATOM     96  Cl  UNL     1      14.180  -7.205   8.979  1.00  0.00    -0.084 Cl
ENDBRANCH  80  90
BRANCH  86  97
ATOM     97  C   UNL     1      13.732   0.921   5.479  1.00  0.00     0.020 C 
ATOM     98  C   UNL     1      14.968   1.468   4.801  1.00  0.00     0.009 C 
ATOM     99  C   UNL     1      14.866   1.496   6.297  1.00  0.00     0.009 C 
ENDBRANCH  86  97
BRANCH  89 100
ATOM    100  C   UNL     1      10.743   4.964   4.386  1.00  0.00     0.433 C 
ATOM    101  F   UNL     1       9.630   5.128   3.625  1.00  0.00    -0.165 F 
ATOM    102  F   UNL     1      10.723   5.910   5.359  1.00  0.00    -0.165 F 
ATOM    103  F   UNL     1      11.797   5.292   3.578  1.00  0.00    -0.165 F 
ENDBRANCH  89 100
ENDBRANCH  74  77
ENDBRANCH  72  73
ENDBRANCH  71  72
ENDBRANCH  70  71
ENDBRANCH  69  70
ENDBRANCH   1  69
TORSDOF 19
