REMARK SMILES O=C(NCCCCCCNC(=O)c1cc(-c2cccc(F)c2)nc2c(F)cccc12)c1ccc(-c2c3nc(c(-c4ccc(S(=O)(=O)[O-])cc4)c4ccc([nH]4)c(-c4ccc(S(=O)(=O)[O-])cc4)c4nc(c(-c5ccc(S(=O)(=O)[O-])cc5)c5ccc2[nH]5)C=C4)C=C3)cc1
REMARK SMILES IDX 5 1 4 2 3 3 1 4 2 5 31 7 32 8 90 9 33 10 89 11 34 12 35 13
REMARK SMILES IDX 36 14 83 15 37 16 88 17 82 18 84 19 38 20 87 21 81 22 80 23
REMARK SMILES IDX 39 25 69 26 50 27 68 28 51 29 54 30 67 31 85 32 52 33 53 34
REMARK SMILES IDX 66 36 86 37 55 38 40 39 41 40 49 41 42 42 48 43 43 44 44 45
REMARK SMILES IDX 45 46 46 47 47 48 70 49 71 50 79 51 72 52 78 53 73 54 74 55
REMARK SMILES IDX 75 56 76 57 77 58 56 59 57 60 65 61 58 62 64 63 59 64 60 65
REMARK SMILES IDX 61 66 62 67 63 68 6 69 7 70 8 71 9 72 10 73 11 74 12 76
REMARK SMILES IDX 13 77 14 78 30 79 15 80 24 81 29 82 23 83 25 84 28 85 26 86
REMARK SMILES IDX 27 87 16 88 17 89 22 90 18 91 20 92 19 93 21 94
REMARK H PARENT 3 6 84 24 54 35 10 75
REMARK Flexibility Score: inf
ROOT
ATOM      1  C   UNL     1       4.662   2.598   0.734  1.00  0.00     0.021 C 
ENDROOT
BRANCH   1   2
ATOM      2  C   UNL     1       4.369   1.105   0.806  1.00  0.00     0.116 C 
BRANCH   2   3
ATOM      3  N   UNL     1       2.946   0.820   0.793  1.00  0.00    -0.352 N 
ATOM      4  O   UNL     1       1.025  -0.043  -0.011  1.00  0.00    -0.269 OA
ATOM      5  C   UNL     1       2.253  -0.047  -0.014  1.00  0.00     0.251 C 
ATOM      6  H   UNL     1       2.406   1.314   1.452  1.00  0.00     0.163 HD
BRANCH   5   7
ATOM      7  C   UNL     1       2.994  -0.973  -0.898  1.00  0.00     0.039 A 
ATOM      8  C   UNL     1       4.086  -1.700  -0.411  1.00  0.00     0.014 A 
ATOM      9  C   UNL     1       2.573  -1.138  -2.220  1.00  0.00     0.014 A 
ATOM     10  C   UNL     1       4.812  -2.518  -1.270  1.00  0.00     0.010 A 
ATOM     11  C   UNL     1       3.259  -2.018  -3.062  1.00  0.00     0.010 A 
ATOM     12  C   UNL     1       4.385  -2.713  -2.593  1.00  0.00    -0.014 A 
BRANCH  12  13
ATOM     13  C   UNL     1       5.037  -3.756  -3.421  1.00  0.00     0.031 A 
ATOM     14  C   UNL     1       5.815  -3.407  -4.657  1.00  0.00     0.074 A 
ATOM     15  C   UNL     1       4.891  -5.042  -3.043  1.00  0.00     0.049 A 
ATOM     16  N   UNL     1       6.417  -4.211  -5.496  1.00  0.00    -0.248 NA
ATOM     17  C   UNL     1       5.933  -1.982  -5.003  1.00  0.00     0.031 C 
ATOM     18  C   UNL     1       4.135  -5.494  -1.869  1.00  0.00     0.029 A 
ATOM     19  N   UNL     1       5.363  -6.204  -3.596  1.00  0.00    -0.354 N 
ATOM     20  C   UNL     1       6.963  -3.398  -6.481  1.00  0.00     0.074 A 
ATOM     21  C   UNL     1       6.618  -2.034  -6.140  1.00  0.00     0.031 C 
ATOM     22  C   UNL     1       4.213  -6.829  -1.780  1.00  0.00     0.029 A 
ATOM     23  C   UNL     1       4.964  -7.334  -2.922  1.00  0.00     0.049 A 
ATOM     24  H   UNL     1       5.933  -6.227  -4.399  1.00  0.00     0.167 HD
ATOM     25  C   UNL     1       7.683  -3.764  -7.569  1.00  0.00     0.031 A 
ATOM     26  C   UNL     1       5.144  -8.636  -3.208  1.00  0.00     0.031 A 
ATOM     27  C   UNL     1       8.025  -5.126  -7.890  1.00  0.00     0.049 A 
ATOM     28  C   UNL     1       5.912  -9.006  -4.443  1.00  0.00     0.074 A 
ATOM     29  C   UNL     1       8.816  -5.589  -8.928  1.00  0.00     0.029 A 
ATOM     30  N   UNL     1       7.584  -6.242  -7.196  1.00  0.00    -0.354 N 
ATOM     31  N   UNL     1       6.496  -8.217  -5.313  1.00  0.00    -0.248 NA
ATOM     32  C   UNL     1       6.040 -10.438  -4.740  1.00  0.00     0.031 C 
ATOM     33  C   UNL     1       8.798  -6.986  -8.902  1.00  0.00     0.029 A 
ATOM     34  C   UNL     1       8.044  -7.394  -7.813  1.00  0.00     0.049 A 
ATOM     35  H   UNL     1       7.027  -6.220  -6.385  1.00  0.00     0.167 HD
ATOM     36  C   UNL     1       7.064  -9.059  -6.260  1.00  0.00     0.074 A 
ATOM     37  C   UNL     1       6.783 -10.416  -5.839  1.00  0.00     0.031 C 
ATOM     38  C   UNL     1       7.747  -8.736  -7.385  1.00  0.00     0.031 A 
BRANCH  25  39
ATOM     39  C   UNL     1       8.138  -2.691  -8.523  1.00  0.00    -0.014 A 
ATOM     40  C   UNL     1       9.212  -1.842  -8.208  1.00  0.00     0.010 A 
ATOM     41  C   UNL     1       7.559  -2.617  -9.804  1.00  0.00     0.010 A 
ATOM     42  C   UNL     1       9.694  -0.932  -9.155  1.00  0.00     0.020 A 
ATOM     43  C   UNL     1       8.050  -1.723 -10.760  1.00  0.00     0.020 A 
ATOM     44  C   UNL     1       9.113  -0.882 -10.427  1.00  0.00     0.054 A 
BRANCH  44  45
ATOM     45  S   UNL     1       9.806   0.259 -11.656  1.00  0.00     0.124 S 
ATOM     46  O   UNL     1       9.375   1.556 -11.140  1.00  0.00    -0.237 OA
ATOM     47  O   UNL     1      11.240  -0.007 -11.566  1.00  0.00    -0.237 OA
ATOM     48  O   UNL     1       9.176  -0.153 -12.908  1.00  0.00    -0.744 OA
ENDBRANCH  44  45
ENDBRANCH  25  39
BRANCH  26  49
ATOM     49  C   UNL     1       4.527  -9.680  -2.345  1.00  0.00    -0.014 A 
ATOM     50  C   UNL     1       5.322 -10.544  -1.576  1.00  0.00     0.010 A 
ATOM     51  C   UNL     1       3.126  -9.813  -2.298  1.00  0.00     0.010 A 
ATOM     52  C   UNL     1       4.729 -11.544  -0.799  1.00  0.00     0.020 A 
ATOM     53  C   UNL     1       2.529 -10.789  -1.498  1.00  0.00     0.020 A 
ATOM     54  C   UNL     1       3.336 -11.662  -0.769  1.00  0.00     0.054 A 
BRANCH  54  55
ATOM     55  S   UNL     1       2.586 -12.954   0.258  1.00  0.00     0.124 S 
ATOM     56  O   UNL     1       2.827 -14.152  -0.540  1.00  0.00    -0.237 OA
ATOM     57  O   UNL     1       3.348 -12.856   1.500  1.00  0.00    -0.237 OA
ATOM     58  O   UNL     1       1.188 -12.540   0.361  1.00  0.00    -0.744 OA
ENDBRANCH  54  55
ENDBRANCH  26  49
BRANCH  38  59
ATOM     59  C   UNL     1       8.239  -9.872  -8.238  1.00  0.00    -0.014 A 
ATOM     60  C   UNL     1       7.345 -10.621  -9.023  1.00  0.00     0.010 A 
ATOM     61  C   UNL     1       9.615 -10.157  -8.299  1.00  0.00     0.010 A 
ATOM     62  C   UNL     1       7.816 -11.652  -9.839  1.00  0.00     0.020 A 
ATOM     63  C   UNL     1      10.093 -11.169  -9.135  1.00  0.00     0.020 A 
ATOM     64  C   UNL     1       9.188 -11.917  -9.892  1.00  0.00     0.054 A 
BRANCH  64  65
ATOM     65  S   UNL     1       9.780 -13.221 -11.004  1.00  0.00     0.124 S 
ATOM     66  O   UNL     1       9.364 -14.431 -10.302  1.00  0.00    -0.237 OA
ATOM     67  O   UNL     1       9.062 -12.934 -12.244  1.00  0.00    -0.237 OA
ATOM     68  O   UNL     1      11.223 -12.999 -11.061  1.00  0.00    -0.744 OA
ENDBRANCH  64  65
ENDBRANCH  38  59
ENDBRANCH  12  13
ENDBRANCH   5   7
ENDBRANCH   2   3
ENDBRANCH   1   2
BRANCH   1  69
ATOM     69  C   UNL     1       4.159   3.414   1.925  1.00  0.00     0.002 C 
BRANCH  69  70
ATOM     70  C   UNL     1       4.616   2.928   3.304  1.00  0.00     0.002 C 
BRANCH  70  71
ATOM     71  C   UNL     1       6.127   2.749   3.484  1.00  0.00     0.021 C 
BRANCH  71  72
ATOM     72  C   UNL     1       6.975   3.960   3.115  1.00  0.00     0.116 C 
BRANCH  72  73
ATOM     73  N   UNL     1       6.653   5.139   3.902  1.00  0.00    -0.352 N 
ATOM     74  C   UNL     1       7.509   6.060   4.451  1.00  0.00     0.252 C 
ATOM     75  H   UNL     1       5.695   5.297   4.062  1.00  0.00     0.163 HD
ATOM     76  O   UNL     1       7.085   6.994   5.124  1.00  0.00    -0.269 OA
BRANCH  74  77
ATOM     77  C   UNL     1       8.964   5.887   4.280  1.00  0.00     0.051 A 
ATOM     78  C   UNL     1       9.682   5.640   5.447  1.00  0.00     0.043 A 
ATOM     79  C   UNL     1       9.593   5.923   3.018  1.00  0.00     0.016 A 
ATOM     80  C   UNL     1      11.034   5.391   5.334  1.00  0.00     0.072 A 
ATOM     81  C   UNL     1      10.962   5.600   2.998  1.00  0.00     0.107 A 
ATOM     82  C   UNL     1       8.932   6.240   1.802  1.00  0.00     0.011 A 
ATOM     83  N   UNL     1      11.659   5.360   4.134  1.00  0.00    -0.245 NA
ATOM     84  C   UNL     1      11.586   5.518   1.751  1.00  0.00     0.149 A 
ATOM     85  C   UNL     1       9.586   6.150   0.576  1.00  0.00     0.004 A 
ATOM     86  F   UNL     1      12.882   5.170   1.678  1.00  0.00    -0.205 F 
ATOM     87  C   UNL     1      10.918   5.768   0.552  1.00  0.00     0.041 A 
BRANCH  80  88
ATOM     88  C   UNL     1      11.883   5.148   6.506  1.00  0.00     0.003 A 
ATOM     89  C   UNL     1      13.036   5.925   6.724  1.00  0.00     0.010 A 
ATOM     90  C   UNL     1      11.569   4.154   7.446  1.00  0.00     0.049 A 
ATOM     91  C   UNL     1      13.838   5.732   7.854  1.00  0.00     0.004 A 
ATOM     92  C   UNL     1      12.378   3.962   8.562  1.00  0.00     0.123 A 
ATOM     93  C   UNL     1      13.505   4.746   8.778  1.00  0.00     0.039 A 
ATOM     94  F   UNL     1      12.063   3.006   9.446  1.00  0.00    -0.207 F 
ENDBRANCH  80  88
ENDBRANCH  74  77
ENDBRANCH  72  73
ENDBRANCH  71  72
ENDBRANCH  70  71
ENDBRANCH  69  70
ENDBRANCH   1  69
TORSDOF 17
