REMARK SMILES CCOCCC[N@@H+]1[C@@H](C(=O)NCCCCCCNC(=O)c2ccc(-c3c4nc(c(-c5ccc(S(=O)(=O)[O-])cc5)c5ccc([nH]5)c(-c5ccc(S(=O)(=O)[O-])cc5)c5nc(c(-c6ccc(S(=O)(=O)[O-])cc6)c6ccc3[nH]6)C=C5)C=C4)cc2)CC[C@H]2CCCC[C@H]21
REMARK SMILES IDX 13 1 12 2 11 3 9 4 10 5 8 7 7 8 88 9 81 11 83 12 87 13 82 14
REMARK SMILES IDX 84 15 86 16 85 17 6 18 5 19 4 20 3 21 2 22 1 23 14 24 15 25
REMARK SMILES IDX 16 26 17 27 18 28 19 29 20 31 21 32 22 33 80 34 23 35 79 36
REMARK SMILES IDX 24 37 25 38 26 39 73 40 27 41 78 42 72 43 74 44 28 45 77 46
REMARK SMILES IDX 71 47 70 48 29 50 59 51 40 52 58 53 41 54 44 55 57 56 75 57
REMARK SMILES IDX 42 58 43 59 56 61 76 62 45 63 30 64 31 65 39 66 32 67 38 68
REMARK SMILES IDX 33 69 34 70 35 71 36 72 37 73 60 74 61 75 69 76 62 77 68 78
REMARK SMILES IDX 63 79 64 80 65 81 66 82 67 83 46 84 47 85 55 86 48 87 54 88
REMARK SMILES IDX 49 89 50 90 51 91 52 92 53 93
REMARK H PARENT 11 6 7 10 18 30 74 49 44 60
REMARK Flexibility Score: inf
ROOT
ATOM      1  C   UNL     1       6.556   1.615  -3.090  1.00  0.00     0.021 C 
ENDROOT
BRANCH   1   2
ATOM      2  C   UNL     1       5.423   0.592  -3.067  1.00  0.00     0.116 C 
BRANCH   2   3
ATOM      3  N   UNL     1       5.801  -0.560  -2.278  1.00  0.00    -0.351 N 
ATOM      4  C   UNL     1       5.307  -0.969  -1.075  1.00  0.00     0.278 C 
ATOM      5  O   UNL     1       5.862  -1.923  -0.520  1.00  0.00    -0.268 OA
ATOM      6  H   UNL     1       6.510  -1.125  -2.663  1.00  0.00     0.163 HD
BRANCH   4   7
ATOM      7  C   UNL     1       4.085  -0.272  -0.426  1.00  0.00     0.274 C 
ATOM      8  N   UNL     1       2.917  -0.300  -1.349  1.00  0.00    -0.322 N 
ATOM      9  C   UNL     1       1.810   0.613  -1.004  1.00  0.00     0.187 C 
ATOM     10  H   UNL     1       3.278   0.103  -2.213  1.00  0.00     0.349 HD
ATOM     11  C   UNL     1       4.489   1.103   0.123  1.00  0.00     0.076 C 
ATOM     12  C   UNL     1       2.239   2.025  -0.534  1.00  0.00     0.048 C 
ATOM     13  C   UNL     1       0.786   0.812  -2.145  1.00  0.00     0.065 C 
ATOM     14  C   UNL     1       3.283   1.911   0.579  1.00  0.00     0.016 C 
ATOM     15  C   UNL     1       2.699   2.975  -1.659  1.00  0.00     0.010 C 
ATOM     16  C   UNL     1       1.402   1.532  -3.336  1.00  0.00     0.006 C 
ATOM     17  C   UNL     1       1.869   2.926  -2.942  1.00  0.00     0.001 C 
BRANCH   8  18
ATOM     18  C   UNL     1       2.481  -1.678  -1.692  1.00  0.00     0.265 C 
BRANCH  18  19
ATOM     19  C   UNL     1       2.488  -2.825  -0.656  1.00  0.00     0.090 C 
BRANCH  19  20
ATOM     20  C   UNL     1       1.810  -2.608   0.698  1.00  0.00     0.166 C 
BRANCH  20  21
ATOM     21  O   UNL     1       0.417  -2.913   0.712  1.00  0.00    -0.382 OA
BRANCH  21  22
ATOM     22  C   UNL     1      -0.456  -1.838   0.388  1.00  0.00     0.156 C 
ATOM     23  C   UNL     1      -0.530  -0.773   1.475  1.00  0.00     0.035 C 
ENDBRANCH  21  22
ENDBRANCH  20  21
ENDBRANCH  19  20
ENDBRANCH  18  19
ENDBRANCH   8  18
ENDBRANCH   4   7
ENDBRANCH   2   3
ENDBRANCH   1   2
BRANCH   1  24
ATOM     24  C   UNL     1       7.750   1.168  -3.937  1.00  0.00     0.002 C 
BRANCH  24  25
ATOM     25  C   UNL     1       7.410   0.880  -5.403  1.00  0.00     0.002 C 
BRANCH  25  26
ATOM     26  C   UNL     1       6.715   2.033  -6.134  1.00  0.00     0.021 C 
BRANCH  26  27
ATOM     27  C   UNL     1       7.495   3.344  -6.117  1.00  0.00     0.116 C 
BRANCH  27  28
ATOM     28  N   UNL     1       8.803   3.200  -6.735  1.00  0.00    -0.352 N 
ATOM     29  C   UNL     1       9.360   3.922  -7.759  1.00  0.00     0.251 C 
ATOM     30  H   UNL     1       9.368   2.483  -6.367  1.00  0.00     0.163 HD
ATOM     31  O   UNL     1      10.381   3.527  -8.310  1.00  0.00    -0.269 OA
BRANCH  29  32
ATOM     32  C   UNL     1       8.708   5.172  -8.199  1.00  0.00     0.039 A 
ATOM     33  C   UNL     1       8.518   5.391  -9.564  1.00  0.00     0.014 A 
ATOM     34  C   UNL     1       8.279   6.117  -7.262  1.00  0.00     0.014 A 
ATOM     35  C   UNL     1       7.841   6.535  -9.988  1.00  0.00     0.010 A 
ATOM     36  C   UNL     1       7.546   7.222  -7.682  1.00  0.00     0.010 A 
ATOM     37  C   UNL     1       7.320   7.441  -9.049  1.00  0.00    -0.014 A 
BRANCH  37  38
ATOM     38  C   UNL     1       6.510   8.607  -9.480  1.00  0.00     0.031 A 
ATOM     39  C   UNL     1       7.000  10.007  -9.234  1.00  0.00     0.074 A 
ATOM     40  C   UNL     1       5.298   8.400 -10.031  1.00  0.00     0.049 A 
ATOM     41  N   UNL     1       6.411  11.144  -9.502  1.00  0.00    -0.248 NA
ATOM     42  C   UNL     1       8.312  10.149  -8.581  1.00  0.00     0.031 C 
ATOM     43  C   UNL     1       4.692   7.088 -10.273  1.00  0.00     0.029 A 
ATOM     44  N   UNL     1       4.354   9.289 -10.480  1.00  0.00    -0.354 N 
ATOM     45  C   UNL     1       7.268  12.134  -9.037  1.00  0.00     0.074 A 
ATOM     46  C   UNL     1       8.398  11.463  -8.431  1.00  0.00     0.031 C 
ATOM     47  C   UNL     1       3.490   7.258 -10.845  1.00  0.00     0.029 A 
ATOM     48  C   UNL     1       3.221   8.686 -10.974  1.00  0.00     0.049 A 
ATOM     49  H   UNL     1       4.476  10.265 -10.451  1.00  0.00     0.167 HD
ATOM     50  C   UNL     1       7.134  13.479  -9.122  1.00  0.00     0.031 A 
ATOM     51  C   UNL     1       2.087   9.221 -11.466  1.00  0.00     0.031 A 
ATOM     52  C   UNL     1       6.009  14.139  -9.731  1.00  0.00     0.049 A 
ATOM     53  C   UNL     1       1.959  10.717 -11.546  1.00  0.00     0.074 A 
ATOM     54  C   UNL     1       5.812  15.494  -9.931  1.00  0.00     0.029 A 
ATOM     55  N   UNL     1       4.887  13.494 -10.230  1.00  0.00    -0.354 N 
ATOM     56  N   UNL     1       2.819  11.636 -11.179  1.00  0.00    -0.248 NA
ATOM     57  C   UNL     1       0.713  11.246 -12.116  1.00  0.00     0.031 C 
ATOM     58  C   UNL     1       4.545  15.673 -10.495  1.00  0.00     0.029 A 
ATOM     59  C   UNL     1       3.978  14.426 -10.705  1.00  0.00     0.049 A 
ATOM     60  H   UNL     1       4.755  12.519 -10.245  1.00  0.00     0.167 HD
ATOM     61  C   UNL     1       2.225  12.855 -11.489  1.00  0.00     0.074 A 
ATOM     62  C   UNL     1       0.943  12.552 -12.092  1.00  0.00     0.031 C 
ATOM     63  C   UNL     1       2.698  14.110 -11.290  1.00  0.00     0.031 A 
BRANCH  50  64
ATOM     64  C   UNL     1       8.226  14.328  -8.526  1.00  0.00    -0.014 A 
ATOM     65  C   UNL     1       9.506  14.386  -9.108  1.00  0.00     0.010 A 
ATOM     66  C   UNL     1       7.958  15.111  -7.388  1.00  0.00     0.010 A 
ATOM     67  C   UNL     1      10.509  15.175  -8.538  1.00  0.00     0.020 A 
ATOM     68  C   UNL     1       8.950  15.924  -6.832  1.00  0.00     0.020 A 
ATOM     69  C   UNL     1      10.225  15.936  -7.401  1.00  0.00     0.054 A 
BRANCH  69  70
ATOM     70  S   UNL     1      11.541  16.964  -6.692  1.00  0.00     0.124 S 
ATOM     71  O   UNL     1      12.412  15.961  -6.084  1.00  0.00    -0.237 OA
ATOM     72  O   UNL     1      12.088  17.639  -7.867  1.00  0.00    -0.237 OA
ATOM     73  O   UNL     1      10.837  17.831  -5.751  1.00  0.00    -0.744 OA
ENDBRANCH  69  70
ENDBRANCH  50  64
BRANCH  51  74
ATOM     74  C   UNL     1       0.988   8.328 -11.921  1.00  0.00    -0.014 A 
ATOM     75  C   UNL     1       0.695   8.193 -13.290  1.00  0.00     0.010 A 
ATOM     76  C   UNL     1       0.248   7.580 -10.986  1.00  0.00     0.010 A 
ATOM     77  C   UNL     1      -0.324   7.334 -13.714  1.00  0.00     0.020 A 
ATOM     78  C   UNL     1      -0.751   6.700 -11.408  1.00  0.00     0.020 A 
ATOM     79  C   UNL     1      -1.037   6.589 -12.770  1.00  0.00     0.054 A 
BRANCH  79  80
ATOM     80  S   UNL     1      -2.308   5.430 -13.348  1.00  0.00     0.124 S 
ATOM     81  O   UNL     1      -3.384   6.333 -13.744  1.00  0.00    -0.237 OA
ATOM     82  O   UNL     1      -1.629   4.736 -14.439  1.00  0.00    -0.237 OA
ATOM     83  O   UNL     1      -2.580   4.608 -12.171  1.00  0.00    -0.744 OA
ENDBRANCH  79  80
ENDBRANCH  51  74
BRANCH  63  84
ATOM     84  C   UNL     1       1.829  15.254 -11.739  1.00  0.00    -0.014 A 
ATOM     85  C   UNL     1       0.655  15.592 -11.042  1.00  0.00     0.010 A 
ATOM     86  C   UNL     1       2.221  16.035 -12.841  1.00  0.00     0.010 A 
ATOM     87  C   UNL     1      -0.128  16.671 -11.460  1.00  0.00     0.020 A 
ATOM     88  C   UNL     1       1.456  17.133 -13.244  1.00  0.00     0.020 A 
ATOM     89  C   UNL     1       0.278  17.435 -12.559  1.00  0.00     0.054 A 
BRANCH  89  90
ATOM     90  S   UNL     1      -0.733  18.857 -13.054  1.00  0.00     0.124 S 
ATOM     91  O   UNL     1      -1.889  18.208 -13.668  1.00  0.00    -0.237 OA
ATOM     92  O   UNL     1      -0.991  19.526 -11.781  1.00  0.00    -0.237 OA
ATOM     93  O   UNL     1       0.130  19.593 -13.975  1.00  0.00    -0.744 OA
ENDBRANCH  89  90
ENDBRANCH  63  84
ENDBRANCH  37  38
ENDBRANCH  29  32
ENDBRANCH  27  28
ENDBRANCH  26  27
ENDBRANCH  25  26
ENDBRANCH  24  25
ENDBRANCH   1  24
TORSDOF 21
