REMARK SMILES CC[C@H](C)Oc1ccc(NC(=O)/C=C/C(=O)NCCCCCCNC(=O)c2ccc(-c3c4nc(c(-c5ccc(S(=O)(=O)[O-])cc5)c5ccc([nH]5)c(-c5ccc(S(=O)(=O)[O-])cc5)c5nc(c(-c6ccc(S(=O)(=O)[O-])cc6)c6ccc3[nH]6)C=C5)C=C4)cc2)cc1
REMARK SMILES IDX 19 1 18 2 17 3 15 4 16 5 14 7 13 8 11 9 10 10 12 12 9 13
REMARK SMILES IDX 6 14 7 15 88 16 8 17 87 18 5 19 3 20 4 21 2 22 1 23 20 24
REMARK SMILES IDX 21 25 22 26 23 27 24 28 25 29 26 31 27 32 28 33 86 34 29 35
REMARK SMILES IDX 85 36 30 37 31 38 32 39 79 40 33 41 84 42 78 43 80 44 34 45
REMARK SMILES IDX 83 46 77 47 76 48 35 50 65 51 46 52 64 53 47 54 50 55 63 56
REMARK SMILES IDX 81 57 48 58 49 59 62 61 82 62 51 63 36 64 37 65 45 66 38 67
REMARK SMILES IDX 44 68 39 69 40 70 41 71 42 72 43 73 66 74 67 75 75 76 68 77
REMARK SMILES IDX 74 78 69 79 70 80 71 81 72 82 73 83 52 84 53 85 61 86 54 87
REMARK SMILES IDX 60 88 55 89 56 90 57 91 58 92 59 93
REMARK H PARENT 17 6 10 11 24 30 80 49 50 60
REMARK Flexibility Score: inf
ROOT
ATOM      1  C   UNL     1      -4.606   7.946  -7.327  1.00  0.00     0.021 C 
ENDROOT
BRANCH   1   2
ATOM      2  C   UNL     1      -4.640   6.421  -7.349  1.00  0.00     0.116 C 
BRANCH   2   3
ATOM      3  N   UNL     1      -3.339   5.868  -7.033  1.00  0.00    -0.353 N 
ATOM      4  C   UNL     1      -3.017   4.867  -6.178  1.00  0.00     0.244 C 
ATOM      5  O   UNL     1      -1.882   4.400  -6.173  1.00  0.00    -0.270 OA
ATOM      6  H   UNL     1      -2.580   6.279  -7.506  1.00  0.00     0.163 HD
BRANCH   4   7
ATOM      7  C   UNL     1      -4.028   4.335  -5.246  1.00  0.00     0.077 C 
ATOM      8  C   UNL     1      -4.700   5.165  -4.434  1.00  0.00     0.077 C 
BRANCH   8   9
ATOM      9  C   UNL     1      -5.475   4.627  -3.309  1.00  0.00     0.248 C 
ATOM     10  N   UNL     1      -4.824   4.081  -2.239  1.00  0.00    -0.323 N 
ATOM     11  H   UNL     1      -5.421   3.734  -1.538  1.00  0.00     0.170 HD
ATOM     12  O   UNL     1      -6.702   4.668  -3.347  1.00  0.00    -0.270 OA
BRANCH  10  13
ATOM     13  C   UNL     1      -3.453   3.926  -1.957  1.00  0.00     0.041 A 
ATOM     14  C   UNL     1      -0.775   3.154  -1.607  1.00  0.00     0.119 A 
ATOM     15  C   UNL     1      -1.097   4.220  -2.438  1.00  0.00     0.048 A 
ATOM     16  C   UNL     1      -1.773   2.589  -0.825  1.00  0.00     0.048 A 
ATOM     17  C   UNL     1      -2.424   4.625  -2.585  1.00  0.00     0.030 A 
ATOM     18  C   UNL     1      -3.110   2.962  -1.009  1.00  0.00     0.030 A 
BRANCH  14  19
ATOM     19  O   UNL     1       0.538   2.815  -1.591  1.00  0.00    -0.491 OA
BRANCH  19  20
ATOM     20  C   UNL     1       0.957   1.444  -1.528  1.00  0.00     0.170 C 
ATOM     21  C   UNL     1       1.004   0.918  -0.099  1.00  0.00     0.053 C 
BRANCH  20  22
ATOM     22  C   UNL     1       0.384   0.498  -2.606  1.00  0.00     0.041 C 
ATOM     23  C   UNL     1      -0.884  -0.278  -2.270  1.00  0.00     0.008 C 
ENDBRANCH  20  22
ENDBRANCH  19  20
ENDBRANCH  14  19
ENDBRANCH  10  13
ENDBRANCH   8   9
ENDBRANCH   4   7
ENDBRANCH   2   3
ENDBRANCH   1   2
BRANCH   1  24
ATOM     24  C   UNL     1      -3.839   8.566  -8.500  1.00  0.00     0.002 C 
BRANCH  24  25
ATOM     25  C   UNL     1      -4.278   8.078  -9.886  1.00  0.00     0.002 C 
BRANCH  25  26
ATOM     26  C   UNL     1      -5.787   8.139 -10.141  1.00  0.00     0.021 C 
BRANCH  26  27
ATOM     27  C   UNL     1      -6.389   9.529  -9.996  1.00  0.00     0.116 C 
BRANCH  27  28
ATOM     28  N   UNL     1      -5.853  10.447 -10.986  1.00  0.00    -0.352 N 
ATOM     29  C   UNL     1      -6.531  11.196 -11.911  1.00  0.00     0.251 C 
ATOM     30  H   UNL     1      -4.873  10.543 -10.995  1.00  0.00     0.163 HD
ATOM     31  O   UNL     1      -5.924  11.732 -12.838  1.00  0.00    -0.269 OA
BRANCH  29  32
ATOM     32  C   UNL     1      -7.995  11.346 -11.791  1.00  0.00     0.039 A 
ATOM     33  C   UNL     1      -8.789  11.199 -12.929  1.00  0.00     0.014 A 
ATOM     34  C   UNL     1      -8.578  11.627 -10.551  1.00  0.00     0.014 A 
ATOM     35  C   UNL     1     -10.177  11.292 -12.815  1.00  0.00     0.010 A 
ATOM     36  C   UNL     1      -9.963  11.643 -10.427  1.00  0.00     0.010 A 
ATOM     37  C   UNL     1     -10.776  11.489 -11.560  1.00  0.00    -0.014 A 
BRANCH  37  38
ATOM     38  C   UNL     1     -12.251  11.550 -11.414  1.00  0.00     0.031 A 
ATOM     39  C   UNL     1     -12.910  12.816 -10.940  1.00  0.00     0.074 A 
ATOM     40  C   UNL     1     -12.990  10.449 -11.654  1.00  0.00     0.049 A 
ATOM     41  N   UNL     1     -14.176  13.049 -10.705  1.00  0.00    -0.248 NA
ATOM     42  C   UNL     1     -12.028  13.964 -10.669  1.00  0.00     0.031 C 
ATOM     43  C   UNL     1     -12.461   9.149 -12.073  1.00  0.00     0.029 A 
ATOM     44  N   UNL     1     -14.344  10.245 -11.570  1.00  0.00    -0.354 N 
ATOM     45  C   UNL     1     -14.240  14.361 -10.249  1.00  0.00     0.074 A 
ATOM     46  C   UNL     1     -12.882  14.853 -10.184  1.00  0.00     0.031 C 
ATOM     47  C   UNL     1     -13.481   8.290 -12.230  1.00  0.00     0.029 A 
ATOM     48  C   UNL     1     -14.729   8.963 -11.885  1.00  0.00     0.049 A 
ATOM     49  H   UNL     1     -14.980  10.949 -11.309  1.00  0.00     0.167 HD
ATOM     50  C   UNL     1     -15.333  15.098  -9.936  1.00  0.00     0.031 A 
ATOM     51  C   UNL     1     -15.948   8.390 -11.887  1.00  0.00     0.031 A 
ATOM     52  C   UNL     1     -16.682  14.602 -10.002  1.00  0.00     0.049 A 
ATOM     53  C   UNL     1     -17.147   9.222 -11.525  1.00  0.00     0.074 A 
ATOM     54  C   UNL     1     -17.861  15.279  -9.749  1.00  0.00     0.029 A 
ATOM     55  N   UNL     1     -17.031  13.303 -10.341  1.00  0.00    -0.354 N 
ATOM     56  N   UNL     1     -17.195  10.482 -11.162  1.00  0.00    -0.248 NA
ATOM     57  C   UNL     1     -18.457   8.561 -11.588  1.00  0.00     0.031 C 
ATOM     58  C   UNL     1     -18.921  14.374  -9.883  1.00  0.00     0.029 A 
ATOM     59  C   UNL     1     -18.406  13.151 -10.283  1.00  0.00     0.049 A 
ATOM     60  H   UNL     1     -16.395  12.593 -10.588  1.00  0.00     0.167 HD
ATOM     61  C   UNL     1     -18.542  10.772 -10.976  1.00  0.00     0.074 A 
ATOM     62  C   UNL     1     -19.275   9.560 -11.284  1.00  0.00     0.031 C 
ATOM     63  C   UNL     1     -19.120  11.935 -10.586  1.00  0.00     0.031 A 
BRANCH  50  64
ATOM     64  C   UNL     1     -15.104  16.519  -9.486  1.00  0.00    -0.014 A 
ATOM     65  C   UNL     1     -14.621  17.494 -10.379  1.00  0.00     0.010 A 
ATOM     66  C   UNL     1     -15.393  16.891  -8.161  1.00  0.00     0.010 A 
ATOM     67  C   UNL     1     -14.379  18.799  -9.941  1.00  0.00     0.020 A 
ATOM     68  C   UNL     1     -15.183  18.203  -7.727  1.00  0.00     0.020 A 
ATOM     69  C   UNL     1     -14.657  19.144  -8.615  1.00  0.00     0.054 A 
BRANCH  69  70
ATOM     70  S   UNL     1     -14.337  20.845  -8.076  1.00  0.00     0.124 S 
ATOM     71  O   UNL     1     -12.877  20.875  -8.023  1.00  0.00    -0.237 OA
ATOM     72  O   UNL     1     -14.942  21.639  -9.142  1.00  0.00    -0.237 OA
ATOM     73  O   UNL     1     -15.008  20.932  -6.781  1.00  0.00    -0.744 OA
ENDBRANCH  69  70
ENDBRANCH  50  64
BRANCH  51  74
ATOM     74  C   UNL     1     -16.087   6.954 -12.254  1.00  0.00    -0.014 A 
ATOM     75  C   UNL     1     -16.681   6.577 -13.471  1.00  0.00     0.010 A 
ATOM     76  C   UNL     1     -15.593   5.953 -11.396  1.00  0.00     0.010 A 
ATOM     77  C   UNL     1     -16.791   5.227 -13.817  1.00  0.00     0.020 A 
ATOM     78  C   UNL     1     -15.674   4.604 -11.752  1.00  0.00     0.020 A 
ATOM     79  C   UNL     1     -16.282   4.249 -12.958  1.00  0.00     0.054 A 
BRANCH  79  80
ATOM     80  S   UNL     1     -16.377   2.507 -13.458  1.00  0.00     0.124 S 
ATOM     81  O   UNL     1     -17.799   2.221 -13.293  1.00  0.00    -0.237 OA
ATOM     82  O   UNL     1     -15.895   2.549 -14.837  1.00  0.00    -0.237 OA
ATOM     83  O   UNL     1     -15.488   1.832 -12.516  1.00  0.00    -0.744 OA
ENDBRANCH  79  80
ENDBRANCH  51  74
BRANCH  63  84
ATOM     84  C   UNL     1     -20.623  11.967 -10.499  1.00  0.00    -0.014 A 
ATOM     85  C   UNL     1     -21.310  11.289  -9.476  1.00  0.00     0.010 A 
ATOM     86  C   UNL     1     -21.354  12.735 -11.423  1.00  0.00     0.010 A 
ATOM     87  C   UNL     1     -22.704  11.354  -9.399  1.00  0.00     0.020 A 
ATOM     88  C   UNL     1     -22.745  12.827 -11.331  1.00  0.00     0.020 A 
ATOM     89  C   UNL     1     -23.413  12.123 -10.327  1.00  0.00     0.054 A 
BRANCH  89  90
ATOM     90  S   UNL     1     -25.217  12.227 -10.177  1.00  0.00     0.124 S 
ATOM     91  O   UNL     1     -25.636  10.903 -10.628  1.00  0.00    -0.237 OA
ATOM     92  O   UNL     1     -25.405  12.496  -8.754  1.00  0.00    -0.237 OA
ATOM     93  O   UNL     1     -25.576  13.330 -11.066  1.00  0.00    -0.744 OA
ENDBRANCH  89  90
ENDBRANCH  63  84
ENDBRANCH  37  38
ENDBRANCH  29  32
ENDBRANCH  27  28
ENDBRANCH  26  27
ENDBRANCH  25  26
ENDBRANCH  24  25
ENDBRANCH   1  24
TORSDOF 21
