REMARK SMILES Cc1nc(C(=O)NCCCCCCNC(=O)c2ccc(-c3c4nc(c(-c5ccc(S(=O)(=O)[O-])cc5)c5ccc([nH]5)c(-c5ccc(S(=O)(=O)[O-])cc5)c5nc(c(-c6ccc(S(=O)(=O)[O-])cc6)c6ccc3[nH]6)C=C5)C=C4)cc2)nn1-c1cccc(C(F)(F)F)c1
REMARK SMILES IDX 11 1 10 2 9 3 8 4 7 5 5 6 6 7 4 9 1 10 2 11 3 12 78 13 77 14
REMARK SMILES IDX 79 15 80 16 88 17 81 18 83 19 82 20 84 21 85 22 86 23 87 24
REMARK SMILES IDX 12 25 13 26 14 27 15 28 16 30 17 31 18 32 76 33 19 34 75 35
REMARK SMILES IDX 20 36 21 37 22 38 69 39 23 40 74 41 68 42 70 43 24 44 73 45
REMARK SMILES IDX 67 46 66 47 25 49 55 50 36 51 54 52 37 53 40 54 53 55 71 56
REMARK SMILES IDX 38 57 39 58 52 60 72 61 41 62 26 63 27 64 35 65 28 66 34 67
REMARK SMILES IDX 29 68 30 69 31 70 32 71 33 72 56 73 57 74 65 75 58 76 64 77
REMARK SMILES IDX 59 78 60 79 61 80 62 81 63 82 42 83 43 84 51 85 44 86 50 87
REMARK SMILES IDX 45 88 46 89 47 90 48 91 49 92
REMARK H PARENT 7 8 14 29 70 48 40 59
REMARK Flexibility Score: inf
ROOT
ATOM      1  C   UNL     1      -0.560   7.271  -5.887  1.00  0.00     0.002 C 
ENDROOT
BRANCH   1   2
ATOM      2  C   UNL     1       0.583   6.278  -6.146  1.00  0.00     0.002 C 
BRANCH   2   3
ATOM      3  C   UNL     1       1.157   5.557  -4.926  1.00  0.00     0.021 C 
BRANCH   3   4
ATOM      4  C   UNL     1       0.147   4.820  -4.050  1.00  0.00     0.116 C 
BRANCH   4   5
ATOM      5  N   UNL     1      -0.455   3.674  -4.712  1.00  0.00    -0.349 N 
ATOM      6  C   UNL     1      -0.643   2.383  -4.242  1.00  0.00     0.290 C 
ATOM      7  O   UNL     1      -1.137   1.563  -5.021  1.00  0.00    -0.266 OA
ATOM      8  H   UNL     1      -0.775   3.839  -5.629  1.00  0.00     0.163 HD
BRANCH   6   9
ATOM      9  C   UNL     1      -0.227   2.027  -2.866  1.00  0.00     0.239 A 
ATOM     10  C   UNL     1       1.068  -0.163  -0.354  1.00  0.00     0.090 C 
ATOM     11  C   UNL     1       0.645   0.916  -1.277  1.00  0.00     0.130 A 
ATOM     12  N   UNL     1       0.160   0.755  -2.493  1.00  0.00    -0.207 NA
ATOM     13  N   UNL     1       0.610   2.260  -0.959  1.00  0.00    -0.217 N 
ATOM     14  N   UNL     1      -0.196   2.896  -1.839  1.00  0.00    -0.140 NA
BRANCH  13  15
ATOM     15  C   UNL     1       1.332   3.014  -0.001  1.00  0.00     0.067 A 
ATOM     16  C   UNL     1       0.820   4.253   0.415  1.00  0.00     0.028 A 
ATOM     17  C   UNL     1       2.600   2.605   0.430  1.00  0.00     0.041 A 
ATOM     18  C   UNL     1       1.553   5.059   1.283  1.00  0.00     0.003 A 
ATOM     19  C   UNL     1       3.362   3.435   1.273  1.00  0.00     0.058 A 
ATOM     20  C   UNL     1       2.818   4.655   1.707  1.00  0.00     0.013 A 
BRANCH  19  21
ATOM     21  C   UNL     1       4.770   3.060   1.679  1.00  0.00     0.416 C 
ATOM     22  F   UNL     1       5.686   3.975   1.270  1.00  0.00    -0.166 F 
ATOM     23  F   UNL     1       4.900   2.964   3.031  1.00  0.00    -0.166 F 
ATOM     24  F   UNL     1       5.170   1.860   1.180  1.00  0.00    -0.166 F 
ENDBRANCH  19  21
ENDBRANCH  13  15
ENDBRANCH   6   9
ENDBRANCH   4   5
ENDBRANCH   3   4
ENDBRANCH   2   3
ENDBRANCH   1   2
BRANCH   1  25
ATOM     25  C   UNL     1      -0.337   8.348  -4.813  1.00  0.00     0.021 C 
BRANCH  25  26
ATOM     26  C   UNL     1       0.819   9.295  -5.090  1.00  0.00     0.116 C 
BRANCH  26  27
ATOM     27  N   UNL     1       0.604  10.164  -6.258  1.00  0.00    -0.352 N 
ATOM     28  C   UNL     1       1.459  11.110  -6.803  1.00  0.00     0.251 C 
ATOM     29  H   UNL     1      -0.263  10.060  -6.713  1.00  0.00     0.163 HD
ATOM     30  O   UNL     1       1.015  12.026  -7.502  1.00  0.00    -0.269 OA
BRANCH  28  31
ATOM     31  C   UNL     1       2.907  10.996  -6.552  1.00  0.00     0.039 A 
ATOM     32  C   UNL     1       3.779  12.085  -6.449  1.00  0.00     0.014 A 
ATOM     33  C   UNL     1       3.389   9.707  -6.387  1.00  0.00     0.014 A 
ATOM     34  C   UNL     1       5.122  11.836  -6.152  1.00  0.00     0.010 A 
ATOM     35  C   UNL     1       4.579   9.510  -5.764  1.00  0.00     0.010 A 
ATOM     36  C   UNL     1       5.506  10.529  -5.820  1.00  0.00    -0.014 A 
BRANCH  36  37
ATOM     37  C   UNL     1       6.853  10.136  -5.440  1.00  0.00     0.031 A 
ATOM     38  C   UNL     1       7.288  10.732  -4.159  1.00  0.00     0.074 A 
ATOM     39  C   UNL     1       7.484   9.083  -6.014  1.00  0.00     0.049 A 
ATOM     40  N   UNL     1       8.081  11.736  -3.994  1.00  0.00    -0.248 NA
ATOM     41  C   UNL     1       6.589  10.314  -2.930  1.00  0.00     0.031 C 
ATOM     42  C   UNL     1       6.979   8.162  -7.047  1.00  0.00     0.029 A 
ATOM     43  N   UNL     1       8.684   8.529  -5.703  1.00  0.00    -0.354 N 
ATOM     44  C   UNL     1       8.202  11.879  -2.618  1.00  0.00     0.074 A 
ATOM     45  C   UNL     1       7.068  11.197  -2.051  1.00  0.00     0.031 C 
ATOM     46  C   UNL     1       7.761   7.058  -7.101  1.00  0.00     0.029 A 
ATOM     47  C   UNL     1       8.908   7.260  -6.235  1.00  0.00     0.049 A 
ATOM     48  H   UNL     1       9.348   8.991  -5.142  1.00  0.00     0.167 HD
ATOM     49  C   UNL     1       9.388  12.238  -2.051  1.00  0.00     0.031 A 
ATOM     50  C   UNL     1       9.953   6.433  -5.960  1.00  0.00     0.031 A 
ATOM     51  C   UNL     1      10.335  12.657  -3.058  1.00  0.00     0.049 A 
ATOM     52  C   UNL     1      11.023   7.284  -5.378  1.00  0.00     0.074 A 
ATOM     53  C   UNL     1      10.362  13.637  -4.028  1.00  0.00     0.029 A 
ATOM     54  N   UNL     1      11.279  11.723  -3.427  1.00  0.00    -0.354 N 
ATOM     55  N   UNL     1      11.629   8.226  -6.046  1.00  0.00    -0.248 NA
ATOM     56  C   UNL     1      11.063   7.423  -3.930  1.00  0.00     0.031 C 
ATOM     57  C   UNL     1      10.981  13.021  -5.155  1.00  0.00     0.029 A 
ATOM     58  C   UNL     1      11.384  11.733  -4.792  1.00  0.00     0.049 A 
ATOM     59  H   UNL     1      11.790  11.146  -2.814  1.00  0.00     0.167 HD
ATOM     60  C   UNL     1      11.735   9.284  -5.152  1.00  0.00     0.074 A 
ATOM     61  C   UNL     1      11.457   8.697  -3.841  1.00  0.00     0.031 C 
ATOM     62  C   UNL     1      11.745  10.578  -5.590  1.00  0.00     0.031 A 
BRANCH  49  63
ATOM     63  C   UNL     1       9.855  11.771  -0.689  1.00  0.00    -0.014 A 
ATOM     64  C   UNL     1      11.120  12.202  -0.240  1.00  0.00     0.010 A 
ATOM     65  C   UNL     1       9.247  10.726   0.035  1.00  0.00     0.010 A 
ATOM     66  C   UNL     1      11.783  11.553   0.807  1.00  0.00     0.020 A 
ATOM     67  C   UNL     1       9.878  10.100   1.110  1.00  0.00     0.020 A 
ATOM     68  C   UNL     1      11.161  10.492   1.464  1.00  0.00     0.054 A 
BRANCH  68  69
ATOM     69  S   UNL     1      12.065   9.587   2.740  1.00  0.00     0.124 S 
ATOM     70  O   UNL     1      13.134   8.967   1.964  1.00  0.00    -0.237 OA
ATOM     71  O   UNL     1      12.473  10.659   3.644  1.00  0.00    -0.237 OA
ATOM     72  O   UNL     1      11.065   8.669   3.279  1.00  0.00    -0.744 OA
ENDBRANCH  68  69
ENDBRANCH  49  63
BRANCH  50  73
ATOM     73  C   UNL     1       9.982   4.946  -5.882  1.00  0.00    -0.014 A 
ATOM     74  C   UNL     1      11.192   4.223  -5.893  1.00  0.00     0.010 A 
ATOM     75  C   UNL     1       8.816   4.246  -5.508  1.00  0.00     0.010 A 
ATOM     76  C   UNL     1      11.241   2.869  -5.500  1.00  0.00     0.020 A 
ATOM     77  C   UNL     1       8.856   2.899  -5.115  1.00  0.00     0.020 A 
ATOM     78  C   UNL     1      10.072   2.220  -5.095  1.00  0.00     0.054 A 
BRANCH  78  79
ATOM     79  S   UNL     1      10.160   0.523  -4.439  1.00  0.00     0.124 S 
ATOM     80  O   UNL     1      10.490  -0.256  -5.629  1.00  0.00    -0.237 OA
ATOM     81  O   UNL     1      11.216   0.621  -3.436  1.00  0.00    -0.237 OA
ATOM     82  O   UNL     1       8.819   0.292  -3.901  1.00  0.00    -0.744 OA
ENDBRANCH  78  79
ENDBRANCH  50  73
BRANCH  62  83
ATOM     83  C   UNL     1      11.952  10.844  -7.064  1.00  0.00    -0.014 A 
ATOM     84  C   UNL     1      11.036  10.482  -8.073  1.00  0.00     0.010 A 
ATOM     85  C   UNL     1      13.037  11.668  -7.408  1.00  0.00     0.010 A 
ATOM     86  C   UNL     1      11.210  10.937  -9.392  1.00  0.00     0.020 A 
ATOM     87  C   UNL     1      13.205  12.137  -8.711  1.00  0.00     0.020 A 
ATOM     88  C   UNL     1      12.293  11.767  -9.700  1.00  0.00     0.054 A 
BRANCH  88  89
ATOM     89  S   UNL     1      12.481  12.417 -11.385  1.00  0.00     0.124 S 
ATOM     90  O   UNL     1      12.832  11.223 -12.148  1.00  0.00    -0.237 OA
ATOM     91  O   UNL     1      11.163  12.981 -11.666  1.00  0.00    -0.237 OA
ATOM     92  O   UNL     1      13.552  13.406 -11.259  1.00  0.00    -0.744 OA
ENDBRANCH  88  89
ENDBRANCH  62  83
ENDBRANCH  36  37
ENDBRANCH  28  31
ENDBRANCH  26  27
ENDBRANCH  25  26
ENDBRANCH   1  25
TORSDOF 18
