REMARK SMILES O=C(NCCCCCCNC(=O)[C@H]1CCCN1S(=O)(=O)c1cccc([N+](=O)[O-])c1)c1ccc(-c2c3nc(c(-c4ccc(S(=O)(=O)[O-])cc4)c4ccc([nH]4)c(-c4ccc(S(=O)(=O)[O-])cc4)c4nc(c(-c5ccc(S(=O)(=O)[O-])cc5)c5ccc2[nH]5)C=C4)C=C3)cc1
REMARK SMILES IDX 6 1 5 2 4 3 3 4 1 5 2 6 30 8 31 9 89 10 32 11 88 12 33 13
REMARK SMILES IDX 34 14 35 15 82 16 36 17 87 18 81 19 83 20 37 21 86 22 80 23
REMARK SMILES IDX 79 24 38 26 68 27 49 28 67 29 50 30 53 31 66 32 84 33 51 34
REMARK SMILES IDX 52 35 65 37 85 38 54 39 39 40 40 41 48 42 41 43 47 44 42 45
REMARK SMILES IDX 43 46 44 47 45 48 46 49 69 50 70 51 78 52 71 53 77 54 72 55
REMARK SMILES IDX 73 56 74 57 75 58 76 59 55 60 56 61 64 62 57 63 63 64 58 65
REMARK SMILES IDX 59 66 60 67 61 68 62 69 7 70 8 71 9 72 10 73 11 74 12 76
REMARK SMILES IDX 13 77 14 78 17 79 15 80 16 81 18 82 19 83 20 84 21 85 22 86
REMARK SMILES IDX 29 87 23 88 25 89 24 90 26 91 27 92 28 93
REMARK H PARENT 3 7 83 25 53 36 10 75
REMARK Flexibility Score: inf
ROOT
ATOM      1  C   UNL     1       6.275   8.030   0.021  1.00  0.00     0.002 C 
ENDROOT
BRANCH   1   2
ATOM      2  C   UNL     1       5.032   8.720   0.588  1.00  0.00     0.021 C 
BRANCH   2   3
ATOM      3  C   UNL     1       4.998  10.234   0.409  1.00  0.00     0.116 C 
BRANCH   3   4
ATOM      4  N   UNL     1       4.949  10.623  -0.988  1.00  0.00    -0.352 N 
ATOM      5  O   UNL     1       4.083  11.594  -2.827  1.00  0.00    -0.269 OA
ATOM      6  C   UNL     1       4.102  11.511  -1.603  1.00  0.00     0.251 C 
ATOM      7  H   UNL     1       5.614  10.193  -1.574  1.00  0.00     0.163 HD
BRANCH   6   8
ATOM      8  C   UNL     1       3.204  12.357  -0.785  1.00  0.00     0.039 A 
ATOM      9  C   UNL     1       3.688  13.037   0.337  1.00  0.00     0.014 A 
ATOM     10  C   UNL     1       1.871  12.505  -1.176  1.00  0.00     0.014 A 
ATOM     11  C   UNL     1       2.821  13.801   1.113  1.00  0.00     0.010 A 
ATOM     12  C   UNL     1       1.015  13.321  -0.432  1.00  0.00     0.010 A 
ATOM     13  C   UNL     1       1.484  13.973   0.720  1.00  0.00    -0.014 A 
BRANCH  13  14
ATOM     14  C   UNL     1       0.627  14.945   1.442  1.00  0.00     0.031 A 
ATOM     15  C   UNL     1      -0.560  14.498   2.246  1.00  0.00     0.074 A 
ATOM     16  C   UNL     1       0.929  16.255   1.337  1.00  0.00     0.049 A 
ATOM     17  N   UNL     1      -1.415  15.230   2.914  1.00  0.00    -0.248 NA
ATOM     18  C   UNL     1      -0.830  13.053   2.307  1.00  0.00     0.031 C 
ATOM     19  C   UNL     1       2.046  16.802   0.559  1.00  0.00     0.029 A 
ATOM     20  N   UNL     1       0.328  17.363   1.876  1.00  0.00    -0.354 N 
ATOM     21  C   UNL     1      -2.336  14.342   3.456  1.00  0.00     0.074 A 
ATOM     22  C   UNL     1      -1.940  13.015   3.035  1.00  0.00     0.031 C 
ATOM     23  C   UNL     1       2.057  18.137   0.684  1.00  0.00     0.029 A 
ATOM     24  C   UNL     1       0.921  18.545   1.501  1.00  0.00     0.049 A 
ATOM     25  H   UNL     1      -0.453  17.316   2.474  1.00  0.00     0.167 HD
ATOM     26  C   UNL     1      -3.412  14.617   4.231  1.00  0.00     0.031 A 
ATOM     27  C   UNL     1       0.573  19.820   1.754  1.00  0.00     0.031 A 
ATOM     28  C   UNL     1      -3.790  15.941   4.651  1.00  0.00     0.049 A 
ATOM     29  C   UNL     1      -0.645  20.090   2.588  1.00  0.00     0.074 A 
ATOM     30  C   UNL     1      -4.814  16.310   5.508  1.00  0.00     0.029 A 
ATOM     31  N   UNL     1      -3.179  17.113   4.232  1.00  0.00    -0.354 N 
ATOM     32  N   UNL     1      -1.449  19.230   3.165  1.00  0.00    -0.248 NA
ATOM     33  C   UNL     1      -1.007  21.498   2.798  1.00  0.00     0.031 C 
ATOM     34  C   UNL     1      -4.859  17.707   5.561  1.00  0.00     0.029 A 
ATOM     35  C   UNL     1      -3.833  18.206   4.774  1.00  0.00     0.049 A 
ATOM     36  H   UNL     1      -2.396  17.160   3.638  1.00  0.00     0.167 HD
ATOM     37  C   UNL     1      -2.416  19.994   3.807  1.00  0.00     0.074 A 
ATOM     38  C   UNL     1      -2.078  21.384   3.572  1.00  0.00     0.031 C 
ATOM     39  C   UNL     1      -3.492  19.581   4.518  1.00  0.00     0.031 A 
BRANCH  26  40
ATOM     40  C   UNL     1      -4.285  13.473   4.671  1.00  0.00    -0.014 A 
ATOM     41  C   UNL     1      -3.891  12.614   5.711  1.00  0.00     0.010 A 
ATOM     42  C   UNL     1      -5.568  13.328   4.110  1.00  0.00     0.010 A 
ATOM     43  C   UNL     1      -4.761  11.624   6.177  1.00  0.00     0.020 A 
ATOM     44  C   UNL     1      -6.447  12.350   4.585  1.00  0.00     0.020 A 
ATOM     45  C   UNL     1      -6.035  11.499   5.612  1.00  0.00     0.054 A 
BRANCH  45  46
ATOM     46  S   UNL     1      -7.168  10.251   6.284  1.00  0.00     0.124 S 
ATOM     47  O   UNL     1      -6.596   9.013   5.759  1.00  0.00    -0.237 OA
ATOM     48  O   UNL     1      -7.036  10.440   7.726  1.00  0.00    -0.237 OA
ATOM     49  O   UNL     1      -8.466  10.623   5.726  1.00  0.00    -0.744 OA
ENDBRANCH  45  46
ENDBRANCH  26  40
BRANCH  27  50
ATOM     50  C   UNL     1       1.357  20.934   1.158  1.00  0.00    -0.014 A 
ATOM     51  C   UNL     1       2.155  21.764   1.963  1.00  0.00     0.010 A 
ATOM     52  C   UNL     1       1.310  21.162  -0.230  1.00  0.00     0.010 A 
ATOM     53  C   UNL     1       2.877  22.816   1.391  1.00  0.00     0.020 A 
ATOM     54  C   UNL     1       2.050  22.195  -0.807  1.00  0.00     0.020 A 
ATOM     55  C   UNL     1       2.817  23.027   0.010  1.00  0.00     0.054 A 
BRANCH  55  56
ATOM     56  S   UNL     1       3.788  24.374  -0.720  1.00  0.00     0.124 S 
ATOM     57  O   UNL     1       2.962  25.538  -0.417  1.00  0.00    -0.237 OA
ATOM     58  O   UNL     1       5.052  24.287   0.008  1.00  0.00    -0.237 OA
ATOM     59  O   UNL     1       3.866  24.008  -2.132  1.00  0.00    -0.744 OA
ENDBRANCH  55  56
ENDBRANCH  27  50
BRANCH  39  60
ATOM     60  C   UNL     1      -4.385  20.647   5.088  1.00  0.00    -0.014 A 
ATOM     61  C   UNL     1      -5.271  21.357   4.260  1.00  0.00     0.010 A 
ATOM     62  C   UNL     1      -4.375  20.904   6.471  1.00  0.00     0.010 A 
ATOM     63  C   UNL     1      -6.120  22.325   4.802  1.00  0.00     0.020 A 
ATOM     64  C   UNL     1      -5.239  21.854   7.019  1.00  0.00     0.020 A 
ATOM     65  C   UNL     1      -6.098  22.567   6.179  1.00  0.00     0.054 A 
BRANCH  65  66
ATOM     66  S   UNL     1      -7.248  23.789   6.868  1.00  0.00     0.124 S 
ATOM     67  O   UNL     1      -6.617  25.049   6.482  1.00  0.00    -0.237 OA
ATOM     68  O   UNL     1      -8.499  23.477   6.182  1.00  0.00    -0.237 OA
ATOM     69  O   UNL     1      -7.240  23.501   8.300  1.00  0.00    -0.744 OA
ENDBRANCH  65  66
ENDBRANCH  39  60
ENDBRANCH  13  14
ENDBRANCH   6   8
ENDBRANCH   3   4
ENDBRANCH   2   3
ENDBRANCH   1   2
BRANCH   1  70
ATOM     70  C   UNL     1       7.615   8.559   0.542  1.00  0.00     0.002 C 
BRANCH  70  71
ATOM     71  C   UNL     1       7.763   8.590   2.067  1.00  0.00     0.021 C 
BRANCH  71  72
ATOM     72  C   UNL     1       7.557   7.247   2.760  1.00  0.00     0.116 C 
BRANCH  72  73
ATOM     73  N   UNL     1       8.564   6.284   2.383  1.00  0.00    -0.355 N 
ATOM     74  C   UNL     1       9.287   5.440   3.170  1.00  0.00     0.238 C 
ATOM     75  H   UNL     1       8.756   6.230   1.419  1.00  0.00     0.163 HD
ATOM     76  O   UNL     1      10.116   4.723   2.602  1.00  0.00    -0.273 OA
BRANCH  74  77
ATOM     77  C   UNL     1       9.038   5.380   4.693  1.00  0.00     0.162 C 
ATOM     78  C   UNL     1       9.830   4.224   5.304  1.00  0.00     0.032 C 
ATOM     79  N   UNL     1       9.589   6.594   5.390  1.00  0.00    -0.185 NA
ATOM     80  C   UNL     1      11.228   4.795   5.488  1.00  0.00     0.019 C 
ATOM     81  C   UNL     1      11.060   6.312   5.529  1.00  0.00     0.103 C 
BRANCH  79  82
ATOM     82  S   UNL     1       8.871   7.042   6.887  1.00  0.00     0.244 S 
ATOM     83  O   UNL     1       8.639   5.845   7.664  1.00  0.00    -0.207 OA
ATOM     84  O   UNL     1       9.654   8.134   7.428  1.00  0.00    -0.207 OA
BRANCH  82  85
ATOM     85  C   UNL     1       7.276   7.713   6.468  1.00  0.00     0.089 A 
ATOM     86  C   UNL     1       7.069   9.098   6.510  1.00  0.00     0.022 A 
ATOM     87  C   UNL     1       6.215   6.850   6.179  1.00  0.00     0.107 A 
ATOM     88  C   UNL     1       5.808   9.626   6.219  1.00  0.00     0.008 A 
ATOM     89  C   UNL     1       4.973   7.394   5.830  1.00  0.00     0.270 A 
ATOM     90  C   UNL     1       4.758   8.778   5.859  1.00  0.00     0.086 A 
BRANCH  89  91
ATOM     91  N   UNL     1       3.907   6.501   5.365  1.00  0.00     0.062 N 
ATOM     92  O   UNL     1       2.762   6.958   5.287  1.00  0.00    -0.258 OA
ATOM     93  O   UNL     1       4.238   5.352   5.036  1.00  0.00    -0.258 OA
ENDBRANCH  89  91
ENDBRANCH  82  85
ENDBRANCH  79  82
ENDBRANCH  74  77
ENDBRANCH  72  73
ENDBRANCH  71  72
ENDBRANCH  70  71
ENDBRANCH   1  70
TORSDOF 19
