REMARK SMILES O=C(NCCCCCCNC(=O)c1ccc(-c2c3nc(c(-c4ccc(S(=O)(=O)[O-])cc4)c4ccc([nH]4)c(-c4ccc(S(=O)(=O)[O-])cc4)c4nc(c(-c5ccc(S(=O)(=O)[O-])cc5)c5ccc2[nH]5)C=C4)C=C3)cc1)C1=Cc2cc(S(F)(F)(F)(F)F)ccc2O[C@@H]1C(F)(F)F
REMARK SMILES IDX 7 1 6 2 5 3 4 4 3 5 1 6 2 7 73 9 74 10 88 11 75 12 87 13
REMARK SMILES IDX 76 14 86 15 77 16 85 17 84 18 89 19 90 20 91 21 92 22 78 23
REMARK SMILES IDX 79 24 80 25 81 26 82 27 83 28 8 29 9 30 10 31 11 32 12 34
REMARK SMILES IDX 13 35 14 36 72 37 15 38 71 39 16 40 17 41 18 42 65 43 19 44
REMARK SMILES IDX 70 45 64 46 66 47 20 48 69 49 63 50 62 51 21 53 51 54 32 55
REMARK SMILES IDX 50 56 33 57 36 58 49 59 67 60 34 61 35 62 48 64 68 65 37 66
REMARK SMILES IDX 22 67 23 68 31 69 24 70 30 71 25 72 26 73 27 74 28 75 29 76
REMARK SMILES IDX 52 77 53 78 61 79 54 80 60 81 55 82 56 83 57 84 58 85 59 86
REMARK SMILES IDX 38 87 39 88 47 89 40 90 46 91 41 92 42 93 43 94 44 95 45 96
REMARK H PARENT 3 8 10 33 66 52 36 63
REMARK Flexibility Score: inf
ROOT
ATOM      1  C   UNL     1       4.928   0.553  -4.047  1.00  0.00     0.002 C 
ENDROOT
BRANCH   1   2
ATOM      2  C   UNL     1       4.421  -0.782  -3.526  1.00  0.00     0.002 C 
BRANCH   2   3
ATOM      3  C   UNL     1       4.928  -0.998  -2.109  1.00  0.00     0.021 C 
BRANCH   3   4
ATOM      4  C   UNL     1       4.421   0.121  -1.214  1.00  0.00     0.116 C 
BRANCH   4   5
ATOM      5  N   UNL     1       2.951   0.121  -1.214  1.00  0.00    -0.352 N 
ATOM      6  O   UNL     1       0.945  -0.070   0.045  1.00  0.00    -0.270 OA
ATOM      7  C   UNL     1       2.216  -0.070   0.045  1.00  0.00     0.251 C 
ATOM      8  H   UNL     1       2.459   0.249  -2.057  1.00  0.00     0.163 HD
BRANCH   7   9
ATOM      9  C   UNL     1       2.976  -0.269   1.346  1.00  0.00     0.067 C 
ATOM     10  C   UNL     1       4.336  -0.269   1.346  1.00  0.00     0.025 C 
ATOM     11  C   UNL     1       2.216  -0.467   2.647  1.00  0.00     0.314 C 
ATOM     12  C   UNL     1       5.096  -0.070   0.045  1.00  0.00     0.019 A 
ATOM     13  O   UNL     1       3.519   1.611  -0.532  1.00  0.00    -0.475 OA
ATOM     14  C   UNL     1       6.164  -0.900  -0.254  1.00  0.00     0.036 A 
ATOM     15  C   UNL     1       4.712   0.886  -0.792  1.00  0.00     0.128 A 
ATOM     16  C   UNL     1       6.952  -0.452  -1.341  1.00  0.00     0.107 A 
ATOM     17  C   UNL     1       5.457   1.180  -1.909  1.00  0.00     0.048 A 
ATOM     18  C   UNL     1       6.559   0.438  -2.234  1.00  0.00     0.028 A 
BRANCH  11  19
ATOM     19  C   UNL     1       2.583   0.640   3.622  1.00  0.00     0.429 C 
ATOM     20  F   UNL     1       2.262   1.819   3.096  1.00  0.00    -0.167 F 
ATOM     21  F   UNL     1       1.918   0.467   4.761  1.00  0.00    -0.167 F 
ATOM     22  F   UNL     1       3.891   0.603   3.863  1.00  0.00    -0.167 F 
ENDBRANCH  11  19
BRANCH  16  23
ATOM     23  S   UNL     1       8.613  -1.148  -1.521  1.00  0.00     0.310 S 
ATOM     24  F   UNL     1       8.848  -1.155   0.048  1.00  0.00    -0.094 F 
ATOM     25  F   UNL     1       9.197   0.315  -1.533  1.00  0.00    -0.094 F 
ATOM     26  F   UNL     1      10.039  -1.748  -1.675  1.00  0.00    -0.094 F 
ATOM     27  F   UNL     1       8.025  -2.606  -1.365  1.00  0.00    -0.094 F 
ATOM     28  F   UNL     1       7.173  -0.554  -1.250  1.00  0.00    -0.094 F 
ENDBRANCH  16  23
ENDBRANCH   7   9
ENDBRANCH   4   5
ENDBRANCH   3   4
ENDBRANCH   2   3
ENDBRANCH   1   2
BRANCH   1  29
ATOM     29  C   UNL     1       6.448   0.553  -4.047  1.00  0.00     0.021 C 
BRANCH  29  30
ATOM     30  C   UNL     1       6.954  -0.566  -4.942  1.00  0.00     0.116 C 
BRANCH  30  31
ATOM     31  N   UNL     1       6.464  -0.358  -6.312  1.00  0.00    -0.352 N 
ATOM     32  C   UNL     1       7.420  -0.190  -7.417  1.00  0.00     0.251 C 
ATOM     33  H   UNL     1       5.497  -0.331  -6.490  1.00  0.00     0.163 HD
ATOM     34  O   UNL     1       6.996  -0.009  -8.602  1.00  0.00    -0.269 OA
BRANCH  32  35
ATOM     35  C   UNL     1       8.914  -0.231  -7.143  1.00  0.00     0.039 A 
ATOM     36  C   UNL     1       9.738   0.720  -7.721  1.00  0.00     0.014 A 
ATOM     37  C   UNL     1       9.405  -1.179  -6.353  1.00  0.00     0.014 A 
ATOM     38  C   UNL     1      11.117   0.412  -7.636  1.00  0.00     0.010 A 
ATOM     39  C   UNL     1      10.762  -1.337  -6.210  1.00  0.00     0.010 A 
ATOM     40  C   UNL     1      11.637  -0.469  -6.801  1.00  0.00    -0.014 A 
BRANCH  40  41
ATOM     41  C   UNL     1      13.129  -0.515  -6.514  1.00  0.00     0.031 A 
ATOM     42  C   UNL     1      13.818  -1.692  -6.811  1.00  0.00     0.074 A 
ATOM     43  C   UNL     1      13.722   0.614  -5.973  1.00  0.00     0.049 A 
ATOM     44  N   UNL     1      15.123  -1.929  -6.669  1.00  0.00    -0.248 NA
ATOM     45  C   UNL     1      13.184  -2.903  -7.353  1.00  0.00     0.031 C 
ATOM     46  C   UNL     1      13.036   1.808  -5.679  1.00  0.00     0.029 A 
ATOM     47  N   UNL     1      15.043   0.791  -5.628  1.00  0.00    -0.354 N 
ATOM     48  C   UNL     1      15.414  -3.166  -7.077  1.00  0.00     0.074 A 
ATOM     49  C   UNL     1      14.170  -3.812  -7.517  1.00  0.00     0.031 C 
ATOM     50  C   UNL     1      13.928   2.688  -5.153  1.00  0.00     0.029 A 
ATOM     51  C   UNL     1      15.186   2.059  -5.110  1.00  0.00     0.049 A 
ATOM     52  H   UNL     1      15.762   0.126  -5.732  1.00  0.00     0.167 HD
ATOM     53  C   UNL     1      16.667  -3.779  -7.102  1.00  0.00     0.031 A 
ATOM     54  C   UNL     1      16.340   2.651  -4.622  1.00  0.00     0.031 A 
ATOM     55  C   UNL     1      17.829  -3.171  -6.654  1.00  0.00     0.049 A 
ATOM     56  C   UNL     1      17.585   2.017  -4.593  1.00  0.00     0.074 A 
ATOM     57  C   UNL     1      19.102  -3.772  -6.679  1.00  0.00     0.029 A 
ATOM     58  N   UNL     1      17.968  -1.911  -6.114  1.00  0.00    -0.354 N 
ATOM     59  N   UNL     1      17.882   0.795  -5.038  1.00  0.00    -0.248 NA
ATOM     60  C   UNL     1      18.807   2.623  -4.048  1.00  0.00     0.031 C 
ATOM     61  C   UNL     1      19.995  -2.891  -6.152  1.00  0.00     0.029 A 
ATOM     62  C   UNL     1      19.294  -1.726  -5.789  1.00  0.00     0.049 A 
ATOM     63  H   UNL     1      17.244  -1.257  -5.982  1.00  0.00     0.167 HD
ATOM     64  C   UNL     1      19.180   0.544  -4.857  1.00  0.00     0.074 A 
ATOM     65  C   UNL     1      19.792   1.713  -4.211  1.00  0.00     0.031 C 
ATOM     66  C   UNL     1      19.880  -0.612  -5.208  1.00  0.00     0.031 A 
BRANCH  53  67
ATOM     67  C   UNL     1      16.764  -5.193  -7.651  1.00  0.00    -0.014 A 
ATOM     68  C   UNL     1      16.388  -5.386  -8.970  1.00  0.00     0.010 A 
ATOM     69  C   UNL     1      17.207  -6.199  -6.907  1.00  0.00     0.010 A 
ATOM     70  C   UNL     1      16.242  -6.746  -9.332  1.00  0.00     0.020 A 
ATOM     71  C   UNL     1      17.160  -7.490  -7.376  1.00  0.00     0.020 A 
ATOM     72  C   UNL     1      16.744  -7.760  -8.650  1.00  0.00     0.054 A 
BRANCH  72  73
ATOM     73  S   UNL     1      16.873  -9.418  -9.364  1.00  0.00     0.124 S 
ATOM     74  O   UNL     1      15.478  -9.918  -9.749  1.00  0.00    -0.237 OA
ATOM     75  O   UNL     1      17.759  -9.369 -10.611  1.00  0.00    -0.237 OA
ATOM     76  O   UNL     1      17.562 -10.481  -8.216  1.00  0.00    -0.744 OA
ENDBRANCH  72  73
ENDBRANCH  53  67
BRANCH  54  77
ATOM     77  C   UNL     1      16.247   4.072  -4.088  1.00  0.00    -0.014 A 
ATOM     78  C   UNL     1      17.016   5.091  -4.626  1.00  0.00     0.010 A 
ATOM     79  C   UNL     1      15.427   4.293  -3.068  1.00  0.00     0.010 A 
ATOM     80  C   UNL     1      17.065   6.256  -3.825  1.00  0.00     0.020 A 
ATOM     81  C   UNL     1      15.432   5.503  -2.416  1.00  0.00     0.020 A 
ATOM     82  C   UNL     1      16.211   6.536  -2.857  1.00  0.00     0.054 A 
BRANCH  82  83
ATOM     83  S   UNL     1      16.080   8.198  -2.153  1.00  0.00     0.124 S 
ATOM     84  O   UNL     1      17.427   8.605  -1.552  1.00  0.00    -0.237 OA
ATOM     85  O   UNL     1      15.691   9.189  -3.252  1.00  0.00    -0.237 OA
ATOM     86  O   UNL     1      14.884   8.206  -0.930  1.00  0.00    -0.744 OA
ENDBRANCH  82  83
ENDBRANCH  54  77
BRANCH  66  87
ATOM     87  C   UNL     1      21.375  -0.652  -4.936  1.00  0.00    -0.014 A 
ATOM     88  C   UNL     1      21.833  -0.511  -3.636  1.00  0.00     0.010 A 
ATOM     89  C   UNL     1      22.216  -0.822  -5.949  1.00  0.00     0.010 A 
ATOM     90  C   UNL     1      23.224  -0.272  -3.542  1.00  0.00     0.020 A 
ATOM     91  C   UNL     1      23.572  -0.708  -5.757  1.00  0.00     0.020 A 
ATOM     92  C   UNL     1      24.092  -0.509  -4.508  1.00  0.00     0.054 A 
BRANCH  92  93
ATOM     93  S   UNL     1      25.874  -0.569  -4.197  1.00  0.00     0.124 S 
ATOM     94  O   UNL     1      26.339   0.778  -3.639  1.00  0.00    -0.237 OA
ATOM     95  O   UNL     1      26.178  -1.673  -3.182  1.00  0.00    -0.237 OA
ATOM     96  O   UNL     1      26.698  -0.895  -5.659  1.00  0.00    -0.744 OA
ENDBRANCH  92  93
ENDBRANCH  66  87
ENDBRANCH  40  41
ENDBRANCH  32  35
ENDBRANCH  30  31
ENDBRANCH  29  30
ENDBRANCH   1  29
TORSDOF 18
