REMARK SMILES CCCC(O)(CCC)[C@@]1(C)CC[C@@H](C(=O)NCCCCCCNC(=O)c2ccc(-c3c4nc(c(-c5ccc(S(=O)(=O)[O-])cc5)c5ccc([nH]5)c(-c5ccc(S(=O)(=O)[O-])cc5)c5nc(c(-c6ccc(S(=O)(=O)[O-])cc6)c6ccc3[nH]6)C=C5)C=C4)cc2)C(C)(C)O1
REMARK SMILES IDX 19 1 18 2 17 3 16 4 14 5 15 6 13 8 9 9 10 10 11 11 89 12
REMARK SMILES IDX 12 13 86 14 87 15 88 16 4 17 3 18 2 19 1 20 5 21 6 23 7 24
REMARK SMILES IDX 8 25 20 26 21 27 22 28 23 29 24 30 25 32 26 33 27 34 85 35
REMARK SMILES IDX 28 36 84 37 29 38 30 39 31 40 78 41 32 42 83 43 77 44 79 45
REMARK SMILES IDX 33 46 82 47 76 48 75 49 34 51 64 52 45 53 63 54 46 55 49 56
REMARK SMILES IDX 62 57 80 58 47 59 48 60 61 62 81 63 50 64 35 65 36 66 44 67
REMARK SMILES IDX 37 68 43 69 38 70 39 71 40 72 41 73 42 74 65 75 66 76 74 77
REMARK SMILES IDX 67 78 73 79 68 80 69 81 70 82 71 83 72 84 51 85 52 86 60 87
REMARK SMILES IDX 53 88 59 89 54 90 55 91 56 92 57 93 58 94
REMARK H PARENT 16 7 5 22 23 31 79 50 49 61
REMARK Flexibility Score: inf
ROOT
ATOM      1  C   UNL     1      -4.081   2.106   7.181  1.00  0.00     0.002 C 
ENDROOT
BRANCH   1   2
ATOM      2  C   UNL     1      -2.924   1.462   6.423  1.00  0.00     0.021 C 
BRANCH   2   3
ATOM      3  C   UNL     1      -2.378   2.311   5.280  1.00  0.00     0.116 C 
BRANCH   3   4
ATOM      4  N   UNL     1      -1.444   3.316   5.749  1.00  0.00    -0.356 N 
ATOM      5  C   UNL     1      -0.157   3.589   5.407  1.00  0.00     0.226 C 
ATOM      6  O   UNL     1       0.397   4.502   6.031  1.00  0.00    -0.275 OA
ATOM      7  H   UNL     1      -1.809   3.911   6.444  1.00  0.00     0.163 HD
BRANCH   5   8
ATOM      8  C   UNL     1       0.625   2.815   4.336  1.00  0.00     0.110 C 
ATOM      9  C   UNL     1       1.478   0.636   2.450  1.00  0.00     0.095 C 
ATOM     10  C   UNL     1       2.706   0.769   1.508  1.00  0.00     0.045 C 
ATOM     11  C   UNL     1       0.504   1.756   1.978  1.00  0.00     0.039 C 
ATOM     12  O   UNL     1       2.020   0.915   3.760  1.00  0.00    -0.366 OA
ATOM     13  C   UNL     1      -0.092   2.725   2.994  1.00  0.00     0.019 C 
ATOM     14  C   UNL     1       1.249   1.500   4.824  1.00  0.00     0.075 C 
ATOM     15  C   UNL     1       0.280   0.526   5.494  1.00  0.00     0.043 C 
ATOM     16  C   UNL     1       2.304   1.800   5.919  1.00  0.00     0.043 C 
BRANCH   9  17
ATOM     17  C   UNL     1       0.919  -0.872   2.378  1.00  0.00     0.093 C 
BRANCH  17  18
ATOM     18  C   UNL     1       1.046  -1.661   1.024  1.00  0.00     0.038 C 
BRANCH  18  19
ATOM     19  C   UNL     1       0.130  -1.392  -0.176  1.00  0.00    -0.000 C 
ATOM     20  C   UNL     1       0.597  -0.298  -1.115  1.00  0.00     0.004 C 
ENDBRANCH  18  19
ENDBRANCH  17  18
BRANCH  17  21
ATOM     21  O   UNL     1      -0.483  -0.856   2.734  1.00  0.00    -0.387 OA
ATOM     22  H   UNL     1      -0.836  -1.758   2.696  1.00  0.00     0.211 HD
ENDBRANCH  17  21
BRANCH  17  23
ATOM     23  C   UNL     1       1.563  -1.818   3.464  1.00  0.00     0.038 C 
BRANCH  23  24
ATOM     24  C   UNL     1       3.048  -2.206   3.422  1.00  0.00    -0.000 C 
ATOM     25  C   UNL     1       4.038  -1.202   3.997  1.00  0.00     0.004 C 
ENDBRANCH  23  24
ENDBRANCH  17  23
ENDBRANCH   9  17
ENDBRANCH   5   8
ENDBRANCH   3   4
ENDBRANCH   2   3
ENDBRANCH   1   2
BRANCH   1  26
ATOM     26  C   UNL     1      -5.318   2.398   6.329  1.00  0.00     0.002 C 
BRANCH  26  27
ATOM     27  C   UNL     1      -5.825   1.216   5.498  1.00  0.00     0.021 C 
BRANCH  27  28
ATOM     28  C   UNL     1      -6.060  -0.061   6.296  1.00  0.00     0.116 C 
BRANCH  28  29
ATOM     29  N   UNL     1      -7.012   0.147   7.375  1.00  0.00    -0.352 N 
ATOM     30  C   UNL     1      -8.206  -0.495   7.596  1.00  0.00     0.251 C 
ATOM     31  H   UNL     1      -6.770   0.839   8.032  1.00  0.00     0.163 HD
ATOM     32  O   UNL     1      -9.011  -0.066   8.403  1.00  0.00    -0.269 OA
BRANCH  30  33
ATOM     33  C   UNL     1      -8.489  -1.717   6.817  1.00  0.00     0.039 A 
ATOM     34  C   UNL     1      -9.683  -1.813   6.103  1.00  0.00     0.014 A 
ATOM     35  C   UNL     1      -7.533  -2.735   6.761  1.00  0.00     0.014 A 
ATOM     36  C   UNL     1      -9.898  -2.919   5.280  1.00  0.00     0.010 A 
ATOM     37  C   UNL     1      -7.718  -3.797   5.887  1.00  0.00     0.010 A 
ATOM     38  C   UNL     1      -8.904  -3.902   5.143  1.00  0.00    -0.014 A 
BRANCH  38  39
ATOM     39  C   UNL     1      -9.074  -5.067   4.241  1.00  0.00     0.031 A 
ATOM     40  C   UNL     1      -9.098  -6.453   4.822  1.00  0.00     0.074 A 
ATOM     41  C   UNL     1      -9.108  -4.884   2.907  1.00  0.00     0.049 A 
ATOM     42  N   UNL     1      -9.096  -7.606   4.206  1.00  0.00    -0.248 NA
ATOM     43  C   UNL     1      -9.093  -6.556   6.292  1.00  0.00     0.031 C 
ATOM     44  C   UNL     1      -9.066  -3.588   2.225  1.00  0.00     0.029 A 
ATOM     45  N   UNL     1      -9.169  -5.795   1.883  1.00  0.00    -0.354 N 
ATOM     46  C   UNL     1      -9.062  -8.568   5.209  1.00  0.00     0.074 A 
ATOM     47  C   UNL     1      -8.996  -7.864   6.471  1.00  0.00     0.031 C 
ATOM     48  C   UNL     1      -9.119  -3.788   0.898  1.00  0.00     0.029 A 
ATOM     49  C   UNL     1      -9.148  -5.223   0.633  1.00  0.00     0.049 A 
ATOM     50  H   UNL     1      -9.222  -6.767   2.029  1.00  0.00     0.167 HD
ATOM     51  C   UNL     1      -9.096  -9.916   5.090  1.00  0.00     0.031 A 
ATOM     52  C   UNL     1      -9.136  -5.790  -0.589  1.00  0.00     0.031 A 
ATOM     53  C   UNL     1      -9.173 -10.607   3.830  1.00  0.00     0.049 A 
ATOM     54  C   UNL     1      -9.155  -7.291  -0.697  1.00  0.00     0.074 A 
ATOM     55  C   UNL     1      -9.264 -11.968   3.601  1.00  0.00     0.029 A 
ATOM     56  N   UNL     1      -9.169  -9.990   2.588  1.00  0.00    -0.354 N 
ATOM     57  N   UNL     1      -9.170  -8.186   0.263  1.00  0.00    -0.248 NA
ATOM     58  C   UNL     1      -9.165  -7.859  -2.052  1.00  0.00     0.031 C 
ATOM     59  C   UNL     1      -9.261 -12.177   2.219  1.00  0.00     0.029 A 
ATOM     60  C   UNL     1      -9.235 -10.943   1.588  1.00  0.00     0.049 A 
ATOM     61  H   UNL     1      -9.125  -9.017   2.441  1.00  0.00     0.167 HD
ATOM     62  C   UNL     1      -9.229  -9.421  -0.373  1.00  0.00     0.074 A 
ATOM     63  C   UNL     1      -9.253  -9.158  -1.797  1.00  0.00     0.031 C 
ATOM     64  C   UNL     1      -9.267 -10.662   0.174  1.00  0.00     0.031 A 
BRANCH  51  65
ATOM     65  C   UNL     1      -9.040 -10.730   6.356  1.00  0.00    -0.014 A 
ATOM     66  C   UNL     1     -10.111 -10.736   7.267  1.00  0.00     0.010 A 
ATOM     67  C   UNL     1      -7.912 -11.528   6.622  1.00  0.00     0.010 A 
ATOM     68  C   UNL     1     -10.039 -11.490   8.441  1.00  0.00     0.020 A 
ATOM     69  C   UNL     1      -7.848 -12.309   7.780  1.00  0.00     0.020 A 
ATOM     70  C   UNL     1      -8.906 -12.271   8.691  1.00  0.00     0.054 A 
BRANCH  70  71
ATOM     71  S   UNL     1      -8.850 -13.258  10.211  1.00  0.00     0.124 S 
ATOM     72  O   UNL     1      -8.660 -12.229  11.231  1.00  0.00    -0.237 OA
ATOM     73  O   UNL     1     -10.156 -13.912  10.216  1.00  0.00    -0.237 OA
ATOM     74  O   UNL     1      -7.710 -14.148  10.006  1.00  0.00    -0.744 OA
ENDBRANCH  70  71
ENDBRANCH  51  65
BRANCH  52  75
ATOM     75  C   UNL     1      -9.113  -4.935  -1.808  1.00  0.00    -0.014 A 
ATOM     76  C   UNL     1     -10.241  -4.858  -2.644  1.00  0.00     0.010 A 
ATOM     77  C   UNL     1      -7.969  -4.185  -2.134  1.00  0.00     0.010 A 
ATOM     78  C   UNL     1     -10.219  -4.062  -3.794  1.00  0.00     0.020 A 
ATOM     79  C   UNL     1      -7.953  -3.365  -3.266  1.00  0.00     0.020 A 
ATOM     80  C   UNL     1      -9.075  -3.318  -4.096  1.00  0.00     0.054 A 
BRANCH  80  81
ATOM     81  S   UNL     1      -9.085  -2.255  -5.566  1.00  0.00     0.124 S 
ATOM     82  O   UNL     1      -9.009  -3.232  -6.647  1.00  0.00    -0.237 OA
ATOM     83  O   UNL     1     -10.359  -1.551  -5.435  1.00  0.00    -0.237 OA
ATOM     84  O   UNL     1      -7.900  -1.419  -5.391  1.00  0.00    -0.744 OA
ENDBRANCH  80  81
ENDBRANCH  52  75
BRANCH  64  85
ATOM     85  C   UNL     1      -9.394 -11.833  -0.763  1.00  0.00    -0.014 A 
ATOM     86  C   UNL     1      -8.319 -12.249  -1.569  1.00  0.00     0.010 A 
ATOM     87  C   UNL     1     -10.592 -12.572  -0.781  1.00  0.00     0.010 A 
ATOM     88  C   UNL     1      -8.451 -13.369  -2.394  1.00  0.00     0.020 A 
ATOM     89  C   UNL     1     -10.716 -13.708  -1.582  1.00  0.00     0.020 A 
ATOM     90  C   UNL     1      -9.648 -14.093  -2.393  1.00  0.00     0.054 A 
BRANCH  90  91
ATOM     91  S   UNL     1      -9.772 -15.575  -3.431  1.00  0.00     0.124 S 
ATOM     92  O   UNL     1      -9.865 -15.001  -4.771  1.00  0.00    -0.237 OA
ATOM     93  O   UNL     1      -8.527 -16.279  -3.133  1.00  0.00    -0.237 OA
ATOM     94  O   UNL     1     -10.984 -16.235  -2.950  1.00  0.00    -0.744 OA
ENDBRANCH  90  91
ENDBRANCH  64  85
ENDBRANCH  38  39
ENDBRANCH  30  33
ENDBRANCH  28  29
ENDBRANCH  27  28
ENDBRANCH  26  27
ENDBRANCH   1  26
TORSDOF 22
