REMARK SMILES C#CCN(CC(=O)NCCCCCCNC(=O)c1ccc(-c2c3nc(c(-c4ccc(S(=O)(=O)[O-])cc4)c4ccc([nH]4)c(-c4ccc(S(=O)(=O)[O-])cc4)c4nc(c(-c5ccc(S(=O)(=O)[O-])cc5)c5ccc2[nH]5)C=C4)C=C3)cc1)C(=O)C(C)(C)[NH2+]CC
REMARK SMILES IDX 10 1 9 2 8 3 6 4 7 5 5 7 4 8 3 9 2 10 1 11 78 12 79 13 80 14
REMARK SMILES IDX 81 15 82 16 83 17 84 20 85 21 11 22 12 23 13 24 14 25 15 26
REMARK SMILES IDX 16 27 17 29 18 30 19 31 77 32 20 33 76 34 21 35 22 36 23 37
REMARK SMILES IDX 70 38 24 39 75 40 69 41 71 42 25 43 74 44 68 45 67 46 26 48
REMARK SMILES IDX 56 49 37 50 55 51 38 52 41 53 54 54 72 55 39 56 40 57 53 59
REMARK SMILES IDX 73 60 42 61 27 62 28 63 36 64 29 65 35 66 30 67 31 68 32 69
REMARK SMILES IDX 33 70 34 71 57 72 58 73 66 74 59 75 65 76 60 77 61 78 62 79
REMARK SMILES IDX 63 80 64 81 43 82 44 83 52 84 45 85 51 86 46 87 47 88 48 89
REMARK SMILES IDX 49 90 50 91
REMARK H PARENT 8 6 83 18 83 19 15 28 71 47 41 58
REMARK Flexibility Score: inf
ROOT
ATOM      1  C   UNL     1      -5.164   0.831   1.278  1.00  0.00     0.021 C 
ENDROOT
BRANCH   1   2
ATOM      2  C   UNL     1      -5.251  -0.105   0.073  1.00  0.00     0.116 C 
BRANCH   2   3
ATOM      3  N   UNL     1      -5.497   0.588  -1.172  1.00  0.00    -0.355 N 
ATOM      4  C   UNL     1      -4.651   0.876  -2.200  1.00  0.00     0.239 C 
ATOM      5  O   UNL     1      -5.157   1.256  -3.262  1.00  0.00    -0.273 OA
ATOM      6  H   UNL     1      -6.422   0.901  -1.297  1.00  0.00     0.163 HD
BRANCH   4   7
ATOM      7  C   UNL     1      -3.137   0.619  -2.118  1.00  0.00     0.220 C 
BRANCH   7   8
ATOM      8  N   UNL     1      -2.446   1.094  -0.918  1.00  0.00    -0.317 N 
BRANCH   8   9
ATOM      9  C   UNL     1      -1.893   0.059  -0.043  1.00  0.00     0.210 C 
BRANCH   9  10
ATOM     10  C   UNL     1      -0.373   0.059  -0.043  1.00  0.00    -0.085 C 
ATOM     11  C   UNL     1       0.931   0.059  -0.043  1.00  0.00     0.006 C 
ENDBRANCH   9  10
ENDBRANCH   8   9
BRANCH   8  12
ATOM     12  C   UNL     1      -2.246   2.419  -0.522  1.00  0.00     0.284 C 
ATOM     13  O   UNL     1      -1.853   2.619   0.639  1.00  0.00    -0.268 OA
BRANCH  12  14
ATOM     14  C   UNL     1      -2.576   3.671  -1.445  1.00  0.00     0.170 C 
ATOM     15  C   UNL     1      -2.352   3.507  -2.950  1.00  0.00     0.090 C 
ATOM     16  C   UNL     1      -4.039   4.073  -1.179  1.00  0.00     0.090 C 
BRANCH  14  17
ATOM     17  N   UNL     1      -1.802   4.870  -0.990  1.00  0.00    -0.334 N 
ATOM     18  H   UNL     1      -2.139   5.108  -0.058  1.00  0.00     0.347 HD
ATOM     19  H   UNL     1      -1.965   5.561  -1.722  1.00  0.00     0.347 HD
BRANCH  17  20
ATOM     20  C   UNL     1      -0.347   4.777  -0.909  1.00  0.00     0.257 C 
ATOM     21  C   UNL     1       0.382   5.005  -2.226  1.00  0.00     0.071 C 
ENDBRANCH  17  20
ENDBRANCH  14  17
ENDBRANCH  12  14
ENDBRANCH   8  12
ENDBRANCH   7   8
ENDBRANCH   4   7
ENDBRANCH   2   3
ENDBRANCH   1   2
BRANCH   1  22
ATOM     22  C   UNL     1      -6.495   1.459   1.708  1.00  0.00     0.002 C 
BRANCH  22  23
ATOM     23  C   UNL     1      -7.636   0.475   1.983  1.00  0.00     0.002 C 
BRANCH  23  24
ATOM     24  C   UNL     1      -7.316  -0.663   2.957  1.00  0.00     0.021 C 
BRANCH  24  25
ATOM     25  C   UNL     1      -6.923  -0.228   4.368  1.00  0.00     0.116 C 
BRANCH  25  26
ATOM     26  N   UNL     1      -7.998   0.478   5.043  1.00  0.00    -0.352 N 
ATOM     27  C   UNL     1      -8.599   0.232   6.249  1.00  0.00     0.251 C 
ATOM     28  H   UNL     1      -8.352   1.257   4.556  1.00  0.00     0.163 HD
ATOM     29  O   UNL     1      -9.630   0.847   6.538  1.00  0.00    -0.269 OA
BRANCH  27  30
ATOM     30  C   UNL     1      -8.049  -0.759   7.202  1.00  0.00     0.039 A 
ATOM     31  C   UNL     1      -8.943  -1.558   7.922  1.00  0.00     0.014 A 
ATOM     32  C   UNL     1      -6.675  -0.874   7.440  1.00  0.00     0.014 A 
ATOM     33  C   UNL     1      -8.463  -2.494   8.841  1.00  0.00     0.010 A 
ATOM     34  C   UNL     1      -6.193  -1.852   8.312  1.00  0.00     0.010 A 
ATOM     35  C   UNL     1      -7.082  -2.666   9.029  1.00  0.00    -0.014 A 
BRANCH  35  36
ATOM     36  C   UNL     1      -6.576  -3.710   9.958  1.00  0.00     0.031 A 
ATOM     37  C   UNL     1      -5.844  -3.342  11.220  1.00  0.00     0.074 A 
ATOM     38  C   UNL     1      -6.747  -5.009   9.643  1.00  0.00     0.049 A 
ATOM     39  N   UNL     1      -5.399  -4.124  12.171  1.00  0.00    -0.248 NA
ATOM     40  C   UNL     1      -5.551  -1.916  11.428  1.00  0.00     0.031 C 
ATOM     41  C   UNL     1      -7.366  -5.504   8.411  1.00  0.00     0.029 A 
ATOM     42  N   UNL     1      -6.416  -6.149  10.331  1.00  0.00    -0.354 N 
ATOM     43  C   UNL     1      -4.760  -3.290  13.082  1.00  0.00     0.074 A 
ATOM     44  C   UNL     1      -4.838  -1.948  12.545  1.00  0.00     0.031 C 
ATOM     45  C   UNL     1      -7.393  -6.845   8.443  1.00  0.00     0.029 A 
ATOM     46  C   UNL     1      -6.783  -7.305   9.687  1.00  0.00     0.049 A 
ATOM     47  H   UNL     1      -5.959  -6.139  11.203  1.00  0.00     0.167 HD
ATOM     48  C   UNL     1      -4.175  -3.607  14.263  1.00  0.00     0.031 A 
ATOM     49  C   UNL     1      -6.660  -8.594  10.057  1.00  0.00     0.031 A 
ATOM     50  C   UNL     1      -4.101  -4.942  14.799  1.00  0.00     0.049 A 
ATOM     51  C   UNL     1      -6.076  -8.922  11.400  1.00  0.00     0.074 A 
ATOM     52  C   UNL     1      -3.601  -5.356  16.022  1.00  0.00     0.029 A 
ATOM     53  N   UNL     1      -4.529  -6.084  14.138  1.00  0.00    -0.354 N 
ATOM     54  N   UNL     1      -5.574  -8.109  12.299  1.00  0.00    -0.248 NA
ATOM     55  C   UNL     1      -6.071 -10.337  11.792  1.00  0.00     0.031 C 
ATOM     56  C   UNL     1      -3.689  -6.752  16.083  1.00  0.00     0.029 A 
ATOM     57  C   UNL     1      -4.287  -7.204  14.917  1.00  0.00     0.049 A 
ATOM     58  H   UNL     1      -4.945  -6.097  13.246  1.00  0.00     0.167 HD
ATOM     59  C   UNL     1      -5.203  -8.913  13.370  1.00  0.00     0.074 A 
ATOM     60  C   UNL     1      -5.561 -10.272  13.014  1.00  0.00     0.031 C 
ATOM     61  C   UNL     1      -4.622  -8.556  14.543  1.00  0.00     0.031 A 
BRANCH  48  62
ATOM     62  C   UNL     1      -3.555  -2.478  15.046  1.00  0.00    -0.014 A 
ATOM     63  C   UNL     1      -4.351  -1.493  15.659  1.00  0.00     0.010 A 
ATOM     64  C   UNL     1      -2.156  -2.398  15.167  1.00  0.00     0.010 A 
ATOM     65  C   UNL     1      -3.758  -0.413  16.320  1.00  0.00     0.020 A 
ATOM     66  C   UNL     1      -1.560  -1.335  15.852  1.00  0.00     0.020 A 
ATOM     67  C   UNL     1      -2.365  -0.335  16.401  1.00  0.00     0.054 A 
BRANCH  67  68
ATOM     68  S   UNL     1      -1.616   1.086  17.245  1.00  0.00     0.124 S 
ATOM     69  O   UNL     1      -1.747   2.136  16.238  1.00  0.00    -0.237 OA
ATOM     70  O   UNL     1      -2.459   1.242  18.427  1.00  0.00    -0.237 OA
ATOM     71  O   UNL     1      -0.249   0.646  17.514  1.00  0.00    -0.744 OA
ENDBRANCH  67  68
ENDBRANCH  48  62
BRANCH  49  72
ATOM     72  C   UNL     1      -7.152  -9.658   9.144  1.00  0.00    -0.014 A 
ATOM     73  C   UNL     1      -8.374 -10.305   9.395  1.00  0.00     0.010 A 
ATOM     74  C   UNL     1      -6.437  -9.970   7.974  1.00  0.00     0.010 A 
ATOM     75  C   UNL     1      -8.878 -11.241   8.487  1.00  0.00     0.020 A 
ATOM     76  C   UNL     1      -6.948 -10.890   7.054  1.00  0.00     0.020 A 
ATOM     77  C   UNL     1      -8.165 -11.520   7.317  1.00  0.00     0.054 A 
BRANCH  77  78
ATOM     78  S   UNL     1      -8.890 -12.652   6.097  1.00  0.00     0.124 S 
ATOM     79  O   UNL     1      -8.629 -13.955   6.698  1.00  0.00    -0.237 OA
ATOM     80  O   UNL     1     -10.290 -12.235   6.069  1.00  0.00    -0.237 OA
ATOM     81  O   UNL     1      -8.140 -12.360   4.877  1.00  0.00    -0.744 OA
ENDBRANCH  77  78
ENDBRANCH  49  72
BRANCH  61  82
ATOM     82  C   UNL     1      -4.342  -9.659  15.528  1.00  0.00    -0.014 A 
ATOM     83  C   UNL     1      -3.315 -10.593  15.301  1.00  0.00     0.010 A 
ATOM     84  C   UNL     1      -5.114  -9.760  16.699  1.00  0.00     0.010 A 
ATOM     85  C   UNL     1      -3.099 -11.640  16.201  1.00  0.00     0.020 A 
ATOM     86  C   UNL     1      -4.885 -10.791  17.615  1.00  0.00     0.020 A 
ATOM     87  C   UNL     1      -3.894 -11.738  17.348  1.00  0.00     0.054 A 
BRANCH  87  88
ATOM     88  S   UNL     1      -3.601 -13.104  18.505  1.00  0.00     0.124 S 
ATOM     89  O   UNL     1      -4.259 -14.219  17.829  1.00  0.00    -0.237 OA
ATOM     90  O   UNL     1      -2.143 -13.176  18.561  1.00  0.00    -0.237 OA
ATOM     91  O   UNL     1      -4.243 -12.655  19.738  1.00  0.00    -0.744 OA
ENDBRANCH  87  88
ENDBRANCH  61  82
ENDBRANCH  35  36
ENDBRANCH  27  30
ENDBRANCH  25  26
ENDBRANCH  24  25
ENDBRANCH  23  24
ENDBRANCH  22  23
ENDBRANCH   1  22
TORSDOF 23
