REMARK SMILES CC(C)(C)OC(=O)N1C[C@H](Cc2ccccc2)[C@H](C(=O)NCCCCCCNC(=O)c2ccc(-c3c4nc(c(-c5ccc(S(=O)(=O)[O-])cc5)c5ccc([nH]5)c(-c5ccc(S(=O)(=O)[O-])cc5)c5nc(c(-c6ccc(S(=O)(=O)[O-])cc6)c6ccc3[nH]6)C=C5)C=C4)cc2)C1
REMARK SMILES IDX 24 1 23 2 22 3 21 4 19 5 20 6 18 8 8 9 9 10 91 11 10 12 6 13
REMARK SMILES IDX 7 14 5 15 2 16 1 17 3 18 4 19 11 20 12 21 13 22 17 23 14 24
REMARK SMILES IDX 16 25 15 26 25 27 26 28 27 29 28 30 29 31 30 33 31 34 32 35
REMARK SMILES IDX 90 36 33 37 89 38 34 39 35 40 36 41 83 42 37 43 88 44 82 45
REMARK SMILES IDX 84 46 38 47 87 48 81 49 80 50 39 52 69 53 50 54 68 55 51 56
REMARK SMILES IDX 54 57 67 58 85 59 52 60 53 61 66 63 86 64 55 65 40 66 41 67
REMARK SMILES IDX 49 68 42 69 48 70 43 71 44 72 45 73 46 74 47 75 70 76 71 77
REMARK SMILES IDX 79 78 72 79 78 80 73 81 74 82 75 83 76 84 77 85 56 86 57 87
REMARK SMILES IDX 65 88 58 89 64 90 59 91 60 92 61 93 62 94 63 95
REMARK H PARENT 21 7 28 32 84 51 54 62
REMARK Flexibility Score: inf
ROOT
ATOM      1  C   UNL     1      -1.441   7.371  -0.516  1.00  0.00     0.002 C 
ENDROOT
BRANCH   1   2
ATOM      2  C   UNL     1      -0.486   6.325  -1.086  1.00  0.00     0.021 C 
BRANCH   2   3
ATOM      3  C   UNL     1      -0.951   5.667  -2.394  1.00  0.00     0.116 C 
BRANCH   3   4
ATOM      4  N   UNL     1      -0.555   6.471  -3.542  1.00  0.00    -0.356 N 
ATOM      5  C   UNL     1       0.354   6.298  -4.535  1.00  0.00     0.225 C 
ATOM      6  O   UNL     1       0.499   7.252  -5.311  1.00  0.00    -0.275 OA
ATOM      7  H   UNL     1      -1.051   7.318  -3.613  1.00  0.00     0.163 HD
BRANCH   5   8
ATOM      8  C   UNL     1       1.186   5.034  -4.759  1.00  0.00     0.103 C 
ATOM      9  N   UNL     1       0.999   2.832  -3.963  1.00  0.00    -0.307 N 
ATOM     10  C   UNL     1       2.384   3.190  -3.744  1.00  0.00     0.128 C 
ATOM     11  C   UNL     1       0.346   3.762  -4.851  1.00  0.00     0.137 C 
ATOM     12  C   UNL     1       2.396   4.718  -3.822  1.00  0.00     0.027 C 
BRANCH   9  13
ATOM     13  C   UNL     1       0.346   1.734  -3.469  1.00  0.00     0.410 C 
ATOM     14  O   UNL     1      -0.703   1.322  -3.946  1.00  0.00    -0.224 OA
BRANCH  13  15
ATOM     15  O   UNL     1       0.960   1.237  -2.369  1.00  0.00    -0.444 OA
BRANCH  15  16
ATOM     16  C   UNL     1       0.431   0.088  -1.654  1.00  0.00     0.106 C 
ATOM     17  C   UNL     1       1.105   0.134  -0.274  1.00  0.00     0.056 C 
ATOM     18  C   UNL     1       0.864  -1.178  -2.393  1.00  0.00     0.056 C 
ATOM     19  C   UNL     1      -1.088   0.124  -1.432  1.00  0.00     0.056 C 
ENDBRANCH  15  16
ENDBRANCH  13  15
ENDBRANCH   9  13
BRANCH  12  20
ATOM     20  C   UNL     1       2.299   5.340  -2.434  1.00  0.00     0.041 C 
BRANCH  20  21
ATOM     21  C   UNL     1       3.390   5.082  -1.428  1.00  0.00    -0.048 A 
ATOM     22  C   UNL     1       3.110   4.291  -0.300  1.00  0.00     0.004 A 
ATOM     23  C   UNL     1       4.632   5.715  -1.524  1.00  0.00     0.004 A 
ATOM     24  C   UNL     1       4.042   4.159   0.727  1.00  0.00     0.000 A 
ATOM     25  C   UNL     1       5.564   5.581  -0.493  1.00  0.00     0.000 A 
ATOM     26  C   UNL     1       5.267   4.812   0.633  1.00  0.00     0.000 A 
ENDBRANCH  20  21
ENDBRANCH  12  20
ENDBRANCH   5   8
ENDBRANCH   3   4
ENDBRANCH   2   3
ENDBRANCH   1   2
BRANCH   1  27
ATOM     27  C   UNL     1      -2.782   6.813  -0.041  1.00  0.00     0.002 C 
BRANCH  27  28
ATOM     28  C   UNL     1      -2.687   5.646   0.948  1.00  0.00     0.021 C 
BRANCH  28  29
ATOM     29  C   UNL     1      -1.855   5.931   2.196  1.00  0.00     0.116 C 
BRANCH  29  30
ATOM     30  N   UNL     1      -2.385   7.056   2.948  1.00  0.00    -0.352 N 
ATOM     31  C   UNL     1      -2.855   7.100   4.234  1.00  0.00     0.251 C 
ATOM     32  H   UNL     1      -2.410   7.912   2.462  1.00  0.00     0.163 HD
ATOM     33  O   UNL     1      -3.508   8.070   4.610  1.00  0.00    -0.269 OA
BRANCH  31  34
ATOM     34  C   UNL     1      -2.580   5.984   5.164  1.00  0.00     0.039 A 
ATOM     35  C   UNL     1      -3.594   5.561   6.025  1.00  0.00     0.014 A 
ATOM     36  C   UNL     1      -1.318   5.383   5.216  1.00  0.00     0.014 A 
ATOM     37  C   UNL     1      -3.350   4.513   6.913  1.00  0.00     0.010 A 
ATOM     38  C   UNL     1      -1.104   4.283   6.044  1.00  0.00     0.010 A 
ATOM     39  C   UNL     1      -2.111   3.848   6.915  1.00  0.00    -0.014 A 
BRANCH  39  40
ATOM     40  C   UNL     1      -1.877   2.700   7.828  1.00  0.00     0.031 A 
ATOM     41  C   UNL     1      -0.831   2.777   8.908  1.00  0.00     0.074 A 
ATOM     42  C   UNL     1      -2.601   1.574   7.669  1.00  0.00     0.049 A 
ATOM     43  N   UNL     1      -0.538   1.898   9.833  1.00  0.00    -0.248 NA
ATOM     44  C   UNL     1       0.013   3.983   8.943  1.00  0.00     0.031 C 
ATOM     45  C   UNL     1      -3.599   1.354   6.619  1.00  0.00     0.029 A 
ATOM     46  N   UNL     1      -2.620   0.409   8.393  1.00  0.00    -0.354 N 
ATOM     47  C   UNL     1       0.525   2.438  10.549  1.00  0.00     0.074 A 
ATOM     48  C   UNL     1       0.864   3.693   9.916  1.00  0.00     0.031 C 
ATOM     49  C   UNL     1      -4.165   0.151   6.796  1.00  0.00     0.029 A 
ATOM     50  C   UNL     1      -3.547  -0.502   7.945  1.00  0.00     0.049 A 
ATOM     51  H   UNL     1      -2.027   0.241   9.161  1.00  0.00     0.167 HD
ATOM     52  C   UNL     1       1.148   1.944  11.646  1.00  0.00     0.031 A 
ATOM     53  C   UNL     1      -3.873  -1.724   8.410  1.00  0.00     0.031 A 
ATOM     54  C   UNL     1       0.803   0.693  12.271  1.00  0.00     0.049 A 
ATOM     55  C   UNL     1      -3.182  -2.244   9.640  1.00  0.00     0.074 A 
ATOM     56  C   UNL     1       1.328   0.134  13.422  1.00  0.00     0.029 A 
ATOM     57  N   UNL     1      -0.147  -0.197  11.792  1.00  0.00    -0.354 N 
ATOM     58  N   UNL     1      -2.240  -1.678  10.357  1.00  0.00    -0.248 NA
ATOM     59  C   UNL     1      -3.614  -3.557  10.136  1.00  0.00     0.031 C 
ATOM     60  C   UNL     1       0.743  -1.124  13.603  1.00  0.00     0.029 A 
ATOM     61  C   UNL     1      -0.203  -1.315  12.608  1.00  0.00     0.049 A 
ATOM     62  H   UNL     1      -0.701  -0.055  10.990  1.00  0.00     0.167 HD
ATOM     63  C   UNL     1      -1.988  -2.553  11.408  1.00  0.00     0.074 A 
ATOM     64  C   UNL     1      -2.888  -3.676  11.240  1.00  0.00     0.031 C 
ATOM     65  C   UNL     1      -1.096  -2.432  12.424  1.00  0.00     0.031 A 
BRANCH  52  66
ATOM     66  C   UNL     1       2.281   2.752  12.230  1.00  0.00    -0.014 A 
ATOM     67  C   UNL     1       2.053   3.999  12.841  1.00  0.00     0.010 A 
ATOM     68  C   UNL     1       3.590   2.238  12.200  1.00  0.00     0.010 A 
ATOM     69  C   UNL     1       3.119   4.739  13.363  1.00  0.00     0.020 A 
ATOM     70  C   UNL     1       4.654   2.959  12.752  1.00  0.00     0.020 A 
ATOM     71  C   UNL     1       4.413   4.215  13.312  1.00  0.00     0.054 A 
BRANCH  71  72
ATOM     72  S   UNL     1       5.774   5.190  14.010  1.00  0.00     0.124 S 
ATOM     73  O   UNL     1       5.898   6.273  13.036  1.00  0.00    -0.237 OA
ATOM     74  O   UNL     1       5.253   5.578  15.317  1.00  0.00    -0.237 OA
ATOM     75  O   UNL     1       6.894   4.252  14.042  1.00  0.00    -0.744 OA
ENDBRANCH  71  72
ENDBRANCH  52  66
BRANCH  53  76
ATOM     76  C   UNL     1      -4.925  -2.519   7.718  1.00  0.00    -0.014 A 
ATOM     77  C   UNL     1      -6.177  -2.738   8.318  1.00  0.00     0.010 A 
ATOM     78  C   UNL     1      -4.687  -3.031   6.428  1.00  0.00     0.010 A 
ATOM     79  C   UNL     1      -7.167  -3.464   7.649  1.00  0.00     0.020 A 
ATOM     80  C   UNL     1      -5.684  -3.729   5.743  1.00  0.00     0.020 A 
ATOM     81  C   UNL     1      -6.915  -3.950   6.362  1.00  0.00     0.054 A 
BRANCH  81  82
ATOM     82  S   UNL     1      -8.237  -4.831   5.485  1.00  0.00     0.124 S 
ATOM     83  O   UNL     1      -8.291  -6.096   6.209  1.00  0.00    -0.237 OA
ATOM     84  O   UNL     1      -9.383  -3.944   5.671  1.00  0.00    -0.237 OA
ATOM     85  O   UNL     1      -7.740  -4.914   4.113  1.00  0.00    -0.744 OA
ENDBRANCH  81  82
ENDBRANCH  53  76
BRANCH  65  86
ATOM     86  C   UNL     1      -1.076  -3.526  13.460  1.00  0.00    -0.014 A 
ATOM     87  C   UNL     1      -0.606  -4.817  13.161  1.00  0.00     0.010 A 
ATOM     88  C   UNL     1      -1.504  -3.240  14.770  1.00  0.00     0.010 A 
ATOM     89  C   UNL     1      -0.608  -5.814  14.141  1.00  0.00     0.020 A 
ATOM     90  C   UNL     1      -1.475  -4.224  15.761  1.00  0.00     0.020 A 
ATOM     91  C   UNL     1      -1.046  -5.511  15.435  1.00  0.00     0.054 A 
BRANCH  91  92
ATOM     92  S   UNL     1      -1.020  -6.816  16.694  1.00  0.00     0.124 S 
ATOM     93  O   UNL     1      -2.127  -7.668  16.270  1.00  0.00    -0.237 OA
ATOM     94  O   UNL     1       0.314  -7.390  16.531  1.00  0.00    -0.237 OA
ATOM     95  O   UNL     1      -1.233  -6.094  17.946  1.00  0.00    -0.744 OA
ENDBRANCH  91  92
ENDBRANCH  65  86
ENDBRANCH  39  40
ENDBRANCH  31  34
ENDBRANCH  29  30
ENDBRANCH  28  29
ENDBRANCH  27  28
ENDBRANCH   1  27
TORSDOF 21
