REMARK SMILES Cc1ccc(C(=O)N2C[C@@H](C(=O)NCCCCCCNC(=O)c3ccc(-c4c5nc(c(-c6ccc(S(=O)(=O)[O-])cc6)c6ccc([nH]6)c(-c6ccc(S(=O)(=O)[O-])cc6)c6nc(c(-c7ccc(S(=O)(=O)[O-])cc7)c7ccc4[nH]7)C=C6)C=C5)cc3)C[C@H](C(=O)N3CCOCC3)C2)cc1F
REMARK SMILES IDX 17 1 16 2 15 3 14 4 13 5 11 6 12 7 10 9 8 10 9 11 93 12
REMARK SMILES IDX 84 13 83 14 6 15 7 16 5 17 1 18 2 19 3 20 95 21 4 22 94 23
REMARK SMILES IDX 96 24 85 25 86 26 87 27 88 28 92 29 89 30 91 31 90 32 18 33
REMARK SMILES IDX 19 34 20 35 21 36 22 38 23 39 24 40 82 41 25 42 81 43 26 44
REMARK SMILES IDX 27 45 28 46 75 47 29 48 80 49 74 50 76 51 30 52 79 53 73 54
REMARK SMILES IDX 72 55 31 57 61 58 42 59 60 60 43 61 46 62 59 63 77 64 44 65
REMARK SMILES IDX 45 66 58 68 78 69 47 70 32 71 33 72 41 73 34 74 40 75 35 76
REMARK SMILES IDX 36 77 37 78 38 79 39 80 62 81 63 82 71 83 64 84 70 85 65 86
REMARK SMILES IDX 66 87 67 88 68 89 69 90 48 91 49 92 57 93 50 94 56 95 51 96
REMARK SMILES IDX 52 97 53 98 54 99 55 100
REMARK H PARENT 13 8 20 37 76 56 46 67
REMARK Flexibility Score: inf
ROOT
ATOM      1  C   UNL     1      -9.684   2.190   3.705  1.00  0.00     0.002 C 
ENDROOT
BRANCH   1   2
ATOM      2  C   UNL     1     -10.271   1.495   2.472  1.00  0.00     0.002 C 
BRANCH   2   3
ATOM      3  C   UNL     1      -9.284   1.305   1.317  1.00  0.00     0.021 C 
BRANCH   3   4
ATOM      4  C   UNL     1      -7.975   0.656   1.741  1.00  0.00     0.116 C 
BRANCH   4   5
ATOM      5  N   UNL     1      -8.213  -0.679   2.244  1.00  0.00    -0.356 N 
ATOM      6  C   UNL     1      -7.696  -1.865   1.851  1.00  0.00     0.224 C 
ATOM      7  O   UNL     1      -8.166  -2.897   2.333  1.00  0.00    -0.275 OA
ATOM      8  H   UNL     1      -8.851  -0.733   2.991  1.00  0.00     0.163 HD
BRANCH   6   9
ATOM      9  C   UNL     1      -6.568  -1.931   0.846  1.00  0.00     0.099 C 
ATOM     10  N   UNL     1      -4.282  -1.122   0.339  1.00  0.00    -0.337 N 
ATOM     11  C   UNL     1      -5.342  -1.180   1.331  1.00  0.00     0.133 C 
ATOM     12  C   UNL     1      -4.653  -0.692  -1.009  1.00  0.00     0.133 C 
ATOM     13  C   UNL     1      -5.848  -1.482  -1.582  1.00  0.00     0.099 C 
ATOM     14  C   UNL     1      -7.003  -1.638  -0.593  1.00  0.00     0.030 C 
BRANCH  10  15
ATOM     15  C   UNL     1      -2.987  -1.321   0.801  1.00  0.00     0.254 C 
ATOM     16  O   UNL     1      -2.737  -2.055   1.756  1.00  0.00    -0.269 OA
BRANCH  15  17
ATOM     17  C   UNL     1      -1.861  -0.543   0.240  1.00  0.00     0.042 A 
ATOM     18  C   UNL     1       1.706   1.808  -0.231  1.00  0.00     0.047 C 
ATOM     19  C   UNL     1       0.446   0.997  -0.164  1.00  0.00    -0.015 A 
ATOM     20  C   UNL     1      -0.811   1.613  -0.113  1.00  0.00     0.007 A 
ATOM     21  C   UNL     1       0.520  -0.395  -0.067  1.00  0.00     0.126 A 
ATOM     22  C   UNL     1      -1.963   0.847   0.093  1.00  0.00     0.014 A 
ATOM     23  C   UNL     1      -0.616  -1.168   0.140  1.00  0.00     0.053 A 
ATOM     24  F   UNL     1       1.714  -1.004  -0.109  1.00  0.00    -0.207 F 
ENDBRANCH  15  17
ENDBRANCH  10  15
BRANCH  13  25
ATOM     25  C   UNL     1      -5.333  -2.716  -2.340  1.00  0.00     0.227 C 
ATOM     26  O   UNL     1      -5.116  -2.613  -3.552  1.00  0.00    -0.275 OA
ATOM     27  N   UNL     1      -4.867  -3.804  -1.642  1.00  0.00    -0.338 N 
ATOM     28  C   UNL     1      -5.649  -4.686  -0.776  1.00  0.00     0.148 C 
ATOM     29  C   UNL     1      -3.605  -4.415  -2.053  1.00  0.00     0.148 C 
ATOM     30  C   UNL     1      -4.809  -5.077   0.449  1.00  0.00     0.181 C 
ATOM     31  C   UNL     1      -2.817  -4.834  -0.806  1.00  0.00     0.181 C 
ATOM     32  O   UNL     1      -3.590  -5.719   0.026  1.00  0.00    -0.378 OA
ENDBRANCH  13  25
ENDBRANCH   6   9
ENDBRANCH   4   5
ENDBRANCH   3   4
ENDBRANCH   2   3
ENDBRANCH   1   2
BRANCH   1  33
ATOM     33  C   UNL     1      -8.978   3.515   3.413  1.00  0.00     0.021 C 
BRANCH  33  34
ATOM     34  C   UNL     1      -9.838   4.518   2.663  1.00  0.00     0.116 C 
BRANCH  34  35
ATOM     35  N   UNL     1     -11.008   4.902   3.432  1.00  0.00    -0.352 N 
ATOM     36  C   UNL     1     -11.442   6.169   3.726  1.00  0.00     0.251 C 
ATOM     37  H   UNL     1     -11.556   4.164   3.785  1.00  0.00     0.163 HD
ATOM     38  O   UNL     1     -12.319   6.355   4.563  1.00  0.00    -0.269 OA
BRANCH  36  39
ATOM     39  C   UNL     1     -10.814   7.304   3.023  1.00  0.00     0.039 A 
ATOM     40  C   UNL     1     -10.333   8.386   3.760  1.00  0.00     0.014 A 
ATOM     41  C   UNL     1     -10.659   7.258   1.634  1.00  0.00     0.014 A 
ATOM     42  C   UNL     1      -9.650   9.411   3.104  1.00  0.00     0.010 A 
ATOM     43  C   UNL     1      -9.910   8.236   0.997  1.00  0.00     0.010 A 
ATOM     44  C   UNL     1      -9.413   9.331   1.722  1.00  0.00    -0.014 A 
BRANCH  44  45
ATOM     45  C   UNL     1      -8.692  10.398   0.986  1.00  0.00     0.031 A 
ATOM     46  C   UNL     1      -9.417  11.160  -0.090  1.00  0.00     0.074 A 
ATOM     47  C   UNL     1      -7.384  10.619   1.216  1.00  0.00     0.049 A 
ATOM     48  N   UNL     1      -8.944  12.018  -0.955  1.00  0.00    -0.248 NA
ATOM     49  C   UNL     1     -10.860  10.894  -0.234  1.00  0.00     0.031 C 
ATOM     50  C   UNL     1      -6.569   9.932   2.221  1.00  0.00     0.029 A 
ATOM     51  N   UNL     1      -6.503  11.476   0.605  1.00  0.00    -0.354 N 
ATOM     52  C   UNL     1     -10.021  12.371  -1.760  1.00  0.00     0.074 A 
ATOM     53  C   UNL     1     -11.158  11.596  -1.316  1.00  0.00     0.031 C 
ATOM     54  C   UNL     1      -5.314  10.407   2.168  1.00  0.00     0.029 A 
ATOM     55  C   UNL     1      -5.220  11.391   1.093  1.00  0.00     0.049 A 
ATOM     56  H   UNL     1      -6.765  12.094  -0.115  1.00  0.00     0.167 HD
ATOM     57  C   UNL     1     -10.063  13.273  -2.768  1.00  0.00     0.031 A 
ATOM     58  C   UNL     1      -4.093  12.019   0.705  1.00  0.00     0.031 A 
ATOM     59  C   UNL     1      -8.933  14.053  -3.190  1.00  0.00     0.049 A 
ATOM     60  C   UNL     1      -4.158  13.002  -0.434  1.00  0.00     0.074 A 
ATOM     61  C   UNL     1      -8.880  15.029  -4.169  1.00  0.00     0.029 A 
ATOM     62  N   UNL     1      -7.658  13.950  -2.655  1.00  0.00    -0.354 N 
ATOM     63  N   UNL     1      -5.194  13.354  -1.159  1.00  0.00    -0.248 NA
ATOM     64  C   UNL     1      -2.907  13.680  -0.804  1.00  0.00     0.031 C 
ATOM     65  C   UNL     1      -7.560  15.477  -4.264  1.00  0.00     0.029 A 
ATOM     66  C   UNL     1      -6.807  14.832  -3.296  1.00  0.00     0.049 A 
ATOM     67  H   UNL     1      -7.397  13.341  -1.927  1.00  0.00     0.167 HD
ATOM     68  C   UNL     1      -4.729  14.326  -2.038  1.00  0.00     0.074 A 
ATOM     69  C   UNL     1      -3.319  14.504  -1.758  1.00  0.00     0.031 C 
ATOM     70  C   UNL     1      -5.411  15.014  -2.985  1.00  0.00     0.031 A 
BRANCH  57  71
ATOM     71  C   UNL     1     -11.373  13.457  -3.488  1.00  0.00    -0.014 A 
ATOM     72  C   UNL     1     -12.481  14.043  -2.849  1.00  0.00     0.010 A 
ATOM     73  C   UNL     1     -11.487  13.072  -4.837  1.00  0.00     0.010 A 
ATOM     74  C   UNL     1     -13.690  14.201  -3.531  1.00  0.00     0.020 A 
ATOM     75  C   UNL     1     -12.684  13.259  -5.533  1.00  0.00     0.020 A 
ATOM     76  C   UNL     1     -13.784  13.807  -4.869  1.00  0.00     0.054 A 
BRANCH  76  77
ATOM     77  S   UNL     1     -15.358  14.047  -5.735  1.00  0.00     0.124 S 
ATOM     78  O   UNL     1     -16.201  13.028  -5.114  1.00  0.00    -0.237 OA
ATOM     79  O   UNL     1     -15.697  15.428  -5.404  1.00  0.00    -0.237 OA
ATOM     80  O   UNL     1     -15.024  13.807  -7.137  1.00  0.00    -0.744 OA
ENDBRANCH  76  77
ENDBRANCH  57  71
BRANCH  58  81
ATOM     81  C   UNL     1      -2.807  11.743   1.404  1.00  0.00    -0.014 A 
ATOM     82  C   UNL     1      -2.205  12.726   2.209  1.00  0.00     0.010 A 
ATOM     83  C   UNL     1      -2.179  10.491   1.273  1.00  0.00     0.010 A 
ATOM     84  C   UNL     1      -0.990  12.472   2.851  1.00  0.00     0.020 A 
ATOM     85  C   UNL     1      -0.980  10.222   1.938  1.00  0.00     0.020 A 
ATOM     86  C   UNL     1      -0.386  11.219   2.713  1.00  0.00     0.054 A 
BRANCH  86  87
ATOM     87  S   UNL     1       1.170  10.897   3.589  1.00  0.00     0.124 S 
ATOM     88  O   UNL     1       2.118  11.706   2.830  1.00  0.00    -0.237 OA
ATOM     89  O   UNL     1       0.873  11.366   4.940  1.00  0.00    -0.237 OA
ATOM     90  O   UNL     1       1.339   9.451   3.462  1.00  0.00    -0.744 OA
ENDBRANCH  86  87
ENDBRANCH  58  81
BRANCH  70  91
ATOM     91  C   UNL     1      -4.676  16.081  -3.751  1.00  0.00    -0.014 A 
ATOM     92  C   UNL     1      -3.746  15.759  -4.753  1.00  0.00     0.010 A 
ATOM     93  C   UNL     1      -5.017  17.431  -3.536  1.00  0.00     0.010 A 
ATOM     94  C   UNL     1      -3.165  16.770  -5.524  1.00  0.00     0.020 A 
ATOM     95  C   UNL     1      -4.460  18.440  -4.324  1.00  0.00     0.020 A 
ATOM     96  C   UNL     1      -3.534  18.103  -5.311  1.00  0.00     0.054 A 
BRANCH  96  97
ATOM     97  S   UNL     1      -2.838  19.384  -6.390  1.00  0.00     0.124 S 
ATOM     98  O   UNL     1      -1.453  19.449  -5.931  1.00  0.00    -0.237 OA
ATOM     99  O   UNL     1      -3.033  18.819  -7.723  1.00  0.00    -0.237 OA
ATOM    100  O   UNL     1      -3.647  20.565  -6.095  1.00  0.00    -0.744 OA
ENDBRANCH  96  97
ENDBRANCH  70  91
ENDBRANCH  44  45
ENDBRANCH  36  39
ENDBRANCH  34  35
ENDBRANCH  33  34
ENDBRANCH   1  33
TORSDOF 19
