REMARK SMILES O=C(CCCN1C(=O)/C(=C\c2ccc(O)c(O)c2)SC1=S)NCCCCCCNC(=O)c1ccc(-c2c3nc(c(-c4ccc(S(=O)(=O)[O-])cc4)c4ccc([nH]4)c(-c4ccc(S(=O)(=O)[O-])cc4)c4nc(c(-c5ccc(S(=O)(=O)[O-])cc5)c5ccc2[nH]5)C=C4)C=C3)cc1
REMARK SMILES IDX 24 1 23 2 22 3 1 4 2 5 3 7 4 8 5 9 6 10 7 11 20 12 8 13 9 14
REMARK SMILES IDX 19 15 21 16 10 17 11 18 12 19 18 20 13 21 16 22 14 23 17 24
REMARK SMILES IDX 15 26 25 28 26 29 27 30 28 31 29 32 30 33 31 35 32 36 33 37
REMARK SMILES IDX 91 38 34 39 90 40 35 41 36 42 37 43 84 44 38 45 89 46 83 47
REMARK SMILES IDX 85 48 39 49 88 50 82 51 81 52 40 54 70 55 51 56 69 57 52 58
REMARK SMILES IDX 55 59 68 60 86 61 53 62 54 63 67 65 87 66 56 67 41 68 42 69
REMARK SMILES IDX 50 70 43 71 49 72 44 73 45 74 46 75 47 76 48 77 71 78 72 79
REMARK SMILES IDX 80 80 73 81 79 82 74 83 75 84 76 85 77 86 78 87 57 88 58 89
REMARK SMILES IDX 66 90 59 91 65 92 60 93 61 94 62 95 63 96 64 97
REMARK H PARENT 22 6 17 25 15 27 29 34 85 53 55 64
REMARK Flexibility Score: inf
ROOT
ATOM      1  C   UNL     1       2.312  -2.735   2.377  1.00  0.00     0.021 C 
ENDROOT
BRANCH   1   2
ATOM      2  C   UNL     1       1.697  -1.358   2.112  1.00  0.00     0.116 C 
BRANCH   2   3
ATOM      3  N   UNL     1       2.177  -0.808   0.862  1.00  0.00    -0.356 N 
ATOM      4  O   UNL     1       0.703   0.938   0.682  1.00  0.00    -0.275 OA
ATOM      5  C   UNL     1       1.677   0.321   0.267  1.00  0.00     0.220 C 
ATOM      6  H   UNL     1       2.914  -1.277   0.407  1.00  0.00     0.163 HD
BRANCH   5   7
ATOM      7  C   UNL     1       2.467   0.770  -0.955  1.00  0.00     0.102 C 
BRANCH   7   8
ATOM      8  C   UNL     1       3.780   1.468  -0.589  1.00  0.00     0.032 C 
BRANCH   8   9
ATOM      9  C   UNL     1       4.874   0.612   0.068  1.00  0.00     0.128 C 
BRANCH   9  10
ATOM     10  N   UNL     1       5.713  -0.192  -0.837  1.00  0.00    -0.293 N 
ATOM     11  C   UNL     1       6.885   0.394  -1.309  1.00  0.00     0.266 C 
ATOM     12  C   UNL     1       5.534  -1.516  -1.179  1.00  0.00     0.148 C 
ATOM     13  O   UNL     1       7.188   1.562  -1.164  1.00  0.00    -0.268 OA
ATOM     14  C   UNL     1       7.733  -0.629  -1.998  1.00  0.00     0.081 C 
ATOM     15  S   UNL     1       7.012  -2.180  -1.848  1.00  0.00    -0.054 SA
ATOM     16  S   UNL     1       4.185  -2.482  -1.075  1.00  0.00    -0.052 S 
ATOM     17  C   UNL     1       8.859  -0.461  -2.700  1.00  0.00     0.029 C 
BRANCH  17  18
ATOM     18  C   UNL     1       9.459   0.826  -3.026  1.00  0.00    -0.020 A 
ATOM     19  C   UNL     1      10.049   1.634  -2.046  1.00  0.00     0.012 A 
ATOM     20  C   UNL     1       9.420   1.252  -4.358  1.00  0.00     0.058 A 
ATOM     21  C   UNL     1      10.566   2.886  -2.384  1.00  0.00     0.051 A 
ATOM     22  C   UNL     1       9.941   2.492  -4.685  1.00  0.00     0.157 A 
ATOM     23  C   UNL     1      10.503   3.309  -3.707  1.00  0.00     0.157 A 
BRANCH  22  24
ATOM     24  O   UNL     1       9.886   2.914  -5.982  1.00  0.00    -0.504 OA
ATOM     25  H   UNL     1      10.236   3.751  -6.218  1.00  0.00     0.293 HD
ENDBRANCH  22  24
BRANCH  23  26
ATOM     26  O   UNL     1      10.976   4.531  -4.095  1.00  0.00    -0.504 OA
ATOM     27  H   UNL     1      11.360   5.107  -3.463  1.00  0.00     0.293 HD
ENDBRANCH  23  26
ENDBRANCH  17  18
ENDBRANCH   9  10
ENDBRANCH   8   9
ENDBRANCH   7   8
ENDBRANCH   5   7
ENDBRANCH   2   3
ENDBRANCH   1   2
BRANCH   1  28
ATOM     28  C   UNL     1       3.831  -2.735   2.618  1.00  0.00     0.002 C 
BRANCH  28  29
ATOM     29  C   UNL     1       4.304  -2.089   3.918  1.00  0.00     0.002 C 
BRANCH  29  30
ATOM     30  C   UNL     1       3.724  -2.701   5.188  1.00  0.00     0.021 C 
BRANCH  30  31
ATOM     31  C   UNL     1       3.916  -4.208   5.319  1.00  0.00     0.116 C 
BRANCH  31  32
ATOM     32  N   UNL     1       5.315  -4.592   5.422  1.00  0.00    -0.352 N 
ATOM     33  C   UNL     1       5.912  -5.421   6.343  1.00  0.00     0.251 C 
ATOM     34  H   UNL     1       5.915  -4.208   4.742  1.00  0.00     0.163 HD
ATOM     35  O   UNL     1       7.134  -5.519   6.387  1.00  0.00    -0.269 OA
BRANCH  33  36
ATOM     36  C   UNL     1       5.067  -6.170   7.299  1.00  0.00     0.039 A 
ATOM     37  C   UNL     1       5.406  -6.166   8.654  1.00  0.00     0.014 A 
ATOM     38  C   UNL     1       3.928  -6.852   6.860  1.00  0.00     0.014 A 
ATOM     39  C   UNL     1       4.568  -6.799   9.576  1.00  0.00     0.010 A 
ATOM     40  C   UNL     1       3.054  -7.409   7.789  1.00  0.00     0.010 A 
ATOM     41  C   UNL     1       3.369  -7.399   9.155  1.00  0.00    -0.014 A 
BRANCH  41  42
ATOM     42  C   UNL     1       2.450  -8.048  10.127  1.00  0.00     0.031 A 
ATOM     43  C   UNL     1       2.181  -9.527  10.031  1.00  0.00     0.074 A 
ATOM     44  C   UNL     1       1.825  -7.306  11.063  1.00  0.00     0.049 A 
ATOM     45  N   UNL     1       1.374 -10.267  10.748  1.00  0.00    -0.248 NA
ATOM     46  C   UNL     1       2.893 -10.268   8.976  1.00  0.00     0.031 C 
ATOM     47  C   UNL     1       1.965  -5.857  11.233  1.00  0.00     0.029 A 
ATOM     48  N   UNL     1       0.941  -7.669  12.048  1.00  0.00    -0.354 N 
ATOM     49  C   UNL     1       1.480 -11.553  10.231  1.00  0.00     0.074 A 
ATOM     50  C   UNL     1       2.374 -11.481   9.097  1.00  0.00     0.031 C 
ATOM     51  C   UNL     1       1.213  -5.461  12.273  1.00  0.00     0.029 A 
ATOM     52  C   UNL     1       0.511  -6.616  12.822  1.00  0.00     0.049 A 
ATOM     53  H   UNL     1       0.642  -8.597  12.188  1.00  0.00     0.167 HD
ATOM     54  C   UNL     1       0.912 -12.699  10.676  1.00  0.00     0.031 A 
ATOM     55  C   UNL     1      -0.355  -6.584  13.855  1.00  0.00     0.031 A 
ATOM     56  C   UNL     1       0.028 -12.773  11.808  1.00  0.00     0.049 A 
ATOM     57  C   UNL     1      -0.981  -7.871  14.325  1.00  0.00     0.074 A 
ATOM     58  C   UNL     1      -0.585 -13.889  12.351  1.00  0.00     0.029 A 
ATOM     59  N   UNL     1      -0.360 -11.689  12.580  1.00  0.00    -0.354 N 
ATOM     60  N   UNL     1      -0.833  -9.084  13.847  1.00  0.00    -0.248 NA
ATOM     61  C   UNL     1      -1.874  -7.787  15.489  1.00  0.00     0.031 C 
ATOM     62  C   UNL     1      -1.374 -13.473  13.428  1.00  0.00     0.029 A 
ATOM     63  C   UNL     1      -1.205 -12.108  13.592  1.00  0.00     0.049 A 
ATOM     64  H   UNL     1      -0.076 -10.758  12.430  1.00  0.00     0.167 HD
ATOM     65  C   UNL     1      -1.584  -9.911  14.676  1.00  0.00     0.074 A 
ATOM     66  C   UNL     1      -2.171  -9.062  15.692  1.00  0.00     0.031 C 
ATOM     67  C   UNL     1      -1.770 -11.252  14.605  1.00  0.00     0.031 A 
BRANCH  54  68
ATOM     68  C   UNL     1       1.250 -13.971   9.943  1.00  0.00    -0.014 A 
ATOM     69  C   UNL     1       2.541 -14.525  10.024  1.00  0.00     0.010 A 
ATOM     70  C   UNL     1       0.262 -14.646   9.204  1.00  0.00     0.010 A 
ATOM     71  C   UNL     1       2.849 -15.709   9.350  1.00  0.00     0.020 A 
ATOM     72  C   UNL     1       0.557 -15.848   8.553  1.00  0.00     0.020 A 
ATOM     73  C   UNL     1       1.854 -16.363   8.618  1.00  0.00     0.054 A 
BRANCH  73  74
ATOM     74  S   UNL     1       2.275 -17.918   7.783  1.00  0.00     0.124 S 
ATOM     75  O   UNL     1       3.115 -17.451   6.683  1.00  0.00    -0.237 OA
ATOM     76  O   UNL     1       2.968 -18.665   8.829  1.00  0.00    -0.237 OA
ATOM     77  O   UNL     1       0.978 -18.462   7.388  1.00  0.00    -0.744 OA
ENDBRANCH  73  74
ENDBRANCH  54  68
BRANCH  55  78
ATOM     78  C   UNL     1      -0.678  -5.293  14.525  1.00  0.00    -0.014 A 
ATOM     79  C   UNL     1      -0.265  -5.044  15.846  1.00  0.00     0.010 A 
ATOM     80  C   UNL     1      -1.428  -4.312  13.850  1.00  0.00     0.010 A 
ATOM     81  C   UNL     1      -0.631  -3.860  16.493  1.00  0.00     0.020 A 
ATOM     82  C   UNL     1      -1.767  -3.113  14.482  1.00  0.00     0.020 A 
ATOM     83  C   UNL     1      -1.384  -2.903  15.807  1.00  0.00     0.054 A 
BRANCH  83  84
ATOM     84  S   UNL     1      -1.837  -1.367  16.660  1.00  0.00     0.124 S 
ATOM     85  O   UNL     1      -2.887  -1.822  17.565  1.00  0.00    -0.237 OA
ATOM     86  O   UNL     1      -0.580  -0.974  17.293  1.00  0.00    -0.237 OA
ATOM     87  O   UNL     1      -2.279  -0.493  15.575  1.00  0.00    -0.744 OA
ENDBRANCH  83  84
ENDBRANCH  55  78
BRANCH  67  88
ATOM     88  C   UNL     1      -2.591 -11.896  15.690  1.00  0.00    -0.014 A 
ATOM     89  C   UNL     1      -3.981 -11.704  15.775  1.00  0.00     0.010 A 
ATOM     90  C   UNL     1      -1.958 -12.740  16.622  1.00  0.00     0.010 A 
ATOM     91  C   UNL     1      -4.715 -12.306  16.801  1.00  0.00     0.020 A 
ATOM     92  C   UNL     1      -2.693 -13.369  17.629  1.00  0.00     0.020 A 
ATOM     93  C   UNL     1      -4.066 -13.132  17.724  1.00  0.00     0.054 A 
BRANCH  93  94
ATOM     94  S   UNL     1      -5.043 -13.920  19.032  1.00  0.00     0.124 S 
ATOM     95  O   UNL     1      -5.310 -12.799  19.929  1.00  0.00    -0.237 OA
ATOM     96  O   UNL     1      -6.202 -14.431  18.303  1.00  0.00    -0.237 OA
ATOM     97  O   UNL     1      -4.148 -14.945  19.564  1.00  0.00    -0.744 OA
ENDBRANCH  93  94
ENDBRANCH  67  88
ENDBRANCH  41  42
ENDBRANCH  33  36
ENDBRANCH  31  32
ENDBRANCH  30  31
ENDBRANCH  29  30
ENDBRANCH  28  29
ENDBRANCH   1  28
TORSDOF 22
