REMARK SMILES Cc1cccc(CC(=O)N2CCC3(CCC(=O)N([C@H](C)C(=O)NCCCCCCNC(=O)c4ccc(-c5c6nc(c(-c7ccc(S(=O)(=O)[O-])cc7)c7ccc([nH]7)c(-c7ccc(S(=O)(=O)[O-])cc7)c7nc(c(-c8ccc(S(=O)(=O)[O-])cc8)c8ccc5[nH]8)C=C7)C=C6)cc4)C3)CC2)c1
REMARK SMILES IDX 26 1 25 2 24 3 23 4 21 5 22 6 19 8 20 9 18 10 8 11 9 12
REMARK SMILES IDX 10 13 11 14 95 15 12 16 94 17 13 18 14 19 93 20 15 21 16 22
REMARK SMILES IDX 17 23 7 24 6 25 1 26 2 27 3 28 96 29 4 30 5 31 27 32 28 33
REMARK SMILES IDX 29 34 30 35 31 36 32 38 33 39 34 40 92 41 35 42 91 43 36 44
REMARK SMILES IDX 37 45 38 46 85 47 39 48 90 49 84 50 86 51 40 52 89 53 83 54
REMARK SMILES IDX 82 55 41 57 71 58 52 59 70 60 53 61 56 62 69 63 87 64 54 65
REMARK SMILES IDX 55 66 68 68 88 69 57 70 42 71 43 72 51 73 44 74 50 75 45 76
REMARK SMILES IDX 46 77 47 78 48 79 49 80 72 81 73 82 81 83 74 84 80 85 75 86
REMARK SMILES IDX 76 87 77 88 78 89 79 90 58 91 59 92 67 93 60 94 66 95 61 96
REMARK SMILES IDX 62 97 63 98 64 99 65 100
REMARK H PARENT 23 7 30 37 86 56 56 67
REMARK Flexibility Score: inf
ROOT
ATOM      1  C   UNL     1      -3.948   5.332  -9.329  1.00  0.00     0.002 C 
ENDROOT
BRANCH   1   2
ATOM      2  C   UNL     1      -2.670   4.702  -8.760  1.00  0.00     0.021 C 
BRANCH   2   3
ATOM      3  C   UNL     1      -1.521   5.663  -8.485  1.00  0.00     0.116 C 
BRANCH   3   4
ATOM      4  N   UNL     1      -1.741   6.586  -7.389  1.00  0.00    -0.354 N 
ATOM      5  C   UNL     1      -0.815   7.238  -6.621  1.00  0.00     0.242 C 
ATOM      6  O   UNL     1      -1.188   8.234  -5.989  1.00  0.00    -0.273 OA
ATOM      7  H   UNL     1      -2.683   6.769  -7.168  1.00  0.00     0.163 HD
BRANCH   5   8
ATOM      8  C   UNL     1       0.657   6.748  -6.495  1.00  0.00     0.171 C 
ATOM      9  C   UNL     1       0.781   5.274  -6.106  1.00  0.00     0.042 C 
BRANCH   8  10
ATOM     10  N   UNL     1       1.635   7.126  -7.533  1.00  0.00    -0.330 N 
ATOM     11  C   UNL     1       7.909   5.253  -6.992  1.00  0.00     0.226 C 
ATOM     12  O   UNL     1       8.146   4.058  -6.782  1.00  0.00    -0.275 OA
ATOM     13  N   UNL     1       6.771   5.641  -7.684  1.00  0.00    -0.342 N 
ATOM     14  C   UNL     1       5.646   4.714  -7.801  1.00  0.00     0.120 C 
ATOM     15  C   UNL     1       6.581   6.885  -8.412  1.00  0.00     0.120 C 
ATOM     16  C   UNL     1       4.352   5.393  -7.317  1.00  0.00     0.030 C 
ATOM     17  C   UNL     1       5.393   7.635  -7.838  1.00  0.00     0.030 C 
ATOM     18  C   UNL     1       4.096   6.793  -7.950  1.00  0.00    -0.008 C 
ATOM     19  C   UNL     1       3.706   6.691  -9.449  1.00  0.00     0.019 C 
ATOM     20  C   UNL     1       2.981   7.530  -7.165  1.00  0.00     0.127 C 
ATOM     21  C   UNL     1       2.280   6.229  -9.665  1.00  0.00     0.101 C 
ATOM     22  C   UNL     1       1.334   7.091  -8.876  1.00  0.00     0.223 C 
ATOM     23  O   UNL     1       0.381   7.661  -9.385  1.00  0.00    -0.275 OA
BRANCH  11  24
ATOM     24  C   UNL     1       8.766   6.295  -6.272  1.00  0.00     0.135 C 
BRANCH  24  25
ATOM     25  C   UNL     1       9.335   7.444  -7.061  1.00  0.00    -0.038 A 
ATOM     26  C   UNL     1       8.856  11.226  -7.256  1.00  0.00     0.044 C 
ATOM     27  C   UNL     1       9.351   9.838  -7.540  1.00  0.00    -0.051 A 
ATOM     28  C   UNL     1      10.177   9.596  -8.642  1.00  0.00     0.003 A 
ATOM     29  C   UNL     1       8.956   8.761  -6.740  1.00  0.00     0.007 A 
ATOM     30  C   UNL     1      10.602   8.298  -8.938  1.00  0.00     0.001 A 
ATOM     31  C   UNL     1      10.186   7.224  -8.150  1.00  0.00     0.004 A 
ENDBRANCH  24  25
ENDBRANCH  11  24
ENDBRANCH   8  10
ENDBRANCH   5   8
ENDBRANCH   3   4
ENDBRANCH   2   3
ENDBRANCH   1   2
BRANCH   1  32
ATOM     32  C   UNL     1      -3.805   6.319 -10.500  1.00  0.00     0.002 C 
BRANCH  32  33
ATOM     33  C   UNL     1      -2.933   5.898 -11.685  1.00  0.00     0.021 C 
BRANCH  33  34
ATOM     34  C   UNL     1      -3.420   4.659 -12.425  1.00  0.00     0.116 C 
BRANCH  34  35
ATOM     35  N   UNL     1      -3.735   4.925 -13.826  1.00  0.00    -0.352 N 
ATOM     36  C   UNL     1      -3.918   4.006 -14.846  1.00  0.00     0.251 C 
ATOM     37  H   UNL     1      -3.829   5.873 -14.075  1.00  0.00     0.163 HD
ATOM     38  O   UNL     1      -3.987   4.324 -16.018  1.00  0.00    -0.269 OA
BRANCH  36  39
ATOM     39  C   UNL     1      -4.146   2.609 -14.430  1.00  0.00     0.039 A 
ATOM     40  C   UNL     1      -5.462   2.137 -14.495  1.00  0.00     0.014 A 
ATOM     41  C   UNL     1      -3.168   1.944 -13.698  1.00  0.00     0.014 A 
ATOM     42  C   UNL     1      -5.852   1.097 -13.659  1.00  0.00     0.010 A 
ATOM     43  C   UNL     1      -3.579   0.978 -12.803  1.00  0.00     0.010 A 
ATOM     44  C   UNL     1      -4.930   0.597 -12.745  1.00  0.00    -0.014 A 
BRANCH  44  45
ATOM     45  C   UNL     1      -5.281  -0.280 -11.634  1.00  0.00     0.031 A 
ATOM     46  C   UNL     1      -4.875  -1.702 -11.674  1.00  0.00     0.074 A 
ATOM     47  C   UNL     1      -5.833   0.240 -10.515  1.00  0.00     0.049 A 
ATOM     48  N   UNL     1      -5.325  -2.622 -10.889  1.00  0.00    -0.248 NA
ATOM     49  C   UNL     1      -3.948  -2.213 -12.680  1.00  0.00     0.031 C 
ATOM     50  C   UNL     1      -5.875  -0.379  -9.192  1.00  0.00     0.029 A 
ATOM     51  N   UNL     1      -6.676   1.347 -10.393  1.00  0.00    -0.354 N 
ATOM     52  C   UNL     1      -4.519  -3.727 -11.050  1.00  0.00     0.074 A 
ATOM     53  C   UNL     1      -3.761  -3.462 -12.249  1.00  0.00     0.031 C 
ATOM     54  C   UNL     1      -6.900   0.148  -8.505  1.00  0.00     0.029 A 
ATOM     55  C   UNL     1      -7.637   0.993  -9.429  1.00  0.00     0.049 A 
ATOM     56  H   UNL     1      -6.612   2.200 -10.881  1.00  0.00     0.167 HD
ATOM     57  C   UNL     1      -4.465  -4.664 -10.061  1.00  0.00     0.031 A 
ATOM     58  C   UNL     1      -8.975   0.888  -9.683  1.00  0.00     0.031 A 
ATOM     59  C   UNL     1      -5.501  -4.437  -9.052  1.00  0.00     0.049 A 
ATOM     60  C   UNL     1      -9.536  -0.480  -9.352  1.00  0.00     0.074 A 
ATOM     61  C   UNL     1      -5.488  -3.907  -7.772  1.00  0.00     0.029 A 
ATOM     62  N   UNL     1      -6.837  -4.508  -9.433  1.00  0.00    -0.354 N 
ATOM     63  N   UNL     1      -8.804  -1.546  -9.175  1.00  0.00    -0.248 NA
ATOM     64  C   UNL     1     -10.963  -0.764  -9.227  1.00  0.00     0.031 C 
ATOM     65  C   UNL     1      -6.825  -3.572  -7.424  1.00  0.00     0.029 A 
ATOM     66  C   UNL     1      -7.649  -3.931  -8.477  1.00  0.00     0.049 A 
ATOM     67  H   UNL     1      -7.159  -4.915 -10.270  1.00  0.00     0.167 HD
ATOM     68  C   UNL     1      -9.607  -2.624  -8.907  1.00  0.00     0.074 A 
ATOM     69  C   UNL     1     -10.953  -2.080  -8.943  1.00  0.00     0.031 C 
ATOM     70  C   UNL     1      -9.092  -3.870  -8.682  1.00  0.00     0.031 A 
BRANCH  57  71
ATOM     71  C   UNL     1      -3.283  -5.596  -9.863  1.00  0.00    -0.014 A 
ATOM     72  C   UNL     1      -3.005  -6.110  -8.578  1.00  0.00     0.010 A 
ATOM     73  C   UNL     1      -2.354  -5.933 -10.866  1.00  0.00     0.010 A 
ATOM     74  C   UNL     1      -1.827  -6.823  -8.294  1.00  0.00     0.020 A 
ATOM     75  C   UNL     1      -1.160  -6.618 -10.595  1.00  0.00     0.020 A 
ATOM     76  C   UNL     1      -0.894  -7.047  -9.303  1.00  0.00     0.054 A 
BRANCH  76  77
ATOM     77  S   UNL     1       0.661  -7.889  -8.914  1.00  0.00     0.124 S 
ATOM     78  O   UNL     1       1.234  -7.029  -7.881  1.00  0.00    -0.237 OA
ATOM     79  O   UNL     1       0.205  -9.200  -8.463  1.00  0.00    -0.237 OA
ATOM     80  O   UNL     1       1.384  -7.887 -10.185  1.00  0.00    -0.744 OA
ENDBRANCH  76  77
ENDBRANCH  57  71
BRANCH  58  81
ATOM     81  C   UNL     1      -9.467   1.780 -10.768  1.00  0.00    -0.014 A 
ATOM     82  C   UNL     1      -9.488   3.166 -10.502  1.00  0.00     0.010 A 
ATOM     83  C   UNL     1      -9.457   1.343 -12.105  1.00  0.00     0.010 A 
ATOM     84  C   UNL     1      -9.306   4.089 -11.534  1.00  0.00     0.020 A 
ATOM     85  C   UNL     1      -9.285   2.270 -13.143  1.00  0.00     0.020 A 
ATOM     86  C   UNL     1      -9.136   3.627 -12.839  1.00  0.00     0.054 A 
BRANCH  86  87
ATOM     87  S   UNL     1      -8.498   4.796 -14.078  1.00  0.00     0.124 S 
ATOM     88  O   UNL     1      -9.511   5.846 -14.069  1.00  0.00    -0.237 OA
ATOM     89  O   UNL     1      -7.205   5.161 -13.501  1.00  0.00    -0.237 OA
ATOM     90  O   UNL     1      -8.432   3.993 -15.294  1.00  0.00    -0.744 OA
ENDBRANCH  86  87
ENDBRANCH  58  81
BRANCH  70  91
ATOM     91  C   UNL     1      -9.877  -5.159  -8.564  1.00  0.00    -0.014 A 
ATOM     92  C   UNL     1     -11.176  -5.349  -9.057  1.00  0.00     0.010 A 
ATOM     93  C   UNL     1      -9.227  -6.302  -8.032  1.00  0.00     0.010 A 
ATOM     94  C   UNL     1     -11.816  -6.596  -8.973  1.00  0.00     0.020 A 
ATOM     95  C   UNL     1      -9.836  -7.559  -7.985  1.00  0.00     0.020 A 
ATOM     96  C   UNL     1     -11.142  -7.693  -8.435  1.00  0.00     0.054 A 
BRANCH  96  97
ATOM     97  S   UNL     1     -11.947  -9.315  -8.399  1.00  0.00     0.124 S 
ATOM     98  O   UNL     1     -12.657  -9.270  -7.124  1.00  0.00    -0.237 OA
ATOM     99  O   UNL     1     -12.796  -9.287  -9.589  1.00  0.00    -0.237 OA
ATOM    100  O   UNL     1     -10.829 -10.252  -8.464  1.00  0.00    -0.744 OA
ENDBRANCH  96  97
ENDBRANCH  70  91
ENDBRANCH  44  45
ENDBRANCH  36  39
ENDBRANCH  34  35
ENDBRANCH  33  34
ENDBRANCH  32  33
ENDBRANCH   1  32
TORSDOF 19
