REMARK SMILES Cc1ccc([N+](=O)[O-])c(N2CCCCC[C@H]2C(=O)NCCCCCCNC(=O)c2ccc(-c3c4nc(c(-c5ccc(S(=O)(=O)[O-])cc5)c5ccc([nH]5)c(-c5ccc(S(=O)(=O)[O-])cc5)c5nc(c(-c6ccc(S(=O)(=O)[O-])cc6)c6ccc3[nH]6)C=C5)C=C4)cc2)c1
REMARK SMILES IDX 22 1 21 2 20 3 19 4 17 5 18 6 16 8 10 9 9 10 1 11 2 12 3 13
REMARK SMILES IDX 89 14 4 15 5 16 6 17 7 18 8 19 11 20 15 22 14 23 13 24 12 25
REMARK SMILES IDX 23 27 24 28 25 29 26 30 27 31 28 33 29 34 30 35 88 36 31 37
REMARK SMILES IDX 87 38 32 39 33 40 34 41 81 42 35 43 86 44 80 45 82 46 36 47
REMARK SMILES IDX 85 48 79 49 78 50 37 52 67 53 48 54 66 55 49 56 52 57 65 58
REMARK SMILES IDX 83 59 50 60 51 61 64 63 84 64 53 65 38 66 39 67 47 68 40 69
REMARK SMILES IDX 46 70 41 71 42 72 43 73 44 74 45 75 68 76 69 77 77 78 70 79
REMARK SMILES IDX 76 80 71 81 72 82 73 83 74 84 75 85 54 86 55 87 63 88 56 89
REMARK SMILES IDX 62 90 57 91 58 92 59 93 60 94 61 95
REMARK H PARENT 19 7 26 32 82 51 52 62
REMARK Flexibility Score: 90.00
ROOT
ATOM      1  C   UNL     1       1.525   5.140   2.964  1.00  0.00     0.002 C 
ENDROOT
BRANCH   1   2
ATOM      2  C   UNL     1       0.081   4.680   2.730  1.00  0.00     0.021 C 
BRANCH   2   3
ATOM      3  C   UNL     1      -0.651   5.360   1.574  1.00  0.00     0.116 C 
BRANCH   3   4
ATOM      4  N   UNL     1      -0.159   4.960   0.273  1.00  0.00    -0.354 N 
ATOM      5  C   UNL     1      -0.686   4.171  -0.707  1.00  0.00     0.242 C 
ATOM      6  O   UNL     1      -0.020   4.094  -1.750  1.00  0.00    -0.273 OA
ATOM      7  H   UNL     1       0.726   5.330   0.052  1.00  0.00     0.163 HD
BRANCH   5   8
ATOM      8  C   UNL     1      -2.039   3.414  -0.592  1.00  0.00     0.171 C 
BRANCH   8   9
ATOM      9  N   UNL     1      -2.043   2.308   0.393  1.00  0.00    -0.354 N 
BRANCH   9  10
ATOM     10  C   UNL     1      -1.290   1.165   0.102  1.00  0.00     0.117 A 
ATOM     11  C   UNL     1       2.417   0.176   0.108  1.00  0.00     0.044 C 
ATOM     12  C   UNL     1       0.922   0.079  -0.003  1.00  0.00    -0.049 A 
ATOM     13  C   UNL     1       0.327  -1.153  -0.284  1.00  0.00     0.010 A 
ATOM     14  C   UNL     1       0.112   1.210   0.213  1.00  0.00     0.036 A 
ATOM     15  C   UNL     1      -1.054  -1.240  -0.412  1.00  0.00     0.088 A 
ATOM     16  C   UNL     1      -1.837  -0.085  -0.243  1.00  0.00     0.292 A 
BRANCH  16  17
ATOM     17  N   UNL     1      -3.251  -0.232  -0.515  1.00  0.00     0.064 N 
ATOM     18  O   UNL     1      -3.877  -1.049   0.177  1.00  0.00    -0.258 OA
ATOM     19  O   UNL     1      -3.722   0.401  -1.472  1.00  0.00    -0.258 OA
ENDBRANCH  16  17
ENDBRANCH   9  10
BRANCH   9  20
ATOM     20  C   UNL     1      -2.634   2.385   1.725  1.00  0.00     0.117 CG0
ATOM     21  G   UNL     1      -4.152   2.260   1.719  1.00  0.00     0.000 G0
ENDBRANCH   9  20
ENDBRANCH   8   9
BRANCH   8  22
ATOM     22  C   UNL     1      -3.218   4.392  -0.524  1.00  0.00     0.035 C 
BRANCH  22  23
ATOM     23  C   UNL     1      -4.591   3.762  -0.310  1.00  0.00     0.003 C 
BRANCH  23  24
ATOM     24  C   UNL     1      -4.888   3.470   1.157  1.00  0.00     0.002 C 
BRANCH  24  25
ATOM     25  C   UNL     1      -4.152   2.260   1.719  1.00  0.00     0.021 CG0
ATOM     26  G   UNL     1      -2.634   2.385   1.725  1.00  0.00     0.000 G0
ENDBRANCH  24  25
ENDBRANCH  23  24
ENDBRANCH  22  23
ENDBRANCH   8  22
ENDBRANCH   5   8
ENDBRANCH   3   4
ENDBRANCH   2   3
ENDBRANCH   1   2
BRANCH   1  27
ATOM     27  C   UNL     1       1.753   6.646   3.166  1.00  0.00     0.002 C 
BRANCH  27  28
ATOM     28  C   UNL     1       0.813   7.358   4.140  1.00  0.00     0.021 C 
BRANCH  28  29
ATOM     29  C   UNL     1       0.907   6.866   5.580  1.00  0.00     0.116 C 
BRANCH  29  30
ATOM     30  N   UNL     1       1.556   7.804   6.480  1.00  0.00    -0.352 N 
ATOM     31  C   UNL     1       1.713   7.713   7.854  1.00  0.00     0.251 C 
ATOM     32  H   UNL     1       1.935   8.609   6.059  1.00  0.00     0.163 HD
ATOM     33  O   UNL     1       2.063   8.677   8.512  1.00  0.00    -0.269 OA
BRANCH  31  34
ATOM     34  C   UNL     1       1.532   6.387   8.491  1.00  0.00     0.039 A 
ATOM     35  C   UNL     1       2.618   5.842   9.187  1.00  0.00     0.014 A 
ATOM     36  C   UNL     1       0.401   5.620   8.234  1.00  0.00     0.014 A 
ATOM     37  C   UNL     1       2.644   4.476   9.469  1.00  0.00     0.010 A 
ATOM     38  C   UNL     1       0.469   4.254   8.424  1.00  0.00     0.010 A 
ATOM     39  C   UNL     1       1.604   3.671   9.008  1.00  0.00    -0.014 A 
BRANCH  39  40
ATOM     40  C   UNL     1       1.622   2.210   9.004  1.00  0.00     0.031 A 
ATOM     41  C   UNL     1       0.704   1.441   9.883  1.00  0.00     0.074 A 
ATOM     42  C   UNL     1       2.343   1.548   8.071  1.00  0.00     0.049 A 
ATOM     43  N   UNL     1       0.845   0.187  10.165  1.00  0.00    -0.248 NA
ATOM     44  C   UNL     1      -0.437   2.050  10.560  1.00  0.00     0.031 C 
ATOM     45  C   UNL     1       2.130   0.172   7.628  1.00  0.00     0.029 A 
ATOM     46  N   UNL     1       3.548   1.910   7.467  1.00  0.00    -0.354 N 
ATOM     47  C   UNL     1      -0.318  -0.235  10.772  1.00  0.00     0.074 A 
ATOM     48  C   UNL     1      -1.043   0.976  11.075  1.00  0.00     0.031 C 
ATOM     49  C   UNL     1       3.268  -0.289   7.090  1.00  0.00     0.029 A 
ATOM     50  C   UNL     1       4.285   0.723   7.313  1.00  0.00     0.049 A 
ATOM     51  H   UNL     1       3.827   2.817   7.201  1.00  0.00     0.167 HD
ATOM     52  C   UNL     1      -0.615  -1.565  10.822  1.00  0.00     0.031 A 
ATOM     53  C   UNL     1       5.519   0.490   7.848  1.00  0.00     0.031 A 
ATOM     54  C   UNL     1       0.456  -2.388  10.266  1.00  0.00     0.049 A 
ATOM     55  C   UNL     1       5.583  -0.764   8.689  1.00  0.00     0.074 A 
ATOM     56  C   UNL     1       0.618  -3.023   9.046  1.00  0.00     0.029 A 
ATOM     57  N   UNL     1       1.684  -2.442  10.909  1.00  0.00    -0.354 N 
ATOM     58  N   UNL     1       4.531  -1.390   9.133  1.00  0.00    -0.248 NA
ATOM     59  C   UNL     1       6.827  -1.378   9.149  1.00  0.00     0.031 C 
ATOM     60  C   UNL     1       1.972  -3.427   8.939  1.00  0.00     0.029 A 
ATOM     61  C   UNL     1       2.623  -3.050  10.100  1.00  0.00     0.049 A 
ATOM     62  H   UNL     1       1.861  -2.097  11.814  1.00  0.00     0.167 HD
ATOM     63  C   UNL     1       4.915  -2.435   9.931  1.00  0.00     0.074 A 
ATOM     64  C   UNL     1       6.365  -2.398   9.895  1.00  0.00     0.031 C 
ATOM     65  C   UNL     1       3.994  -3.221  10.563  1.00  0.00     0.031 A 
BRANCH  52  66
ATOM     66  C   UNL     1      -1.996  -2.117  11.114  1.00  0.00    -0.014 A 
ATOM     67  C   UNL     1      -2.362  -3.377  10.593  1.00  0.00     0.010 A 
ATOM     68  C   UNL     1      -2.991  -1.439  11.840  1.00  0.00     0.010 A 
ATOM     69  C   UNL     1      -3.668  -3.879  10.693  1.00  0.00     0.020 A 
ATOM     70  C   UNL     1      -4.311  -1.910  11.921  1.00  0.00     0.020 A 
ATOM     71  C   UNL     1      -4.646  -3.124  11.331  1.00  0.00     0.054 A 
BRANCH  71  72
ATOM     72  S   UNL     1      -6.348  -3.741  11.374  1.00  0.00     0.124 S 
ATOM     73  O   UNL     1      -6.664  -3.889   9.955  1.00  0.00    -0.237 OA
ATOM     74  O   UNL     1      -6.213  -4.986  12.123  1.00  0.00    -0.237 OA
ATOM     75  O   UNL     1      -7.084  -2.680  12.059  1.00  0.00    -0.744 OA
ENDBRANCH  71  72
ENDBRANCH  52  66
BRANCH  53  76
ATOM     76  C   UNL     1       6.320   1.714   8.105  1.00  0.00    -0.014 A 
ATOM     77  C   UNL     1       6.824   2.405   6.984  1.00  0.00     0.010 A 
ATOM     78  C   UNL     1       6.182   2.393   9.329  1.00  0.00     0.010 A 
ATOM     79  C   UNL     1       7.003   3.788   7.034  1.00  0.00     0.020 A 
ATOM     80  C   UNL     1       6.367   3.780   9.381  1.00  0.00     0.020 A 
ATOM     81  C   UNL     1       6.705   4.472   8.214  1.00  0.00     0.054 A 
BRANCH  81  82
ATOM     82  S   UNL     1       6.537   6.279   8.126  1.00  0.00     0.124 S 
ATOM     83  O   UNL     1       7.858   6.695   7.667  1.00  0.00    -0.237 OA
ATOM     84  O   UNL     1       5.455   6.425   7.154  1.00  0.00    -0.237 OA
ATOM     85  O   UNL     1       6.196   6.652   9.495  1.00  0.00    -0.744 OA
ENDBRANCH  81  82
ENDBRANCH  53  76
BRANCH  65  86
ATOM     86  C   UNL     1       4.266  -4.268  11.618  1.00  0.00    -0.014 A 
ATOM     87  C   UNL     1       5.438  -4.340  12.385  1.00  0.00     0.010 A 
ATOM     88  C   UNL     1       3.229  -5.176  11.954  1.00  0.00     0.010 A 
ATOM     89  C   UNL     1       5.591  -5.302  13.396  1.00  0.00     0.020 A 
ATOM     90  C   UNL     1       3.354  -6.110  12.986  1.00  0.00     0.020 A 
ATOM     91  C   UNL     1       4.550  -6.183  13.689  1.00  0.00     0.054 A 
BRANCH  91  92
ATOM     92  S   UNL     1       4.729  -7.375  15.040  1.00  0.00     0.124 S 
ATOM     93  O   UNL     1       5.324  -8.519  14.354  1.00  0.00    -0.237 OA
ATOM     94  O   UNL     1       5.611  -6.681  15.976  1.00  0.00    -0.237 OA
ATOM     95  O   UNL     1       3.360  -7.566  15.511  1.00  0.00    -0.744 OA
ENDBRANCH  91  92
ENDBRANCH  65  86
ENDBRANCH  39  40
ENDBRANCH  31  34
ENDBRANCH  29  30
ENDBRANCH  28  29
ENDBRANCH  27  28
ENDBRANCH   1  27
TORSDOF 18
