REMARK SMILES COC(=O)c1ccc(-c2ccc(C(=O)NCCCCCCNC(=O)c3ccc(-c4c5nc(c(-c6ccc(S(=O)(=O)[O-])cc6)c6ccc([nH]6)c(-c6ccc(S(=O)(=O)[O-])cc6)c6nc(c(-c7ccc(S(=O)(=O)[O-])cc7)c7ccc4[nH]7)C=C6)C=C5)cc3)cc2O)cc1F
REMARK SMILES IDX 18 1 17 2 16 3 15 4 13 5 14 6 12 8 9 9 10 10 86 11 11 12
REMARK SMILES IDX 85 13 8 14 5 15 6 16 89 17 7 18 88 19 90 20 3 21 4 22 2 23
REMARK SMILES IDX 1 24 87 25 19 27 20 28 21 29 22 30 23 31 24 33 25 34 26 35
REMARK SMILES IDX 84 36 27 37 83 38 28 39 29 40 30 41 77 42 31 43 82 44 76 45
REMARK SMILES IDX 78 46 32 47 81 48 75 49 74 50 33 52 63 53 44 54 62 55 45 56
REMARK SMILES IDX 48 57 61 58 79 59 46 60 47 61 60 63 80 64 49 65 34 66 35 67
REMARK SMILES IDX 43 68 36 69 42 70 37 71 38 72 39 73 40 74 41 75 64 76 65 77
REMARK SMILES IDX 73 78 66 79 72 80 67 81 68 82 69 83 70 84 71 85 50 86 51 87
REMARK SMILES IDX 59 88 52 89 58 90 53 91 54 92 55 93 56 94 57 95
REMARK H PARENT 15 7 87 26 22 32 78 51 48 62
REMARK Flexibility Score: inf
ROOT
ATOM      1  C   UNL     1      -4.835  12.042   6.704  1.00  0.00     0.002 C 
ENDROOT
BRANCH   1   2
ATOM      2  C   UNL     1      -4.264  10.734   6.139  1.00  0.00     0.021 C 
BRANCH   2   3
ATOM      3  C   UNL     1      -4.535  10.573   4.641  1.00  0.00     0.116 C 
BRANCH   3   4
ATOM      4  N   UNL     1      -3.569  11.344   3.886  1.00  0.00    -0.352 N 
ATOM      5  C   UNL     1      -2.413  11.019   3.230  1.00  0.00     0.251 C 
ATOM      6  O   UNL     1      -1.783  11.945   2.717  1.00  0.00    -0.269 OA
ATOM      7  H   UNL     1      -3.790  12.302   3.834  1.00  0.00     0.163 HD
BRANCH   5   8
ATOM      8  C   UNL     1      -1.918   9.623   3.050  1.00  0.00     0.043 A 
ATOM      9  C   UNL     1      -0.936   7.029   2.458  1.00  0.00     0.024 A 
ATOM     10  C   UNL     1      -0.535   8.134   1.698  1.00  0.00     0.013 A 
ATOM     11  C   UNL     1      -1.813   7.253   3.530  1.00  0.00     0.124 A 
ATOM     12  C   UNL     1      -1.033   9.409   1.981  1.00  0.00     0.015 A 
ATOM     13  C   UNL     1      -2.253   8.536   3.859  1.00  0.00     0.060 A 
BRANCH   9  14
ATOM     14  C   UNL     1      -0.426   5.689   2.152  1.00  0.00    -0.012 A 
ATOM     15  C   UNL     1       0.536   3.094   1.668  1.00  0.00     0.095 A 
ATOM     16  C   UNL     1       1.387   4.066   2.205  1.00  0.00     0.019 A 
ATOM     17  C   UNL     1      -0.790   3.416   1.388  1.00  0.00     0.138 A 
ATOM     18  C   UNL     1       0.909   5.358   2.436  1.00  0.00     0.010 A 
ATOM     19  C   UNL     1      -1.270   4.702   1.623  1.00  0.00     0.049 A 
ATOM     20  F   UNL     1      -1.646   2.496   0.919  1.00  0.00    -0.206 F 
BRANCH  15  21
ATOM     21  C   UNL     1       1.077   1.743   1.440  1.00  0.00     0.340 C 
ATOM     22  O   UNL     1       1.933   1.236   2.143  1.00  0.00    -0.246 OA
BRANCH  21  23
ATOM     23  O   UNL     1       0.567   1.231   0.294  1.00  0.00    -0.465 OA
ATOM     24  C   UNL     1       1.080  -0.057  -0.043  1.00  0.00     0.282 C 
ENDBRANCH  21  23
ENDBRANCH  15  21
ENDBRANCH   9  14
BRANCH  11  25
ATOM     25  O   UNL     1      -2.235   6.184   4.276  1.00  0.00    -0.507 OA
ATOM     26  H   UNL     1      -1.944   5.319   4.062  1.00  0.00     0.293 HD
ENDBRANCH  11  25
ENDBRANCH   5   8
ENDBRANCH   3   4
ENDBRANCH   2   3
ENDBRANCH   1   2
BRANCH   1  27
ATOM     27  C   UNL     1      -6.356  12.183   6.561  1.00  0.00     0.002 C 
BRANCH  27  28
ATOM     28  C   UNL     1      -7.157  11.013   7.138  1.00  0.00     0.021 C 
BRANCH  28  29
ATOM     29  C   UNL     1      -6.966  10.821   8.637  1.00  0.00     0.116 C 
BRANCH  29  30
ATOM     30  N   UNL     1      -7.442  11.977   9.378  1.00  0.00    -0.352 N 
ATOM     31  C   UNL     1      -8.389  12.040  10.366  1.00  0.00     0.251 C 
ATOM     32  H   UNL     1      -7.026  12.835   9.136  1.00  0.00     0.163 HD
ATOM     33  O   UNL     1      -8.873  13.123  10.680  1.00  0.00    -0.269 OA
BRANCH  31  34
ATOM     34  C   UNL     1      -8.818  10.803  11.051  1.00  0.00     0.039 A 
ATOM     35  C   UNL     1     -10.163  10.649  11.392  1.00  0.00     0.014 A 
ATOM     36  C   UNL     1      -7.887   9.818  11.397  1.00  0.00     0.014 A 
ATOM     37  C   UNL     1     -10.575   9.501  12.068  1.00  0.00     0.010 A 
ATOM     38  C   UNL     1      -8.314   8.635  11.989  1.00  0.00     0.010 A 
ATOM     39  C   UNL     1      -9.656   8.480  12.364  1.00  0.00    -0.014 A 
BRANCH  39  40
ATOM     40  C   UNL     1     -10.075   7.273  13.117  1.00  0.00     0.031 A 
ATOM     41  C   UNL     1      -9.493   6.997  14.479  1.00  0.00     0.074 A 
ATOM     42  C   UNL     1     -10.957   6.417  12.568  1.00  0.00     0.049 A 
ATOM     43  N   UNL     1      -9.740   6.004  15.295  1.00  0.00    -0.248 NA
ATOM     44  C   UNL     1      -8.481   7.942  14.979  1.00  0.00     0.031 C 
ATOM     45  C   UNL     1     -11.555   6.553  11.238  1.00  0.00     0.029 A 
ATOM     46  N   UNL     1     -11.510   5.264  13.065  1.00  0.00    -0.354 N 
ATOM     47  C   UNL     1      -8.906   6.199  16.391  1.00  0.00     0.074 A 
ATOM     48  C   UNL     1      -8.100   7.364  16.107  1.00  0.00     0.031 C 
ATOM     49  C   UNL     1     -12.421   5.546  11.041  1.00  0.00     0.029 A 
ATOM     50  C   UNL     1     -12.412   4.674  12.211  1.00  0.00     0.049 A 
ATOM     51  H   UNL     1     -11.282   4.894  13.948  1.00  0.00     0.167 HD
ATOM     52  C   UNL     1      -8.834   5.488  17.542  1.00  0.00     0.031 A 
ATOM     53  C   UNL     1     -13.153   3.559  12.358  1.00  0.00     0.031 A 
ATOM     54  C   UNL     1      -9.646   4.333  17.821  1.00  0.00     0.049 A 
ATOM     55  C   UNL     1     -13.063   2.789  13.646  1.00  0.00     0.074 A 
ATOM     56  C   UNL     1      -9.691   3.570  18.974  1.00  0.00     0.029 A 
ATOM     57  N   UNL     1     -10.554   3.772  16.935  1.00  0.00    -0.354 N 
ATOM     58  N   UNL     1     -12.316   3.025  14.699  1.00  0.00    -0.248 NA
ATOM     59  C   UNL     1     -13.936   1.616  13.775  1.00  0.00     0.031 C 
ATOM     60  C   UNL     1     -10.582   2.513  18.763  1.00  0.00     0.029 A 
ATOM     61  C   UNL     1     -11.149   2.660  17.507  1.00  0.00     0.049 A 
ATOM     62  H   UNL     1     -10.747   4.114  16.032  1.00  0.00     0.167 HD
ATOM     63  C   UNL     1     -12.656   2.050  15.631  1.00  0.00     0.074 A 
ATOM     64  C   UNL     1     -13.686   1.234  15.020  1.00  0.00     0.031 C 
ATOM     65  C   UNL     1     -12.166   1.851  16.881  1.00  0.00     0.031 A 
BRANCH  52  66
ATOM     66  C   UNL     1      -7.832   5.938  18.576  1.00  0.00    -0.014 A 
ATOM     67  C   UNL     1      -7.977   7.165  19.252  1.00  0.00     0.010 A 
ATOM     68  C   UNL     1      -6.736   5.114  18.890  1.00  0.00     0.010 A 
ATOM     69  C   UNL     1      -7.018   7.582  20.179  1.00  0.00     0.020 A 
ATOM     70  C   UNL     1      -5.793   5.512  19.843  1.00  0.00     0.020 A 
ATOM     71  C   UNL     1      -5.929   6.754  20.465  1.00  0.00     0.054 A 
BRANCH  71  72
ATOM     72  S   UNL     1      -4.705   7.317  21.679  1.00  0.00     0.124 S 
ATOM     73  O   UNL     1      -4.023   8.381  20.947  1.00  0.00    -0.237 OA
ATOM     74  O   UNL     1      -5.540   7.757  22.794  1.00  0.00    -0.237 OA
ATOM     75  O   UNL     1      -3.900   6.126  21.939  1.00  0.00    -0.744 OA
ENDBRANCH  71  72
ENDBRANCH  52  66
BRANCH  53  76
ATOM     76  C   UNL     1     -14.067   3.129  11.264  1.00  0.00    -0.014 A 
ATOM     77  C   UNL     1     -15.462   3.218  11.418  1.00  0.00     0.010 A 
ATOM     78  C   UNL     1     -13.543   2.651  10.049  1.00  0.00     0.010 A 
ATOM     79  C   UNL     1     -16.316   2.820  10.385  1.00  0.00     0.020 A 
ATOM     80  C   UNL     1     -14.393   2.281   9.003  1.00  0.00     0.020 A 
ATOM     81  C   UNL     1     -15.775   2.359   9.181  1.00  0.00     0.054 A 
BRANCH  81  82
ATOM     82  S   UNL     1     -16.901   1.905   7.833  1.00  0.00     0.124 S 
ATOM     83  O   UNL     1     -17.483   0.662   8.328  1.00  0.00    -0.237 OA
ATOM     84  O   UNL     1     -17.804   3.052   7.779  1.00  0.00    -0.237 OA
ATOM     85  O   UNL     1     -16.015   1.766   6.680  1.00  0.00    -0.744 OA
ENDBRANCH  81  82
ENDBRANCH  53  76
BRANCH  65  86
ATOM     86  C   UNL     1     -12.777   0.736  17.691  1.00  0.00    -0.014 A 
ATOM     87  C   UNL     1     -12.584  -0.615  17.351  1.00  0.00     0.010 A 
ATOM     88  C   UNL     1     -13.546   1.053  18.826  1.00  0.00     0.010 A 
ATOM     89  C   UNL     1     -13.201  -1.625  18.096  1.00  0.00     0.020 A 
ATOM     90  C   UNL     1     -14.133   0.046  19.594  1.00  0.00     0.020 A 
ATOM     91  C   UNL     1     -13.977  -1.286  19.209  1.00  0.00     0.054 A 
BRANCH  91  92
ATOM     92  S   UNL     1     -14.769  -2.613  20.158  1.00  0.00     0.124 S 
ATOM     93  O   UNL     1     -15.844  -3.027  19.261  1.00  0.00    -0.237 OA
ATOM     94  O   UNL     1     -13.685  -3.577  20.328  1.00  0.00    -0.237 OA
ATOM     95  O   UNL     1     -15.203  -1.949  21.386  1.00  0.00    -0.744 OA
ENDBRANCH  91  92
ENDBRANCH  65  86
ENDBRANCH  39  40
ENDBRANCH  31  34
ENDBRANCH  29  30
ENDBRANCH  28  29
ENDBRANCH  27  28
ENDBRANCH   1  27
TORSDOF 20
