REMARK SMILES C[C@H]1[C@@H](C(=O)NCCCCCCNC(=O)c2ccc(-c3c4nc(c(-c5ccc(S(=O)(=O)[O-])cc5)c5ccc([nH]5)c(-c5ccc(S(=O)(=O)[O-])cc5)c5nc(c(-c6ccc(S(=O)(=O)[O-])cc6)c6ccc3[nH]6)C=C5)C=C4)cc2)CC[N@@H+]1CC(=O)NNC(=O)c1cccs1
REMARK SMILES IDX 9 1 8 2 7 3 6 4 4 5 5 6 3 8 1 9 2 10 78 11 76 12 77 13 79 15
REMARK SMILES IDX 80 16 81 17 82 18 83 20 84 21 85 23 86 24 87 25 90 26 88 27
REMARK SMILES IDX 89 28 10 29 11 30 12 31 13 32 14 33 15 35 16 36 17 37 75 38
REMARK SMILES IDX 18 39 74 40 19 41 20 42 21 43 68 44 22 45 73 46 67 47 69 48
REMARK SMILES IDX 23 49 72 50 66 51 65 52 24 54 54 55 35 56 53 57 36 58 39 59
REMARK SMILES IDX 52 60 70 61 37 62 38 63 51 65 71 66 40 67 25 68 26 69 34 70
REMARK SMILES IDX 27 71 33 72 28 73 29 74 30 75 31 76 32 77 55 78 56 79 64 80
REMARK SMILES IDX 57 81 63 82 58 83 59 84 60 85 61 86 62 87 41 88 42 89 50 90
REMARK SMILES IDX 43 91 49 92 44 93 45 94 46 95 47 96 48 97
REMARK H PARENT 6 7 78 14 82 19 83 22 13 34 69 53 39 64
REMARK Flexibility Score: inf
ROOT
ATOM      1  C   UNL     1       4.404   1.247  -3.219  1.00  0.00     0.002 C 
ENDROOT
BRANCH   1   2
ATOM      2  C   UNL     1       3.562   0.637  -2.101  1.00  0.00     0.021 C 
BRANCH   2   3
ATOM      3  C   UNL     1       2.839   1.656  -1.215  1.00  0.00     0.116 C 
BRANCH   3   4
ATOM      4  N   UNL     1       1.580   1.996  -1.841  1.00  0.00    -0.356 N 
ATOM      5  C   UNL     1       0.329   1.519  -1.600  1.00  0.00     0.229 C 
ATOM      6  O   UNL     1      -0.511   1.733  -2.479  1.00  0.00    -0.275 OA
ATOM      7  H   UNL     1       1.637   2.677  -2.550  1.00  0.00     0.163 HD
BRANCH   5   8
ATOM      8  C   UNL     1      -0.042   0.908  -0.245  1.00  0.00     0.142 C 
ATOM      9  C   UNL     1       1.374  -1.296  -0.712  1.00  0.00     0.076 C 
ATOM     10  C   UNL     1       0.544  -0.440   0.232  1.00  0.00     0.194 C 
ATOM     11  N   UNL     1      -0.590  -1.289   0.617  1.00  0.00    -0.324 N 
ATOM     12  C   UNL     1      -1.567   0.715  -0.127  1.00  0.00     0.081 C 
ATOM     13  C   UNL     1      -1.766  -0.785  -0.078  1.00  0.00     0.263 C 
ATOM     14  H   UNL     1      -0.414  -2.245   0.306  1.00  0.00     0.348 HD
BRANCH  11  15
ATOM     15  C   UNL     1      -0.735  -1.581   2.048  1.00  0.00     0.365 C 
BRANCH  15  16
ATOM     16  C   UNL     1      -1.381  -0.479   2.885  1.00  0.00     0.293 C 
ATOM     17  O   UNL     1      -2.608  -0.388   2.992  1.00  0.00    -0.267 OA
ATOM     18  N   UNL     1      -0.609   0.434   3.557  1.00  0.00    -0.262 N 
ATOM     19  H   UNL     1      -1.073   1.057   4.162  1.00  0.00     0.191 HD
BRANCH  18  20
ATOM     20  N   UNL     1       0.778   0.557   3.458  1.00  0.00    -0.263 N 
ATOM     21  C   UNL     1       1.415   1.777   3.266  1.00  0.00     0.279 C 
ATOM     22  H   UNL     1       1.329  -0.256   3.527  1.00  0.00     0.191 HD
ATOM     23  O   UNL     1       2.474   1.774   2.632  1.00  0.00    -0.266 OA
BRANCH  21  24
ATOM     24  C   UNL     1       0.809   2.969   3.838  1.00  0.00     0.094 A 
ATOM     25  C   UNL     1       0.105   3.115   5.021  1.00  0.00     0.026 A 
ATOM     26  S   UNL     1       1.014   4.480   3.053  1.00  0.00    -0.139 S 
ATOM     27  C   UNL     1      -0.297   4.461   5.260  1.00  0.00     0.012 A 
ATOM     28  C   UNL     1       0.140   5.309   4.268  1.00  0.00     0.065 A 
ENDBRANCH  21  24
ENDBRANCH  18  20
ENDBRANCH  15  16
ENDBRANCH  11  15
ENDBRANCH   5   8
ENDBRANCH   3   4
ENDBRANCH   2   3
ENDBRANCH   1   2
BRANCH   1  29
ATOM     29  C   UNL     1       5.671   1.950  -2.734  1.00  0.00     0.002 C 
BRANCH  29  30
ATOM     30  C   UNL     1       6.568   1.111  -1.818  1.00  0.00     0.021 C 
BRANCH  30  31
ATOM     31  C   UNL     1       6.941  -0.264  -2.369  1.00  0.00     0.116 C 
BRANCH  31  32
ATOM     32  N   UNL     1       7.638  -0.161  -3.640  1.00  0.00    -0.352 N 
ATOM     33  C   UNL     1       8.943  -0.456  -3.942  1.00  0.00     0.251 C 
ATOM     34  H   UNL     1       7.095   0.167  -4.393  1.00  0.00     0.163 HD
ATOM     35  O   UNL     1       9.437  -0.057  -4.990  1.00  0.00    -0.269 OA
BRANCH  33  36
ATOM     36  C   UNL     1       9.749  -1.251  -2.993  1.00  0.00     0.039 A 
ATOM     37  C   UNL     1      11.053  -0.843  -2.703  1.00  0.00     0.014 A 
ATOM     38  C   UNL     1       9.224  -2.406  -2.406  1.00  0.00     0.014 A 
ATOM     39  C   UNL     1      11.813  -1.568  -1.784  1.00  0.00     0.010 A 
ATOM     40  C   UNL     1       9.955  -3.083  -1.435  1.00  0.00     0.010 A 
ATOM     41  C   UNL     1      11.261  -2.677  -1.120  1.00  0.00    -0.014 A 
BRANCH  41  42
ATOM     42  C   UNL     1      12.035  -3.422  -0.095  1.00  0.00     0.031 A 
ATOM     43  C   UNL     1      12.401  -4.864  -0.322  1.00  0.00     0.074 A 
ATOM     44  C   UNL     1      12.364  -2.814   1.061  1.00  0.00     0.049 A 
ATOM     45  N   UNL     1      13.039  -5.687   0.471  1.00  0.00    -0.248 NA
ATOM     46  C   UNL     1      11.975  -5.468  -1.595  1.00  0.00     0.031 C 
ATOM     47  C   UNL     1      12.034  -1.430   1.414  1.00  0.00     0.029 A 
ATOM     48  N   UNL     1      13.046  -3.280   2.157  1.00  0.00    -0.354 N 
ATOM     49  C   UNL     1      13.080  -6.904  -0.199  1.00  0.00     0.074 A 
ATOM     50  C   UNL     1      12.355  -6.728  -1.438  1.00  0.00     0.031 C 
ATOM     51  C   UNL     1      12.542  -1.152   2.625  1.00  0.00     0.029 A 
ATOM     52  C   UNL     1      13.192  -2.346   3.155  1.00  0.00     0.049 A 
ATOM     53  H   UNL     1      13.399  -4.197   2.221  1.00  0.00     0.167 HD
ATOM     54  C   UNL     1      13.683  -8.058   0.174  1.00  0.00     0.031 A 
ATOM     55  C   UNL     1      13.777  -2.441   4.365  1.00  0.00     0.031 A 
ATOM     56  C   UNL     1      14.404  -8.227   1.408  1.00  0.00     0.049 A 
ATOM     57  C   UNL     1      14.417  -3.741   4.768  1.00  0.00     0.074 A 
ATOM     58  C   UNL     1      15.094  -9.339   1.856  1.00  0.00     0.029 A 
ATOM     59  N   UNL     1      14.524  -7.259   2.394  1.00  0.00    -0.354 N 
ATOM     60  N   UNL     1      14.505  -4.861   4.091  1.00  0.00    -0.248 NA
ATOM     61  C   UNL     1      15.047  -3.787   6.095  1.00  0.00     0.031 C 
ATOM     62  C   UNL     1      15.578  -9.066   3.139  1.00  0.00     0.029 A 
ATOM     63  C   UNL     1      15.249  -7.759   3.463  1.00  0.00     0.049 A 
ATOM     64  H   UNL     1      14.148  -6.350   2.343  1.00  0.00     0.167 HD
ATOM     65  C   UNL     1      15.222  -5.737   4.899  1.00  0.00     0.074 A 
ATOM     66  C   UNL     1      15.559  -5.010   6.106  1.00  0.00     0.031 C 
ATOM     67  C   UNL     1      15.572  -7.025   4.662  1.00  0.00     0.031 A 
BRANCH  54  68
ATOM     68  C   UNL     1      13.578  -9.235  -0.764  1.00  0.00    -0.014 A 
ATOM     69  C   UNL     1      14.229  -9.233  -2.011  1.00  0.00     0.010 A 
ATOM     70  C   UNL     1      12.848 -10.374  -0.378  1.00  0.00     0.010 A 
ATOM     71  C   UNL     1      14.114 -10.328  -2.873  1.00  0.00     0.020 A 
ATOM     72  C   UNL     1      12.757 -11.484  -1.223  1.00  0.00     0.020 A 
ATOM     73  C   UNL     1      13.376 -11.445  -2.474  1.00  0.00     0.054 A 
BRANCH  73  74
ATOM     74  S   UNL     1      13.259 -12.858  -3.605  1.00  0.00     0.124 S 
ATOM     75  O   UNL     1      12.384 -12.334  -4.651  1.00  0.00    -0.237 OA
ATOM     76  O   UNL     1      14.650 -13.068  -3.998  1.00  0.00    -0.237 OA
ATOM     77  O   UNL     1      12.680 -13.916  -2.782  1.00  0.00    -0.744 OA
ENDBRANCH  73  74
ENDBRANCH  54  68
BRANCH  55  78
ATOM     78  C   UNL     1      13.792  -1.263   5.277  1.00  0.00    -0.014 A 
ATOM     79  C   UNL     1      14.995  -0.592   5.559  1.00  0.00     0.010 A 
ATOM     80  C   UNL     1      12.598  -0.796   5.857  1.00  0.00     0.010 A 
ATOM     81  C   UNL     1      15.007   0.512   6.417  1.00  0.00     0.020 A 
ATOM     82  C   UNL     1      12.601   0.325   6.691  1.00  0.00     0.020 A 
ATOM     83  C   UNL     1      13.809   0.966   6.975  1.00  0.00     0.054 A 
BRANCH  83  84
ATOM     84  S   UNL     1      13.841   2.431   8.045  1.00  0.00     0.124 S 
ATOM     85  O   UNL     1      14.486   1.914   9.248  1.00  0.00    -0.237 OA
ATOM     86  O   UNL     1      14.630   3.376   7.259  1.00  0.00    -0.237 OA
ATOM     87  O   UNL     1      12.430   2.779   8.191  1.00  0.00    -0.744 OA
ENDBRANCH  83  84
ENDBRANCH  55  78
BRANCH  67  88
ATOM     88  C   UNL     1      16.385  -7.729   5.717  1.00  0.00    -0.014 A 
ATOM     89  C   UNL     1      15.819  -8.101   6.949  1.00  0.00     0.010 A 
ATOM     90  C   UNL     1      17.723  -8.072   5.447  1.00  0.00     0.010 A 
ATOM     91  C   UNL     1      16.585  -8.774   7.904  1.00  0.00     0.020 A 
ATOM     92  C   UNL     1      18.483  -8.773   6.386  1.00  0.00     0.020 A 
ATOM     93  C   UNL     1      17.913  -9.107   7.615  1.00  0.00     0.054 A 
BRANCH  93  94
ATOM     94  S   UNL     1      18.870 -10.022   8.854  1.00  0.00     0.124 S 
ATOM     95  O   UNL     1      19.100  -9.002   9.874  1.00  0.00    -0.237 OA
ATOM     96  O   UNL     1      17.957 -11.097   9.234  1.00  0.00    -0.237 OA
ATOM     97  O   UNL     1      20.061 -10.452   8.125  1.00  0.00    -0.744 OA
ENDBRANCH  93  94
ENDBRANCH  67  88
ENDBRANCH  41  42
ENDBRANCH  33  36
ENDBRANCH  31  32
ENDBRANCH  30  31
ENDBRANCH  29  30
ENDBRANCH   1  29
TORSDOF 20
