REMARK SMILES CC(C)N1C[C@H](C(=O)N[C@@H]2C=C[C@@H](C(=O)NCCCCCCNC(=O)c3ccc(-c4c5nc(c(-c6ccc(S(=O)(=O)[O-])cc6)c6ccc([nH]6)c(-c6ccc(S(=O)(=O)[O-])cc6)c6nc(c(-c7ccc(S(=O)(=O)[O-])cc7)c7ccc4[nH]7)C=C6)C=C5)cc3)C2)CC1=O
REMARK SMILES IDX 19 1 18 2 17 3 16 4 14 5 15 6 13 8 10 9 11 10 86 11 12 12
REMARK SMILES IDX 9 13 7 14 8 15 6 17 4 18 5 19 88 20 87 21 89 22 2 23 1 24
REMARK SMILES IDX 3 25 20 26 21 27 22 28 23 29 24 30 25 32 26 33 27 34 85 35
REMARK SMILES IDX 28 36 84 37 29 38 30 39 31 40 78 41 32 42 83 43 77 44 79 45
REMARK SMILES IDX 33 46 82 47 76 48 75 49 34 51 64 52 45 53 63 54 46 55 49 56
REMARK SMILES IDX 62 57 80 58 47 59 48 60 61 62 81 63 50 64 35 65 36 66 44 67
REMARK SMILES IDX 37 68 43 69 38 70 39 71 40 72 41 73 42 74 65 75 66 76 74 77
REMARK SMILES IDX 67 78 73 79 68 80 69 81 70 82 71 83 72 84 51 85 52 86 60 87
REMARK SMILES IDX 53 88 59 89 54 90 55 91 56 92 57 93 58 94
REMARK H PARENT 16 7 9 16 23 31 79 50 49 61
REMARK Flexibility Score: inf
ROOT
ATOM      1  C   UNL     1       3.989  -2.023   4.373  1.00  0.00     0.002 C 
ENDROOT
BRANCH   1   2
ATOM      2  C   UNL     1       2.800  -2.245   3.433  1.00  0.00     0.021 C 
BRANCH   2   3
ATOM      3  C   UNL     1       2.443  -1.022   2.594  1.00  0.00     0.116 C 
BRANCH   3   4
ATOM      4  N   UNL     1       3.456  -0.760   1.591  1.00  0.00    -0.356 N 
ATOM      5  C   UNL     1       3.393  -0.745   0.232  1.00  0.00     0.227 C 
ATOM      6  O   UNL     1       4.436  -0.494  -0.379  1.00  0.00    -0.274 OA
ATOM      7  H   UNL     1       4.347  -0.559   1.957  1.00  0.00     0.163 HD
BRANCH   5   8
ATOM      8  C   UNL     1       2.093  -0.989  -0.538  1.00  0.00     0.103 C 
ATOM      9  C   UNL     1      -0.065  -1.996   0.118  1.00  0.00     0.106 C 
ATOM     10  C   UNL     1      -0.106  -0.503   0.121  1.00  0.00    -0.006 C 
ATOM     11  C   UNL     1       1.393  -2.326  -0.262  1.00  0.00     0.047 C 
ATOM     12  C   UNL     1       1.058   0.046  -0.234  1.00  0.00    -0.016 C 
BRANCH   9  13
ATOM     13  N   UNL     1      -1.009  -2.482  -0.861  1.00  0.00    -0.350 N 
ATOM     14  C   UNL     1      -2.324  -2.816  -0.718  1.00  0.00     0.225 C 
ATOM     15  O   UNL     1      -2.901  -3.291  -1.696  1.00  0.00    -0.275 OA
ATOM     16  H   UNL     1      -0.648  -2.590  -1.770  1.00  0.00     0.164 HD
BRANCH  14  17
ATOM     17  C   UNL     1      -3.032  -2.548   0.602  1.00  0.00     0.107 C 
ATOM     18  N   UNL     1      -4.940  -1.256   0.176  1.00  0.00    -0.339 N 
ATOM     19  C   UNL     1      -3.576  -1.131   0.618  1.00  0.00     0.133 C 
ATOM     20  C   UNL     1      -5.403  -2.559   0.272  1.00  0.00     0.223 C 
ATOM     21  C   UNL     1      -4.273  -3.423   0.775  1.00  0.00     0.115 C 
ATOM     22  O   UNL     1      -6.539  -2.954   0.059  1.00  0.00    -0.275 OA
BRANCH  18  23
ATOM     23  C   UNL     1      -5.743  -0.085  -0.171  1.00  0.00     0.078 C 
ATOM     24  C   UNL     1      -6.438  -0.249  -1.521  1.00  0.00     0.031 C 
ATOM     25  C   UNL     1      -6.737   0.259   0.934  1.00  0.00     0.031 C 
ENDBRANCH  18  23
ENDBRANCH  14  17
ENDBRANCH   9  13
ENDBRANCH   5   8
ENDBRANCH   3   4
ENDBRANCH   2   3
ENDBRANCH   1   2
BRANCH   1  26
ATOM     26  C   UNL     1       3.817  -0.869   5.366  1.00  0.00     0.002 C 
BRANCH  26  27
ATOM     27  C   UNL     1       2.551  -0.939   6.224  1.00  0.00     0.021 C 
BRANCH  27  28
ATOM     28  C   UNL     1       2.424  -2.210   7.057  1.00  0.00     0.116 C 
BRANCH  28  29
ATOM     29  N   UNL     1       3.501  -2.334   8.026  1.00  0.00    -0.352 N 
ATOM     30  C   UNL     1       3.425  -2.502   9.387  1.00  0.00     0.251 C 
ATOM     31  H   UNL     1       4.412  -2.293   7.655  1.00  0.00     0.163 HD
ATOM     32  O   UNL     1       4.430  -2.378  10.080  1.00  0.00    -0.269 OA
BRANCH  30  33
ATOM     33  C   UNL     1       2.121  -2.811  10.010  1.00  0.00     0.039 A 
ATOM     34  C   UNL     1       1.730  -2.111  11.152  1.00  0.00     0.014 A 
ATOM     35  C   UNL     1       1.281  -3.782   9.455  1.00  0.00     0.014 A 
ATOM     36  C   UNL     1       0.467  -2.339  11.702  1.00  0.00     0.010 A 
ATOM     37  C   UNL     1      -0.005  -3.950   9.957  1.00  0.00     0.010 A 
ATOM     38  C   UNL     1      -0.426  -3.232  11.087  1.00  0.00    -0.014 A 
BRANCH  38  39
ATOM     39  C   UNL     1      -1.806  -3.424  11.603  1.00  0.00     0.031 A 
ATOM     40  C   UNL     1      -2.243  -4.771  12.113  1.00  0.00     0.074 A 
ATOM     41  C   UNL     1      -2.685  -2.403  11.551  1.00  0.00     0.049 A 
ATOM     42  N   UNL     1      -3.421  -5.148  12.540  1.00  0.00    -0.248 NA
ATOM     43  C   UNL     1      -1.231  -5.841  12.122  1.00  0.00     0.031 C 
ATOM     44  C   UNL     1      -2.394  -1.059  11.046  1.00  0.00     0.029 A 
ATOM     45  N   UNL     1      -4.006  -2.338  11.921  1.00  0.00    -0.354 N 
ATOM     46  C   UNL     1      -3.296  -6.496  12.853  1.00  0.00     0.074 A 
ATOM     47  C   UNL     1      -1.944  -6.885  12.517  1.00  0.00     0.031 C 
ATOM     48  C   UNL     1      -3.493  -0.297  11.165  1.00  0.00     0.029 A 
ATOM     49  C   UNL     1      -4.580  -1.107  11.706  1.00  0.00     0.049 A 
ATOM     50  H   UNL     1      -4.496  -3.102  12.303  1.00  0.00     0.167 HD
ATOM     51  C   UNL     1      -4.218  -7.331  13.390  1.00  0.00     0.031 A 
ATOM     52  C   UNL     1      -5.841  -0.679  11.911  1.00  0.00     0.031 A 
ATOM     53  C   UNL     1      -5.561  -6.938  13.727  1.00  0.00     0.049 A 
ATOM     54  C   UNL     1      -6.855  -1.633  12.482  1.00  0.00     0.074 A 
ATOM     55  C   UNL     1      -6.554  -7.697  14.321  1.00  0.00     0.029 A 
ATOM     56  N   UNL     1      -6.102  -5.683  13.494  1.00  0.00    -0.354 N 
ATOM     57  N   UNL     1      -6.699  -2.887  12.831  1.00  0.00    -0.248 NA
ATOM     58  C   UNL     1      -8.211  -1.110  12.696  1.00  0.00     0.031 C 
ATOM     59  C   UNL     1      -7.715  -6.920  14.390  1.00  0.00     0.029 A 
ATOM     60  C   UNL     1      -7.424  -5.654  13.906  1.00  0.00     0.049 A 
ATOM     61  H   UNL     1      -5.618  -4.924  13.094  1.00  0.00     0.167 HD
ATOM     62  C   UNL     1      -7.929  -3.294  13.337  1.00  0.00     0.074 A 
ATOM     63  C   UNL     1      -8.812  -2.148  13.261  1.00  0.00     0.031 C 
ATOM     64  C   UNL     1      -8.293  -4.506  13.825  1.00  0.00     0.031 A 
BRANCH  51  65
ATOM     65  C   UNL     1      -3.806  -8.760  13.639  1.00  0.00    -0.014 A 
ATOM     66  C   UNL     1      -2.860  -9.085  14.628  1.00  0.00     0.010 A 
ATOM     67  C   UNL     1      -4.408  -9.798  12.904  1.00  0.00     0.010 A 
ATOM     68  C   UNL     1      -2.491 -10.415  14.847  1.00  0.00     0.020 A 
ATOM     69  C   UNL     1      -4.066 -11.133  13.143  1.00  0.00     0.020 A 
ATOM     70  C   UNL     1      -3.096 -11.430  14.101  1.00  0.00     0.054 A 
BRANCH  70  71
ATOM     71  S   UNL     1      -2.614 -13.148  14.425  1.00  0.00     0.124 S 
ATOM     72  O   UNL     1      -1.259 -13.188  13.877  1.00  0.00    -0.237 OA
ATOM     73  O   UNL     1      -2.705 -13.237  15.880  1.00  0.00    -0.237 OA
ATOM     74  O   UNL     1      -3.604 -13.932  13.691  1.00  0.00    -0.744 OA
ENDBRANCH  70  71
ENDBRANCH  51  65
BRANCH  52  75
ATOM     75  C   UNL     1      -6.214   0.725  11.578  1.00  0.00    -0.014 A 
ATOM     76  C   UNL     1      -6.524   1.644  12.596  1.00  0.00     0.010 A 
ATOM     77  C   UNL     1      -6.251   1.153  10.238  1.00  0.00     0.010 A 
ATOM     78  C   UNL     1      -6.882   2.958  12.280  1.00  0.00     0.020 A 
ATOM     79  C   UNL     1      -6.577   2.474   9.920  1.00  0.00     0.020 A 
ATOM     80  C   UNL     1      -6.902   3.366  10.944  1.00  0.00     0.054 A 
BRANCH  80  81
ATOM     81  S   UNL     1      -7.319   5.090  10.560  1.00  0.00     0.124 S 
ATOM     82  O   UNL     1      -8.749   5.127  10.846  1.00  0.00    -0.237 OA
ATOM     83  O   UNL     1      -6.467   5.831  11.487  1.00  0.00    -0.237 OA
ATOM     84  O   UNL     1      -6.957   5.223   9.151  1.00  0.00    -0.744 OA
ENDBRANCH  80  81
ENDBRANCH  52  75
BRANCH  64  85
ATOM     85  C   UNL     1      -9.695  -4.652  14.358  1.00  0.00    -0.014 A 
ATOM     86  C   UNL     1     -10.809  -4.661  13.500  1.00  0.00     0.010 A 
ATOM     87  C   UNL     1      -9.891  -4.846  15.738  1.00  0.00     0.010 A 
ATOM     88  C   UNL     1     -12.096  -4.832  14.018  1.00  0.00     0.020 A 
ATOM     89  C   UNL     1     -11.173  -5.049  16.255  1.00  0.00     0.020 A 
ATOM     90  C   UNL     1     -12.270  -5.028  15.392  1.00  0.00     0.054 A 
BRANCH  90  91
ATOM     91  S   UNL     1     -13.946  -5.297  16.030  1.00  0.00     0.124 S 
ATOM     92  O   UNL     1     -14.539  -3.970  15.896  1.00  0.00    -0.237 OA
ATOM     93  O   UNL     1     -14.472  -6.316  15.124  1.00  0.00    -0.237 OA
ATOM     94  O   UNL     1     -13.726  -5.746  17.403  1.00  0.00    -0.744 OA
ENDBRANCH  90  91
ENDBRANCH  64  85
ENDBRANCH  38  39
ENDBRANCH  30  33
ENDBRANCH  28  29
ENDBRANCH  27  28
ENDBRANCH  26  27
ENDBRANCH   1  26
TORSDOF 19
