REMARK SMILES CCc1cccc2c3c([nH]c12)[C@](CC)(CC(=O)NCCCCCCNC(=O)c1ccc(-c2c4nc(c(-c5ccc(S(=O)(=O)[O-])cc5)c5ccc([nH]5)c(-c5ccc(S(=O)(=O)[O-])cc5)c5nc(c(-c6ccc(S(=O)(=O)[O-])cc6)c6ccc2[nH]6)C=C5)C=C4)cc1)OCC3
REMARK SMILES IDX 22 1 21 2 20 3 19 4 18 5 16 6 17 7 15 9 12 10 3 11 4 12
REMARK SMILES IDX 11 13 5 14 7 15 10 16 6 17 8 18 9 19 90 21 89 22 88 23 2 24
REMARK SMILES IDX 1 25 13 26 14 27 23 28 24 29 25 30 26 31 27 33 28 34 29 35
REMARK SMILES IDX 87 36 30 37 86 38 31 39 32 40 33 41 80 42 34 43 85 44 79 45
REMARK SMILES IDX 81 46 35 47 84 48 78 49 77 50 36 52 66 53 47 54 65 55 48 56
REMARK SMILES IDX 51 57 64 58 82 59 49 60 50 61 63 63 83 64 52 65 37 66 38 67
REMARK SMILES IDX 46 68 39 69 45 70 40 71 41 72 42 73 43 74 44 75 67 76 68 77
REMARK SMILES IDX 76 78 69 79 75 80 70 81 71 82 72 83 73 84 74 85 53 86 54 87
REMARK SMILES IDX 62 88 55 89 61 90 56 91 57 92 58 93 59 94 60 95
REMARK H PARENT 18 8 10 20 25 32 81 51 51 62
REMARK Flexibility Score: inf
ROOT
ATOM      1  C   UNL     1      -2.756 -11.588  -0.752  1.00  0.00     0.002 C 
ENDROOT
BRANCH   1   2
ATOM      2  C   UNL     1      -2.446 -10.109  -0.942  1.00  0.00     0.002 C 
BRANCH   2   3
ATOM      3  C   UNL     1      -3.626  -9.255  -1.440  1.00  0.00     0.021 C 
BRANCH   3   4
ATOM      4  C   UNL     1      -4.342  -8.405  -0.377  1.00  0.00     0.116 C 
BRANCH   4   5
ATOM      5  N   UNL     1      -3.463  -7.804   0.622  1.00  0.00    -0.356 N 
ATOM      6  C   UNL     1      -2.941  -6.548   0.755  1.00  0.00     0.223 C 
ATOM      7  O   UNL     1      -2.143  -6.346   1.673  1.00  0.00    -0.275 OA
ATOM      8  H   UNL     1      -3.194  -8.424   1.338  1.00  0.00     0.163 HD
BRANCH   6   9
ATOM      9  C   UNL     1      -3.377  -5.429  -0.159  1.00  0.00     0.142 C 
BRANCH   9  10
ATOM     10  C   UNL     1      -2.544  -5.119  -1.425  1.00  0.00     0.117 C 
ATOM     11  C   UNL     1       1.213  -1.722  -0.991  1.00  0.00    -0.024 A 
ATOM     12  C   UNL     1       2.619  -1.882  -0.972  1.00  0.00     0.006 A 
ATOM     13  C   UNL     1       0.449  -2.909  -0.987  1.00  0.00     0.049 A 
ATOM     14  C   UNL     1       3.228  -3.132  -0.932  1.00  0.00     0.001 A 
ATOM     15  C   UNL     1       1.051  -4.166  -1.006  1.00  0.00     0.003 A 
ATOM     16  N   UNL     1      -0.923  -3.125  -1.001  1.00  0.00    -0.356 N 
ATOM     17  C   UNL     1       2.451  -4.283  -0.955  1.00  0.00     0.010 A 
ATOM     18  C   UNL     1       0.019  -5.109  -1.186  1.00  0.00    -0.014 A 
ATOM     19  C   UNL     1      -1.199  -4.466  -1.159  1.00  0.00     0.052 A 
ATOM     20  H   UNL     1      -1.604  -2.420  -0.911  1.00  0.00     0.166 HD
ATOM     21  C   UNL     1       0.160  -6.531  -1.525  1.00  0.00     0.066 C 
ATOM     22  C   UNL     1      -1.200  -7.155  -1.783  1.00  0.00     0.166 C 
ATOM     23  O   UNL     1      -2.255  -6.286  -2.232  1.00  0.00    -0.368 OA
BRANCH  11  24
ATOM     24  C   UNL     1       0.635  -0.333  -1.045  1.00  0.00     0.034 C 
ATOM     25  C   UNL     1       0.921   0.449   0.229  1.00  0.00     0.009 C 
ENDBRANCH  11  24
BRANCH  10  26
ATOM     26  C   UNL     1      -3.396  -4.195  -2.358  1.00  0.00     0.039 C 
ATOM     27  C   UNL     1      -4.767  -4.748  -2.761  1.00  0.00     0.007 C 
ENDBRANCH  10  26
ENDBRANCH   9  10
ENDBRANCH   6   9
ENDBRANCH   4   5
ENDBRANCH   3   4
ENDBRANCH   2   3
ENDBRANCH   1   2
BRANCH   1  28
ATOM     28  C   UNL     1      -3.152 -12.325  -2.031  1.00  0.00     0.021 C 
BRANCH  28  29
ATOM     29  C   UNL     1      -2.109 -12.284  -3.153  1.00  0.00     0.116 C 
BRANCH  29  30
ATOM     30  N   UNL     1      -0.966 -13.149  -2.936  1.00  0.00    -0.352 N 
ATOM     31  C   UNL     1      -0.792 -14.508  -3.009  1.00  0.00     0.251 C 
ATOM     32  H   UNL     1      -0.149 -12.662  -2.685  1.00  0.00     0.163 HD
ATOM     33  O   UNL     1       0.360 -14.926  -2.874  1.00  0.00    -0.269 OA
BRANCH  31  34
ATOM     34  C   UNL     1      -1.903 -15.488  -3.171  1.00  0.00     0.039 A 
ATOM     35  C   UNL     1      -3.194 -15.172  -3.588  1.00  0.00     0.014 A 
ATOM     36  C   UNL     1      -1.618 -16.827  -2.845  1.00  0.00     0.014 A 
ATOM     37  C   UNL     1      -4.203 -16.123  -3.547  1.00  0.00     0.010 A 
ATOM     38  C   UNL     1      -2.614 -17.803  -2.865  1.00  0.00     0.010 A 
ATOM     39  C   UNL     1      -3.920 -17.439  -3.175  1.00  0.00    -0.014 A 
BRANCH  39  40
ATOM     40  C   UNL     1      -5.024 -18.393  -3.279  1.00  0.00     0.031 A 
ATOM     41  C   UNL     1      -5.683 -18.429  -4.614  1.00  0.00     0.074 A 
ATOM     42  C   UNL     1      -5.421 -19.246  -2.317  1.00  0.00     0.049 A 
ATOM     43  N   UNL     1      -6.893 -18.084  -4.913  1.00  0.00    -0.248 NA
ATOM     44  C   UNL     1      -4.848 -18.775  -5.774  1.00  0.00     0.031 C 
ATOM     45  C   UNL     1      -4.739 -19.569  -1.063  1.00  0.00     0.029 A 
ATOM     46  N   UNL     1      -6.496 -20.088  -2.317  1.00  0.00    -0.354 N 
ATOM     47  C   UNL     1      -7.035 -18.341  -6.273  1.00  0.00     0.074 A 
ATOM     48  C   UNL     1      -5.714 -18.628  -6.776  1.00  0.00     0.031 C 
ATOM     49  C   UNL     1      -5.280 -20.694  -0.543  1.00  0.00     0.029 A 
ATOM     50  C   UNL     1      -6.443 -21.063  -1.333  1.00  0.00     0.049 A 
ATOM     51  H   UNL     1      -7.240 -20.010  -2.957  1.00  0.00     0.167 HD
ATOM     52  C   UNL     1      -8.252 -18.504  -6.857  1.00  0.00     0.031 A 
ATOM     53  C   UNL     1      -7.269 -22.127  -1.206  1.00  0.00     0.031 A 
ATOM     54  C   UNL     1      -9.324 -18.039  -6.022  1.00  0.00     0.049 A 
ATOM     55  C   UNL     1      -8.546 -21.805  -1.880  1.00  0.00     0.074 A 
ATOM     56  C   UNL     1      -9.795 -16.813  -5.609  1.00  0.00     0.029 A 
ATOM     57  N   UNL     1      -9.870 -18.986  -5.195  1.00  0.00    -0.354 N 
ATOM     58  N   UNL     1      -9.360 -20.873  -1.472  1.00  0.00    -0.248 NA
ATOM     59  C   UNL     1      -8.829 -22.341  -3.205  1.00  0.00     0.031 C 
ATOM     60  C   UNL     1     -10.393 -17.038  -4.334  1.00  0.00     0.029 A 
ATOM     61  C   UNL     1     -10.295 -18.397  -4.029  1.00  0.00     0.049 A 
ATOM     62  H   UNL     1      -9.946 -19.945  -5.405  1.00  0.00     0.167 HD
ATOM     63  C   UNL     1      -9.972 -20.416  -2.623  1.00  0.00     0.074 A 
ATOM     64  C   UNL     1      -9.752 -21.465  -3.608  1.00  0.00     0.031 C 
ATOM     65  C   UNL     1     -10.330 -19.107  -2.760  1.00  0.00     0.031 A 
BRANCH  52  66
ATOM     66  C   UNL     1      -8.492 -19.433  -8.023  1.00  0.00    -0.014 A 
ATOM     67  C   UNL     1      -7.593 -20.467  -8.360  1.00  0.00     0.010 A 
ATOM     68  C   UNL     1      -9.751 -19.453  -8.657  1.00  0.00     0.010 A 
ATOM     69  C   UNL     1      -7.897 -21.435  -9.316  1.00  0.00     0.020 A 
ATOM     70  C   UNL     1     -10.085 -20.449  -9.590  1.00  0.00     0.020 A 
ATOM     71  C   UNL     1      -9.146 -21.424  -9.925  1.00  0.00     0.054 A 
BRANCH  71  72
ATOM     72  S   UNL     1      -9.525 -22.743 -11.104  1.00  0.00     0.124 S 
ATOM     73  O   UNL     1      -8.653 -22.402 -12.225  1.00  0.00    -0.237 OA
ATOM     74  O   UNL     1      -9.155 -23.944 -10.361  1.00  0.00    -0.237 OA
ATOM     75  O   UNL     1     -10.955 -22.581 -11.354  1.00  0.00    -0.744 OA
ENDBRANCH  71  72
ENDBRANCH  52  66
BRANCH  53  76
ATOM     76  C   UNL     1      -6.891 -23.520  -0.868  1.00  0.00    -0.014 A 
ATOM     77  C   UNL     1      -5.594 -23.983  -1.169  1.00  0.00     0.010 A 
ATOM     78  C   UNL     1      -7.885 -24.472  -0.575  1.00  0.00     0.010 A 
ATOM     79  C   UNL     1      -5.325 -25.350  -1.279  1.00  0.00     0.020 A 
ATOM     80  C   UNL     1      -7.622 -25.845  -0.690  1.00  0.00     0.020 A 
ATOM     81  C   UNL     1      -6.353 -26.271  -1.085  1.00  0.00     0.054 A 
BRANCH  81  82
ATOM     82  S   UNL     1      -6.031 -28.015  -1.467  1.00  0.00     0.124 S 
ATOM     83  O   UNL     1      -5.818 -27.970  -2.916  1.00  0.00    -0.237 OA
ATOM     84  O   UNL     1      -4.833 -28.294  -0.672  1.00  0.00    -0.237 OA
ATOM     85  O   UNL     1      -7.237 -28.698  -1.034  1.00  0.00    -0.744 OA
ENDBRANCH  81  82
ENDBRANCH  53  76
BRANCH  65  86
ATOM     86  C   UNL     1     -10.555 -18.289  -1.508  1.00  0.00    -0.014 A 
ATOM     87  C   UNL     1     -11.781 -17.606  -1.394  1.00  0.00     0.010 A 
ATOM     88  C   UNL     1      -9.589 -18.093  -0.501  1.00  0.00     0.010 A 
ATOM     89  C   UNL     1     -12.032 -16.742  -0.326  1.00  0.00     0.020 A 
ATOM     90  C   UNL     1      -9.847 -17.251   0.592  1.00  0.00     0.020 A 
ATOM     91  C   UNL     1     -11.061 -16.566   0.660  1.00  0.00     0.054 A 
BRANCH  91  92
ATOM     92  S   UNL     1     -11.423 -15.425   2.023  1.00  0.00     0.124 S 
ATOM     93  O   UNL     1     -11.352 -14.123   1.363  1.00  0.00    -0.237 OA
ATOM     94  O   UNL     1     -12.761 -15.837   2.443  1.00  0.00    -0.237 OA
ATOM     95  O   UNL     1     -10.364 -15.685   2.995  1.00  0.00    -0.744 OA
ENDBRANCH  91  92
ENDBRANCH  65  86
ENDBRANCH  39  40
ENDBRANCH  31  34
ENDBRANCH  29  30
ENDBRANCH  28  29
ENDBRANCH   1  28
TORSDOF 19
