REMARK SMILES C[C@@H](Oc1ccc(C=C(C#N)C#N)cc1)C(=O)NCCCCCCNC(=O)c1ccc(-c2c3nc(c(-c4ccc(S(=O)(=O)[O-])cc4)c4ccc([nH]4)c(-c4ccc(S(=O)(=O)[O-])cc4)c4nc(c(-c5ccc(S(=O)(=O)[O-])cc5)c5ccc2[nH]5)C=C4)C=C3)cc1
REMARK SMILES IDX 21 1 20 2 19 3 18 4 16 5 17 6 2 8 1 9 3 10 4 11 5 12 15 13
REMARK SMILES IDX 6 14 14 15 7 16 8 17 9 18 10 19 11 20 12 21 13 22 22 23
REMARK SMILES IDX 23 24 24 25 25 26 26 27 27 29 28 30 29 31 87 32 30 33 86 34
REMARK SMILES IDX 31 35 32 36 33 37 80 38 34 39 85 40 79 41 81 42 35 43 84 44
REMARK SMILES IDX 78 45 77 46 36 48 66 49 47 50 65 51 48 52 51 53 64 54 82 55
REMARK SMILES IDX 49 56 50 57 63 59 83 60 52 61 37 62 38 63 46 64 39 65 45 66
REMARK SMILES IDX 40 67 41 68 42 69 43 70 44 71 67 72 68 73 76 74 69 75 75 76
REMARK SMILES IDX 70 77 71 78 72 79 73 80 74 81 53 82 54 83 62 84 55 85 61 86
REMARK SMILES IDX 56 87 57 88 58 89 59 90 60 91
REMARK H PARENT 18 7 25 28 81 47 51 58
REMARK Flexibility Score: inf
ROOT
ATOM      1  C   UNL     1      -3.105   2.838   0.106  1.00  0.00     0.002 C 
ENDROOT
BRANCH   1   2
ATOM      2  C   UNL     1      -1.607   2.526   0.093  1.00  0.00     0.021 C 
BRANCH   2   3
ATOM      3  C   UNL     1      -1.121   1.800   1.344  1.00  0.00     0.116 C 
BRANCH   3   4
ATOM      4  N   UNL     1      -1.664   0.452   1.417  1.00  0.00    -0.353 N 
ATOM      5  C   UNL     1      -1.009  -0.749   1.379  1.00  0.00     0.260 C 
ATOM      6  O   UNL     1      -1.678  -1.784   1.428  1.00  0.00    -0.271 OA
ATOM      7  H   UNL     1      -2.643   0.396   1.507  1.00  0.00     0.163 HD
BRANCH   5   8
ATOM      8  C   UNL     1       0.516  -0.790   1.208  1.00  0.00     0.258 C 
ATOM      9  C   UNL     1       0.831  -0.383  -0.232  1.00  0.00     0.064 C 
BRANCH   8  10
ATOM     10  O   UNL     1       1.033   0.026   2.269  1.00  0.00    -0.481 OA
BRANCH  10  11
ATOM     11  C   UNL     1       2.378   0.110   2.443  1.00  0.00     0.120 A 
ATOM     12  C   UNL     1       2.868  -0.103   3.731  1.00  0.00     0.047 A 
ATOM     13  C   UNL     1       3.237   0.577   1.459  1.00  0.00     0.047 A 
ATOM     14  C   UNL     1       4.220   0.125   4.022  1.00  0.00     0.012 A 
ATOM     15  C   UNL     1       4.589   0.766   1.734  1.00  0.00     0.012 A 
ATOM     16  C   UNL     1       5.090   0.583   3.025  1.00  0.00    -0.023 A 
BRANCH  16  17
ATOM     17  C   UNL     1       6.509   0.826   3.328  1.00  0.00     0.039 C 
ATOM     18  C   UNL     1       7.255   1.876   2.921  1.00  0.00     0.130 C 
BRANCH  18  19
ATOM     19  C   UNL     1       6.729   2.959   2.158  1.00  0.00     0.111 C 
ATOM     20  N   UNL     1       6.293   3.811   1.501  1.00  0.00    -0.192 NA
ENDBRANCH  18  19
BRANCH  18  21
ATOM     21  C   UNL     1       8.646   1.896   3.226  1.00  0.00     0.111 C 
ATOM     22  N   UNL     1       9.781   1.869   3.457  1.00  0.00    -0.192 NA
ENDBRANCH  18  21
ENDBRANCH  16  17
ENDBRANCH  10  11
ENDBRANCH   8  10
ENDBRANCH   5   8
ENDBRANCH   3   4
ENDBRANCH   2   3
ENDBRANCH   1   2
BRANCH   1  23
ATOM     23  C   UNL     1      -3.572   3.673   1.302  1.00  0.00     0.002 C 
BRANCH  23  24
ATOM     24  C   UNL     1      -2.840   5.005   1.478  1.00  0.00     0.021 C 
BRANCH  24  25
ATOM     25  C   UNL     1      -2.956   5.943   0.282  1.00  0.00     0.116 C 
BRANCH  25  26
ATOM     26  N   UNL     1      -4.336   6.337   0.038  1.00  0.00    -0.352 N 
ATOM     27  C   UNL     1      -4.884   7.594  -0.009  1.00  0.00     0.251 C 
ATOM     28  H   UNL     1      -4.965   5.596  -0.115  1.00  0.00     0.163 HD
ATOM     29  O   UNL     1      -6.103   7.733   0.006  1.00  0.00    -0.269 OA
BRANCH  27  30
ATOM     30  C   UNL     1      -3.998   8.777  -0.060  1.00  0.00     0.039 A 
ATOM     31  C   UNL     1      -4.296   9.881   0.741  1.00  0.00     0.014 A 
ATOM     32  C   UNL     1      -2.875   8.793  -0.892  1.00  0.00     0.014 A 
ATOM     33  C   UNL     1      -3.433  10.978   0.749  1.00  0.00     0.010 A 
ATOM     34  C   UNL     1      -1.972   9.849  -0.816  1.00  0.00     0.010 A 
ATOM     35  C   UNL     1      -2.244  10.956   0.001  1.00  0.00    -0.014 A 
BRANCH  35  36
ATOM     36  C   UNL     1      -1.273  12.080   0.067  1.00  0.00     0.031 A 
ATOM     37  C   UNL     1      -0.949  12.877  -1.168  1.00  0.00     0.074 A 
ATOM     38  C   UNL     1      -0.650  12.353   1.232  1.00  0.00     0.049 A 
ATOM     39  N   UNL     1      -0.101  13.863  -1.312  1.00  0.00    -0.248 NA
ATOM     40  C   UNL     1      -1.651  12.507  -2.409  1.00  0.00     0.031 C 
ATOM     41  C   UNL     1      -0.853  11.632   2.491  1.00  0.00     0.029 A 
ATOM     42  N   UNL     1       0.282  13.310   1.548  1.00  0.00    -0.354 N 
ATOM     43  C   UNL     1      -0.164  14.225  -2.653  1.00  0.00     0.074 A 
ATOM     44  C   UNL     1      -1.087  13.316  -3.294  1.00  0.00     0.031 C 
ATOM     45  C   UNL     1      -0.096  12.193   3.448  1.00  0.00     0.029 A 
ATOM     46  C   UNL     1       0.687  13.275   2.862  1.00  0.00     0.049 A 
ATOM     47  H   UNL     1       0.629  13.960   0.895  1.00  0.00     0.167 HD
ATOM     48  C   UNL     1       0.473  15.237  -3.288  1.00  0.00     0.031 A 
ATOM     49  C   UNL     1       1.597  14.020   3.521  1.00  0.00     0.031 A 
ATOM     50  C   UNL     1       1.393  16.139  -2.646  1.00  0.00     0.049 A 
ATOM     51  C   UNL     1       2.325  15.108   2.778  1.00  0.00     0.074 A 
ATOM     52  C   UNL     1       2.057  17.222  -3.195  1.00  0.00     0.029 A 
ATOM     53  N   UNL     1       1.785  16.062  -1.318  1.00  0.00    -0.354 N 
ATOM     54  N   UNL     1       2.200  15.478   1.525  1.00  0.00    -0.248 NA
ATOM     55  C   UNL     1       3.310  15.888   3.540  1.00  0.00     0.031 C 
ATOM     56  C   UNL     1       2.905  17.755  -2.220  1.00  0.00     0.029 A 
ATOM     57  C   UNL     1       2.707  17.058  -1.039  1.00  0.00     0.049 A 
ATOM     58  H   UNL     1       1.457  15.398  -0.669  1.00  0.00     0.167 HD
ATOM     59  C   UNL     1       3.064  16.556   1.361  1.00  0.00     0.074 A 
ATOM     60  C   UNL     1       3.689  16.790   2.646  1.00  0.00     0.031 C 
ATOM     61  C   UNL     1       3.318  17.285   0.246  1.00  0.00     0.031 A 
BRANCH  48  62
ATOM     62  C   UNL     1       0.204  15.425  -4.760  1.00  0.00    -0.014 A 
ATOM     63  C   UNL     1      -1.051  15.864  -5.220  1.00  0.00     0.010 A 
ATOM     64  C   UNL     1       1.242  15.232  -5.691  1.00  0.00     0.010 A 
ATOM     65  C   UNL     1      -1.271  16.078  -6.583  1.00  0.00     0.020 A 
ATOM     66  C   UNL     1       1.036  15.477  -7.051  1.00  0.00     0.020 A 
ATOM     67  C   UNL     1      -0.224  15.889  -7.490  1.00  0.00     0.054 A 
BRANCH  67  68
ATOM     68  S   UNL     1      -0.527  16.226  -9.246  1.00  0.00     0.124 S 
ATOM     69  O   UNL     1      -1.446  15.149  -9.606  1.00  0.00    -0.237 OA
ATOM     70  O   UNL     1      -1.110  17.565  -9.216  1.00  0.00    -0.237 OA
ATOM     71  O   UNL     1       0.799  16.139  -9.852  1.00  0.00    -0.744 OA
ENDBRANCH  67  68
ENDBRANCH  48  62
BRANCH  49  72
ATOM     72  C   UNL     1       1.883  13.759   4.961  1.00  0.00    -0.014 A 
ATOM     73  C   UNL     1       1.579  14.720   5.943  1.00  0.00     0.010 A 
ATOM     74  C   UNL     1       2.485  12.550   5.357  1.00  0.00     0.010 A 
ATOM     75  C   UNL     1       1.903  14.492   7.284  1.00  0.00     0.020 A 
ATOM     76  C   UNL     1       2.775  12.302   6.701  1.00  0.00     0.020 A 
ATOM     77  C   UNL     1       2.498  13.283   7.654  1.00  0.00     0.054 A 
BRANCH  77  78
ATOM     78  S   UNL     1       2.888  12.999   9.403  1.00  0.00     0.124 S 
ATOM     79  O   UNL     1       3.987  13.933   9.626  1.00  0.00    -0.237 OA
ATOM     80  O   UNL     1       1.628  13.333  10.063  1.00  0.00    -0.237 OA
ATOM     81  O   UNL     1       3.251  11.584   9.448  1.00  0.00    -0.744 OA
ENDBRANCH  77  78
ENDBRANCH  49  72
BRANCH  61  82
ATOM     82  C   UNL     1       4.279  18.440   0.372  1.00  0.00    -0.014 A 
ATOM     83  C   UNL     1       5.653  18.235   0.593  1.00  0.00     0.010 A 
ATOM     84  C   UNL     1       3.802  19.755   0.210  1.00  0.00     0.010 A 
ATOM     85  C   UNL     1       6.524  19.324   0.687  1.00  0.00     0.020 A 
ATOM     86  C   UNL     1       4.675  20.843   0.265  1.00  0.00     0.020 A 
ATOM     87  C   UNL     1       6.029  20.622   0.518  1.00  0.00     0.054 A 
BRANCH  87  88
ATOM     88  S   UNL     1       7.190  22.013   0.599  1.00  0.00     0.124 S 
ATOM     89  O   UNL     1       7.549  22.029   2.014  1.00  0.00    -0.237 OA
ATOM     90  O   UNL     1       8.250  21.595  -0.315  1.00  0.00    -0.237 OA
ATOM     91  O   UNL     1       6.397  23.154   0.145  1.00  0.00    -0.744 OA
ENDBRANCH  87  88
ENDBRANCH  61  82
ENDBRANCH  35  36
ENDBRANCH  27  30
ENDBRANCH  25  26
ENDBRANCH  24  25
ENDBRANCH  23  24
ENDBRANCH   1  23
TORSDOF 21
