REMARK SMILES C[C@H]1[C@@H]([NH2+]C[C@H]2CC[C@@H](C(=O)NCCCCCCNC(=O)c3ccc(-c4c5nc(c(-c6ccc(S(=O)(=O)[O-])cc6)c6ccc([nH]6)c(-c6ccc(S(=O)(=O)[O-])cc6)c6nc(c(-c7ccc(S(=O)(=O)[O-])cc7)c7ccc4[nH]7)C=C6)C=C5)cc3)CC2)CCC[C@@H]1C
REMARK SMILES IDX 15 1 14 2 13 3 12 4 10 5 11 6 9 8 6 9 7 10 83 11 8 12 82 13
REMARK SMILES IDX 5 14 4 15 3 18 1 19 2 20 87 21 84 22 86 23 88 24 85 25 16 26
REMARK SMILES IDX 17 27 18 28 19 29 20 30 21 32 22 33 23 34 81 35 24 36 80 37
REMARK SMILES IDX 25 38 26 39 27 40 74 41 28 42 79 43 73 44 75 45 29 46 78 47
REMARK SMILES IDX 72 48 71 49 30 51 60 52 41 53 59 54 42 55 45 56 58 57 76 58
REMARK SMILES IDX 43 59 44 60 57 62 77 63 46 64 31 65 32 66 40 67 33 68 39 69
REMARK SMILES IDX 34 70 35 71 36 72 37 73 38 74 61 75 62 76 70 77 63 78 69 79
REMARK SMILES IDX 64 80 65 81 66 82 67 83 68 84 47 85 48 86 56 87 49 88 55 89
REMARK SMILES IDX 50 90 51 91 52 92 53 93 54 94
REMARK H PARENT 12 7 4 16 4 17 19 31 75 50 45 61
REMARK Flexibility Score: inf
ROOT
ATOM      1  C   UNL     1       0.845   0.091   6.333  1.00  0.00     0.002 C 
ENDROOT
BRANCH   1   2
ATOM      2  C   UNL     1       0.003   0.872   5.322  1.00  0.00     0.021 C 
BRANCH   2   3
ATOM      3  C   UNL     1      -1.347   0.239   4.989  1.00  0.00     0.116 C 
BRANCH   3   4
ATOM      4  N   UNL     1      -2.345   0.578   5.984  1.00  0.00    -0.356 N 
ATOM      5  C   UNL     1      -3.523   1.249   5.879  1.00  0.00     0.223 C 
ATOM      6  O   UNL     1      -4.169   1.421   6.917  1.00  0.00    -0.275 OA
ATOM      7  H   UNL     1      -2.134   0.268   6.894  1.00  0.00     0.163 HD
BRANCH   5   8
ATOM      8  C   UNL     1      -4.075   1.744   4.542  1.00  0.00     0.078 C 
ATOM      9  C   UNL     1      -4.059   2.019   1.564  1.00  0.00     0.044 C 
ATOM     10  C   UNL     1      -5.024   1.067   2.292  1.00  0.00     0.010 C 
ATOM     11  C   UNL     1      -3.728   3.210   2.480  1.00  0.00     0.010 C 
ATOM     12  C   UNL     1      -4.475   0.578   3.632  1.00  0.00     0.014 C 
ATOM     13  C   UNL     1      -3.205   2.809   3.862  1.00  0.00     0.014 C 
BRANCH   9  14
ATOM     14  C   UNL     1      -2.828   1.243   1.042  1.00  0.00     0.264 C 
BRANCH  14  15
ATOM     15  N   UNL     1      -1.929   2.061   0.218  1.00  0.00    -0.343 N 
ATOM     16  H   UNL     1      -2.471   2.506  -0.522  1.00  0.00     0.346 HD
ATOM     17  H   UNL     1      -1.492   2.760   0.817  1.00  0.00     0.346 HD
BRANCH  15  18
ATOM     18  C   UNL     1      -0.859   1.237  -0.396  1.00  0.00     0.185 C 
ATOM     19  C   UNL     1       0.498   1.147   1.760  1.00  0.00     0.014 C 
ATOM     20  C   UNL     1       0.528   1.462   0.268  1.00  0.00     0.047 C 
ATOM     21  C   UNL     1       1.092   2.878  -0.021  1.00  0.00    -0.006 C 
ATOM     22  C   UNL     1      -0.756   1.526  -1.906  1.00  0.00     0.065 C 
ATOM     23  C   UNL     1       1.169   3.115  -1.537  1.00  0.00     0.004 C 
ATOM     24  C   UNL     1       2.477   3.098   0.599  1.00  0.00     0.008 C 
ATOM     25  C   UNL     1      -0.180   2.904  -2.217  1.00  0.00     0.006 C 
ENDBRANCH  15  18
ENDBRANCH  14  15
ENDBRANCH   9  14
ENDBRANCH   5   8
ENDBRANCH   3   4
ENDBRANCH   2   3
ENDBRANCH   1   2
BRANCH   1  26
ATOM     26  C   UNL     1       1.175  -1.355   5.944  1.00  0.00     0.002 C 
BRANCH  26  27
ATOM     27  C   UNL     1       1.764  -1.565   4.544  1.00  0.00     0.021 C 
BRANCH  27  28
ATOM     28  C   UNL     1       3.042  -0.786   4.235  1.00  0.00     0.116 C 
BRANCH  28  29
ATOM     29  N   UNL     1       4.117  -1.103   5.158  1.00  0.00    -0.352 N 
ATOM     30  C   UNL     1       5.389  -1.556   4.923  1.00  0.00     0.251 C 
ATOM     31  H   UNL     1       3.896  -0.970   6.108  1.00  0.00     0.163 HD
ATOM     32  O   UNL     1       6.073  -1.929   5.878  1.00  0.00    -0.269 OA
BRANCH  30  33
ATOM     33  C   UNL     1       5.948  -1.622   3.554  1.00  0.00     0.039 A 
ATOM     34  C   UNL     1       6.740  -2.723   3.214  1.00  0.00     0.014 A 
ATOM     35  C   UNL     1       5.759  -0.594   2.625  1.00  0.00     0.014 A 
ATOM     36  C   UNL     1       7.302  -2.817   1.938  1.00  0.00     0.010 A 
ATOM     37  C   UNL     1       6.271  -0.716   1.330  1.00  0.00     0.010 A 
ATOM     38  C   UNL     1       7.052  -1.826   0.975  1.00  0.00    -0.014 A 
BRANCH  38  39
ATOM     39  C   UNL     1       7.587  -1.965  -0.406  1.00  0.00     0.031 A 
ATOM     40  C   UNL     1       8.624  -1.011  -0.935  1.00  0.00     0.074 A 
ATOM     41  C   UNL     1       7.103  -2.935  -1.205  1.00  0.00     0.049 A 
ATOM     42  N   UNL     1       9.208  -0.998  -2.107  1.00  0.00    -0.248 NA
ATOM     43  C   UNL     1       9.044   0.080  -0.042  1.00  0.00     0.031 C 
ATOM     44  C   UNL     1       6.053  -3.889  -0.836  1.00  0.00     0.029 A 
ATOM     45  N   UNL     1       7.424  -3.279  -2.495  1.00  0.00    -0.354 N 
ATOM     46  C   UNL     1      10.050   0.109  -2.100  1.00  0.00     0.074 A 
ATOM     47  C   UNL     1       9.870   0.764  -0.822  1.00  0.00     0.031 C 
ATOM     48  C   UNL     1       5.833  -4.720  -1.867  1.00  0.00     0.029 A 
ATOM     49  C   UNL     1       6.703  -4.344  -2.977  1.00  0.00     0.049 A 
ATOM     50  H   UNL     1       8.107  -2.806  -3.024  1.00  0.00     0.167 HD
ATOM     51  C   UNL     1      10.905   0.534  -3.063  1.00  0.00     0.031 A 
ATOM     52  C   UNL     1       6.733  -4.955  -4.178  1.00  0.00     0.031 A 
ATOM     53  C   UNL     1      11.088  -0.121  -4.332  1.00  0.00     0.049 A 
ATOM     54  C   UNL     1       7.709  -4.487  -5.219  1.00  0.00     0.074 A 
ATOM     55  C   UNL     1      11.985   0.190  -5.341  1.00  0.00     0.029 A 
ATOM     56  N   UNL     1      10.357  -1.213  -4.774  1.00  0.00    -0.354 N 
ATOM     57  N   UNL     1       8.563  -3.493  -5.158  1.00  0.00    -0.248 NA
ATOM     58  C   UNL     1       7.738  -5.234  -6.483  1.00  0.00     0.031 C 
ATOM     59  C   UNL     1      11.761  -0.683  -6.412  1.00  0.00     0.029 A 
ATOM     60  C   UNL     1      10.761  -1.571  -6.051  1.00  0.00     0.049 A 
ATOM     61  H   UNL     1       9.653  -1.668  -4.257  1.00  0.00     0.167 HD
ATOM     62  C   UNL     1       9.242  -3.504  -6.371  1.00  0.00     0.074 A 
ATOM     63  C   UNL     1       8.715  -4.617  -7.135  1.00  0.00     0.031 C 
ATOM     64  C   UNL     1      10.213  -2.666  -6.812  1.00  0.00     0.031 A 
BRANCH  51  65
ATOM     65  C   UNL     1      11.697   1.786  -2.783  1.00  0.00    -0.014 A 
ATOM     66  C   UNL     1      12.730   1.797  -1.828  1.00  0.00     0.010 A 
ATOM     67  C   UNL     1      11.421   2.962  -3.504  1.00  0.00     0.010 A 
ATOM     68  C   UNL     1      13.436   2.974  -1.562  1.00  0.00     0.020 A 
ATOM     69  C   UNL     1      12.143   4.134  -3.259  1.00  0.00     0.020 A 
ATOM     70  C   UNL     1      13.132   4.138  -2.274  1.00  0.00     0.054 A 
BRANCH  70  71
ATOM     71  S   UNL     1      14.062   5.652  -1.909  1.00  0.00     0.124 S 
ATOM     72  O   UNL     1      13.477   6.063  -0.635  1.00  0.00    -0.237 OA
ATOM     73  O   UNL     1      15.441   5.175  -1.842  1.00  0.00    -0.237 OA
ATOM     74  O   UNL     1      13.763   6.524  -3.042  1.00  0.00    -0.744 OA
ENDBRANCH  70  71
ENDBRANCH  51  65
BRANCH  52  75
ATOM     75  C   UNL     1       5.811  -6.091  -4.443  1.00  0.00    -0.014 A 
ATOM     76  C   UNL     1       6.293  -7.411  -4.487  1.00  0.00     0.010 A 
ATOM     77  C   UNL     1       4.433  -5.859  -4.610  1.00  0.00     0.010 A 
ATOM     78  C   UNL     1       5.415  -8.478  -4.697  1.00  0.00     0.020 A 
ATOM     79  C   UNL     1       3.550  -6.924  -4.796  1.00  0.00     0.020 A 
ATOM     80  C   UNL     1       4.047  -8.228  -4.845  1.00  0.00     0.054 A 
BRANCH  80  81
ATOM     81  S   UNL     1       2.913  -9.632  -5.034  1.00  0.00     0.124 S 
ATOM     82  O   UNL     1       3.139 -10.020  -6.423  1.00  0.00    -0.237 OA
ATOM     83  O   UNL     1       3.401 -10.571  -4.026  1.00  0.00    -0.237 OA
ATOM     84  O   UNL     1       1.603  -9.051  -4.748  1.00  0.00    -0.744 OA
ENDBRANCH  80  81
ENDBRANCH  52  75
BRANCH  64  85
ATOM     85  C   UNL     1      10.772  -2.929  -8.185  1.00  0.00    -0.014 A 
ATOM     86  C   UNL     1      10.013  -2.667  -9.341  1.00  0.00     0.010 A 
ATOM     87  C   UNL     1      12.079  -3.430  -8.323  1.00  0.00     0.010 A 
ATOM     88  C   UNL     1      10.535  -2.946 -10.607  1.00  0.00     0.020 A 
ATOM     89  C   UNL     1      12.614  -3.684  -9.589  1.00  0.00     0.020 A 
ATOM     90  C   UNL     1      11.830  -3.459 -10.722  1.00  0.00     0.054 A 
BRANCH  90  91
ATOM     91  S   UNL     1      12.492  -3.803 -12.376  1.00  0.00     0.124 S 
ATOM     92  O   UNL     1      11.812  -5.049 -12.721  1.00  0.00    -0.237 OA
ATOM     93  O   UNL     1      12.078  -2.629 -13.141  1.00  0.00    -0.237 OA
ATOM     94  O   UNL     1      13.931  -3.919 -12.155  1.00  0.00    -0.744 OA
ENDBRANCH  90  91
ENDBRANCH  64  85
ENDBRANCH  38  39
ENDBRANCH  30  33
ENDBRANCH  28  29
ENDBRANCH  27  28
ENDBRANCH  26  27
ENDBRANCH   1  26
TORSDOF 19
