REMARK SMILES CC(C)Cc1ccc([C@H](CF)C(=O)NCCCCCCNC(=O)c2ccc(-c3c4nc(c(-c5ccc(S(=O)(=O)[O-])cc5)c5ccc([nH]5)c(-c5ccc(S(=O)(=O)[O-])cc5)c5nc(c(-c6ccc(S(=O)(=O)[O-])cc6)c6ccc3[nH]6)C=C5)C=C4)cc2)cc1
REMARK SMILES IDX 17 1 16 2 15 3 14 4 12 5 13 6 9 8 8 9 5 10 6 11 85 12 7 13
REMARK SMILES IDX 84 14 4 15 2 16 1 17 3 18 10 19 11 20 18 21 19 22 20 23
REMARK SMILES IDX 21 24 22 25 23 27 24 28 25 29 83 30 26 31 82 32 27 33 28 34
REMARK SMILES IDX 29 35 76 36 30 37 81 38 75 39 77 40 31 41 80 42 74 43 73 44
REMARK SMILES IDX 32 46 62 47 43 48 61 49 44 50 47 51 60 52 78 53 45 54 46 55
REMARK SMILES IDX 59 57 79 58 48 59 33 60 34 61 42 62 35 63 41 64 36 65 37 66
REMARK SMILES IDX 38 67 39 68 40 69 63 70 64 71 72 72 65 73 71 74 66 75 67 76
REMARK SMILES IDX 68 77 69 78 70 79 49 80 50 81 58 82 51 83 57 84 52 85 53 86
REMARK SMILES IDX 54 87 55 88 56 89
REMARK H PARENT 14 7 21 26 77 45 47 56
REMARK Flexibility Score: inf
ROOT
ATOM      1  C   UNL     1      -6.083  -0.564   4.823  1.00  0.00     0.002 C 
ENDROOT
BRANCH   1   2
ATOM      2  C   UNL     1      -4.647  -0.605   4.286  1.00  0.00     0.021 C 
BRANCH   2   3
ATOM      3  C   UNL     1      -3.928  -1.921   4.550  1.00  0.00     0.116 C 
BRANCH   3   4
ATOM      4  N   UNL     1      -4.514  -3.009   3.787  1.00  0.00    -0.355 N 
ATOM      5  C   UNL     1      -3.922  -4.075   3.179  1.00  0.00     0.230 C 
ATOM      6  O   UNL     1      -4.667  -4.930   2.691  1.00  0.00    -0.274 OA
ATOM      7  H   UNL     1      -5.494  -2.971   3.696  1.00  0.00     0.163 HD
BRANCH   5   8
ATOM      8  C   UNL     1      -2.408  -4.201   3.066  1.00  0.00     0.139 C 
BRANCH   8   9
ATOM      9  C   UNL     1      -1.650  -4.377   4.379  1.00  0.00    -0.033 A 
ATOM     10  C   UNL     1      -0.174  -4.734   6.767  1.00  0.00    -0.048 A 
ATOM     11  C   UNL     1      -1.565  -4.630   6.803  1.00  0.00     0.004 A 
ATOM     12  C   UNL     1       0.478  -4.665   5.534  1.00  0.00     0.004 A 
ATOM     13  C   UNL     1      -2.293  -4.490   5.622  1.00  0.00     0.005 A 
ATOM     14  C   UNL     1      -0.251  -4.491   4.356  1.00  0.00     0.005 A 
BRANCH  10  15
ATOM     15  C   UNL     1       0.590  -5.032   8.033  1.00  0.00     0.038 C 
BRANCH  15  16
ATOM     16  C   UNL     1       0.497  -6.523   8.416  1.00  0.00    -0.013 C 
ATOM     17  C   UNL     1       1.186  -7.424   7.386  1.00  0.00     0.008 C 
ATOM     18  C   UNL     1       1.104  -6.750   9.799  1.00  0.00     0.008 C 
ENDBRANCH  15  16
ENDBRANCH  10  15
ENDBRANCH   8   9
BRANCH   8  19
ATOM     19  C   UNL     1      -1.880  -3.076   2.171  1.00  0.00     0.232 C 
ATOM     20  F   UNL     1      -0.769  -3.506   1.505  1.00  0.00    -0.250 F 
ENDBRANCH   8  19
ENDBRANCH   5   8
ENDBRANCH   3   4
ENDBRANCH   2   3
ENDBRANCH   1   2
BRANCH   1  21
ATOM     21  C   UNL     1      -6.228  -0.855   6.321  1.00  0.00     0.002 C 
BRANCH  21  22
ATOM     22  C   UNL     1      -5.360   0.010   7.238  1.00  0.00     0.021 C 
BRANCH  22  23
ATOM     23  C   UNL     1      -5.540   1.511   7.047  1.00  0.00     0.116 C 
BRANCH  23  24
ATOM     24  N   UNL     1      -6.906   1.936   7.301  1.00  0.00    -0.352 N 
ATOM     25  C   UNL     1      -7.352   2.979   8.071  1.00  0.00     0.251 C 
ATOM     26  H   UNL     1      -7.606   1.402   6.861  1.00  0.00     0.163 HD
ATOM     27  O   UNL     1      -8.549   3.082   8.331  1.00  0.00    -0.269 OA
BRANCH  25  28
ATOM     28  C   UNL     1      -6.385   3.963   8.600  1.00  0.00     0.039 A 
ATOM     29  C   UNL     1      -6.493   4.370   9.931  1.00  0.00     0.014 A 
ATOM     30  C   UNL     1      -5.375   4.481   7.784  1.00  0.00     0.014 A 
ATOM     31  C   UNL     1      -5.561   5.267  10.455  1.00  0.00     0.010 A 
ATOM     32  C   UNL     1      -4.401   5.310   8.329  1.00  0.00     0.010 A 
ATOM     33  C   UNL     1      -4.492   5.725   9.666  1.00  0.00    -0.014 A 
BRANCH  33  34
ATOM     34  C   UNL     1      -3.481   6.667  10.211  1.00  0.00     0.031 A 
ATOM     35  C   UNL     1      -3.347   8.045   9.615  1.00  0.00     0.074 A 
ATOM     36  C   UNL     1      -2.664   6.276  11.209  1.00  0.00     0.049 A 
ATOM     37  N   UNL     1      -2.485   8.986   9.902  1.00  0.00    -0.248 NA
ATOM     38  C   UNL     1      -4.290   8.404   8.541  1.00  0.00     0.031 C 
ATOM     39  C   UNL     1      -2.677   4.959  11.852  1.00  0.00     0.029 A 
ATOM     40  N   UNL     1      -1.659   6.949  11.858  1.00  0.00    -0.354 N 
ATOM     41  C   UNL     1      -2.781  10.043   9.049  1.00  0.00     0.074 A 
ATOM     42  C   UNL     1      -3.856   9.605   8.187  1.00  0.00     0.031 C 
ATOM     43  C   UNL     1      -1.745   4.931  12.819  1.00  0.00     0.029 A 
ATOM     44  C   UNL     1      -1.038   6.207  12.836  1.00  0.00     0.049 A 
ATOM     45  H   UNL     1      -1.406   7.876  11.644  1.00  0.00     0.167 HD
ATOM     46  C   UNL     1      -2.233  11.280   9.007  1.00  0.00     0.031 A 
ATOM     47  C   UNL     1      -0.008   6.517  13.648  1.00  0.00     0.031 A 
ATOM     48  C   UNL     1      -1.171  11.719   9.872  1.00  0.00     0.049 A 
ATOM     49  C   UNL     1       0.613   7.888  13.549  1.00  0.00     0.074 A 
ATOM     50  C   UNL     1      -0.557  12.959   9.919  1.00  0.00     0.029 A 
ATOM     51  N   UNL     1      -0.575  10.940  10.851  1.00  0.00    -0.354 N 
ATOM     52  N   UNL     1       0.290   8.885  12.759  1.00  0.00    -0.248 NA
ATOM     53  C   UNL     1       1.726   8.179  14.463  1.00  0.00     0.031 C 
ATOM     54  C   UNL     1       0.442  12.914  10.896  1.00  0.00     0.029 A 
ATOM     55  C   UNL     1       0.405  11.669  11.502  1.00  0.00     0.049 A 
ATOM     56  H   UNL     1      -0.812  10.006  11.053  1.00  0.00     0.167 HD
ATOM     57  C   UNL     1       1.131   9.935  13.116  1.00  0.00     0.074 A 
ATOM     58  C   UNL     1       1.964   9.456  14.199  1.00  0.00     0.031 C 
ATOM     59  C   UNL     1       1.207  11.184  12.595  1.00  0.00     0.031 A 
BRANCH  46  60
ATOM     60  C   UNL     1      -2.789  12.261   8.008  1.00  0.00    -0.014 A 
ATOM     61  C   UNL     1      -4.077  12.803   8.176  1.00  0.00     0.010 A 
ATOM     62  C   UNL     1      -1.996  12.703   6.935  1.00  0.00     0.010 A 
ATOM     63  C   UNL     1      -4.569  13.752   7.278  1.00  0.00     0.020 A 
ATOM     64  C   UNL     1      -2.473  13.675   6.050  1.00  0.00     0.020 A 
ATOM     65  C   UNL     1      -3.761  14.187   6.223  1.00  0.00     0.054 A 
BRANCH  65  66
ATOM     66  S   UNL     1      -4.407  15.465   5.111  1.00  0.00     0.124 S 
ATOM     67  O   UNL     1      -5.444  14.737   4.385  1.00  0.00    -0.237 OA
ATOM     68  O   UNL     1      -4.888  16.483   6.041  1.00  0.00    -0.237 OA
ATOM     69  O   UNL     1      -3.245  15.852   4.314  1.00  0.00    -0.744 OA
ENDBRANCH  65  66
ENDBRANCH  46  60
BRANCH  47  70
ATOM     70  C   UNL     1       0.517   5.521  14.625  1.00  0.00    -0.014 A 
ATOM     71  C   UNL     1       0.414   5.748  16.010  1.00  0.00     0.010 A 
ATOM     72  C   UNL     1       1.174   4.362  14.173  1.00  0.00     0.010 A 
ATOM     73  C   UNL     1       1.007   4.868  16.920  1.00  0.00     0.020 A 
ATOM     74  C   UNL     1       1.736   3.460  15.081  1.00  0.00     0.020 A 
ATOM     75  C   UNL     1       1.672   3.733  16.448  1.00  0.00     0.054 A 
BRANCH  75  76
ATOM     76  S   UNL     1       2.450   2.612  17.643  1.00  0.00     0.124 S 
ATOM     77  O   UNL     1       3.613   3.385  18.069  1.00  0.00    -0.237 OA
ATOM     78  O   UNL     1       1.401   2.440  18.645  1.00  0.00    -0.237 OA
ATOM     79  O   UNL     1       2.746   1.421  16.851  1.00  0.00    -0.744 OA
ENDBRANCH  75  76
ENDBRANCH  47  70
BRANCH  59  80
ATOM     80  C   UNL     1       2.171  12.149  13.236  1.00  0.00    -0.014 A 
ATOM     81  C   UNL     1       3.562  12.001  13.100  1.00  0.00     0.010 A 
ATOM     82  C   UNL     1       1.666  13.254  13.946  1.00  0.00     0.010 A 
ATOM     83  C   UNL     1       4.431  12.918  13.697  1.00  0.00     0.020 A 
ATOM     84  C   UNL     1       2.529  14.192  14.515  1.00  0.00     0.020 A 
ATOM     85  C   UNL     1       3.908  14.008  14.400  1.00  0.00     0.054 A 
BRANCH  85  86
ATOM     86  S   UNL     1       5.057  15.206  15.132  1.00  0.00     0.124 S 
ATOM     87  O   UNL     1       5.610  14.451  16.253  1.00  0.00    -0.237 OA
ATOM     88  O   UNL     1       5.984  15.471  14.034  1.00  0.00    -0.237 OA
ATOM     89  O   UNL     1       4.199  16.330  15.501  1.00  0.00    -0.744 OA
ENDBRANCH  85  86
ENDBRANCH  59  80
ENDBRANCH  33  34
ENDBRANCH  25  28
ENDBRANCH  23  24
ENDBRANCH  22  23
ENDBRANCH  21  22
ENDBRANCH   1  21
TORSDOF 20
