REMARK SMILES C[C@@H](C(=O)NCCCCCCNC(=O)c1ccc(-c2c3nc(c(-c4ccc(S(=O)(=O)[O-])cc4)c4ccc([nH]4)c(-c4ccc(S(=O)(=O)[O-])cc4)c4nc(c(-c5ccc(S(=O)(=O)[O-])cc5)c5ccc2[nH]5)C=C4)C=C3)cc1)c1ccc(C[C@H]2CCC[C@@H]2O)cc1F
REMARK SMILES IDX 8 1 7 2 6 3 5 4 3 5 4 6 2 8 1 9 75 10 76 11 87 12 77 13
REMARK SMILES IDX 86 14 88 15 78 16 79 17 80 18 81 19 84 20 82 21 83 22 85 23
REMARK SMILES IDX 9 25 10 26 11 27 12 28 13 29 14 31 15 32 16 33 74 34 17 35
REMARK SMILES IDX 73 36 18 37 19 38 20 39 67 40 21 41 72 42 66 43 68 44 22 45
REMARK SMILES IDX 71 46 65 47 64 48 23 50 53 51 34 52 52 53 35 54 38 55 51 56
REMARK SMILES IDX 69 57 36 58 37 59 50 61 70 62 39 63 24 64 25 65 33 66 26 67
REMARK SMILES IDX 32 68 27 69 28 70 29 71 30 72 31 73 54 74 55 75 63 76 56 77
REMARK SMILES IDX 62 78 57 79 58 80 59 81 60 82 61 83 40 84 41 85 49 86 42 87
REMARK SMILES IDX 48 88 43 89 44 90 45 91 46 92 47 93
REMARK H PARENT 5 7 85 24 12 30 68 49 38 60
REMARK Flexibility Score: inf
ROOT
ATOM      1  C   UNL     1       4.927   2.706  -0.385  1.00  0.00     0.002 C 
ENDROOT
BRANCH   1   2
ATOM      2  C   UNL     1       4.216   1.377  -0.089  1.00  0.00     0.021 C 
BRANCH   2   3
ATOM      3  C   UNL     1       3.408   1.370   1.216  1.00  0.00     0.116 C 
BRANCH   3   4
ATOM      4  N   UNL     1       2.371   2.376   1.151  1.00  0.00    -0.356 N 
ATOM      5  C   UNL     1       1.107   2.243   0.653  1.00  0.00     0.227 C 
ATOM      6  O   UNL     1       0.636   3.255   0.131  1.00  0.00    -0.274 OA
ATOM      7  H   UNL     1       2.604   3.263   1.508  1.00  0.00     0.163 HD
BRANCH   5   8
ATOM      8  C   UNL     1       0.381   0.889   0.771  1.00  0.00     0.108 C 
ATOM      9  C   UNL     1       0.759  -0.019  -0.404  1.00  0.00     0.023 C 
BRANCH   8  10
ATOM     10  C   UNL     1      -1.142   0.942   0.910  1.00  0.00    -0.000 A 
ATOM     11  C   UNL     1      -1.915   2.083   0.668  1.00  0.00     0.008 A 
ATOM     12  C   UNL     1      -1.834  -0.225   1.269  1.00  0.00     0.127 A 
ATOM     13  C   UNL     1      -3.305   2.059   0.775  1.00  0.00     0.004 A 
ATOM     14  C   UNL     1      -3.224  -0.256   1.391  1.00  0.00     0.043 A 
ATOM     15  F   UNL     1      -1.156  -1.355   1.518  1.00  0.00    -0.207 F 
ATOM     16  C   UNL     1      -3.975   0.902   1.172  1.00  0.00    -0.045 A 
BRANCH  16  17
ATOM     17  C   UNL     1      -5.463   0.927   1.407  1.00  0.00     0.041 C 
BRANCH  17  18
ATOM     18  C   UNL     1      -5.902   1.544   2.747  1.00  0.00     0.022 C 
ATOM     19  C   UNL     1      -5.351   0.852   4.005  1.00  0.00     0.007 C 
ATOM     20  C   UNL     1      -5.569   3.026   2.955  1.00  0.00     0.117 C 
ATOM     21  C   UNL     1      -5.113   1.963   5.031  1.00  0.00     0.003 C 
ATOM     22  C   UNL     1      -5.772   3.204   4.452  1.00  0.00     0.032 C 
BRANCH  20  23
ATOM     23  O   UNL     1      -6.435   3.874   2.224  1.00  0.00    -0.393 OA
ATOM     24  H   UNL     1      -7.354   3.696   2.481  1.00  0.00     0.210 HD
ENDBRANCH  20  23
ENDBRANCH  17  18
ENDBRANCH  16  17
ENDBRANCH   8  10
ENDBRANCH   5   8
ENDBRANCH   3   4
ENDBRANCH   2   3
ENDBRANCH   1   2
BRANCH   1  25
ATOM     25  C   UNL     1       5.881   3.183   0.712  1.00  0.00     0.002 C 
BRANCH  25  26
ATOM     26  C   UNL     1       6.943   2.159   1.116  1.00  0.00     0.021 C 
BRANCH  26  27
ATOM     27  C   UNL     1       7.833   1.693  -0.030  1.00  0.00     0.116 C 
BRANCH  27  28
ATOM     28  N   UNL     1       8.637   2.779  -0.569  1.00  0.00    -0.352 N 
ATOM     29  C   UNL     1       9.998   2.850  -0.718  1.00  0.00     0.251 C 
ATOM     30  H   UNL     1       8.134   3.571  -0.867  1.00  0.00     0.163 HD
ATOM     31  O   UNL     1      10.532   3.925  -0.987  1.00  0.00    -0.269 OA
BRANCH  29  32
ATOM     32  C   UNL     1      10.820   1.636  -0.533  1.00  0.00     0.039 A 
ATOM     33  C   UNL     1      11.988   1.718   0.228  1.00  0.00     0.014 A 
ATOM     34  C   UNL     1      10.433   0.418  -1.102  1.00  0.00     0.014 A 
ATOM     35  C   UNL     1      12.736   0.564   0.467  1.00  0.00     0.010 A 
ATOM     36  C   UNL     1      11.137  -0.743  -0.798  1.00  0.00     0.010 A 
ATOM     37  C   UNL     1      12.299  -0.683  -0.013  1.00  0.00    -0.014 A 
BRANCH  37  38
ATOM     38  C   UNL     1      13.038  -1.931   0.310  1.00  0.00     0.031 A 
ATOM     39  C   UNL     1      13.669  -2.746  -0.787  1.00  0.00     0.074 A 
ATOM     40  C   UNL     1      13.097  -2.355   1.588  1.00  0.00     0.049 A 
ATOM     41  N   UNL     1      14.325  -3.876  -0.698  1.00  0.00    -0.248 NA
ATOM     42  C   UNL     1      13.528  -2.242  -2.163  1.00  0.00     0.031 C 
ATOM     43  C   UNL     1      12.490  -1.675   2.736  1.00  0.00     0.029 A 
ATOM     44  N   UNL     1      13.696  -3.460   2.139  1.00  0.00    -0.354 N 
ATOM     45  C   UNL     1      14.665  -4.220  -2.002  1.00  0.00     0.074 A 
ATOM     46  C   UNL     1      14.097  -3.209  -2.867  1.00  0.00     0.031 C 
ATOM     47  C   UNL     1      12.775  -2.359   3.855  1.00  0.00     0.029 A 
ATOM     48  C   UNL     1      13.543  -3.549   3.504  1.00  0.00     0.049 A 
ATOM     49  H   UNL     1      14.188  -4.127   1.608  1.00  0.00     0.167 HD
ATOM     50  C   UNL     1      15.401  -5.270  -2.438  1.00  0.00     0.031 A 
ATOM     51  C   UNL     1      13.966  -4.485   4.375  1.00  0.00     0.031 A 
ATOM     52  C   UNL     1      15.968  -6.271  -1.572  1.00  0.00     0.049 A 
ATOM     53  C   UNL     1      14.762  -5.655   3.862  1.00  0.00     0.074 A 
ATOM     54  C   UNL     1      16.772  -7.345  -1.913  1.00  0.00     0.029 A 
ATOM     55  N   UNL     1      15.789  -6.326  -0.198  1.00  0.00    -0.354 N 
ATOM     56  N   UNL     1      15.134  -5.923   2.633  1.00  0.00    -0.248 NA
ATOM     57  C   UNL     1      15.207  -6.641   4.856  1.00  0.00     0.031 C 
ATOM     58  C   UNL     1      17.027  -8.085  -0.753  1.00  0.00     0.029 A 
ATOM     59  C   UNL     1      16.441  -7.433   0.320  1.00  0.00     0.049 A 
ATOM     60  H   UNL     1      15.273  -5.675   0.331  1.00  0.00     0.167 HD
ATOM     61  C   UNL     1      15.879  -7.095   2.711  1.00  0.00     0.074 A 
ATOM     62  C   UNL     1      15.923  -7.470   4.109  1.00  0.00     0.031 C 
ATOM     63  C   UNL     1      16.474  -7.796   1.714  1.00  0.00     0.031 A 
BRANCH  50  64
ATOM     64  C   UNL     1      15.634  -5.395  -3.921  1.00  0.00    -0.014 A 
ATOM     65  C   UNL     1      16.458  -4.483  -4.608  1.00  0.00     0.010 A 
ATOM     66  C   UNL     1      15.070  -6.471  -4.630  1.00  0.00     0.010 A 
ATOM     67  C   UNL     1      16.683  -4.625  -5.980  1.00  0.00     0.020 A 
ATOM     68  C   UNL     1      15.318  -6.635  -5.997  1.00  0.00     0.020 A 
ATOM     69  C   UNL     1      16.112  -5.702  -6.665  1.00  0.00     0.054 A 
BRANCH  69  70
ATOM     70  S   UNL     1      16.452  -5.879  -8.438  1.00  0.00     0.124 S 
ATOM     71  O   UNL     1      15.689  -4.770  -9.004  1.00  0.00    -0.237 OA
ATOM     72  O   UNL     1      17.904  -5.738  -8.500  1.00  0.00    -0.237 OA
ATOM     73  O   UNL     1      15.944  -7.211  -8.758  1.00  0.00    -0.744 OA
ENDBRANCH  69  70
ENDBRANCH  50  64
BRANCH  51  74
ATOM     74  C   UNL     1      13.650  -4.355   5.825  1.00  0.00    -0.014 A 
ATOM     75  C   UNL     1      14.667  -4.105   6.763  1.00  0.00     0.010 A 
ATOM     76  C   UNL     1      12.323  -4.483   6.277  1.00  0.00     0.010 A 
ATOM     77  C   UNL     1      14.369  -4.014   8.126  1.00  0.00     0.020 A 
ATOM     78  C   UNL     1      12.016  -4.360   7.634  1.00  0.00     0.020 A 
ATOM     79  C   UNL     1      13.044  -4.141   8.553  1.00  0.00     0.054 A 
BRANCH  79  80
ATOM     80  S   UNL     1      12.675  -3.983  10.322  1.00  0.00     0.124 S 
ATOM     81  O   UNL     1      13.212  -5.231  10.856  1.00  0.00    -0.237 OA
ATOM     82  O   UNL     1      13.404  -2.772  10.688  1.00  0.00    -0.237 OA
ATOM     83  O   UNL     1      11.220  -3.861  10.357  1.00  0.00    -0.744 OA
ENDBRANCH  79  80
ENDBRANCH  51  74
BRANCH  63  84
ATOM     84  C   UNL     1      17.254  -9.026   2.102  1.00  0.00    -0.014 A 
ATOM     85  C   UNL     1      16.609 -10.188   2.560  1.00  0.00     0.010 A 
ATOM     86  C   UNL     1      18.655  -9.030   1.962  1.00  0.00     0.010 A 
ATOM     87  C   UNL     1      17.353 -11.320   2.905  1.00  0.00     0.020 A 
ATOM     88  C   UNL     1      19.399 -10.170   2.275  1.00  0.00     0.020 A 
ATOM     89  C   UNL     1      18.744 -11.303   2.760  1.00  0.00     0.054 A 
BRANCH  89  90
ATOM     90  S   UNL     1      19.682 -12.797   3.180  1.00  0.00     0.124 S 
ATOM     91  O   UNL     1      19.598 -12.809   4.638  1.00  0.00    -0.237 OA
ATOM     92  O   UNL     1      18.931 -13.848   2.499  1.00  0.00    -0.237 OA
ATOM     93  O   UNL     1      21.013 -12.537   2.635  1.00  0.00    -0.744 OA
ENDBRANCH  89  90
ENDBRANCH  63  84
ENDBRANCH  37  38
ENDBRANCH  29  32
ENDBRANCH  27  28
ENDBRANCH  26  27
ENDBRANCH  25  26
ENDBRANCH   1  25
TORSDOF 20
