REMARK SMILES CN1C(=O)/C(=C\c2cccc(Cl)c2)Sc2ccc(C(=O)NCCCCCCNC(=O)c3ccc(-c4c5nc(c(-c6ccc(S(=O)(=O)[O-])cc6)c6ccc([nH]6)c(-c6ccc(S(=O)(=O)[O-])cc6)c6nc(c(-c7ccc(S(=O)(=O)[O-])cc7)c7ccc4[nH]7)C=C6)C=C5)cc3)cc21
REMARK SMILES IDX 25 1 24 2 23 3 22 4 21 5 19 6 20 7 18 9 1 10 2 11 3 12 92 13
REMARK SMILES IDX 4 14 5 15 15 16 91 17 6 18 14 19 16 20 17 21 7 22 8 23 13 24
REMARK SMILES IDX 9 25 11 26 10 27 12 28 26 29 27 30 28 31 29 32 30 34 31 35
REMARK SMILES IDX 32 36 90 37 33 38 89 39 34 40 35 41 36 42 83 43 37 44 88 45
REMARK SMILES IDX 82 46 84 47 38 48 87 49 81 50 80 51 39 53 69 54 50 55 68 56
REMARK SMILES IDX 51 57 54 58 67 59 85 60 52 61 53 62 66 64 86 65 55 66 40 67
REMARK SMILES IDX 41 68 49 69 42 70 48 71 43 72 44 73 45 74 46 75 47 76 70 77
REMARK SMILES IDX 71 78 79 79 72 80 78 81 73 82 74 83 75 84 76 85 77 86 56 87
REMARK SMILES IDX 57 88 65 89 58 90 64 91 59 92 60 93 61 94 62 95 63 96
REMARK H PARENT 21 8 28 33 84 52 54 63
REMARK Flexibility Score: inf
ROOT
ATOM      1  C   UNL     1       0.274  -8.730   5.723  1.00  0.00     0.002 C 
ENDROOT
BRANCH   1   2
ATOM      2  C   UNL     1      -0.744  -7.816   5.029  1.00  0.00     0.002 C 
BRANCH   2   3
ATOM      3  C   UNL     1      -0.521  -6.311   5.243  1.00  0.00     0.021 C 
BRANCH   3   4
ATOM      4  C   UNL     1       0.815  -5.809   4.690  1.00  0.00     0.116 C 
BRANCH   4   5
ATOM      5  N   UNL     1       0.720  -5.611   3.258  1.00  0.00    -0.352 N 
ATOM      6  C   UNL     1       0.532  -4.503   2.480  1.00  0.00     0.251 C 
ATOM      7  O   UNL     1       0.497  -4.677   1.260  1.00  0.00    -0.269 OA
ATOM      8  H   UNL     1       0.809  -6.444   2.740  1.00  0.00     0.163 HD
BRANCH   6   9
ATOM      9  C   UNL     1       0.407  -3.111   3.008  1.00  0.00     0.041 A 
ATOM     10  C   UNL     1       0.711  -0.109   0.008  1.00  0.00     0.153 C 
ATOM     11  N   UNL     1       0.597   0.287   1.405  1.00  0.00    -0.310 N 
ATOM     12  C   UNL     1       0.407   1.641   1.660  1.00  0.00     0.264 C 
ATOM     13  C   UNL     1       0.532  -0.717   2.425  1.00  0.00     0.058 A 
ATOM     14  O   UNL     1       0.021   2.431   0.798  1.00  0.00    -0.268 OA
ATOM     15  C   UNL     1       0.787   2.118   3.024  1.00  0.00     0.078 C 
ATOM     16  C   UNL     1       0.224  -0.390   3.754  1.00  0.00     0.036 A 
ATOM     17  C   UNL     1       0.667  -2.077   2.090  1.00  0.00     0.041 A 
ATOM     18  C   UNL     1       1.604   3.176   3.195  1.00  0.00     0.029 C 
ATOM     19  S   UNL     1       0.122   1.276   4.369  1.00  0.00    -0.082 SA
ATOM     20  C   UNL     1      -0.058  -1.415   4.669  1.00  0.00     0.018 A 
ATOM     21  C   UNL     1      -0.012  -2.760   4.287  1.00  0.00     0.015 A 
BRANCH  18  22
ATOM     22  C   UNL     1       2.189   3.957   2.099  1.00  0.00    -0.023 A 
ATOM     23  C   UNL     1       1.423   4.947   1.470  1.00  0.00     0.008 A 
ATOM     24  C   UNL     1       3.474   3.674   1.627  1.00  0.00     0.028 A 
ATOM     25  C   UNL     1       1.919   5.626   0.357  1.00  0.00     0.002 A 
ATOM     26  C   UNL     1       3.968   4.365   0.519  1.00  0.00     0.041 A 
ATOM     27  C   UNL     1       3.195   5.333  -0.122  1.00  0.00     0.020 A 
ATOM     28  Cl  UNL     1       5.542   4.006  -0.081  1.00  0.00    -0.084 Cl
ENDBRANCH  18  22
ENDBRANCH   6   9
ENDBRANCH   4   5
ENDBRANCH   3   4
ENDBRANCH   2   3
ENDBRANCH   1   2
BRANCH   1  29
ATOM     29  C   UNL     1       0.464  -8.471   7.218  1.00  0.00     0.021 C 
BRANCH  29  30
ATOM     30  C   UNL     1      -0.796  -8.666   8.055  1.00  0.00     0.116 C 
BRANCH  30  31
ATOM     31  N   UNL     1      -1.220 -10.057   8.090  1.00  0.00    -0.352 N 
ATOM     32  C   UNL     1      -1.443 -10.873   9.176  1.00  0.00     0.251 C 
ATOM     33  H   UNL     1      -1.370 -10.475   7.211  1.00  0.00     0.163 HD
ATOM     34  O   UNL     1      -1.603 -12.076   9.020  1.00  0.00    -0.269 OA
BRANCH  32  35
ATOM     35  C   UNL     1      -1.458 -10.286  10.534  1.00  0.00     0.039 A 
ATOM     36  C   UNL     1      -2.143  -9.095  10.782  1.00  0.00     0.014 A 
ATOM     37  C   UNL     1      -0.763 -10.924  11.566  1.00  0.00     0.014 A 
ATOM     38  C   UNL     1      -1.992  -8.457  12.008  1.00  0.00     0.010 A 
ATOM     39  C   UNL     1      -0.687 -10.322  12.826  1.00  0.00     0.010 A 
ATOM     40  C   UNL     1      -1.259  -9.060  13.044  1.00  0.00    -0.014 A 
BRANCH  40  41
ATOM     41  C   UNL     1      -1.110  -8.343  14.338  1.00  0.00     0.031 A 
ATOM     42  C   UNL     1       0.240  -7.869  14.808  1.00  0.00     0.074 A 
ATOM     43  C   UNL     1      -2.214  -8.050  15.056  1.00  0.00     0.049 A 
ATOM     44  N   UNL     1       0.536  -7.162  15.869  1.00  0.00    -0.248 NA
ATOM     45  C   UNL     1       1.409  -8.230  13.988  1.00  0.00     0.031 C 
ATOM     46  C   UNL     1      -3.577  -8.444  14.692  1.00  0.00     0.029 A 
ATOM     47  N   UNL     1      -2.374  -7.323  16.209  1.00  0.00    -0.354 N 
ATOM     48  C   UNL     1       1.917  -7.003  15.850  1.00  0.00     0.074 A 
ATOM     49  C   UNL     1       2.408  -7.717  14.693  1.00  0.00     0.031 C 
ATOM     50  C   UNL     1      -4.438  -7.893  15.559  1.00  0.00     0.029 A 
ATOM     51  C   UNL     1      -3.690  -7.164  16.579  1.00  0.00     0.049 A 
ATOM     52  H   UNL     1      -1.621  -6.952  16.722  1.00  0.00     0.167 HD
ATOM     53  C   UNL     1       2.701  -6.311  16.710  1.00  0.00     0.031 A 
ATOM     54  C   UNL     1      -4.241  -6.506  17.618  1.00  0.00     0.031 A 
ATOM     55  C   UNL     1       2.204  -5.593  17.856  1.00  0.00     0.049 A 
ATOM     56  C   UNL     1      -3.348  -5.770  18.575  1.00  0.00     0.074 A 
ATOM     57  C   UNL     1       2.923  -4.857  18.782  1.00  0.00     0.029 A 
ATOM     58  N   UNL     1       0.870  -5.508  18.227  1.00  0.00    -0.354 N 
ATOM     59  N   UNL     1      -2.045  -5.631  18.536  1.00  0.00    -0.248 NA
ATOM     60  C   UNL     1      -3.994  -5.099  19.711  1.00  0.00     0.031 C 
ATOM     61  C   UNL     1       2.034  -4.377  19.745  1.00  0.00     0.029 A 
ATOM     62  C   UNL     1       0.750  -4.749  19.379  1.00  0.00     0.049 A 
ATOM     63  H   UNL     1       0.121  -5.926  17.744  1.00  0.00     0.167 HD
ATOM     64  C   UNL     1      -1.715  -4.843  19.633  1.00  0.00     0.074 A 
ATOM     65  C   UNL     1      -2.957  -4.520  20.305  1.00  0.00     0.031 C 
ATOM     66  C   UNL     1      -0.491  -4.429  20.042  1.00  0.00     0.031 A 
BRANCH  53  67
ATOM     67  C   UNL     1       4.188  -6.279  16.459  1.00  0.00    -0.014 A 
ATOM     68  C   UNL     1       5.064  -6.907  17.364  1.00  0.00     0.010 A 
ATOM     69  C   UNL     1       4.725  -5.528  15.398  1.00  0.00     0.010 A 
ATOM     70  C   UNL     1       6.448  -6.758  17.234  1.00  0.00     0.020 A 
ATOM     71  C   UNL     1       6.109  -5.401  15.248  1.00  0.00     0.020 A 
ATOM     72  C   UNL     1       6.961  -5.997  16.181  1.00  0.00     0.054 A 
BRANCH  72  73
ATOM     73  S   UNL     1       8.759  -5.794  16.040  1.00  0.00     0.124 S 
ATOM     74  O   UNL     1       9.042  -4.821  17.089  1.00  0.00    -0.237 OA
ATOM     75  O   UNL     1       9.253  -7.148  16.281  1.00  0.00    -0.237 OA
ATOM     76  O   UNL     1       8.940  -5.312  14.672  1.00  0.00    -0.744 OA
ENDBRANCH  72  73
ENDBRANCH  53  67
BRANCH  54  77
ATOM     77  C   UNL     1      -5.724  -6.495  17.761  1.00  0.00    -0.014 A 
ATOM     78  C   UNL     1      -6.419  -7.687  18.045  1.00  0.00     0.010 A 
ATOM     79  C   UNL     1      -6.455  -5.321  17.514  1.00  0.00     0.010 A 
ATOM     80  C   UNL     1      -7.814  -7.720  18.012  1.00  0.00     0.020 A 
ATOM     81  C   UNL     1      -7.854  -5.343  17.513  1.00  0.00     0.020 A 
ATOM     82  C   UNL     1      -8.523  -6.550  17.729  1.00  0.00     0.054 A 
BRANCH  82  83
ATOM     83  S   UNL     1     -10.332  -6.630  17.626  1.00  0.00     0.124 S 
ATOM     84  O   UNL     1     -10.529  -7.247  16.317  1.00  0.00    -0.237 OA
ATOM     85  O   UNL     1     -10.681  -7.464  18.773  1.00  0.00    -0.237 OA
ATOM     86  O   UNL     1     -10.742  -5.232  17.727  1.00  0.00    -0.744 OA
ENDBRANCH  82  83
ENDBRANCH  54  77
BRANCH  66  87
ATOM     87  C   UNL     1      -0.407  -3.566  21.273  1.00  0.00    -0.014 A 
ATOM     88  C   UNL     1       0.013  -2.227  21.154  1.00  0.00     0.010 A 
ATOM     89  C   UNL     1      -0.611  -4.108  22.553  1.00  0.00     0.010 A 
ATOM     90  C   UNL     1       0.262  -1.457  22.292  1.00  0.00     0.020 A 
ATOM     91  C   UNL     1      -0.391  -3.331  23.695  1.00  0.00     0.020 A 
ATOM     92  C   UNL     1       0.069  -2.019  23.556  1.00  0.00     0.054 A 
BRANCH  92  93
ATOM     93  S   UNL     1       0.427  -1.015  25.024  1.00  0.00     0.124 S 
ATOM     94  O   UNL     1       1.885  -1.067  25.082  1.00  0.00    -0.237 OA
ATOM     95  O   UNL     1      -0.143   0.284  24.673  1.00  0.00    -0.237 OA
ATOM     96  O   UNL     1      -0.267  -1.721  26.099  1.00  0.00    -0.744 OA
ENDBRANCH  92  93
ENDBRANCH  66  87
ENDBRANCH  40  41
ENDBRANCH  32  35
ENDBRANCH  30  31
ENDBRANCH  29  30
ENDBRANCH   1  29
TORSDOF 17
