REMARK SMILES Cc1nsc(N(C)C(=O)C2CCCCCCC2)c1C(=O)NCCCCCCNC(=O)c1ccc(-c2c3nc(c(-c4ccc(S(=O)(=O)[O-])cc4)c4ccc([nH]4)c(-c4ccc(S(=O)(=O)[O-])cc4)c4nc(c(-c5ccc(S(=O)(=O)[O-])cc5)c5ccc2[nH]5)C=C4)C=C3)cc1
REMARK SMILES IDX 22 1 21 2 19 3 20 4 18 6 1 7 2 8 3 9 4 10 5 11 6 12 7 13
REMARK SMILES IDX 8 14 9 15 10 16 11 17 12 18 13 19 14 20 17 22 16 23 15 24
REMARK SMILES IDX 23 26 24 27 25 28 26 29 27 30 28 31 29 32 30 34 31 35 32 36
REMARK SMILES IDX 90 37 33 38 89 39 34 40 35 41 36 42 83 43 37 44 88 45 82 46
REMARK SMILES IDX 84 47 38 48 87 49 81 50 80 51 39 53 69 54 50 55 68 56 51 57
REMARK SMILES IDX 54 58 67 59 85 60 52 61 53 62 66 64 86 65 55 66 40 67 41 68
REMARK SMILES IDX 49 69 42 70 48 71 43 72 44 73 45 74 46 75 47 76 70 77 71 78
REMARK SMILES IDX 79 79 72 80 78 81 73 82 74 83 75 84 76 85 77 86 56 87 57 88
REMARK SMILES IDX 65 89 58 90 64 91 59 92 60 93 61 94 62 95 63 96
REMARK H PARENT 21 5 28 33 84 52 54 63
REMARK Flexibility Score: 80.00
ROOT
ATOM      1  C   UNL     1       1.865   1.295   0.907  1.00  0.00     0.116 C 
ENDROOT
BRANCH   1   2
ATOM      2  N   UNL     1       1.237   2.495   0.435  1.00  0.00    -0.352 N 
ATOM      3  C   UNL     1       0.297   2.625  -0.574  1.00  0.00     0.256 C 
ATOM      4  O   UNL     1      -0.422   3.628  -0.532  1.00  0.00    -0.269 OA
ATOM      5  H   UNL     1       1.506   3.328   0.884  1.00  0.00     0.163 HD
BRANCH   3   6
ATOM      6  C   UNL     1       0.168   1.658  -1.683  1.00  0.00     0.097 A 
ATOM      7  C   UNL     1       0.127  -0.775  -0.519  1.00  0.00     0.069 C 
ATOM      8  C   UNL     1       0.041   0.193  -1.653  1.00  0.00     0.066 A 
ATOM      9  N   UNL     1      -0.223  -0.395  -2.818  1.00  0.00    -0.195 NA
ATOM     10  S   UNL     1      -0.341   0.727  -3.989  1.00  0.00    -0.017 S 
ATOM     11  C   UNL     1       0.020   2.090  -3.019  1.00  0.00     0.131 A 
BRANCH  11  12
ATOM     12  N   UNL     1       0.131   3.345  -3.683  1.00  0.00    -0.305 N 
ATOM     13  C   UNL     1      -0.409   3.609  -5.018  1.00  0.00     0.154 C 
BRANCH  12  14
ATOM     14  C   UNL     1       0.985   4.293  -3.100  1.00  0.00     0.230 C 
ATOM     15  O   UNL     1       1.825   3.986  -2.248  1.00  0.00    -0.274 OA
BRANCH  14  16
ATOM     16  C   UNL     1       0.929   5.765  -3.599  1.00  0.00     0.079 C 
BRANCH  16  17
ATOM     17  C   UNL     1       0.302   6.663  -2.520  1.00  0.00     0.013 C 
BRANCH  17  18
ATOM     18  C   UNL     1       0.181   8.157  -2.856  1.00  0.00     0.001 C 
BRANCH  18  19
ATOM     19  C   UNL     1       1.456   8.992  -3.027  1.00  0.00     0.000 C 
BRANCH  19  20
ATOM     20  C   UNL     1       2.584   8.702  -2.040  1.00  0.00     0.000 CG0
ATOM     21  G   UNL     1       3.709   7.834  -2.607  1.00  0.00     0.000 G0
ENDBRANCH  19  20
ENDBRANCH  18  19
ENDBRANCH  17  18
ENDBRANCH  16  17
BRANCH  16  22
ATOM     22  C   UNL     1       2.352   6.157  -4.035  1.00  0.00     0.013 C 
BRANCH  22  23
ATOM     23  C   UNL     1       3.344   6.382  -2.885  1.00  0.00     0.001 C 
BRANCH  23  24
ATOM     24  C   UNL     1       3.709   7.834  -2.607  1.00  0.00     0.000 CG0
ATOM     25  G   UNL     1       2.584   8.702  -2.040  1.00  0.00     0.000 G0
ENDBRANCH  23  24
ENDBRANCH  22  23
ENDBRANCH  16  22
ENDBRANCH  14  16
ENDBRANCH  12  14
ENDBRANCH  11  12
ENDBRANCH   3   6
ENDBRANCH   1   2
BRANCH   1  26
ATOM     26  C   UNL     1       3.216   1.380   1.598  1.00  0.00     0.021 C 
BRANCH  26  27
ATOM     27  C   UNL     1       3.363   2.286   2.816  1.00  0.00     0.002 C 
BRANCH  27  28
ATOM     28  C   UNL     1       2.284   2.216   3.904  1.00  0.00     0.002 C 
BRANCH  28  29
ATOM     29  C   UNL     1       1.929   0.842   4.491  1.00  0.00     0.021 C 
BRANCH  29  30
ATOM     30  C   UNL     1       3.105   0.058   5.044  1.00  0.00     0.116 C 
BRANCH  30  31
ATOM     31  N   UNL     1       3.761   0.693   6.192  1.00  0.00    -0.352 N 
ATOM     32  C   UNL     1       4.793   0.195   6.985  1.00  0.00     0.251 C 
ATOM     33  H   UNL     1       3.429   1.588   6.433  1.00  0.00     0.163 HD
ATOM     34  O   UNL     1       4.969   0.616   8.115  1.00  0.00    -0.269 OA
BRANCH  32  35
ATOM     35  C   UNL     1       5.692  -0.832   6.411  1.00  0.00     0.039 A 
ATOM     36  C   UNL     1       6.321  -1.832   7.157  1.00  0.00     0.014 A 
ATOM     37  C   UNL     1       5.878  -0.786   5.043  1.00  0.00     0.014 A 
ATOM     38  C   UNL     1       7.148  -2.736   6.479  1.00  0.00     0.010 A 
ATOM     39  C   UNL     1       6.264  -1.923   4.411  1.00  0.00     0.010 A 
ATOM     40  C   UNL     1       7.137  -2.743   5.076  1.00  0.00    -0.014 A 
BRANCH  40  41
ATOM     41  C   UNL     1       7.825  -3.714   4.242  1.00  0.00     0.031 A 
ATOM     42  C   UNL     1       7.388  -5.086   4.565  1.00  0.00     0.074 A 
ATOM     43  C   UNL     1       8.607  -3.412   3.175  1.00  0.00     0.049 A 
ATOM     44  N   UNL     1       7.957  -5.862   5.421  1.00  0.00    -0.248 NA
ATOM     45  C   UNL     1       6.051  -5.542   4.145  1.00  0.00     0.031 C 
ATOM     46  C   UNL     1       8.904  -2.115   2.547  1.00  0.00     0.029 A 
ATOM     47  N   UNL     1       9.307  -4.266   2.378  1.00  0.00    -0.354 N 
ATOM     48  C   UNL     1       7.226  -7.036   5.396  1.00  0.00     0.074 A 
ATOM     49  C   UNL     1       5.952  -6.692   4.820  1.00  0.00     0.031 C 
ATOM     50  C   UNL     1       9.547  -2.304   1.364  1.00  0.00     0.029 A 
ATOM     51  C   UNL     1       9.858  -3.716   1.218  1.00  0.00     0.049 A 
ATOM     52  H   UNL     1       9.418  -5.218   2.606  1.00  0.00     0.167 HD
ATOM     53  C   UNL     1       7.862  -8.230   5.544  1.00  0.00     0.031 A 
ATOM     54  C   UNL     1      10.553  -4.378   0.245  1.00  0.00     0.031 A 
ATOM     55  C   UNL     1       9.228  -8.033   5.981  1.00  0.00     0.049 A 
ATOM     56  C   UNL     1      11.070  -5.620   0.879  1.00  0.00     0.074 A 
ATOM     57  C   UNL     1       9.821  -7.432   7.074  1.00  0.00     0.029 A 
ATOM     58  N   UNL     1      10.191  -8.068   4.996  1.00  0.00    -0.354 N 
ATOM     59  N   UNL     1      11.959  -5.601   1.834  1.00  0.00    -0.248 NA
ATOM     60  C   UNL     1      10.214  -6.796   0.839  1.00  0.00     0.031 C 
ATOM     61  C   UNL     1      10.928  -6.709   6.538  1.00  0.00     0.029 A 
ATOM     62  C   UNL     1      11.030  -6.998   5.176  1.00  0.00     0.049 A 
ATOM     63  H   UNL     1      10.264  -8.745   4.285  1.00  0.00     0.167 HD
ATOM     64  C   UNL     1      11.484  -6.506   2.772  1.00  0.00     0.074 A 
ATOM     65  C   UNL     1      10.431  -7.254   2.077  1.00  0.00     0.031 C 
ATOM     66  C   UNL     1      11.764  -6.360   4.102  1.00  0.00     0.031 A 
BRANCH  53  67
ATOM     67  C   UNL     1       7.432  -9.498   4.855  1.00  0.00    -0.014 A 
ATOM     68  C   UNL     1       8.189 -10.663   5.089  1.00  0.00     0.010 A 
ATOM     69  C   UNL     1       6.506  -9.536   3.793  1.00  0.00     0.010 A 
ATOM     70  C   UNL     1       8.078 -11.781   4.257  1.00  0.00     0.020 A 
ATOM     71  C   UNL     1       6.359 -10.661   2.980  1.00  0.00     0.020 A 
ATOM     72  C   UNL     1       7.167 -11.768   3.202  1.00  0.00     0.054 A 
BRANCH  72  73
ATOM     73  S   UNL     1       7.075 -13.200   2.104  1.00  0.00     0.124 S 
ATOM     74  O   UNL     1       8.397 -13.191   1.485  1.00  0.00    -0.237 OA
ATOM     75  O   UNL     1       6.822 -14.288   3.045  1.00  0.00    -0.237 OA
ATOM     76  O   UNL     1       5.961 -12.879   1.215  1.00  0.00    -0.744 OA
ENDBRANCH  72  73
ENDBRANCH  53  67
BRANCH  54  77
ATOM     77  C   UNL     1      10.460  -4.247  -1.243  1.00  0.00    -0.014 A 
ATOM     78  C   UNL     1      11.356  -4.921  -2.106  1.00  0.00     0.010 A 
ATOM     79  C   UNL     1       9.288  -3.725  -1.821  1.00  0.00     0.010 A 
ATOM     80  C   UNL     1      11.053  -5.124  -3.471  1.00  0.00     0.020 A 
ATOM     81  C   UNL     1       8.979  -3.925  -3.177  1.00  0.00     0.020 A 
ATOM     82  C   UNL     1       9.850  -4.645  -3.993  1.00  0.00     0.054 A 
BRANCH  82  83
ATOM     83  S   UNL     1       9.360  -5.074  -5.697  1.00  0.00     0.124 S 
ATOM     84  O   UNL     1      10.294  -4.289  -6.500  1.00  0.00    -0.237 OA
ATOM     85  O   UNL     1       9.557  -6.520  -5.735  1.00  0.00    -0.237 OA
ATOM     86  O   UNL     1       7.966  -4.641  -5.773  1.00  0.00    -0.744 OA
ENDBRANCH  82  83
ENDBRANCH  54  77
BRANCH  66  87
ATOM     87  C   UNL     1      12.817  -5.353   4.515  1.00  0.00    -0.014 A 
ATOM     88  C   UNL     1      12.731  -3.959   4.314  1.00  0.00     0.010 A 
ATOM     89  C   UNL     1      13.886  -5.851   5.277  1.00  0.00     0.010 A 
ATOM     90  C   UNL     1      13.713  -3.098   4.838  1.00  0.00     0.020 A 
ATOM     91  C   UNL     1      14.853  -5.001   5.815  1.00  0.00     0.020 A 
ATOM     92  C   UNL     1      14.773  -3.630   5.581  1.00  0.00     0.054 A 
BRANCH  92  93
ATOM     93  S   UNL     1      16.049  -2.530   6.260  1.00  0.00     0.124 S 
ATOM     94  O   UNL     1      16.720  -2.042   5.058  1.00  0.00    -0.237 OA
ATOM     95  O   UNL     1      15.268  -1.538   6.994  1.00  0.00    -0.237 OA
ATOM     96  O   UNL     1      16.858  -3.413   7.101  1.00  0.00    -0.744 OA
ENDBRANCH  92  93
ENDBRANCH  66  87
ENDBRANCH  40  41
ENDBRANCH  32  35
ENDBRANCH  30  31
ENDBRANCH  29  30
ENDBRANCH  28  29
ENDBRANCH  27  28
ENDBRANCH  26  27
ENDBRANCH   1  26
TORSDOF 19
