REMARK SMILES O=C(CNc1nc(-c2ccccc2)c(-c2ccccc2)s1)NCCCCCCNC(=O)c1ccc(-c2c3nc(c(-c4ccc(S(=O)(=O)[O-])cc4)c4ccc([nH]4)c(-c4ccc(S(=O)(=O)[O-])cc4)c4nc(c(-c5ccc(S(=O)(=O)[O-])cc5)c5ccc2[nH]5)C=C4)C=C3)cc1
REMARK SMILES IDX 25 1 24 2 23 3 22 4 1 5 2 6 3 8 4 9 5 11 6 12 21 13 7 14
REMARK SMILES IDX 14 15 8 16 9 17 13 18 10 19 12 20 11 21 15 22 16 23 20 24
REMARK SMILES IDX 17 25 19 26 18 27 26 28 27 29 28 30 29 31 30 32 31 34 32 35
REMARK SMILES IDX 33 36 91 37 34 38 90 39 35 40 36 41 37 42 84 43 38 44 89 45
REMARK SMILES IDX 83 46 85 47 39 48 88 49 82 50 81 51 40 53 70 54 51 55 69 56
REMARK SMILES IDX 52 57 55 58 68 59 86 60 53 61 54 62 67 64 87 65 56 66 41 67
REMARK SMILES IDX 42 68 50 69 43 70 49 71 44 72 45 73 46 74 47 75 48 76 71 77
REMARK SMILES IDX 72 78 80 79 73 80 79 81 74 82 75 83 76 84 77 85 78 86 57 87
REMARK SMILES IDX 58 88 66 89 59 90 65 91 60 92 61 93 62 94 63 95 64 96
REMARK H PARENT 22 7 4 10 29 33 85 52 55 63
REMARK Flexibility Score: inf
ROOT
ATOM      1  C   UNL     1       4.110   2.492   2.569  1.00  0.00     0.002 C 
ENDROOT
BRANCH   1   2
ATOM      2  C   UNL     1       2.613   2.166   2.463  1.00  0.00     0.021 C 
BRANCH   2   3
ATOM      3  C   UNL     1       2.098   1.970   1.038  1.00  0.00     0.116 C 
BRANCH   3   4
ATOM      4  N   UNL     1       2.754   0.862   0.377  1.00  0.00    -0.355 N 
ATOM      5  O   UNL     1       0.919  -0.520   0.185  1.00  0.00    -0.273 OA
ATOM      6  C   UNL     1       2.111  -0.301  -0.005  1.00  0.00     0.239 C 
ATOM      7  H   UNL     1       3.717   0.941   0.189  1.00  0.00     0.163 HD
BRANCH   6   8
ATOM      8  C   UNL     1       3.053  -1.326  -0.660  1.00  0.00     0.215 C 
BRANCH   8   9
ATOM      9  N   UNL     1       4.010  -0.629  -1.510  1.00  0.00    -0.352 N 
ATOM     10  H   UNL     1       3.692   0.098  -2.093  1.00  0.00     0.163 HD
BRANCH   9  11
ATOM     11  C   UNL     1       5.315  -0.950  -1.522  1.00  0.00     0.184 A 
ATOM     12  N   UNL     1       5.838  -2.065  -1.071  1.00  0.00    -0.220 NA
ATOM     13  S   UNL     1       6.443   0.190  -2.144  1.00  0.00    -0.096 S 
ATOM     14  C   UNL     1       7.220  -2.021  -1.188  1.00  0.00     0.091 A 
ATOM     15  C   UNL     1       7.737  -0.844  -1.707  1.00  0.00     0.064 A 
BRANCH  14  16
ATOM     16  C   UNL     1       8.049  -3.159  -0.820  1.00  0.00     0.002 A 
ATOM     17  C   UNL     1       9.054  -3.037   0.149  1.00  0.00     0.010 A 
ATOM     18  C   UNL     1       7.901  -4.370  -1.506  1.00  0.00     0.010 A 
ATOM     19  C   UNL     1       9.927  -4.098   0.396  1.00  0.00     0.001 A 
ATOM     20  C   UNL     1       8.778  -5.429  -1.260  1.00  0.00     0.001 A 
ATOM     21  C   UNL     1       9.795  -5.290  -0.316  1.00  0.00     0.000 A 
ENDBRANCH  14  16
BRANCH  15  22
ATOM     22  C   UNL     1       9.117  -0.423  -1.946  1.00  0.00    -0.006 A 
ATOM     23  C   UNL     1       9.649   0.683  -1.267  1.00  0.00     0.009 A 
ATOM     24  C   UNL     1       9.945  -1.155  -2.808  1.00  0.00     0.009 A 
ATOM     25  C   UNL     1      10.984   1.047  -1.445  1.00  0.00     0.001 A 
ATOM     26  C   UNL     1      11.280  -0.789  -2.984  1.00  0.00     0.001 A 
ATOM     27  C   UNL     1      11.799   0.310  -2.302  1.00  0.00     0.000 A 
ENDBRANCH  15  22
ENDBRANCH   9  11
ENDBRANCH   8   9
ENDBRANCH   6   8
ENDBRANCH   3   4
ENDBRANCH   2   3
ENDBRANCH   1   2
BRANCH   1  28
ATOM     28  C   UNL     1       4.563   3.765   1.846  1.00  0.00     0.002 C 
BRANCH  28  29
ATOM     29  C   UNL     1       3.871   5.056   2.290  1.00  0.00     0.021 C 
BRANCH  29  30
ATOM     30  C   UNL     1       4.015   5.399   3.771  1.00  0.00     0.116 C 
BRANCH  30  31
ATOM     31  N   UNL     1       5.398   5.626   4.161  1.00  0.00    -0.352 N 
ATOM     32  C   UNL     1       5.961   6.686   4.827  1.00  0.00     0.251 C 
ATOM     33  H   UNL     1       6.026   4.910   3.909  1.00  0.00     0.163 HD
ATOM     34  O   UNL     1       7.187   6.765   4.914  1.00  0.00    -0.269 OA
BRANCH  32  35
ATOM     35  C   UNL     1       5.112   7.746   5.416  1.00  0.00     0.039 A 
ATOM     36  C   UNL     1       5.499   9.081   5.266  1.00  0.00     0.014 A 
ATOM     37  C   UNL     1       3.947   7.435   6.125  1.00  0.00     0.014 A 
ATOM     38  C   UNL     1       4.685  10.102   5.765  1.00  0.00     0.010 A 
ATOM     39  C   UNL     1       3.101   8.456   6.558  1.00  0.00     0.010 A 
ATOM     40  C   UNL     1       3.458   9.801   6.380  1.00  0.00    -0.014 A 
BRANCH  40  41
ATOM     41  C   UNL     1       2.531  10.884   6.805  1.00  0.00     0.031 A 
ATOM     42  C   UNL     1       2.179  11.075   8.255  1.00  0.00     0.074 A 
ATOM     43  C   UNL     1       1.963  11.670   5.868  1.00  0.00     0.049 A 
ATOM     44  N   UNL     1       1.393  11.969   8.801  1.00  0.00    -0.248 NA
ATOM     45  C   UNL     1       2.768  10.129   9.216  1.00  0.00     0.031 C 
ATOM     46  C   UNL     1       2.183  11.558   4.424  1.00  0.00     0.029 A 
ATOM     47  N   UNL     1       1.086  12.719   5.988  1.00  0.00    -0.354 N 
ATOM     48  C   UNL     1       1.383  11.687  10.162  1.00  0.00     0.074 A 
ATOM     49  C   UNL     1       2.200  10.508  10.352  1.00  0.00     0.031 C 
ATOM     50  C   UNL     1       1.496  12.527   3.798  1.00  0.00     0.029 A 
ATOM     51  C   UNL     1       0.752  13.300   4.787  1.00  0.00     0.049 A 
ATOM     52  H   UNL     1       0.730  13.028   6.853  1.00  0.00     0.167 HD
ATOM     53  C   UNL     1       0.764  12.356  11.166  1.00  0.00     0.031 A 
ATOM     54  C   UNL     1      -0.060  14.338   4.508  1.00  0.00     0.031 A 
ATOM     55  C   UNL     1      -0.054  13.527  10.973  1.00  0.00     0.049 A 
ATOM     56  C   UNL     1      -0.750  15.054   5.635  1.00  0.00     0.074 A 
ATOM     57  C   UNL     1      -0.672  14.312  11.931  1.00  0.00     0.029 A 
ATOM     58  N   UNL     1      -0.379  14.073   9.740  1.00  0.00    -0.354 N 
ATOM     59  N   UNL     1      -0.681  14.822   6.924  1.00  0.00    -0.248 NA
ATOM     60  C   UNL     1      -1.619  16.180   5.268  1.00  0.00     0.031 C 
ATOM     61  C   UNL     1      -1.424  15.293  11.275  1.00  0.00     0.029 A 
ATOM     62  C   UNL     1      -1.219  15.162   9.911  1.00  0.00     0.049 A 
ATOM     63  H   UNL     1      -0.060  13.737   8.872  1.00  0.00     0.167 HD
ATOM     64  C   UNL     1      -1.480  15.787   7.525  1.00  0.00     0.074 A 
ATOM     65  C   UNL     1      -2.005  16.618   6.459  1.00  0.00     0.031 C 
ATOM     66  C   UNL     1      -1.753  15.971   8.841  1.00  0.00     0.031 A 
BRANCH  53  67
ATOM     67  C   UNL     1       0.933  11.820  12.566  1.00  0.00    -0.014 A 
ATOM     68  C   UNL     1       2.178  11.863  13.221  1.00  0.00     0.010 A 
ATOM     69  C   UNL     1      -0.175  11.284  13.248  1.00  0.00     0.010 A 
ATOM     70  C   UNL     1       2.325  11.330  14.504  1.00  0.00     0.020 A 
ATOM     71  C   UNL     1      -0.041  10.779  14.545  1.00  0.00     0.020 A 
ATOM     72  C   UNL     1       1.214  10.784  15.156  1.00  0.00     0.054 A 
BRANCH  72  73
ATOM     73  S   UNL     1       1.434  10.096  16.820  1.00  0.00     0.124 S 
ATOM     74  O   UNL     1       2.175   8.868  16.541  1.00  0.00    -0.237 OA
ATOM     75  O   UNL     1       2.189  11.143  17.503  1.00  0.00    -0.237 OA
ATOM     76  O   UNL     1       0.068   9.903  17.299  1.00  0.00    -0.744 OA
ENDBRANCH  72  73
ENDBRANCH  53  67
BRANCH  54  77
ATOM     77  C   UNL     1      -0.238  14.776   3.096  1.00  0.00    -0.014 A 
ATOM     78  C   UNL     1       0.317  15.989   2.652  1.00  0.00     0.010 A 
ATOM     79  C   UNL     1      -0.932  13.966   2.178  1.00  0.00     0.010 A 
ATOM     80  C   UNL     1       0.177  16.387   1.319  1.00  0.00     0.020 A 
ATOM     81  C   UNL     1      -1.050  14.346   0.839  1.00  0.00     0.020 A 
ATOM     82  C   UNL     1      -0.499  15.559   0.419  1.00  0.00     0.054 A 
BRANCH  82  83
ATOM     83  S   UNL     1      -0.602  16.061  -1.322  1.00  0.00     0.124 S 
ATOM     84  O   UNL     1      -1.552  17.166  -1.264  1.00  0.00    -0.237 OA
ATOM     85  O   UNL     1       0.779  16.427  -1.624  1.00  0.00    -0.237 OA
ATOM     86  O   UNL     1      -1.080  14.857  -1.997  1.00  0.00    -0.744 OA
ENDBRANCH  82  83
ENDBRANCH  54  77
BRANCH  66  87
ATOM     87  C   UNL     1      -2.649  17.127   9.206  1.00  0.00    -0.014 A 
ATOM     88  C   UNL     1      -4.021  17.113   8.898  1.00  0.00     0.010 A 
ATOM     89  C   UNL     1      -2.115  18.230   9.897  1.00  0.00     0.010 A 
ATOM     90  C   UNL     1      -4.834  18.198   9.238  1.00  0.00     0.020 A 
ATOM     91  C   UNL     1      -2.930  19.303  10.266  1.00  0.00     0.020 A 
ATOM     92  C   UNL     1      -4.282  19.288   9.918  1.00  0.00     0.054 A 
BRANCH  92  93
ATOM     93  S   UNL     1      -5.363  20.672  10.371  1.00  0.00     0.124 S 
ATOM     94  O   UNL     1      -5.593  21.313   9.079  1.00  0.00    -0.237 OA
ATOM     95  O   UNL     1      -6.520  19.997  10.954  1.00  0.00    -0.237 OA
ATOM     96  O   UNL     1      -4.560  21.445  11.316  1.00  0.00    -0.744 OA
ENDBRANCH  92  93
ENDBRANCH  66  87
ENDBRANCH  40  41
ENDBRANCH  32  35
ENDBRANCH  30  31
ENDBRANCH  29  30
ENDBRANCH  28  29
ENDBRANCH   1  28
TORSDOF 20
