REMARK SMILES COc1cc([C@@H]2CC(=O)Nc3c(C(=O)NCCCCCCNC(=O)c4ccc(-c5c6nc(c(-c7ccc(S(=O)(=O)[O-])cc7)c7ccc([nH]7)c(-c7ccc(S(=O)(=O)[O-])cc7)c7nc(c(-c8ccc(S(=O)(=O)[O-])cc8)c8ccc5[nH]8)C=C7)C=C6)cc4)cn(-c4ccc(F)cc4)c32)c(OC)c2c1OCO2
REMARK SMILES IDX 19 1 18 2 17 3 16 4 15 5 13 6 14 7 12 9 6 10 7 11 94 12 8 13
REMARK SMILES IDX 11 14 86 15 9 16 10 17 85 18 5 20 3 21 4 22 99 23 98 24
REMARK SMILES IDX 100 25 95 26 102 27 101 28 2 29 1 30 96 31 97 32 87 33 88 34
REMARK SMILES IDX 93 35 89 36 92 37 90 38 91 39 20 40 21 41 22 42 23 43 24 45
REMARK SMILES IDX 25 46 26 47 84 48 27 49 83 50 28 51 29 52 30 53 77 54 31 55
REMARK SMILES IDX 82 56 76 57 78 58 32 59 81 60 75 61 74 62 33 64 63 65 44 66
REMARK SMILES IDX 62 67 45 68 48 69 61 70 79 71 46 72 47 73 60 75 80 76 49 77
REMARK SMILES IDX 34 78 35 79 43 80 36 81 42 82 37 83 38 84 39 85 40 86 41 87
REMARK SMILES IDX 64 88 65 89 73 90 66 91 72 92 67 93 68 94 69 95 70 96 71 97
REMARK SMILES IDX 50 98 51 99 59 100 52 101 58 102 53 103 54 104 55 105 56 106
REMARK SMILES IDX 57 107
REMARK H PARENT 15 8 10 19 22 44 78 63 48 74
REMARK Flexibility Score: inf
ROOT
ATOM      1  C   UNL     1       5.337  10.729   4.445  1.00  0.00     0.002 C 
ENDROOT
BRANCH   1   2
ATOM      2  C   UNL     1       3.912  11.258   4.226  1.00  0.00     0.002 C 
BRANCH   2   3
ATOM      3  C   UNL     1       2.918  10.220   3.705  1.00  0.00     0.021 C 
BRANCH   3   4
ATOM      4  C   UNL     1       2.681   9.052   4.666  1.00  0.00     0.116 C 
BRANCH   4   5
ATOM      5  N   UNL     1       1.542   9.314   5.509  1.00  0.00    -0.352 N 
ATOM      6  C   UNL     1       0.262   8.826   5.502  1.00  0.00     0.254 C 
ATOM      7  O   UNL     1      -0.460   9.208   6.427  1.00  0.00    -0.269 OA
ATOM      8  H   UNL     1       1.716   9.967   6.226  1.00  0.00     0.163 HD
BRANCH   6   9
ATOM      9  C   UNL     1      -0.218   7.836   4.534  1.00  0.00     0.081 A 
ATOM     10  C   UNL     1      -0.418   5.542   1.597  1.00  0.00     0.082 C 
ATOM     11  C   UNL     1       0.026   6.532   0.508  1.00  0.00     0.115 C 
ATOM     12  C   UNL     1      -0.577   6.283   2.893  1.00  0.00     0.055 A 
ATOM     13  C   UNL     1       1.081   7.505   0.989  1.00  0.00     0.225 C 
ATOM     14  C   UNL     1       0.102   7.449   3.203  1.00  0.00     0.076 A 
ATOM     15  N   UNL     1      -1.572   6.141   3.836  1.00  0.00    -0.317 N 
ATOM     16  O   UNL     1       1.978   7.928   0.260  1.00  0.00    -0.275 OA
ATOM     17  N   UNL     1       0.927   8.009   2.255  1.00  0.00    -0.324 N 
ATOM     18  C   UNL     1      -1.327   7.053   4.837  1.00  0.00     0.107 A 
ATOM     19  H   UNL     1       1.435   8.816   2.499  1.00  0.00     0.170 HD
BRANCH  10  20
ATOM     20  C   UNL     1       0.522   4.324   1.577  1.00  0.00     0.012 A 
ATOM     21  C   UNL     1       0.913   2.142   0.474  1.00  0.00     0.165 A 
ATOM     22  C   UNL     1       0.091   3.233   0.769  1.00  0.00     0.059 A 
ATOM     23  C   UNL     1       2.202   2.173   0.963  1.00  0.00     0.211 A 
ATOM     24  C   UNL     1       2.641   3.206   1.772  1.00  0.00     0.211 A 
ATOM     25  O   UNL     1       3.192   1.269   0.708  1.00  0.00    -0.449 OA
ATOM     26  C   UNL     1       1.829   4.288   2.116  1.00  0.00     0.168 A 
ATOM     27  O   UNL     1       3.948   3.022   2.132  1.00  0.00    -0.449 OA
ATOM     28  C   UNL     1       4.325   1.926   1.290  1.00  0.00     0.468 C 
BRANCH  21  29
ATOM     29  O   UNL     1       0.360   1.201  -0.343  1.00  0.00    -0.493 OA
ATOM     30  C   UNL     1       0.854  -0.122  -0.181  1.00  0.00     0.278 C 
ENDBRANCH  21  29
BRANCH  26  31
ATOM     31  O   UNL     1       2.211   5.324   2.919  1.00  0.00    -0.492 OA
ATOM     32  C   UNL     1       3.602   5.502   3.153  1.00  0.00     0.278 C 
ENDBRANCH  26  31
ENDBRANCH  10  20
BRANCH  15  33
ATOM     33  C   UNL     1      -2.737   5.343   3.758  1.00  0.00     0.046 A 
ATOM     34  C   UNL     1      -2.656   3.992   3.410  1.00  0.00     0.029 A 
ATOM     35  C   UNL     1      -3.982   5.949   3.988  1.00  0.00     0.029 A 
ATOM     36  C   UNL     1      -3.830   3.251   3.273  1.00  0.00     0.041 A 
ATOM     37  C   UNL     1      -5.151   5.208   3.821  1.00  0.00     0.041 A 
ATOM     38  C   UNL     1      -5.064   3.866   3.466  1.00  0.00     0.123 A 
ATOM     39  F   UNL     1      -6.187   3.153   3.308  1.00  0.00    -0.207 F 
ENDBRANCH  15  33
ENDBRANCH   6   9
ENDBRANCH   4   5
ENDBRANCH   3   4
ENDBRANCH   2   3
ENDBRANCH   1   2
BRANCH   1  40
ATOM     40  C   UNL     1       5.981  10.014   3.247  1.00  0.00     0.021 C 
BRANCH  40  41
ATOM     41  C   UNL     1       6.269  10.943   2.075  1.00  0.00     0.116 C 
BRANCH  41  42
ATOM     42  N   UNL     1       7.279  11.938   2.426  1.00  0.00    -0.352 N 
ATOM     43  C   UNL     1       7.789  12.963   1.660  1.00  0.00     0.251 C 
ATOM     44  H   UNL     1       7.646  11.866   3.336  1.00  0.00     0.163 HD
ATOM     45  O   UNL     1       8.845  13.493   1.964  1.00  0.00    -0.269 OA
BRANCH  43  46
ATOM     46  C   UNL     1       7.044  13.399   0.466  1.00  0.00     0.039 A 
ATOM     47  C   UNL     1       7.722  13.678  -0.723  1.00  0.00     0.014 A 
ATOM     48  C   UNL     1       5.657  13.513   0.542  1.00  0.00     0.014 A 
ATOM     49  C   UNL     1       6.985  13.996  -1.860  1.00  0.00     0.010 A 
ATOM     50  C   UNL     1       4.925  13.714  -0.605  1.00  0.00     0.010 A 
ATOM     51  C   UNL     1       5.583  13.991  -1.802  1.00  0.00    -0.014 A 
BRANCH  51  52
ATOM     52  C   UNL     1       4.798  14.148  -3.024  1.00  0.00     0.031 A 
ATOM     53  C   UNL     1       5.112  13.171  -4.105  1.00  0.00     0.074 A 
ATOM     54  C   UNL     1       3.712  14.945  -3.111  1.00  0.00     0.049 A 
ATOM     55  N   UNL     1       5.616  13.410  -5.271  1.00  0.00    -0.248 NA
ATOM     56  C   UNL     1       4.953  11.737  -3.808  1.00  0.00     0.031 C 
ATOM     57  C   UNL     1       3.073  15.725  -2.045  1.00  0.00     0.029 A 
ATOM     58  N   UNL     1       2.862  15.119  -4.160  1.00  0.00    -0.354 N 
ATOM     59  C   UNL     1       5.644  12.188  -5.936  1.00  0.00     0.074 A 
ATOM     60  C   UNL     1       5.390  11.179  -4.938  1.00  0.00     0.031 C 
ATOM     61  C   UNL     1       1.825  16.072  -2.427  1.00  0.00     0.029 A 
ATOM     62  C   UNL     1       1.647  15.700  -3.818  1.00  0.00     0.049 A 
ATOM     63  H   UNL     1       3.089  14.857  -5.081  1.00  0.00     0.167 HD
ATOM     64  C   UNL     1       5.642  12.107  -7.297  1.00  0.00     0.031 A 
ATOM     65  C   UNL     1       0.556  15.837  -4.612  1.00  0.00     0.031 A 
ATOM     66  C   UNL     1       5.945  13.373  -7.910  1.00  0.00     0.049 A 
ATOM     67  C   UNL     1       1.024  15.733  -6.014  1.00  0.00     0.074 A 
ATOM     68  C   UNL     1       7.015  14.245  -7.865  1.00  0.00     0.029 A 
ATOM     69  N   UNL     1       4.885  14.100  -8.401  1.00  0.00    -0.354 N 
ATOM     70  N   UNL     1       1.815  16.606  -6.572  1.00  0.00    -0.248 NA
ATOM     71  C   UNL     1       0.968  14.437  -6.669  1.00  0.00     0.031 C 
ATOM     72  C   UNL     1       6.427  15.545  -7.859  1.00  0.00     0.029 A 
ATOM     73  C   UNL     1       5.043  15.395  -7.975  1.00  0.00     0.049 A 
ATOM     74  H   UNL     1       4.149  13.755  -8.955  1.00  0.00     0.167 HD
ATOM     75  C   UNL     1       2.673  15.854  -7.361  1.00  0.00     0.074 A 
ATOM     76  C   UNL     1       2.031  14.546  -7.470  1.00  0.00     0.031 C 
ATOM     77  C   UNL     1       3.948  16.275  -7.619  1.00  0.00     0.031 A 
BRANCH  64  78
ATOM     78  C   UNL     1       4.986  10.985  -8.067  1.00  0.00    -0.014 A 
ATOM     79  C   UNL     1       5.114  10.944  -9.471  1.00  0.00     0.010 A 
ATOM     80  C   UNL     1       4.027  10.126  -7.490  1.00  0.00     0.010 A 
ATOM     81  C   UNL     1       4.285  10.128 -10.255  1.00  0.00     0.020 A 
ATOM     82  C   UNL     1       3.228   9.277  -8.257  1.00  0.00     0.020 A 
ATOM     83  C   UNL     1       3.338   9.308  -9.640  1.00  0.00     0.054 A 
BRANCH  83  84
ATOM     84  S   UNL     1       2.207   8.331 -10.661  1.00  0.00     0.124 S 
ATOM     85  O   UNL     1       1.406   9.371 -11.300  1.00  0.00    -0.237 OA
ATOM     86  O   UNL     1       3.125   7.609 -11.537  1.00  0.00    -0.237 OA
ATOM     87  O   UNL     1       1.499   7.501  -9.689  1.00  0.00    -0.744 OA
ENDBRANCH  83  84
ENDBRANCH  64  78
BRANCH  65  88
ATOM     88  C   UNL     1      -0.874  15.756  -4.229  1.00  0.00    -0.014 A 
ATOM     89  C   UNL     1      -1.885  16.179  -5.111  1.00  0.00     0.010 A 
ATOM     90  C   UNL     1      -1.260  14.995  -3.106  1.00  0.00     0.010 A 
ATOM     91  C   UNL     1      -3.223  15.795  -4.915  1.00  0.00     0.020 A 
ATOM     92  C   UNL     1      -2.591  14.614  -2.900  1.00  0.00     0.020 A 
ATOM     93  C   UNL     1      -3.564  14.994  -3.822  1.00  0.00     0.054 A 
BRANCH  93  94
ATOM     94  S   UNL     1      -5.255  14.341  -3.684  1.00  0.00     0.124 S 
ATOM     95  O   UNL     1      -6.022  15.534  -3.339  1.00  0.00    -0.237 OA
ATOM     96  O   UNL     1      -5.496  13.798  -5.018  1.00  0.00    -0.237 OA
ATOM     97  O   UNL     1      -5.152  13.342  -2.622  1.00  0.00    -0.744 OA
ENDBRANCH  93  94
ENDBRANCH  65  88
BRANCH  77  98
ATOM     98  C   UNL     1       4.316  17.706  -7.286  1.00  0.00    -0.014 A 
ATOM     99  C   UNL     1       4.263  18.251  -5.987  1.00  0.00     0.010 A 
ATOM    100  C   UNL     1       4.876  18.485  -8.312  1.00  0.00     0.010 A 
ATOM    101  C   UNL     1       4.731  19.550  -5.733  1.00  0.00     0.020 A 
ATOM    102  C   UNL     1       5.362  19.771  -8.063  1.00  0.00     0.020 A 
ATOM    103  C   UNL     1       5.278  20.303  -6.776  1.00  0.00     0.054 A 
BRANCH 103 104
ATOM    104  S   UNL     1       5.921  21.968  -6.439  1.00  0.00     0.124 S 
ATOM    105  O   UNL     1       4.706  22.725  -6.151  1.00  0.00    -0.237 OA
ATOM    106  O   UNL     1       6.811  21.749  -5.301  1.00  0.00    -0.237 OA
ATOM    107  O   UNL     1       6.599  22.337  -7.681  1.00  0.00    -0.744 OA
ENDBRANCH 103 104
ENDBRANCH  77  98
ENDBRANCH  51  52
ENDBRANCH  43  46
ENDBRANCH  41  42
ENDBRANCH  40  41
ENDBRANCH   1  40
TORSDOF 20
