REMARK SMILES CCC1(C(=O)NCCCCCCNC(=O)c2ccc(-c3c4nc(c(-c5ccc(S(=O)(=O)[O-])cc5)c5ccc([nH]5)c(-c5ccc(S(=O)(=O)[O-])cc5)c5nc(c(-c6ccc(S(=O)(=O)[O-])cc6)c6ccc3[nH]6)C=C5)C=C4)cc2)CCN(C(=O)C[C@H]2CSCC[NH2+]2)CC1
REMARK SMILES IDX 10 1 9 2 8 3 7 4 6 5 4 6 5 7 3 9 76 10 89 11 77 12 88 13
REMARK SMILES IDX 78 14 79 15 80 16 2 17 1 18 81 19 82 20 83 21 87 22 84 23
REMARK SMILES IDX 86 24 85 27 11 28 12 29 13 30 14 31 15 33 16 34 17 35 75 36
REMARK SMILES IDX 18 37 74 38 19 39 20 40 21 41 68 42 22 43 73 44 67 45 69 46
REMARK SMILES IDX 23 47 72 48 66 49 65 50 24 52 54 53 35 54 53 55 36 56 39 57
REMARK SMILES IDX 52 58 70 59 37 60 38 61 51 63 71 64 40 65 25 66 26 67 34 68
REMARK SMILES IDX 27 69 33 70 28 71 29 72 30 73 31 74 32 75 55 76 56 77 64 78
REMARK SMILES IDX 57 79 63 80 58 81 59 82 60 83 61 84 62 85 41 86 42 87 50 88
REMARK SMILES IDX 43 89 49 90 44 91 45 92 46 93 47 94 48 95
REMARK H PARENT 6 8 87 25 87 26 13 32 69 51 39 62
REMARK Flexibility Score: inf
ROOT
ATOM      1  C   UNL     1      11.110  -0.914   1.098  1.00  0.00     0.002 C 
ENDROOT
BRANCH   1   2
ATOM      2  C   UNL     1      10.277  -2.195   0.961  1.00  0.00     0.002 C 
BRANCH   2   3
ATOM      3  C   UNL     1       8.793  -2.059   1.320  1.00  0.00     0.021 C 
BRANCH   3   4
ATOM      4  C   UNL     1       8.041  -1.015   0.500  1.00  0.00     0.116 C 
BRANCH   4   5
ATOM      5  N   UNL     1       7.787  -1.448  -0.859  1.00  0.00    -0.356 N 
ATOM      6  C   UNL     1       6.644  -1.550  -1.589  1.00  0.00     0.226 C 
ATOM      7  O   UNL     1       6.804  -1.896  -2.765  1.00  0.00    -0.274 OA
ATOM      8  H   UNL     1       8.597  -1.720  -1.347  1.00  0.00     0.163 HD
BRANCH   6   9
ATOM      9  C   UNL     1       5.224  -1.232  -1.017  1.00  0.00     0.052 C 
ATOM     10  C   UNL     1       4.959  -2.132   0.220  1.00  0.00     0.038 C 
ATOM     11  C   UNL     1       5.139   0.290  -0.723  1.00  0.00     0.038 C 
ATOM     12  C   UNL     1       4.058  -1.555   1.309  1.00  0.00     0.120 C 
ATOM     13  C   UNL     1       4.117   0.690   0.341  1.00  0.00     0.120 C 
ATOM     14  N   UNL     1       4.249  -0.127   1.535  1.00  0.00    -0.342 N 
ATOM     15  C   UNL     1       4.236   0.336   2.850  1.00  0.00     0.228 C 
ATOM     16  O   UNL     1       4.117  -0.446   3.798  1.00  0.00    -0.275 OA
BRANCH   9  17
ATOM     17  C   UNL     1       4.221  -1.607  -2.164  1.00  0.00     0.013 C 
ATOM     18  C   UNL     1       2.744  -1.326  -1.949  1.00  0.00     0.005 C 
ENDBRANCH   9  17
BRANCH  15  19
ATOM     19  C   UNL     1       4.313   1.831   3.142  1.00  0.00     0.166 C 
BRANCH  19  20
ATOM     20  C   UNL     1       5.556   2.616   2.669  1.00  0.00     0.201 C 
ATOM     21  C   UNL     1       5.987   3.644   3.740  1.00  0.00     0.135 C 
ATOM     22  N   UNL     1       6.692   1.758   2.283  1.00  0.00    -0.342 N 
ATOM     23  S   UNL     1       7.268   4.789   3.112  1.00  0.00    -0.150 SA
ATOM     24  C   UNL     1       7.710   2.537   1.566  1.00  0.00     0.271 C 
ATOM     25  H   UNL     1       6.356   1.010   1.678  1.00  0.00     0.346 HD
ATOM     26  H   UNL     1       7.111   1.370   3.128  1.00  0.00     0.346 HD
ATOM     27  C   UNL     1       8.425   3.546   2.462  1.00  0.00     0.131 C 
ENDBRANCH  19  20
ENDBRANCH  15  19
ENDBRANCH   6   9
ENDBRANCH   4   5
ENDBRANCH   3   4
ENDBRANCH   2   3
ENDBRANCH   1   2
BRANCH   1  28
ATOM     28  C   UNL     1      11.039  -0.225   2.463  1.00  0.00     0.021 C 
BRANCH  28  29
ATOM     29  C   UNL     1      11.470  -1.093   3.641  1.00  0.00     0.116 C 
BRANCH  29  30
ATOM     30  N   UNL     1      12.856  -1.522   3.528  1.00  0.00    -0.352 N 
ATOM     31  C   UNL     1      13.885  -1.396   4.429  1.00  0.00     0.251 C 
ATOM     32  H   UNL     1      13.090  -1.968   2.682  1.00  0.00     0.163 HD
ATOM     33  O   UNL     1      15.035  -1.641   4.083  1.00  0.00    -0.269 OA
BRANCH  31  34
ATOM     34  C   UNL     1      13.602  -0.948   5.810  1.00  0.00     0.039 A 
ATOM     35  C   UNL     1      14.440   0.002   6.400  1.00  0.00     0.014 A 
ATOM     36  C   UNL     1      12.519  -1.469   6.524  1.00  0.00     0.014 A 
ATOM     37  C   UNL     1      14.157   0.471   7.686  1.00  0.00     0.010 A 
ATOM     38  C   UNL     1      12.195  -0.945   7.771  1.00  0.00     0.010 A 
ATOM     39  C   UNL     1      13.014   0.025   8.370  1.00  0.00    -0.014 A 
BRANCH  39  40
ATOM     40  C   UNL     1      12.662   0.548   9.715  1.00  0.00     0.031 A 
ATOM     41  C   UNL     1      12.629  -0.381  10.899  1.00  0.00     0.074 A 
ATOM     42  C   UNL     1      12.312   1.842   9.859  1.00  0.00     0.049 A 
ATOM     43  N   UNL     1      12.277  -0.130  12.134  1.00  0.00    -0.248 NA
ATOM     44  C   UNL     1      13.017  -1.781  10.659  1.00  0.00     0.031 C 
ATOM     45  C   UNL     1      12.274   2.835   8.783  1.00  0.00     0.029 A 
ATOM     46  N   UNL     1      11.912   2.543  10.970  1.00  0.00    -0.354 N 
ATOM     47  C   UNL     1      12.385  -1.339  12.811  1.00  0.00     0.074 A 
ATOM     48  C   UNL     1      12.782  -2.334  11.839  1.00  0.00     0.031 C 
ATOM     49  C   UNL     1      11.899   4.020   9.291  1.00  0.00     0.029 A 
ATOM     50  C   UNL     1      11.623   3.863  10.715  1.00  0.00     0.049 A 
ATOM     51  H   UNL     1      11.838   2.138  11.864  1.00  0.00     0.167 HD
ATOM     52  C   UNL     1      12.190  -1.597  14.127  1.00  0.00     0.031 A 
ATOM     53  C   UNL     1      11.176   4.837  11.533  1.00  0.00     0.031 A 
ATOM     54  C   UNL     1      11.799  -0.602  15.091  1.00  0.00     0.049 A 
ATOM     55  C   UNL     1      10.941   4.521  12.986  1.00  0.00     0.074 A 
ATOM     56  C   UNL     1      11.621  -0.750  16.455  1.00  0.00     0.029 A 
ATOM     57  N   UNL     1      11.520   0.724  14.793  1.00  0.00    -0.354 N 
ATOM     58  N   UNL     1      11.107   3.384  13.620  1.00  0.00    -0.248 NA
ATOM     59  C   UNL     1      10.469   5.622  13.837  1.00  0.00     0.031 C 
ATOM     60  C   UNL     1      11.178   0.470  16.973  1.00  0.00     0.029 A 
ATOM     61  C   UNL     1      11.148   1.398  15.944  1.00  0.00     0.049 A 
ATOM     62  H   UNL     1      11.579   1.126  13.896  1.00  0.00     0.167 HD
ATOM     63  C   UNL     1      10.794   3.643  14.950  1.00  0.00     0.074 A 
ATOM     64  C   UNL     1      10.440   5.046  15.031  1.00  0.00     0.031 C 
ATOM     65  C   UNL     1      10.803   2.797  16.010  1.00  0.00     0.031 A 
BRANCH  52  66
ATOM     66  C   UNL     1      12.387  -3.015  14.598  1.00  0.00    -0.014 A 
ATOM     67  C   UNL     1      13.664  -3.606  14.616  1.00  0.00     0.010 A 
ATOM     68  C   UNL     1      11.287  -3.755  15.068  1.00  0.00     0.010 A 
ATOM     69  C   UNL     1      13.830  -4.924  15.051  1.00  0.00     0.020 A 
ATOM     70  C   UNL     1      11.454  -5.063  15.536  1.00  0.00     0.020 A 
ATOM     71  C   UNL     1      12.723  -5.644  15.507  1.00  0.00     0.054 A 
BRANCH  71  72
ATOM     72  S   UNL     1      12.973  -7.345  16.086  1.00  0.00     0.124 S 
ATOM     73  O   UNL     1      13.245  -8.051  14.836  1.00  0.00    -0.237 OA
ATOM     74  O   UNL     1      14.111  -7.210  16.991  1.00  0.00    -0.237 OA
ATOM     75  O   UNL     1      11.705  -7.684  16.728  1.00  0.00    -0.744 OA
ENDBRANCH  71  72
ENDBRANCH  52  66
BRANCH  53  76
ATOM     76  C   UNL     1      10.934   6.206  10.999  1.00  0.00    -0.014 A 
ATOM     77  C   UNL     1      11.758   7.279  11.384  1.00  0.00     0.010 A 
ATOM     78  C   UNL     1       9.882   6.445  10.095  1.00  0.00     0.010 A 
ATOM     79  C   UNL     1      11.521   8.567  10.894  1.00  0.00     0.020 A 
ATOM     80  C   UNL     1       9.662   7.725   9.578  1.00  0.00     0.020 A 
ATOM     81  C   UNL     1      10.476   8.781   9.991  1.00  0.00     0.054 A 
BRANCH  81  82
ATOM     82  S   UNL     1      10.216  10.454   9.337  1.00  0.00     0.124 S 
ATOM     83  O   UNL     1       9.693  11.158  10.503  1.00  0.00    -0.237 OA
ATOM     84  O   UNL     1      11.561  10.838   8.916  1.00  0.00    -0.237 OA
ATOM     85  O   UNL     1       9.264  10.252   8.248  1.00  0.00    -0.744 OA
ENDBRANCH  81  82
ENDBRANCH  53  76
BRANCH  65  86
ATOM     86  C   UNL     1      10.467   3.369  17.363  1.00  0.00    -0.014 A 
ATOM     87  C   UNL     1       9.158   3.761  17.692  1.00  0.00     0.010 A 
ATOM     88  C   UNL     1      11.474   3.453  18.344  1.00  0.00     0.010 A 
ATOM     89  C   UNL     1       8.868   4.255  18.967  1.00  0.00     0.020 A 
ATOM     90  C   UNL     1      11.181   3.916  19.629  1.00  0.00     0.020 A 
ATOM     91  C   UNL     1       9.881   4.326  19.928  1.00  0.00     0.054 A 
BRANCH  91  92
ATOM     92  S   UNL     1       9.467   4.922  21.590  1.00  0.00     0.124 S 
ATOM     93  O   UNL     1       9.257   6.348  21.359  1.00  0.00    -0.237 OA
ATOM     94  O   UNL     1       8.267   4.154  21.915  1.00  0.00    -0.237 OA
ATOM     95  O   UNL     1      10.647   4.587  22.384  1.00  0.00    -0.744 OA
ENDBRANCH  91  92
ENDBRANCH  65  86
ENDBRANCH  39  40
ENDBRANCH  31  34
ENDBRANCH  29  30
ENDBRANCH  28  29
ENDBRANCH   1  28
TORSDOF 19
