REMARK SMILES Cc1ccc(C(=O)N[C@@H]2C=C[C@H](C(=O)NCCCCCCNC(=O)c3ccc(-c4c5nc(c(-c6ccc(S(=O)(=O)[O-])cc6)c6ccc([nH]6)c(-c6ccc(S(=O)(=O)[O-])cc6)c6nc(c(-c7ccc(S(=O)(=O)[O-])cc7)c7ccc4[nH]7)C=C6)C=C5)cc3)C2)c(F)c1
REMARK SMILES IDX 19 1 18 2 17 3 16 4 15 5 13 6 14 7 12 9 9 10 10 11 85 12
REMARK SMILES IDX 11 13 8 14 6 15 7 16 5 18 1 19 2 20 3 21 88 22 4 23 86 24
REMARK SMILES IDX 87 25 20 26 21 27 22 28 23 29 24 31 25 32 26 33 84 34 27 35
REMARK SMILES IDX 83 36 28 37 29 38 30 39 77 40 31 41 82 42 76 43 78 44 32 45
REMARK SMILES IDX 81 46 75 47 74 48 33 50 63 51 44 52 62 53 45 54 48 55 61 56
REMARK SMILES IDX 79 57 46 58 47 59 60 61 80 62 49 63 34 64 35 65 43 66 36 67
REMARK SMILES IDX 42 68 37 69 38 70 39 71 40 72 41 73 64 74 65 75 73 76 66 77
REMARK SMILES IDX 72 78 67 79 68 80 69 81 70 82 71 83 50 84 51 85 59 86 52 87
REMARK SMILES IDX 58 88 53 89 54 90 55 91 56 92 57 93
REMARK H PARENT 15 8 8 17 22 30 78 49 48 60
REMARK Flexibility Score: inf
ROOT
ATOM      1  C   UNL     1       4.269  -9.587   3.665  1.00  0.00     0.002 C 
ENDROOT
BRANCH   1   2
ATOM      2  C   UNL     1       3.171  -9.888   2.641  1.00  0.00     0.002 C 
BRANCH   2   3
ATOM      3  C   UNL     1       1.814  -9.226   2.910  1.00  0.00     0.021 C 
BRANCH   3   4
ATOM      4  C   UNL     1       1.842  -7.705   3.068  1.00  0.00     0.116 C 
BRANCH   4   5
ATOM      5  N   UNL     1       2.398  -7.030   1.908  1.00  0.00    -0.356 N 
ATOM      6  C   UNL     1       2.112  -5.787   1.414  1.00  0.00     0.227 C 
ATOM      7  O   UNL     1       2.800  -5.354   0.490  1.00  0.00    -0.274 OA
ATOM      8  H   UNL     1       3.076  -7.539   1.407  1.00  0.00     0.163 HD
BRANCH   6   9
ATOM      9  C   UNL     1       0.914  -5.032   1.994  1.00  0.00     0.103 C 
ATOM     10  C   UNL     1      -0.829  -4.410   0.345  1.00  0.00     0.106 C 
ATOM     11  C   UNL     1      -0.040  -3.228   0.822  1.00  0.00    -0.006 C 
ATOM     12  C   UNL     1      -0.364  -5.517   1.305  1.00  0.00     0.047 C 
ATOM     13  C   UNL     1       0.911  -3.567   1.699  1.00  0.00    -0.016 C 
BRANCH  10  14
ATOM     14  N   UNL     1      -0.572  -4.559  -1.078  1.00  0.00    -0.346 N 
ATOM     15  C   UNL     1      -0.916  -5.526  -1.993  1.00  0.00     0.254 C 
ATOM     16  O   UNL     1      -0.875  -5.264  -3.192  1.00  0.00    -0.269 OA
ATOM     17  H   UNL     1      -0.046  -3.821  -1.463  1.00  0.00     0.164 HD
BRANCH  15  18
ATOM     18  C   UNL     1      -1.232  -6.896  -1.557  1.00  0.00     0.075 A 
ATOM     19  C   UNL     1      -1.235 -10.743   0.342  1.00  0.00     0.044 C 
ATOM     20  C   UNL     1      -1.316  -9.436  -0.389  1.00  0.00    -0.048 A 
ATOM     21  C   UNL     1      -2.207  -8.436   0.027  1.00  0.00     0.004 A 
ATOM     22  C   UNL     1      -0.494  -9.199  -1.495  1.00  0.00     0.043 A 
ATOM     23  C   UNL     1      -2.185  -7.172  -0.573  1.00  0.00     0.017 A 
ATOM     24  C   UNL     1      -0.447  -7.931  -2.067  1.00  0.00     0.136 A 
ATOM     25  F   UNL     1       0.424  -7.721  -3.064  1.00  0.00    -0.206 F 
ENDBRANCH  15  18
ENDBRANCH  10  14
ENDBRANCH   6   9
ENDBRANCH   4   5
ENDBRANCH   3   4
ENDBRANCH   2   3
ENDBRANCH   1   2
BRANCH   1  26
ATOM     26  C   UNL     1       3.936  -9.955   5.112  1.00  0.00     0.021 C 
BRANCH  26  27
ATOM     27  C   UNL     1       3.568 -11.419   5.339  1.00  0.00     0.116 C 
BRANCH  27  28
ATOM     28  N   UNL     1       4.660 -12.324   5.016  1.00  0.00    -0.352 N 
ATOM     29  C   UNL     1       5.262 -13.285   5.793  1.00  0.00     0.251 C 
ATOM     30  H   UNL     1       5.021 -12.236   4.104  1.00  0.00     0.163 HD
ATOM     31  O   UNL     1       6.289 -13.829   5.406  1.00  0.00    -0.269 OA
BRANCH  29  32
ATOM     32  C   UNL     1       4.684 -13.640   7.109  1.00  0.00     0.039 A 
ATOM     33  C   UNL     1       5.536 -13.751   8.211  1.00  0.00     0.014 A 
ATOM     34  C   UNL     1       3.312 -13.858   7.260  1.00  0.00     0.014 A 
ATOM     35  C   UNL     1       5.002 -14.001   9.477  1.00  0.00     0.010 A 
ATOM     36  C   UNL     1       2.773 -14.038   8.533  1.00  0.00     0.010 A 
ATOM     37  C   UNL     1       3.611 -14.099   9.657  1.00  0.00    -0.014 A 
BRANCH  37  38
ATOM     38  C   UNL     1       3.021 -14.211  11.017  1.00  0.00     0.031 A 
ATOM     39  C   UNL     1       2.236 -15.430  11.418  1.00  0.00     0.074 A 
ATOM     40  C   UNL     1       3.139 -13.175  11.872  1.00  0.00     0.049 A 
ATOM     41  N   UNL     1       1.616 -15.675  12.544  1.00  0.00    -0.248 NA
ATOM     42  C   UNL     1       2.115 -16.506  10.420  1.00  0.00     0.031 C 
ATOM     43  C   UNL     1       3.837 -11.918  11.587  1.00  0.00     0.029 A 
ATOM     44  N   UNL     1       2.670 -13.007  13.152  1.00  0.00    -0.354 N 
ATOM     45  C   UNL     1       1.022 -16.922  12.388  1.00  0.00     0.074 A 
ATOM     46  C   UNL     1       1.319 -17.364  11.043  1.00  0.00     0.031 C 
ATOM     47  C   UNL     1       3.772 -11.122  12.666  1.00  0.00     0.029 A 
ATOM     48  C   UNL     1       2.989 -11.787  13.702  1.00  0.00     0.049 A 
ATOM     49  H   UNL     1       2.154 -13.695  13.631  1.00  0.00     0.167 HD
ATOM     50  C   UNL     1       0.307 -17.639  13.288  1.00  0.00     0.031 A 
ATOM     51  C   UNL     1       2.674 -11.252  14.898  1.00  0.00     0.031 A 
ATOM     52  C   UNL     1       0.015 -17.194  14.627  1.00  0.00     0.049 A 
ATOM     53  C   UNL     1       1.858 -12.059  15.870  1.00  0.00     0.074 A 
ATOM     54  C   UNL     1      -0.646 -17.878  15.633  1.00  0.00     0.029 A 
ATOM     55  N   UNL     1       0.353 -15.953  15.145  1.00  0.00    -0.354 N 
ATOM     56  N   UNL     1       1.379 -13.272  15.732  1.00  0.00    -0.248 NA
ATOM     57  C   UNL     1       1.545 -11.428  17.159  1.00  0.00     0.031 C 
ATOM     58  C   UNL     1      -0.769 -17.024  16.734  1.00  0.00     0.029 A 
ATOM     59  C   UNL     1      -0.123 -15.835  16.440  1.00  0.00     0.049 A 
ATOM     60  H   UNL     1       0.857 -15.258  14.662  1.00  0.00     0.167 HD
ATOM     61  C   UNL     1       0.723 -13.556  16.925  1.00  0.00     0.074 A 
ATOM     62  C   UNL     1       0.890 -12.399  17.780  1.00  0.00     0.031 C 
ATOM     63  C   UNL     1       0.039 -14.673  17.278  1.00  0.00     0.031 A 
BRANCH  50  64
ATOM     64  C   UNL     1      -0.228 -18.980  12.855  1.00  0.00    -0.014 A 
ATOM     65  C   UNL     1       0.631 -20.071  12.630  1.00  0.00     0.010 A 
ATOM     66  C   UNL     1      -1.618 -19.170  12.735  1.00  0.00     0.010 A 
ATOM     67  C   UNL     1       0.114 -21.316  12.261  1.00  0.00     0.020 A 
ATOM     68  C   UNL     1      -2.141 -20.421  12.395  1.00  0.00     0.020 A 
ATOM     69  C   UNL     1      -1.270 -21.483  12.147  1.00  0.00     0.054 A 
BRANCH  69  70
ATOM     70  S   UNL     1      -1.912 -23.120  11.702  1.00  0.00     0.124 S 
ATOM     71  O   UNL     1      -1.511 -23.230  10.302  1.00  0.00    -0.237 OA
ATOM     72  O   UNL     1      -1.208 -24.002  12.629  1.00  0.00    -0.237 OA
ATOM     73  O   UNL     1      -3.350 -23.003  11.929  1.00  0.00    -0.744 OA
ENDBRANCH  69  70
ENDBRANCH  50  64
BRANCH  51  74
ATOM     74  C   UNL     1       3.123  -9.873  15.238  1.00  0.00    -0.014 A 
ATOM     75  C   UNL     1       4.084  -9.655  16.241  1.00  0.00     0.010 A 
ATOM     76  C   UNL     1       2.591  -8.765  14.551  1.00  0.00     0.010 A 
ATOM     77  C   UNL     1       4.489  -8.356  16.564  1.00  0.00     0.020 A 
ATOM     78  C   UNL     1       3.017  -7.468  14.848  1.00  0.00     0.020 A 
ATOM     79  C   UNL     1       3.954  -7.271  15.863  1.00  0.00     0.054 A 
BRANCH  79  80
ATOM     80  S   UNL     1       4.527  -5.598  16.268  1.00  0.00     0.124 S 
ATOM     81  O   UNL     1       3.900  -5.368  17.565  1.00  0.00    -0.237 OA
ATOM     82  O   UNL     1       5.979  -5.759  16.284  1.00  0.00    -0.237 OA
ATOM     83  O   UNL     1       4.010  -4.785  15.169  1.00  0.00    -0.744 OA
ENDBRANCH  79  80
ENDBRANCH  51  74
BRANCH  63  84
ATOM     84  C   UNL     1      -0.571 -14.706  18.655  1.00  0.00    -0.014 A 
ATOM     85  C   UNL     1      -1.680 -13.905  18.979  1.00  0.00     0.010 A 
ATOM     86  C   UNL     1      -0.059 -15.589  19.624  1.00  0.00     0.010 A 
ATOM     87  C   UNL     1      -2.247 -13.963  20.255  1.00  0.00     0.020 A 
ATOM     88  C   UNL     1      -0.643 -15.674  20.891  1.00  0.00     0.020 A 
ATOM     89  C   UNL     1      -1.726 -14.850  21.202  1.00  0.00     0.054 A 
BRANCH  89  90
ATOM     90  S   UNL     1      -2.510 -14.938  22.835  1.00  0.00     0.124 S 
ATOM     91  O   UNL     1      -2.106 -13.669  23.435  1.00  0.00    -0.237 OA
ATOM     92  O   UNL     1      -3.928 -15.052  22.502  1.00  0.00    -0.237 OA
ATOM     93  O   UNL     1      -1.919 -16.129  23.440  1.00  0.00    -0.744 OA
ENDBRANCH  89  90
ENDBRANCH  63  84
ENDBRANCH  37  38
ENDBRANCH  29  32
ENDBRANCH  27  28
ENDBRANCH  26  27
ENDBRANCH   1  26
TORSDOF 18
