REMARK SMILES CCCCc1nc(C[N@H+]2CC[NH2+][C@H](C(=O)NCCCCCCNC(=O)c3ccc(-c4c5nc(c(-c6ccc(S(=O)(=O)[O-])cc6)c6ccc([nH]6)c(-c6ccc(S(=O)(=O)[O-])cc6)c6nc(c(-c7ccc(S(=O)(=O)[O-])cc7)c7ccc4[nH]7)C=C6)C=C5)cc3)C2)c(Cl)[nH]1
REMARK SMILES IDX 18 1 17 2 16 3 14 4 15 5 13 7 9 8 10 9 86 10 11 12 12 13
REMARK SMILES IDX 8 16 7 17 5 18 6 19 89 20 87 21 88 23 4 24 3 25 2 26 1 27
REMARK SMILES IDX 19 28 20 29 21 30 22 31 23 32 24 33 25 35 26 36 27 37 85 38
REMARK SMILES IDX 28 39 84 40 29 41 30 42 31 43 78 44 32 45 83 46 77 47 79 48
REMARK SMILES IDX 33 49 82 50 76 51 75 52 34 54 64 55 45 56 63 57 46 58 49 59
REMARK SMILES IDX 62 60 80 61 47 62 48 63 61 65 81 66 50 67 35 68 36 69 44 70
REMARK SMILES IDX 37 71 43 72 38 73 39 74 40 75 41 76 42 77 65 78 66 79 74 80
REMARK SMILES IDX 67 81 73 82 68 83 69 84 70 85 71 86 72 87 51 88 52 89 60 90
REMARK SMILES IDX 53 91 59 92 54 93 55 94 56 95 57 96 58 97
REMARK H PARENT 16 6 9 11 12 14 12 15 89 22 23 34 79 53 49 64
REMARK Flexibility Score: inf
ROOT
ATOM      1  C   UNL     1       2.185  -0.617  -4.441  1.00  0.00     0.021 C 
ENDROOT
BRANCH   1   2
ATOM      2  C   UNL     1       0.944  -1.417  -4.821  1.00  0.00     0.116 C 
BRANCH   2   3
ATOM      3  N   UNL     1       0.763  -2.618  -4.023  1.00  0.00    -0.351 N 
ATOM      4  C   UNL     1      -0.439  -3.151  -3.605  1.00  0.00     0.284 C 
ATOM      5  O   UNL     1      -0.450  -4.268  -3.087  1.00  0.00    -0.268 OA
ATOM      6  H   UNL     1       1.579  -3.099  -3.754  1.00  0.00     0.163 HD
BRANCH   4   7
ATOM      7  C   UNL     1      -1.704  -2.297  -3.801  1.00  0.00     0.328 C 
ATOM      8  N   UNL     1      -4.169  -2.030  -3.175  1.00  0.00    -0.320 N 
ATOM      9  C   UNL     1      -4.383  -1.624  -4.572  1.00  0.00     0.324 C 
ATOM     10  C   UNL     1      -2.922  -2.812  -2.998  1.00  0.00     0.339 C 
ATOM     11  H   UNL     1      -4.929  -2.676  -2.962  1.00  0.00     0.348 HD
ATOM     12  C   UNL     1      -3.127  -1.206  -5.371  1.00  0.00     0.323 C 
ATOM     13  N   UNL     1      -2.021  -2.174  -5.256  1.00  0.00    -0.327 N 
ATOM     14  H   UNL     1      -1.205  -1.836  -5.766  1.00  0.00     0.347 HD
ATOM     15  H   UNL     1      -2.283  -3.077  -5.652  1.00  0.00     0.347 HD
BRANCH   8  16
ATOM     16  C   UNL     1      -4.372  -0.957  -2.176  1.00  0.00     0.323 C 
BRANCH  16  17
ATOM     17  C   UNL     1      -3.407   0.180  -2.257  1.00  0.00     0.132 A 
ATOM     18  C   UNL     1      -1.461   1.110  -2.217  1.00  0.00     0.107 A 
ATOM     19  N   UNL     1      -2.112   0.041  -1.798  1.00  0.00    -0.231 NA
ATOM     20  N   UNL     1      -2.335   2.045  -2.715  1.00  0.00    -0.333 N 
ATOM     21  C   UNL     1      -3.551   1.435  -2.791  1.00  0.00     0.135 A 
ATOM     22  H   UNL     1      -2.125   2.973  -2.967  1.00  0.00     0.169 HD
ATOM     23  Cl  UNL     1      -4.822   2.244  -3.561  1.00  0.00    -0.062 Cl
BRANCH  18  24
ATOM     24  C   UNL     1       0.015   1.191  -2.386  1.00  0.00     0.075 C 
BRANCH  24  25
ATOM     25  C   UNL     1       0.774   1.979  -1.333  1.00  0.00     0.008 C 
BRANCH  25  26
ATOM     26  C   UNL     1       0.617   1.459   0.097  1.00  0.00    -0.003 C 
ATOM     27  C   UNL     1       1.127   0.038   0.299  1.00  0.00     0.004 C 
ENDBRANCH  25  26
ENDBRANCH  24  25
ENDBRANCH  18  24
ENDBRANCH  16  17
ENDBRANCH   8  16
ENDBRANCH   4   7
ENDBRANCH   2   3
ENDBRANCH   1   2
BRANCH   1  28
ATOM     28  C   UNL     1       3.521  -1.248  -4.820  1.00  0.00     0.002 C 
BRANCH  28  29
ATOM     29  C   UNL     1       3.683  -1.651  -6.289  1.00  0.00     0.002 C 
BRANCH  29  30
ATOM     30  C   UNL     1       3.363  -0.580  -7.342  1.00  0.00     0.021 C 
BRANCH  30  31
ATOM     31  C   UNL     1       4.130   0.721  -7.173  1.00  0.00     0.116 C 
BRANCH  31  32
ATOM     32  N   UNL     1       5.574   0.554  -7.294  1.00  0.00    -0.352 N 
ATOM     33  C   UNL     1       6.547   1.538  -7.276  1.00  0.00     0.251 C 
ATOM     34  H   UNL     1       5.896  -0.370  -7.402  1.00  0.00     0.163 HD
ATOM     35  O   UNL     1       7.657   1.327  -7.737  1.00  0.00    -0.269 OA
BRANCH  33  36
ATOM     36  C   UNL     1       6.216   2.845  -6.672  1.00  0.00     0.039 A 
ATOM     37  C   UNL     1       6.675   4.043  -7.228  1.00  0.00     0.014 A 
ATOM     38  C   UNL     1       5.427   2.852  -5.524  1.00  0.00     0.014 A 
ATOM     39  C   UNL     1       6.275   5.246  -6.649  1.00  0.00     0.010 A 
ATOM     40  C   UNL     1       4.907   4.030  -5.054  1.00  0.00     0.010 A 
ATOM     41  C   UNL     1       5.378   5.230  -5.567  1.00  0.00    -0.014 A 
BRANCH  41  42
ATOM     42  C   UNL     1       4.806   6.462  -5.038  1.00  0.00     0.031 A 
ATOM     43  C   UNL     1       4.097   7.273  -6.062  1.00  0.00     0.074 A 
ATOM     44  C   UNL     1       4.713   6.728  -3.716  1.00  0.00     0.049 A 
ATOM     45  N   UNL     1       4.477   8.396  -6.573  1.00  0.00    -0.248 NA
ATOM     46  C   UNL     1       2.921   6.685  -6.728  1.00  0.00     0.031 C 
ATOM     47  C   UNL     1       5.084   5.865  -2.586  1.00  0.00     0.029 A 
ATOM     48  N   UNL     1       4.149   7.795  -3.090  1.00  0.00    -0.354 N 
ATOM     49  C   UNL     1       3.455   8.782  -7.434  1.00  0.00     0.074 A 
ATOM     50  C   UNL     1       2.654   7.606  -7.656  1.00  0.00     0.031 C 
ATOM     51  C   UNL     1       4.518   6.332  -1.449  1.00  0.00     0.029 A 
ATOM     52  C   UNL     1       3.896   7.612  -1.732  1.00  0.00     0.049 A 
ATOM     53  H   UNL     1       3.937   8.634  -3.561  1.00  0.00     0.167 HD
ATOM     54  C   UNL     1       3.182  10.099  -7.654  1.00  0.00     0.031 A 
ATOM     55  C   UNL     1       3.207   8.444  -0.908  1.00  0.00     0.031 A 
ATOM     56  C   UNL     1       4.253  10.944  -7.187  1.00  0.00     0.049 A 
ATOM     57  C   UNL     1       3.201   9.778  -1.555  1.00  0.00     0.074 A 
ATOM     58  C   UNL     1       5.603  11.044  -7.461  1.00  0.00     0.029 A 
ATOM     59  N   UNL     1       4.067  11.566  -5.973  1.00  0.00    -0.354 N 
ATOM     60  N   UNL     1       4.281  10.483  -1.742  1.00  0.00    -0.248 NA
ATOM     61  C   UNL     1       2.082  10.108  -2.422  1.00  0.00     0.031 C 
ATOM     62  C   UNL     1       6.218  11.274  -6.194  1.00  0.00     0.029 A 
ATOM     63  C   UNL     1       5.210  11.398  -5.235  1.00  0.00     0.049 A 
ATOM     64  H   UNL     1       3.257  12.046  -5.686  1.00  0.00     0.167 HD
ATOM     65  C   UNL     1       4.141  11.011  -3.018  1.00  0.00     0.074 A 
ATOM     66  C   UNL     1       2.728  10.822  -3.349  1.00  0.00     0.031 C 
ATOM     67  C   UNL     1       5.233  11.289  -3.790  1.00  0.00     0.031 A 
BRANCH  54  68
ATOM     68  C   UNL     1       1.785  10.631  -7.874  1.00  0.00    -0.014 A 
ATOM     69  C   UNL     1       1.614  12.009  -8.116  1.00  0.00     0.010 A 
ATOM     70  C   UNL     1       0.623   9.888  -7.580  1.00  0.00     0.010 A 
ATOM     71  C   UNL     1       0.357  12.619  -8.000  1.00  0.00     0.020 A 
ATOM     72  C   UNL     1      -0.640  10.476  -7.505  1.00  0.00     0.020 A 
ATOM     73  C   UNL     1      -0.760  11.846  -7.685  1.00  0.00     0.054 A 
BRANCH  73  74
ATOM     74  S   UNL     1      -2.364  12.651  -7.456  1.00  0.00     0.124 S 
ATOM     75  O   UNL     1      -2.124  13.463  -6.268  1.00  0.00    -0.237 OA
ATOM     76  O   UNL     1      -2.519  13.385  -8.709  1.00  0.00    -0.237 OA
ATOM     77  O   UNL     1      -3.284  11.530  -7.277  1.00  0.00    -0.744 OA
ENDBRANCH  73  74
ENDBRANCH  54  68
BRANCH  55  78
ATOM     78  C   UNL     1       2.289   8.104   0.213  1.00  0.00    -0.014 A 
ATOM     79  C   UNL     1       1.825   9.096   1.101  1.00  0.00     0.010 A 
ATOM     80  C   UNL     1       1.624   6.861   0.222  1.00  0.00     0.010 A 
ATOM     81  C   UNL     1       0.692   8.879   1.909  1.00  0.00     0.020 A 
ATOM     82  C   UNL     1       0.498   6.636   1.027  1.00  0.00     0.020 A 
ATOM     83  C   UNL     1       0.020   7.657   1.847  1.00  0.00     0.054 A 
BRANCH  83  84
ATOM     84  S   UNL     1      -1.557   7.449   2.732  1.00  0.00     0.124 S 
ATOM     85  O   UNL     1      -1.126   7.386   4.125  1.00  0.00    -0.237 OA
ATOM     86  O   UNL     1      -2.297   8.648   2.351  1.00  0.00    -0.237 OA
ATOM     87  O   UNL     1      -2.089   6.200   2.189  1.00  0.00    -0.744 OA
ENDBRANCH  83  84
ENDBRANCH  55  78
BRANCH  67  88
ATOM     88  C   UNL     1       6.597  11.297  -3.132  1.00  0.00    -0.014 A 
ATOM     89  C   UNL     1       7.181  10.190  -2.482  1.00  0.00     0.010 A 
ATOM     90  C   UNL     1       7.373  12.458  -3.292  1.00  0.00     0.010 A 
ATOM     91  C   UNL     1       8.488  10.264  -1.971  1.00  0.00     0.020 A 
ATOM     92  C   UNL     1       8.679  12.532  -2.806  1.00  0.00     0.020 A 
ATOM     93  C   UNL     1       9.227  11.440  -2.133  1.00  0.00     0.054 A 
BRANCH  93  94
ATOM     94  S   UNL     1      10.917  11.540  -1.476  1.00  0.00     0.124 S 
ATOM     95  O   UNL     1      10.700  11.495  -0.033  1.00  0.00    -0.237 OA
ATOM     96  O   UNL     1      11.560  10.363  -2.054  1.00  0.00    -0.237 OA
ATOM     97  O   UNL     1      11.413  12.819  -1.986  1.00  0.00    -0.744 OA
ENDBRANCH  93  94
ENDBRANCH  67  88
ENDBRANCH  41  42
ENDBRANCH  33  36
ENDBRANCH  31  32
ENDBRANCH  30  31
ENDBRANCH  29  30
ENDBRANCH  28  29
ENDBRANCH   1  28
TORSDOF 21
