REMARK SMILES CCCCNC(=O)[C@]1(C)CC[C@@](C)(C(=O)NCCCCCCNC(=O)c2ccc(-c3c4nc(c(-c5ccc(S(=O)(=O)[O-])cc5)c5ccc([nH]5)c(-c5ccc(S(=O)(=O)[O-])cc5)c5nc(c(-c6ccc(S(=O)(=O)[O-])cc6)c6ccc3[nH]6)C=C5)C=C4)cc2)C1(C)C
REMARK SMILES IDX 19 1 18 2 17 3 16 4 14 5 15 6 12 8 8 9 10 10 86 11 9 12
REMARK SMILES IDX 11 13 87 14 88 15 13 16 6 17 5 18 7 20 4 21 3 22 2 23 1 24
REMARK SMILES IDX 20 25 21 26 22 27 23 28 24 29 25 31 26 32 27 33 85 34 28 35
REMARK SMILES IDX 84 36 29 37 30 38 31 39 78 40 32 41 83 42 77 43 79 44 33 45
REMARK SMILES IDX 82 46 76 47 75 48 34 50 64 51 45 52 63 53 46 54 49 55 62 56
REMARK SMILES IDX 80 57 47 58 48 59 61 61 81 62 50 63 35 64 36 65 44 66 37 67
REMARK SMILES IDX 43 68 38 69 39 70 40 71 41 72 42 73 65 74 66 75 74 76 67 77
REMARK SMILES IDX 73 78 68 79 69 80 70 81 71 82 72 83 51 84 52 85 60 86 53 87
REMARK SMILES IDX 59 88 54 89 55 90 56 91 57 92 58 93
REMARK H PARENT 16 7 5 19 23 30 79 49 49 60
REMARK Flexibility Score: inf
ROOT
ATOM      1  C   UNL     1      -3.481   9.352   8.719  1.00  0.00     0.002 C 
ENDROOT
BRANCH   1   2
ATOM      2  C   UNL     1      -2.286   9.134   7.785  1.00  0.00     0.021 C 
BRANCH   2   3
ATOM      3  C   UNL     1      -1.744   7.710   7.728  1.00  0.00     0.116 C 
BRANCH   3   4
ATOM      4  N   UNL     1      -2.750   6.726   7.368  1.00  0.00    -0.356 N 
ATOM      5  C   UNL     1      -2.675   5.542   6.687  1.00  0.00     0.226 C 
ATOM      6  O   UNL     1      -3.740   4.924   6.640  1.00  0.00    -0.274 OA
ATOM      7  H   UNL     1      -3.658   6.954   7.673  1.00  0.00     0.163 HD
BRANCH   5   8
ATOM      8  C   UNL     1      -1.372   5.109   5.928  1.00  0.00     0.052 C 
ATOM      9  C   UNL     1      -1.072   4.098   3.590  1.00  0.00     0.052 C 
ATOM     10  C   UNL     1      -1.795   5.437   3.540  1.00  0.00     0.018 C 
ATOM     11  C   UNL     1      -1.385   3.683   5.115  1.00  0.00    -0.007 C 
ATOM     12  C   UNL     1      -1.688   3.151   2.538  1.00  0.00     0.022 C 
ATOM     13  C   UNL     1      -1.278   6.158   4.773  1.00  0.00     0.018 C 
ATOM     14  C   UNL     1      -2.751   2.943   5.206  1.00  0.00     0.013 C 
ATOM     15  C   UNL     1      -0.401   2.620   5.666  1.00  0.00     0.013 C 
ATOM     16  C   UNL     1      -0.160   5.223   6.894  1.00  0.00     0.022 C 
BRANCH   9  17
ATOM     17  C   UNL     1       0.457   4.089   3.250  1.00  0.00     0.226 C 
ATOM     18  N   UNL     1       1.207   5.101   2.755  1.00  0.00    -0.356 N 
ATOM     19  H   UNL     1       2.166   4.879   2.770  1.00  0.00     0.163 HD
ATOM     20  O   UNL     1       1.095   3.030   3.356  1.00  0.00    -0.274 OA
BRANCH  18  21
ATOM     21  C   UNL     1       0.978   6.429   2.206  1.00  0.00     0.116 C 
BRANCH  21  22
ATOM     22  C   UNL     1       1.822   7.501   2.898  1.00  0.00     0.021 C 
BRANCH  22  23
ATOM     23  C   UNL     1       3.309   7.489   2.540  1.00  0.00    -0.002 C 
ATOM     24  C   UNL     1       3.575   7.753   1.065  1.00  0.00     0.004 C 
ENDBRANCH  22  23
ENDBRANCH  21  22
ENDBRANCH  18  21
ENDBRANCH   9  17
ENDBRANCH   5   8
ENDBRANCH   3   4
ENDBRANCH   2   3
ENDBRANCH   1   2
BRANCH   1  25
ATOM     25  C   UNL     1      -3.318   8.835  10.151  1.00  0.00     0.002 C 
BRANCH  25  26
ATOM     26  C   UNL     1      -2.095   9.350  10.911  1.00  0.00     0.021 C 
BRANCH  26  27
ATOM     27  C   UNL     1      -1.932  10.865  10.932  1.00  0.00     0.116 C 
BRANCH  27  28
ATOM     28  N   UNL     1      -3.060  11.543  11.546  1.00  0.00    -0.352 N 
ATOM     29  C   UNL     1      -3.065  12.512  12.520  1.00  0.00     0.251 C 
ATOM     30  H   UNL     1      -3.947  11.270  11.217  1.00  0.00     0.163 HD
ATOM     31  O   UNL     1      -4.120  12.866  13.029  1.00  0.00    -0.269 OA
BRANCH  29  32
ATOM     32  C   UNL     1      -1.784  13.103  12.969  1.00  0.00     0.039 A 
ATOM     33  C   UNL     1      -1.553  13.246  14.339  1.00  0.00     0.014 A 
ATOM     34  C   UNL     1      -0.814  13.505  12.047  1.00  0.00     0.014 A 
ATOM     35  C   UNL     1      -0.323  13.735  14.785  1.00  0.00     0.010 A 
ATOM     36  C   UNL     1       0.438  13.918  12.494  1.00  0.00     0.010 A 
ATOM     37  C   UNL     1       0.696  14.042  13.868  1.00  0.00    -0.014 A 
BRANCH  37  38
ATOM     38  C   UNL     1       2.035  14.496  14.327  1.00  0.00     0.031 A 
ATOM     39  C   UNL     1       2.533  15.869  13.966  1.00  0.00     0.074 A 
ATOM     40  C   UNL     1       2.822  13.653  15.025  1.00  0.00     0.049 A 
ATOM     41  N   UNL     1       3.688  16.424  14.232  1.00  0.00    -0.248 NA
ATOM     42  C   UNL     1       1.625  16.724  13.183  1.00  0.00     0.031 C 
ATOM     43  C   UNL     1       2.468  12.285  15.411  1.00  0.00     0.029 A 
ATOM     44  N   UNL     1       4.086  13.822  15.533  1.00  0.00    -0.354 N 
ATOM     45  C   UNL     1       3.649  17.683  13.644  1.00  0.00     0.074 A 
ATOM     46  C   UNL     1       2.381  17.788  12.957  1.00  0.00     0.031 C 
ATOM     47  C   UNL     1       3.475  11.753  16.122  1.00  0.00     0.029 A 
ATOM     48  C   UNL     1       4.565  12.720  16.203  1.00  0.00     0.049 A 
ATOM     49  H   UNL     1       4.602  14.654  15.428  1.00  0.00     0.167 HD
ATOM     50  C   UNL     1       4.575  18.671  13.690  1.00  0.00     0.031 A 
ATOM     51  C   UNL     1       5.750  12.507  16.808  1.00  0.00     0.031 A 
ATOM     52  C   UNL     1       5.835  18.563  14.377  1.00  0.00     0.049 A 
ATOM     53  C   UNL     1       6.776  13.608  16.815  1.00  0.00     0.074 A 
ATOM     54  C   UNL     1       6.822  19.522  14.517  1.00  0.00     0.029 A 
ATOM     55  N   UNL     1       6.284  17.428  15.036  1.00  0.00    -0.354 N 
ATOM     56  N   UNL     1       6.696  14.814  16.304  1.00  0.00    -0.248 NA
ATOM     57  C   UNL     1       8.050  13.324  17.491  1.00  0.00     0.031 C 
ATOM     58  C   UNL     1       7.893  18.948  15.210  1.00  0.00     0.029 A 
ATOM     59  C   UNL     1       7.545  17.654  15.561  1.00  0.00     0.049 A 
ATOM     60  H   UNL     1       5.780  16.586  15.118  1.00  0.00     0.167 HD
ATOM     61  C   UNL     1       7.894  15.442  16.626  1.00  0.00     0.074 A 
ATOM     62  C   UNL     1       8.674  14.489  17.388  1.00  0.00     0.031 C 
ATOM     63  C   UNL     1       8.310  16.696  16.320  1.00  0.00     0.031 A 
BRANCH  50  64
ATOM     64  C   UNL     1       4.259  19.956  12.968  1.00  0.00    -0.014 A 
ATOM     65  C   UNL     1       3.243  20.816  13.425  1.00  0.00     0.010 A 
ATOM     66  C   UNL     1       5.016  20.332  11.843  1.00  0.00     0.010 A 
ATOM     67  C   UNL     1       2.961  22.004  12.746  1.00  0.00     0.020 A 
ATOM     68  C   UNL     1       4.758  21.536  11.180  1.00  0.00     0.020 A 
ATOM     69  C   UNL     1       3.719  22.356  11.626  1.00  0.00     0.054 A 
BRANCH  69  70
ATOM     70  S   UNL     1       3.344  23.915  10.779  1.00  0.00     0.124 S 
ATOM     71  O   UNL     1       2.065  23.610  10.141  1.00  0.00    -0.237 OA
ATOM     72  O   UNL     1       3.284  24.871  11.881  1.00  0.00    -0.237 OA
ATOM     73  O   UNL     1       4.468  24.092   9.863  1.00  0.00    -0.744 OA
ENDBRANCH  69  70
ENDBRANCH  50  64
BRANCH  51  74
ATOM     74  C   UNL     1       6.029  11.201  17.468  1.00  0.00    -0.014 A 
ATOM     75  C   UNL     1       6.147  11.118  18.867  1.00  0.00     0.010 A 
ATOM     76  C   UNL     1       6.179  10.032  16.701  1.00  0.00     0.010 A 
ATOM     77  C   UNL     1       6.435   9.896  19.483  1.00  0.00     0.020 A 
ATOM     78  C   UNL     1       6.435   8.803  17.315  1.00  0.00     0.020 A 
ATOM     79  C   UNL     1       6.575   8.746  18.703  1.00  0.00     0.054 A 
BRANCH  79  80
ATOM     80  S   UNL     1       6.910   7.165  19.528  1.00  0.00     0.124 S 
ATOM     81  O   UNL     1       8.295   7.333  19.956  1.00  0.00    -0.237 OA
ATOM     82  O   UNL     1       5.913   7.151  20.596  1.00  0.00    -0.237 OA
ATOM     83  O   UNL     1       6.696   6.177  18.473  1.00  0.00    -0.744 OA
ENDBRANCH  79  80
ENDBRANCH  51  74
BRANCH  63  84
ATOM     84  C   UNL     1       9.655  17.130  16.843  1.00  0.00    -0.014 A 
ATOM     85  C   UNL     1      10.850  16.600  16.325  1.00  0.00     0.010 A 
ATOM     86  C   UNL     1       9.721  18.127  17.834  1.00  0.00     0.010 A 
ATOM     87  C   UNL     1      12.085  17.036  16.812  1.00  0.00     0.020 A 
ATOM     88  C   UNL     1      10.954  18.589  18.301  1.00  0.00     0.020 A 
ATOM     89  C   UNL     1      12.129  18.029  17.796  1.00  0.00     0.054 A 
BRANCH  89  90
ATOM     90  S   UNL     1      13.746  18.609  18.377  1.00  0.00     0.124 S 
ATOM     91  O   UNL     1      14.211  17.473  19.167  1.00  0.00    -0.237 OA
ATOM     92  O   UNL     1      14.469  18.844  17.128  1.00  0.00    -0.237 OA
ATOM     93  O   UNL     1      13.429  19.813  19.142  1.00  0.00    -0.744 OA
ENDBRANCH  89  90
ENDBRANCH  63  84
ENDBRANCH  37  38
ENDBRANCH  29  32
ENDBRANCH  27  28
ENDBRANCH  26  27
ENDBRANCH  25  26
ENDBRANCH   1  25
TORSDOF 20
