REMARK SMILES Cc1ccc(S(=O)(=O)n2cc(C(=O)C(=O)N[C@@H](Cc3c[nH]c4ccccc34)C(=O)NCCCCCCNC(=O)c3ccc(-c4c5nc(c(-c6ccc(S(=O)(=O)[O-])cc6)c6ccc([nH]6)c(-c6ccc(S(=O)(=O)[O-])cc6)c6nc(c(-c7ccc(S(=O)(=O)[O-])cc7)c7ccc4[nH]7)C=C6)C=C5)cc3)c3ccccc32)cc1
REMARK SMILES IDX 32 1 31 2 30 3 28 4 29 5 17 7 16 8 14 9 15 10 12 12 13 13
REMARK SMILES IDX 11 14 9 15 10 16 105 17 100 18 104 19 101 20 103 21 102 22
REMARK SMILES IDX 6 23 7 24 8 25 5 26 1 27 2 28 3 29 107 30 4 31 106 32 18 33
REMARK SMILES IDX 19 34 20 35 27 36 21 37 22 38 26 39 23 41 25 42 24 43 33 44
REMARK SMILES IDX 34 45 35 46 36 47 37 48 38 49 39 51 40 52 41 53 99 54 42 55
REMARK SMILES IDX 98 56 43 57 44 58 45 59 92 60 46 61 97 62 91 63 93 64 47 65
REMARK SMILES IDX 96 66 90 67 89 68 48 70 78 71 59 72 77 73 60 74 63 75 76 76
REMARK SMILES IDX 94 77 61 78 62 79 75 81 95 82 64 83 49 84 50 85 58 86 51 87
REMARK SMILES IDX 57 88 52 89 53 90 54 91 55 92 56 93 79 94 80 95 88 96 81 97
REMARK SMILES IDX 87 98 82 99 83 100 84 101 85 102 86 103 65 104 66 105 74 106
REMARK SMILES IDX 67 107 73 108 68 109 69 110 70 111 71 112 72 113
REMARK H PARENT 30 6 16 11 21 40 37 50 93 69 63 80
REMARK Flexibility Score: inf
ROOT
ATOM      1  C   UNL     1     -12.292   5.441  -2.508  1.00  0.00     0.021 C 
ENDROOT
BRANCH   1   2
ATOM      2  C   UNL     1     -12.285   4.269  -1.533  1.00  0.00     0.116 C 
BRANCH   2   3
ATOM      3  N   UNL     1     -12.065   2.955  -2.096  1.00  0.00    -0.354 N 
ATOM      4  C   UNL     1     -11.588   1.839  -1.462  1.00  0.00     0.242 C 
ATOM      5  O   UNL     1     -12.032   0.750  -1.855  1.00  0.00    -0.273 OA
ATOM      6  H   UNL     1     -12.285   2.851  -3.050  1.00  0.00     0.163 HD
BRANCH   4   7
ATOM      7  C   UNL     1     -10.650   1.874  -0.215  1.00  0.00     0.176 C 
BRANCH   7   8
ATOM      8  N   UNL     1      -9.502   2.805  -0.257  1.00  0.00    -0.337 N 
ATOM      9  C   UNL     1      -8.155   2.557  -0.505  1.00  0.00     0.293 C 
ATOM     10  O   UNL     1      -7.312   3.426  -0.309  1.00  0.00    -0.265 OA
ATOM     11  H   UNL     1      -9.726   3.748  -0.083  1.00  0.00     0.164 HD
BRANCH   9  12
ATOM     12  C   UNL     1      -7.700   1.194  -1.045  1.00  0.00     0.252 C 
ATOM     13  O   UNL     1      -8.376   0.726  -1.961  1.00  0.00    -0.283 OA
BRANCH  12  14
ATOM     14  C   UNL     1      -6.599   0.412  -0.440  1.00  0.00     0.054 A 
ATOM     15  N   UNL     1      -4.651  -0.361   0.434  1.00  0.00    -0.240 N 
ATOM     16  C   UNL     1      -5.284   0.763  -0.101  1.00  0.00     0.117 A 
ATOM     17  C   UNL     1      -5.624  -1.358   0.606  1.00  0.00     0.065 A 
ATOM     18  C   UNL     1      -6.697  -0.996  -0.204  1.00  0.00     0.012 A 
ATOM     19  C   UNL     1      -5.548  -2.638   1.194  1.00  0.00     0.028 A 
ATOM     20  C   UNL     1      -7.617  -1.998  -0.587  1.00  0.00     0.011 A 
ATOM     21  C   UNL     1      -6.440  -3.618   0.763  1.00  0.00     0.002 A 
ATOM     22  C   UNL     1      -7.437  -3.313  -0.151  1.00  0.00     0.001 A 
BRANCH  15  23
ATOM     23  S   UNL     1      -3.113  -1.020  -0.076  1.00  0.00     0.268 S 
ATOM     24  O   UNL     1      -3.357  -1.413  -1.454  1.00  0.00    -0.201 OA
ATOM     25  O   UNL     1      -2.835  -2.022   0.946  1.00  0.00    -0.201 OA
BRANCH  23  26
ATOM     26  C   UNL     1      -1.596  -0.131  -0.103  1.00  0.00     0.088 A 
ATOM     27  C   UNL     1       2.529   1.161  -0.024  1.00  0.00     0.044 C 
ATOM     28  C   UNL     1       1.085   0.751  -0.086  1.00  0.00    -0.051 A 
ATOM     29  C   UNL     1       0.803  -0.577  -0.381  1.00  0.00     0.005 A 
ATOM     30  C   UNL     1       0.014   1.630   0.191  1.00  0.00     0.005 A 
ATOM     31  C   UNL     1      -0.515  -1.000  -0.399  1.00  0.00     0.022 A 
ATOM     32  C   UNL     1      -1.337   1.197   0.189  1.00  0.00     0.022 A 
ENDBRANCH  23  26
ENDBRANCH  15  23
ENDBRANCH  12  14
ENDBRANCH   9  12
ENDBRANCH   7   8
BRANCH   7  33
ATOM     33  C   UNL     1     -11.427   1.898   1.137  1.00  0.00     0.072 C 
BRANCH  33  34
ATOM     34  C   UNL     1     -12.229   3.126   1.487  1.00  0.00    -0.020 A 
ATOM     35  C   UNL     1     -13.611   3.198   1.543  1.00  0.00     0.087 A 
ATOM     36  C   UNL     1     -11.746   4.439   1.815  1.00  0.00     0.003 A 
ATOM     37  N   UNL     1     -13.973   4.500   1.773  1.00  0.00    -0.361 N 
ATOM     38  C   UNL     1     -12.852   5.291   1.861  1.00  0.00     0.046 A 
ATOM     39  C   UNL     1     -10.467   5.008   1.984  1.00  0.00     0.010 A 
ATOM     40  H   UNL     1     -14.899   4.822   1.862  1.00  0.00     0.166 HD
ATOM     41  C   UNL     1     -12.739   6.683   1.959  1.00  0.00     0.026 A 
ATOM     42  C   UNL     1     -10.332   6.399   2.063  1.00  0.00     0.001 A 
ATOM     43  C   UNL     1     -11.453   7.223   2.028  1.00  0.00     0.002 A 
ENDBRANCH  33  34
ENDBRANCH   7  33
ENDBRANCH   4   7
ENDBRANCH   2   3
ENDBRANCH   1   2
BRANCH   1  44
ATOM     44  C   UNL     1     -13.480   5.579  -3.466  1.00  0.00     0.002 C 
BRANCH  44  45
ATOM     45  C   UNL     1     -14.908   5.527  -2.899  1.00  0.00     0.002 C 
BRANCH  45  46
ATOM     46  C   UNL     1     -15.209   6.318  -1.626  1.00  0.00     0.021 C 
BRANCH  46  47
ATOM     47  C   UNL     1     -14.974   7.821  -1.715  1.00  0.00     0.116 C 
BRANCH  47  48
ATOM     48  N   UNL     1     -16.205   8.600  -1.685  1.00  0.00    -0.352 N 
ATOM     49  C   UNL     1     -16.334   9.949  -1.393  1.00  0.00     0.251 C 
ATOM     50  H   UNL     1     -17.036   8.115  -1.894  1.00  0.00     0.163 HD
ATOM     51  O   UNL     1     -17.396  10.468  -1.100  1.00  0.00    -0.269 OA
BRANCH  49  52
ATOM     52  C   UNL     1     -15.123  10.771  -1.585  1.00  0.00     0.039 A 
ATOM     53  C   UNL     1     -15.060  11.548  -2.748  1.00  0.00     0.014 A 
ATOM     54  C   UNL     1     -13.992  10.537  -0.809  1.00  0.00     0.014 A 
ATOM     55  C   UNL     1     -13.820  11.951  -3.233  1.00  0.00     0.010 A 
ATOM     56  C   UNL     1     -12.758  10.862  -1.338  1.00  0.00     0.010 A 
ATOM     57  C   UNL     1     -12.667  11.527  -2.571  1.00  0.00    -0.014 A 
BRANCH  57  58
ATOM     58  C   UNL     1     -11.327  11.648  -3.134  1.00  0.00     0.031 A 
ATOM     59  C   UNL     1     -10.377  12.651  -2.600  1.00  0.00     0.074 A 
ATOM     60  C   UNL     1     -10.903  10.801  -4.100  1.00  0.00     0.049 A 
ATOM     61  N   UNL     1      -9.374  13.128  -3.263  1.00  0.00    -0.248 NA
ATOM     62  C   UNL     1     -10.521  13.239  -1.273  1.00  0.00     0.031 C 
ATOM     63  C   UNL     1      -9.519  10.578  -4.511  1.00  0.00     0.029 A 
ATOM     64  N   UNL     1     -11.653  10.130  -5.066  1.00  0.00    -0.354 N 
ATOM     65  C   UNL     1      -8.582  13.813  -2.370  1.00  0.00     0.074 A 
ATOM     66  C   UNL     1      -9.385  13.935  -1.173  1.00  0.00     0.031 C 
ATOM     67  C   UNL     1      -9.516  10.113  -5.769  1.00  0.00     0.029 A 
ATOM     68  C   UNL     1     -10.887  10.153  -6.244  1.00  0.00     0.049 A 
ATOM     69  H   UNL     1     -12.541   9.722  -4.947  1.00  0.00     0.167 HD
ATOM     70  C   UNL     1      -7.277  14.069  -2.672  1.00  0.00     0.031 A 
ATOM     71  C   UNL     1     -11.297  10.688  -7.430  1.00  0.00     0.031 A 
ATOM     72  C   UNL     1      -6.920  13.623  -4.017  1.00  0.00     0.049 A 
ATOM     73  C   UNL     1     -10.344  11.721  -7.992  1.00  0.00     0.074 A 
ATOM     74  C   UNL     1      -6.213  12.532  -4.498  1.00  0.00     0.029 A 
ATOM     75  N   UNL     1      -7.522  14.215  -5.119  1.00  0.00    -0.354 N 
ATOM     76  N   UNL     1      -9.367  12.258  -7.317  1.00  0.00    -0.248 NA
ATOM     77  C   UNL     1     -10.459  12.280  -9.334  1.00  0.00     0.031 C 
ATOM     78  C   UNL     1      -6.406  12.463  -5.902  1.00  0.00     0.029 A 
ATOM     79  C   UNL     1      -7.223  13.515  -6.273  1.00  0.00     0.049 A 
ATOM     80  H   UNL     1      -8.085  15.022  -5.084  1.00  0.00     0.167 HD
ATOM     81  C   UNL     1      -8.749  13.223  -8.074  1.00  0.00     0.074 A 
ATOM     82  C   UNL     1      -9.460  13.181  -9.339  1.00  0.00     0.031 C 
ATOM     83  C   UNL     1      -7.727  13.976  -7.564  1.00  0.00     0.031 A 
BRANCH  70  84
ATOM     84  C   UNL     1      -6.249  14.454  -1.627  1.00  0.00    -0.014 A 
ATOM     85  C   UNL     1      -4.901  14.075  -1.802  1.00  0.00     0.010 A 
ATOM     86  C   UNL     1      -6.549  15.132  -0.431  1.00  0.00     0.010 A 
ATOM     87  C   UNL     1      -3.940  14.245  -0.793  1.00  0.00     0.020 A 
ATOM     88  C   UNL     1      -5.611  15.273   0.604  1.00  0.00     0.020 A 
ATOM     89  C   UNL     1      -4.312  14.811   0.422  1.00  0.00     0.054 A 
BRANCH  89  90
ATOM     90  S   UNL     1      -3.091  14.918   1.756  1.00  0.00     0.124 S 
ATOM     91  O   UNL     1      -2.654  13.531   1.896  1.00  0.00    -0.237 OA
ATOM     92  O   UNL     1      -2.102  15.838   1.203  1.00  0.00    -0.237 OA
ATOM     93  O   UNL     1      -3.859  15.436   2.887  1.00  0.00    -0.744 OA
ENDBRANCH  89  90
ENDBRANCH  70  84
BRANCH  71  94
ATOM     94  C   UNL     1     -12.772  10.703  -7.620  1.00  0.00    -0.014 A 
ATOM     95  C   UNL     1     -13.415   9.461  -7.809  1.00  0.00     0.010 A 
ATOM     96  C   UNL     1     -13.527  11.805  -7.184  1.00  0.00     0.010 A 
ATOM     97  C   UNL     1     -14.736   9.279  -7.399  1.00  0.00     0.020 A 
ATOM     98  C   UNL     1     -14.856  11.625  -6.778  1.00  0.00     0.020 A 
ATOM     99  C   UNL     1     -15.425  10.348  -6.824  1.00  0.00     0.054 A 
BRANCH  99 100
ATOM    100  S   UNL     1     -16.988   9.992  -5.966  1.00  0.00     0.124 S 
ATOM    101  O   UNL     1     -17.803   9.409  -7.027  1.00  0.00    -0.237 OA
ATOM    102  O   UNL     1     -16.556   9.064  -4.921  1.00  0.00    -0.237 OA
ATOM    103  O   UNL     1     -17.416  11.304  -5.490  1.00  0.00    -0.744 OA
ENDBRANCH  99 100
ENDBRANCH  71  94
BRANCH  83 104
ATOM    104  C   UNL     1      -7.042  15.178  -8.194  1.00  0.00    -0.014 A 
ATOM    105  C   UNL     1      -7.449  15.825  -9.369  1.00  0.00     0.010 A 
ATOM    106  C   UNL     1      -5.936  15.759  -7.516  1.00  0.00     0.010 A 
ATOM    107  C   UNL     1      -6.780  16.963  -9.855  1.00  0.00     0.020 A 
ATOM    108  C   UNL     1      -5.284  16.910  -7.969  1.00  0.00     0.020 A 
ATOM    109  C   UNL     1      -5.702  17.498  -9.153  1.00  0.00     0.054 A 
BRANCH 109 110
ATOM    110  S   UNL     1      -4.898  19.002  -9.760  1.00  0.00     0.124 S 
ATOM    111  O   UNL     1      -3.996  18.473 -10.779  1.00  0.00    -0.237 OA
ATOM    112  O   UNL     1      -6.021  19.788 -10.265  1.00  0.00    -0.237 OA
ATOM    113  O   UNL     1      -4.249  19.551  -8.572  1.00  0.00    -0.744 OA
ENDBRANCH 109 110
ENDBRANCH  83 104
ENDBRANCH  57  58
ENDBRANCH  49  52
ENDBRANCH  47  48
ENDBRANCH  46  47
ENDBRANCH  45  46
ENDBRANCH  44  45
ENDBRANCH   1  44
TORSDOF 23
