REMARK SMILES COc1c(Cl)cc(C[NH2+][C@@H](Cc2c[nH]c3ccccc23)C(=O)NCCCCCCNC(=O)c2ccc(-c3c4nc(c(-c5ccc(S(=O)(=O)[O-])cc5)c5ccc([nH]5)c(-c5ccc(S(=O)(=O)[O-])cc5)c5nc(c(-c6ccc(S(=O)(=O)[O-])cc6)c6ccc3[nH]6)C=C5)C=C4)cc2)cc1Cl
REMARK SMILES IDX 26 1 25 2 24 3 23 4 21 5 22 6 10 8 9 9 8 12 7 13 3 14 4 15
REMARK SMILES IDX 94 16 5 17 6 18 93 19 95 20 2 21 1 22 11 23 12 24 13 25
REMARK SMILES IDX 20 26 14 27 15 28 19 29 16 31 18 32 17 33 27 34 28 35 29 36
REMARK SMILES IDX 30 37 31 38 32 40 33 41 34 42 92 43 35 44 91 45 36 46 37 47
REMARK SMILES IDX 38 48 85 49 39 50 90 51 84 52 86 53 40 54 89 55 83 56 82 57
REMARK SMILES IDX 41 59 71 60 52 61 70 62 53 63 56 64 69 65 87 66 54 67 55 68
REMARK SMILES IDX 68 70 88 71 57 72 42 73 43 74 51 75 44 76 50 77 45 78 46 79
REMARK SMILES IDX 47 80 48 81 49 82 72 83 73 84 81 85 74 86 80 87 75 88 76 89
REMARK SMILES IDX 77 90 78 91 79 92 58 93 59 94 67 95 60 96 66 97 61 98 62 99
REMARK SMILES IDX 63 100 64 101 65 102
REMARK H PARENT 23 7 9 10 9 11 14 30 30 39 86 58 56 69
REMARK Flexibility Score: inf
ROOT
ATOM      1  C   UNL     1       2.806  -9.297   3.548  1.00  0.00     0.002 C 
ENDROOT
BRANCH   1   2
ATOM      2  C   UNL     1       2.617  -8.213   2.482  1.00  0.00     0.021 C 
BRANCH   2   3
ATOM      3  C   UNL     1       3.241  -8.550   1.135  1.00  0.00     0.116 C 
BRANCH   3   4
ATOM      4  N   UNL     1       2.449  -9.450   0.324  1.00  0.00    -0.351 N 
ATOM      5  C   UNL     1       2.296  -9.522  -1.032  1.00  0.00     0.278 C 
ATOM      6  O   UNL     1       1.844 -10.582  -1.485  1.00  0.00    -0.268 OA
ATOM      7  H   UNL     1       1.937 -10.121   0.832  1.00  0.00     0.163 HD
BRANCH   5   8
ATOM      8  C   UNL     1       2.666  -8.368  -2.004  1.00  0.00     0.277 C 
BRANCH   8   9
ATOM      9  N   UNL     1       2.104  -7.087  -1.524  1.00  0.00    -0.332 N 
ATOM     10  H   UNL     1       1.125  -7.242  -1.283  1.00  0.00     0.347 HD
ATOM     11  H   UNL     1       2.679  -6.804  -0.731  1.00  0.00     0.347 HD
BRANCH   9  12
ATOM     12  C   UNL     1       2.165  -5.990  -2.479  1.00  0.00     0.298 C 
BRANCH  12  13
ATOM     13  C   UNL     1       1.782  -4.711  -1.764  1.00  0.00     0.009 A 
ATOM     14  C   UNL     1       1.134  -2.437  -0.213  1.00  0.00     0.156 A 
ATOM     15  C   UNL     1       2.440  -2.630  -0.681  1.00  0.00     0.085 A 
ATOM     16  C   UNL     1       0.159  -3.398  -0.515  1.00  0.00     0.085 A 
ATOM     17  Cl  UNL     1       3.741  -1.567  -0.278  1.00  0.00    -0.080 Cl
ATOM     18  C   UNL     1       2.756  -3.750  -1.460  1.00  0.00     0.034 A 
ATOM     19  C   UNL     1       0.478  -4.521  -1.287  1.00  0.00     0.034 A 
ATOM     20  Cl  UNL     1      -1.463  -3.247   0.064  1.00  0.00    -0.080 Cl
BRANCH  14  21
ATOM     21  O   UNL     1       0.796  -1.413   0.636  1.00  0.00    -0.494 OA
ATOM     22  C   UNL     1       0.823  -0.133   0.006  1.00  0.00     0.278 C 
ENDBRANCH  14  21
ENDBRANCH  12  13
ENDBRANCH   9  12
ENDBRANCH   8   9
BRANCH   8  23
ATOM     23  C   UNL     1       4.143  -8.436  -2.461  1.00  0.00     0.113 C 
BRANCH  23  24
ATOM     24  C   UNL     1       5.200  -8.175  -1.431  1.00  0.00    -0.016 A 
ATOM     25  C   UNL     1       5.683  -6.946  -1.022  1.00  0.00     0.087 A 
ATOM     26  C   UNL     1       5.918  -9.168  -0.681  1.00  0.00     0.003 A 
ATOM     27  N   UNL     1       6.619  -7.151  -0.041  1.00  0.00    -0.361 N 
ATOM     28  C   UNL     1       6.756  -8.496   0.210  1.00  0.00     0.046 A 
ATOM     29  C   UNL     1       5.880 -10.578  -0.632  1.00  0.00     0.010 A 
ATOM     30  H   UNL     1       7.120  -6.438   0.418  1.00  0.00     0.166 HD
ATOM     31  C   UNL     1       7.537  -9.161   1.163  1.00  0.00     0.026 A 
ATOM     32  C   UNL     1       6.647 -11.257   0.322  1.00  0.00     0.001 A 
ATOM     33  C   UNL     1       7.456 -10.556   1.211  1.00  0.00     0.002 A 
ENDBRANCH  23  24
ENDBRANCH   8  23
ENDBRANCH   5   8
ENDBRANCH   3   4
ENDBRANCH   2   3
ENDBRANCH   1   2
BRANCH   1  34
ATOM     34  C   UNL     1       4.247  -9.775   3.776  1.00  0.00     0.002 C 
BRANCH  34  35
ATOM     35  C   UNL     1       5.292  -8.677   3.999  1.00  0.00     0.021 C 
BRANCH  35  36
ATOM     36  C   UNL     1       5.025  -7.758   5.184  1.00  0.00     0.116 C 
BRANCH  36  37
ATOM     37  N   UNL     1       4.992  -8.482   6.442  1.00  0.00    -0.352 N 
ATOM     38  C   UNL     1       5.694  -8.265   7.601  1.00  0.00     0.251 C 
ATOM     39  H   UNL     1       4.372  -9.246   6.468  1.00  0.00     0.163 HD
ATOM     40  O   UNL     1       5.667  -9.108   8.493  1.00  0.00    -0.269 OA
BRANCH  38  41
ATOM     41  C   UNL     1       6.496  -7.032   7.773  1.00  0.00     0.039 A 
ATOM     42  C   UNL     1       7.746  -7.124   8.392  1.00  0.00     0.014 A 
ATOM     43  C   UNL     1       6.012  -5.787   7.361  1.00  0.00     0.014 A 
ATOM     44  C   UNL     1       8.529  -5.978   8.553  1.00  0.00     0.010 A 
ATOM     45  C   UNL     1       6.825  -4.660   7.451  1.00  0.00     0.010 A 
ATOM     46  C   UNL     1       8.087  -4.740   8.059  1.00  0.00    -0.014 A 
BRANCH  46  47
ATOM     47  C   UNL     1       8.920  -3.516   8.184  1.00  0.00     0.031 A 
ATOM     48  C   UNL     1       8.437  -2.354   9.010  1.00  0.00     0.074 A 
ATOM     49  C   UNL     1      10.085  -3.429   7.511  1.00  0.00     0.049 A 
ATOM     50  N   UNL     1       8.995  -1.185   9.195  1.00  0.00    -0.248 NA
ATOM     51  C   UNL     1       7.146  -2.518   9.698  1.00  0.00     0.031 C 
ATOM     52  C   UNL     1      10.649  -4.473   6.653  1.00  0.00     0.029 A 
ATOM     53  N   UNL     1      11.003  -2.411   7.442  1.00  0.00    -0.354 N 
ATOM     54  C   UNL     1       8.118  -0.470  10.003  1.00  0.00     0.074 A 
ATOM     55  C   UNL     1       6.967  -1.317  10.227  1.00  0.00     0.031 C 
ATOM     56  C   UNL     1      11.830  -4.055   6.171  1.00  0.00     0.029 A 
ATOM     57  C   UNL     1      12.088  -2.700   6.648  1.00  0.00     0.049 A 
ATOM     58  H   UNL     1      10.895  -1.555   7.916  1.00  0.00     0.167 HD
ATOM     59  C   UNL     1       8.264   0.770  10.530  1.00  0.00     0.031 A 
ATOM     60  C   UNL     1      13.168  -1.958   6.336  1.00  0.00     0.031 A 
ATOM     61  C   UNL     1       9.413   1.607  10.310  1.00  0.00     0.049 A 
ATOM     62  C   UNL     1      13.302  -0.577   6.915  1.00  0.00     0.074 A 
ATOM     63  C   UNL     1       9.679   2.860  10.835  1.00  0.00     0.029 A 
ATOM     64  N   UNL     1      10.488   1.278   9.497  1.00  0.00    -0.354 N 
ATOM     65  N   UNL     1      12.486   0.061   7.721  1.00  0.00    -0.248 NA
ATOM     66  C   UNL     1      14.506   0.182   6.551  1.00  0.00     0.031 C 
ATOM     67  C   UNL     1      10.891   3.309  10.299  1.00  0.00     0.029 A 
ATOM     68  C   UNL     1      11.408   2.312   9.487  1.00  0.00     0.049 A 
ATOM     69  H   UNL     1      10.582   0.433   9.000  1.00  0.00     0.167 HD
ATOM     70  C   UNL     1      13.092   1.284   7.983  1.00  0.00     0.074 A 
ATOM     71  C   UNL     1      14.348   1.292   7.259  1.00  0.00     0.031 C 
ATOM     72  C   UNL     1      12.652   2.307   8.757  1.00  0.00     0.031 A 
BRANCH  59  73
ATOM     73  C   UNL     1       7.141   1.294  11.388  1.00  0.00    -0.014 A 
ATOM     74  C   UNL     1       6.863   0.730  12.647  1.00  0.00     0.010 A 
ATOM     75  C   UNL     1       6.359   2.374  10.937  1.00  0.00     0.010 A 
ATOM     76  C   UNL     1       5.791   1.197  13.413  1.00  0.00     0.020 A 
ATOM     77  C   UNL     1       5.306   2.865  11.715  1.00  0.00     0.020 A 
ATOM     78  C   UNL     1       5.015   2.258  12.938  1.00  0.00     0.054 A 
BRANCH  78  79
ATOM     79  S   UNL     1       3.629   2.843  13.951  1.00  0.00     0.124 S 
ATOM     80  O   UNL     1       2.654   1.769  13.775  1.00  0.00    -0.237 OA
ATOM     81  O   UNL     1       4.223   2.939  15.282  1.00  0.00    -0.237 OA
ATOM     82  O   UNL     1       3.267   4.119  13.340  1.00  0.00    -0.744 OA
ENDBRANCH  78  79
ENDBRANCH  59  73
BRANCH  60  83
ATOM     83  C   UNL     1      14.222  -2.522   5.449  1.00  0.00    -0.014 A 
ATOM     84  C   UNL     1      15.475  -2.883   5.975  1.00  0.00     0.010 A 
ATOM     85  C   UNL     1      13.970  -2.729   4.081  1.00  0.00     0.010 A 
ATOM     86  C   UNL     1      16.460  -3.430   5.148  1.00  0.00     0.020 A 
ATOM     87  C   UNL     1      14.942  -3.301   3.256  1.00  0.00     0.020 A 
ATOM     88  C   UNL     1      16.185  -3.640   3.794  1.00  0.00     0.054 A 
BRANCH  88  89
ATOM     89  S   UNL     1      17.455  -4.413   2.753  1.00  0.00     0.124 S 
ATOM     90  O   UNL     1      18.425  -3.333   2.605  1.00  0.00    -0.237 OA
ATOM     91  O   UNL     1      17.886  -5.545   3.571  1.00  0.00    -0.237 OA
ATOM     92  O   UNL     1      16.727  -4.774   1.538  1.00  0.00    -0.744 OA
ENDBRANCH  88  89
ENDBRANCH  60  83
BRANCH  72  93
ATOM     93  C   UNL     1      13.546   3.511   8.888  1.00  0.00    -0.014 A 
ATOM     94  C   UNL     1      13.719   4.412   7.823  1.00  0.00     0.010 A 
ATOM     95  C   UNL     1      14.179   3.773  10.118  1.00  0.00     0.010 A 
ATOM     96  C   UNL     1      14.534   5.537   7.976  1.00  0.00     0.020 A 
ATOM     97  C   UNL     1      14.971   4.911  10.283  1.00  0.00     0.020 A 
ATOM     98  C   UNL     1      15.155   5.779   9.205  1.00  0.00     0.054 A 
BRANCH  98  99
ATOM     99  S   UNL     1      16.170   7.271   9.391  1.00  0.00     0.124 S 
ATOM    100  O   UNL     1      17.365   6.922   8.628  1.00  0.00    -0.237 OA
ATOM    101  O   UNL     1      15.328   8.308   8.800  1.00  0.00    -0.237 OA
ATOM    102  O   UNL     1      16.363   7.381  10.835  1.00  0.00    -0.744 OA
ENDBRANCH  98  99
ENDBRANCH  72  93
ENDBRANCH  46  47
ENDBRANCH  38  41
ENDBRANCH  36  37
ENDBRANCH  35  36
ENDBRANCH  34  35
ENDBRANCH   1  34
TORSDOF 22
