REMARK SMILES Cc1ccc(NC(=O)c2cnn3c2NC2=C(C(=O)CCC2)[C@H]3c2ccc(C(=O)NCCCCCCNC(=O)c3ccc(-c4c5nc(c(-c6ccc(S(=O)(=O)[O-])cc6)c6ccc([nH]6)c(-c6ccc(S(=O)(=O)[O-])cc6)c6nc(c(-c7ccc(S(=O)(=O)[O-])cc7)c7ccc4[nH]7)C=C6)C=C5)cc3)cc2)cc1
REMARK SMILES IDX 32 1 31 2 30 3 29 4 27 5 28 6 26 8 23 9 24 10 100 11 25 12
REMARK SMILES IDX 99 13 22 14 9 15 10 16 13 17 11 18 12 19 14 20 15 21 16 23
REMARK SMILES IDX 21 24 17 25 20 26 18 27 19 28 7 29 6 30 8 32 5 33 1 34 2 35
REMARK SMILES IDX 3 36 102 37 4 38 101 39 33 40 34 41 35 42 36 43 37 44 38 46
REMARK SMILES IDX 39 47 40 48 98 49 41 50 97 51 42 52 43 53 44 54 91 55 45 56
REMARK SMILES IDX 96 57 90 58 92 59 46 60 95 61 89 62 88 63 47 65 77 66 58 67
REMARK SMILES IDX 76 68 59 69 62 70 75 71 93 72 60 73 61 74 74 76 94 77 63 78
REMARK SMILES IDX 48 79 49 80 57 81 50 82 56 83 51 84 52 85 53 86 54 87 55 88
REMARK SMILES IDX 78 89 79 90 87 91 80 92 86 93 81 94 82 95 83 96 84 97 85 98
REMARK SMILES IDX 64 99 65 100 73 101 66 102 72 103 67 104 68 105 69 106
REMARK SMILES IDX 70 107 71 108
REMARK H PARENT 29 7 14 22 6 31 36 45 92 64 62 75
REMARK Flexibility Score: inf
ROOT
ATOM      1  C   UNL     1      -0.027  -1.664  -8.257  1.00  0.00     0.002 C 
ENDROOT
BRANCH   1   2
ATOM      2  C   UNL     1      -0.363  -2.065  -6.809  1.00  0.00     0.021 C 
BRANCH   2   3
ATOM      3  C   UNL     1      -1.616  -2.929  -6.633  1.00  0.00     0.116 C 
BRANCH   3   4
ATOM      4  N   UNL     1      -1.401  -4.292  -7.093  1.00  0.00    -0.352 N 
ATOM      5  C   UNL     1      -1.326  -5.511  -6.467  1.00  0.00     0.251 C 
ATOM      6  O   UNL     1      -1.278  -6.508  -7.193  1.00  0.00    -0.269 OA
ATOM      7  H   UNL     1      -1.284  -4.353  -8.069  1.00  0.00     0.163 HD
BRANCH   5   8
ATOM      8  C   UNL     1      -1.366  -5.717  -4.987  1.00  0.00     0.039 A 
ATOM      9  C   UNL     1      -1.797  -6.211  -2.210  1.00  0.00    -0.019 A 
ATOM     10  C   UNL     1      -2.024  -7.217  -3.161  1.00  0.00     0.007 A 
ATOM     11  C   UNL     1      -1.143  -5.047  -2.664  1.00  0.00     0.007 A 
ATOM     12  C   UNL     1      -1.828  -6.963  -4.527  1.00  0.00     0.014 A 
ATOM     13  C   UNL     1      -0.943  -4.794  -4.035  1.00  0.00     0.014 A 
BRANCH   9  14
ATOM     14  C   UNL     1      -2.416  -6.320  -0.777  1.00  0.00     0.175 C 
ATOM     15  C   UNL     1      -3.462  -2.941  -0.260  1.00  0.00     0.102 A 
ATOM     16  C   UNL     1      -2.551  -3.191   0.813  1.00  0.00     0.151 A 
ATOM     17  C   UNL     1      -3.706  -4.201  -0.759  1.00  0.00     0.142 A 
ATOM     18  N   UNL     1      -2.062  -4.436   0.812  1.00  0.00    -0.178 NA
ATOM     19  N   UNL     1      -2.677  -4.976  -0.250  1.00  0.00    -0.237 N 
ATOM     20  N   UNL     1      -4.621  -4.815  -1.574  1.00  0.00    -0.343 N 
ATOM     21  C   UNL     1      -4.791  -6.206  -1.462  1.00  0.00     0.026 C 
ATOM     22  H   UNL     1      -5.147  -4.294  -2.223  1.00  0.00     0.168 HD
ATOM     23  C   UNL     1      -3.812  -6.915  -0.847  1.00  0.00     0.044 C 
ATOM     24  C   UNL     1      -6.139  -6.831  -1.695  1.00  0.00     0.055 C 
ATOM     25  C   UNL     1      -4.308  -7.740   0.285  1.00  0.00     0.163 C 
ATOM     26  C   UNL     1      -6.680  -7.538  -0.448  1.00  0.00     0.014 C 
ATOM     27  O   UNL     1      -3.561  -8.495   0.897  1.00  0.00    -0.294 OA
ATOM     28  C   UNL     1      -5.731  -7.442   0.741  1.00  0.00     0.081 C 
BRANCH  15  29
ATOM     29  C   UNL     1      -4.059  -1.693  -0.672  1.00  0.00     0.261 C 
ATOM     30  N   UNL     1      -3.308  -0.533  -0.617  1.00  0.00    -0.322 N 
ATOM     31  H   UNL     1      -3.842   0.294  -0.638  1.00  0.00     0.170 HD
ATOM     32  O   UNL     1      -5.235  -1.633  -1.034  1.00  0.00    -0.269 OA
BRANCH  30  33
ATOM     33  C   UNL     1      -1.913  -0.319  -0.536  1.00  0.00     0.041 A 
ATOM     34  C   UNL     1       2.310   0.424   0.055  1.00  0.00     0.044 C 
ATOM     35  C   UNL     1       0.848   0.196  -0.201  1.00  0.00    -0.051 A 
ATOM     36  C   UNL     1       0.409  -1.040  -0.674  1.00  0.00     0.005 A 
ATOM     37  C   UNL     1      -0.102   1.188   0.063  1.00  0.00     0.005 A 
ATOM     38  C   UNL     1      -0.954  -1.276  -0.873  1.00  0.00     0.026 A 
ATOM     39  C   UNL     1      -1.470   0.936  -0.113  1.00  0.00     0.026 A 
ENDBRANCH  30  33
ENDBRANCH  15  29
ENDBRANCH   9  14
ENDBRANCH   5   8
ENDBRANCH   3   4
ENDBRANCH   2   3
ENDBRANCH   1   2
BRANCH   1  40
ATOM     40  C   UNL     1      -1.101  -0.895  -9.047  1.00  0.00     0.002 C 
BRANCH  40  41
ATOM     41  C   UNL     1      -1.744   0.297  -8.338  1.00  0.00     0.021 C 
BRANCH  41  42
ATOM     42  C   UNL     1      -0.798   1.470  -8.102  1.00  0.00     0.116 C 
BRANCH  42  43
ATOM     43  N   UNL     1      -1.079   2.629  -8.940  1.00  0.00    -0.352 N 
ATOM     44  C   UNL     1      -0.484   3.882  -8.926  1.00  0.00     0.251 C 
ATOM     45  H   UNL     1      -1.789   2.505  -9.609  1.00  0.00     0.163 HD
ATOM     46  O   UNL     1      -0.983   4.814  -9.535  1.00  0.00    -0.269 OA
BRANCH  44  47
ATOM     47  C   UNL     1       0.813   4.041  -8.229  1.00  0.00     0.039 A 
ATOM     48  C   UNL     1       1.898   4.547  -8.959  1.00  0.00     0.014 A 
ATOM     49  C   UNL     1       1.004   3.517  -6.957  1.00  0.00     0.014 A 
ATOM     50  C   UNL     1       3.198   4.351  -8.492  1.00  0.00     0.010 A 
ATOM     51  C   UNL     1       2.287   3.222  -6.550  1.00  0.00     0.010 A 
ATOM     52  C   UNL     1       3.387   3.606  -7.332  1.00  0.00    -0.014 A 
BRANCH  52  53
ATOM     53  C   UNL     1       4.670   3.121  -6.836  1.00  0.00     0.031 A 
ATOM     54  C   UNL     1       5.218   3.663  -5.568  1.00  0.00     0.074 A 
ATOM     55  C   UNL     1       5.213   2.011  -7.386  1.00  0.00     0.049 A 
ATOM     56  N   UNL     1       6.400   3.415  -5.113  1.00  0.00    -0.248 NA
ATOM     57  C   UNL     1       4.470   4.589  -4.720  1.00  0.00     0.031 C 
ATOM     58  C   UNL     1       6.150   1.091  -6.745  1.00  0.00     0.029 A 
ATOM     59  N   UNL     1       5.194   1.592  -8.717  1.00  0.00    -0.354 N 
ATOM     60  C   UNL     1       6.448   3.862  -3.811  1.00  0.00     0.074 A 
ATOM     61  C   UNL     1       5.261   4.665  -3.647  1.00  0.00     0.031 C 
ATOM     62  C   UNL     1       6.826   0.431  -7.697  1.00  0.00     0.029 A 
ATOM     63  C   UNL     1       6.461   1.035  -8.966  1.00  0.00     0.049 A 
ATOM     64  H   UNL     1       4.446   1.670  -9.352  1.00  0.00     0.167 HD
ATOM     65  C   UNL     1       7.417   3.387  -2.978  1.00  0.00     0.031 A 
ATOM     66  C   UNL     1       7.352   1.512  -9.886  1.00  0.00     0.031 A 
ATOM     67  C   UNL     1       8.386   2.566  -3.699  1.00  0.00     0.049 A 
ATOM     68  C   UNL     1       8.700   1.856  -9.288  1.00  0.00     0.074 A 
ATOM     69  C   UNL     1       8.568   1.199  -3.822  1.00  0.00     0.029 A 
ATOM     70  N   UNL     1       9.185   3.163  -4.663  1.00  0.00    -0.354 N 
ATOM     71  N   UNL     1       8.904   2.018  -8.011  1.00  0.00    -0.248 NA
ATOM     72  C   UNL     1       9.909   2.088 -10.073  1.00  0.00     0.031 C 
ATOM     73  C   UNL     1       9.434   0.974  -4.924  1.00  0.00     0.029 A 
ATOM     74  C   UNL     1       9.796   2.204  -5.444  1.00  0.00     0.049 A 
ATOM     75  H   UNL     1       9.299   4.134  -4.775  1.00  0.00     0.167 HD
ATOM     76  C   UNL     1      10.211   2.362  -7.788  1.00  0.00     0.074 A 
ATOM     77  C   UNL     1      10.803   2.386  -9.113  1.00  0.00     0.031 C 
ATOM     78  C   UNL     1      10.681   2.607  -6.529  1.00  0.00     0.031 A 
BRANCH  65  79
ATOM     79  C   UNL     1       7.364   3.452  -1.465  1.00  0.00    -0.014 A 
ATOM     80  C   UNL     1       8.131   2.539  -0.708  1.00  0.00     0.010 A 
ATOM     81  C   UNL     1       6.548   4.327  -0.726  1.00  0.00     0.010 A 
ATOM     82  C   UNL     1       8.025   2.448   0.688  1.00  0.00     0.020 A 
ATOM     83  C   UNL     1       6.413   4.234   0.668  1.00  0.00     0.020 A 
ATOM     84  C   UNL     1       7.143   3.283   1.367  1.00  0.00     0.054 A 
BRANCH  84  85
ATOM     85  S   UNL     1       6.957   3.109   3.159  1.00  0.00     0.124 S 
ATOM     86  O   UNL     1       6.492   1.730   3.291  1.00  0.00    -0.237 OA
ATOM     87  O   UNL     1       8.309   3.370   3.645  1.00  0.00    -0.237 OA
ATOM     88  O   UNL     1       5.965   4.127   3.505  1.00  0.00    -0.744 OA
ENDBRANCH  84  85
ENDBRANCH  65  79
BRANCH  66  89
ATOM     89  C   UNL     1       6.724   2.220 -11.034  1.00  0.00    -0.014 A 
ATOM     90  C   UNL     1       6.010   1.431 -11.959  1.00  0.00     0.010 A 
ATOM     91  C   UNL     1       6.430   3.592 -10.929  1.00  0.00     0.010 A 
ATOM     92  C   UNL     1       4.889   1.950 -12.609  1.00  0.00     0.020 A 
ATOM     93  C   UNL     1       5.310   4.116 -11.588  1.00  0.00     0.020 A 
ATOM     94  C   UNL     1       4.507   3.268 -12.357  1.00  0.00     0.054 A 
BRANCH  94  95
ATOM     95  S   UNL     1       2.827   3.770 -12.840  1.00  0.00     0.124 S 
ATOM     96  O   UNL     1       2.827   3.530 -14.279  1.00  0.00    -0.237 OA
ATOM     97  O   UNL     1       2.010   2.855 -12.046  1.00  0.00    -0.237 OA
ATOM     98  O   UNL     1       2.764   5.171 -12.433  1.00  0.00    -0.744 OA
ENDBRANCH  94  95
ENDBRANCH  66  89
BRANCH  78  99
ATOM     99  C   UNL     1      12.026   3.192  -6.160  1.00  0.00    -0.014 A 
ATOM    100  C   UNL     1      12.838   3.930  -7.033  1.00  0.00     0.010 A 
ATOM    101  C   UNL     1      12.451   3.111  -4.809  1.00  0.00     0.010 A 
ATOM    102  C   UNL     1      14.037   4.513  -6.594  1.00  0.00     0.020 A 
ATOM    103  C   UNL     1      13.619   3.725  -4.351  1.00  0.00     0.020 A 
ATOM    104  C   UNL     1      14.421   4.405  -5.256  1.00  0.00     0.054 A 
BRANCH 104 105
ATOM    105  S   UNL     1      15.934   5.220  -4.685  1.00  0.00     0.124 S 
ATOM    106  O   UNL     1      16.943   4.199  -4.951  1.00  0.00    -0.237 OA
ATOM    107  O   UNL     1      16.007   6.408  -5.533  1.00  0.00    -0.237 OA
ATOM    108  O   UNL     1      15.666   5.487  -3.274  1.00  0.00    -0.744 OA
ENDBRANCH 104 105
ENDBRANCH  78  99
ENDBRANCH  52  53
ENDBRANCH  44  47
ENDBRANCH  42  43
ENDBRANCH  41  42
ENDBRANCH  40  41
ENDBRANCH   1  40
TORSDOF 19
