REMARK SMILES CSCC[C@H](C(=O)NCCCCCCNC(=O)c1ccc(-c2c3nc(c(-c4ccc(S(=O)(=O)[O-])cc4)c4ccc([nH]4)c(-c4ccc(S(=O)(=O)[O-])cc4)c4nc(c(-c5ccc(S(=O)(=O)[O-])cc5)c5ccc2[nH]5)C=C4)C=C3)cc1)N1C(=O)/C(=C/c2ccc3ncccc3c2)SC1=S
REMARK SMILES IDX 11 1 10 2 9 3 8 4 6 5 7 6 5 8 4 9 3 10 2 11 1 12 78 13 79 14
REMARK SMILES IDX 94 15 80 16 81 17 93 18 95 19 82 20 83 21 84 22 92 23 85 24
REMARK SMILES IDX 91 25 86 26 90 27 87 28 89 29 88 30 12 31 13 32 14 33 15 34
REMARK SMILES IDX 16 35 17 37 18 38 19 39 77 40 20 41 76 42 21 43 22 44 23 45
REMARK SMILES IDX 70 46 24 47 75 48 69 49 71 50 25 51 74 52 68 53 67 54 26 56
REMARK SMILES IDX 56 57 37 58 55 59 38 60 41 61 54 62 72 63 39 64 40 65 53 67
REMARK SMILES IDX 73 68 42 69 27 70 28 71 36 72 29 73 35 74 30 75 31 76 32 77
REMARK SMILES IDX 33 78 34 79 57 80 58 81 66 82 59 83 65 84 60 85 61 86 62 87
REMARK SMILES IDX 63 88 64 89 43 90 44 91 52 92 45 93 51 94 46 95 47 96 48 97
REMARK SMILES IDX 49 98 50 99
REMARK H PARENT 8 7 15 36 71 55 41 66
REMARK Flexibility Score: inf
ROOT
ATOM      1  C   UNL     1      -3.533  -1.853  -3.928  1.00  0.00     0.002 C 
ENDROOT
BRANCH   1   2
ATOM      2  C   UNL     1      -2.881  -0.484  -3.691  1.00  0.00     0.021 C 
BRANCH   2   3
ATOM      3  C   UNL     1      -1.864  -0.467  -2.554  1.00  0.00     0.116 C 
BRANCH   3   4
ATOM      4  N   UNL     1      -0.788  -1.400  -2.807  1.00  0.00    -0.354 N 
ATOM      5  C   UNL     1       0.539  -1.178  -3.018  1.00  0.00     0.243 C 
ATOM      6  O   UNL     1       1.254  -2.166  -3.193  1.00  0.00    -0.273 OA
ATOM      7  H   UNL     1      -1.059  -2.346  -2.831  1.00  0.00     0.163 HD
BRANCH   5   8
ATOM      8  C   UNL     1       1.097   0.261  -2.920  1.00  0.00     0.182 C 
BRANCH   8   9
ATOM      9  C   UNL     1       2.634   0.276  -2.791  1.00  0.00     0.046 C 
BRANCH   9  10
ATOM     10  C   UNL     1       3.140   0.708  -1.403  1.00  0.00     0.072 C 
BRANCH  10  11
ATOM     11  S   UNL     1       2.753  -0.417  -0.012  1.00  0.00    -0.165 SA
ATOM     12  C   UNL     1       1.095   0.146   0.471  1.00  0.00     0.085 C 
ENDBRANCH  10  11
ENDBRANCH   9  10
ENDBRANCH   8   9
BRANCH   8  13
ATOM     13  N   UNL     1       0.579   1.214  -3.931  1.00  0.00    -0.280 N 
ATOM     14  C   UNL     1       0.328   0.799  -5.231  1.00  0.00     0.266 C 
ATOM     15  C   UNL     1       0.442   2.572  -3.693  1.00  0.00     0.149 C 
ATOM     16  O   UNL     1       0.469  -0.324  -5.681  1.00  0.00    -0.268 OA
ATOM     17  C   UNL     1      -0.155   1.942  -6.054  1.00  0.00     0.081 C 
ATOM     18  S   UNL     1      -0.027   3.402  -5.160  1.00  0.00    -0.054 SA
ATOM     19  S   UNL     1       0.661   3.423  -2.276  1.00  0.00    -0.052 S 
ATOM     20  C   UNL     1      -0.609   1.812  -7.310  1.00  0.00     0.029 C 
BRANCH  20  21
ATOM     21  C   UNL     1      -0.903   2.964  -8.170  1.00  0.00    -0.024 A 
ATOM     22  C   UNL     1      -2.201   3.324  -8.525  1.00  0.00     0.010 A 
ATOM     23  C   UNL     1       0.165   3.765  -8.590  1.00  0.00     0.018 A 
ATOM     24  C   UNL     1      -2.418   4.495  -9.268  1.00  0.00     0.029 A 
ATOM     25  C   UNL     1      -0.062   4.949  -9.302  1.00  0.00     0.001 A 
ATOM     26  C   UNL     1      -1.372   5.329  -9.654  1.00  0.00     0.070 A 
ATOM     27  C   UNL     1       1.000   5.790  -9.653  1.00  0.00     0.012 A 
ATOM     28  N   UNL     1      -1.620   6.467 -10.327  1.00  0.00    -0.256 NA
ATOM     29  C   UNL     1       0.742   6.973 -10.329  1.00  0.00     0.021 A 
ATOM     30  C   UNL     1      -0.573   7.263 -10.642  1.00  0.00     0.112 A 
ENDBRANCH  20  21
ENDBRANCH   8  13
ENDBRANCH   5   8
ENDBRANCH   3   4
ENDBRANCH   2   3
ENDBRANCH   1   2
BRANCH   1  31
ATOM     31  C   UNL     1      -4.209  -2.470  -2.699  1.00  0.00     0.002 C 
BRANCH  31  32
ATOM     32  C   UNL     1      -5.261  -1.583  -2.032  1.00  0.00     0.021 C 
BRANCH  32  33
ATOM     33  C   UNL     1      -6.393  -1.145  -2.953  1.00  0.00     0.116 C 
BRANCH  33  34
ATOM     34  N   UNL     1      -7.182  -2.270  -3.424  1.00  0.00    -0.352 N 
ATOM     35  C   UNL     1      -8.544  -2.440  -3.399  1.00  0.00     0.251 C 
ATOM     36  H   UNL     1      -6.669  -3.013  -3.816  1.00  0.00     0.163 HD
ATOM     37  O   UNL     1      -9.029  -3.537  -3.658  1.00  0.00    -0.269 OA
BRANCH  35  38
ATOM     38  C   UNL     1      -9.420  -1.303  -3.039  1.00  0.00     0.039 A 
ATOM     39  C   UNL     1     -10.499  -1.525  -2.181  1.00  0.00     0.014 A 
ATOM     40  C   UNL     1      -9.186  -0.024  -3.556  1.00  0.00     0.014 A 
ATOM     41  C   UNL     1     -11.318  -0.456  -1.810  1.00  0.00     0.010 A 
ATOM     42  C   UNL     1      -9.951   1.053  -3.118  1.00  0.00     0.010 A 
ATOM     43  C   UNL     1     -11.038   0.846  -2.255  1.00  0.00    -0.014 A 
BRANCH  43  44
ATOM     44  C   UNL     1     -11.897   1.995  -1.866  1.00  0.00     0.031 A 
ATOM     45  C   UNL     1     -12.655   2.756  -2.924  1.00  0.00     0.074 A 
ATOM     46  C   UNL     1     -11.971   2.376  -0.575  1.00  0.00     0.049 A 
ATOM     47  N   UNL     1     -13.409   3.818  -2.794  1.00  0.00    -0.248 NA
ATOM     48  C   UNL     1     -12.532   2.277  -4.311  1.00  0.00     0.031 C 
ATOM     49  C   UNL     1     -11.260   1.743   0.539  1.00  0.00     0.029 A 
ATOM     50  N   UNL     1     -12.678   3.391   0.020  1.00  0.00    -0.354 N 
ATOM     51  C   UNL     1     -13.846   4.131  -4.077  1.00  0.00     0.074 A 
ATOM     52  C   UNL     1     -13.218   3.192  -4.979  1.00  0.00     0.031 C 
ATOM     53  C   UNL     1     -11.586   2.370   1.682  1.00  0.00     0.029 A 
ATOM     54  C   UNL     1     -12.493   3.473   1.380  1.00  0.00     0.049 A 
ATOM     55  H   UNL     1     -13.264   4.004  -0.481  1.00  0.00     0.167 HD
ATOM     56  C   UNL     1     -14.718   5.090  -4.468  1.00  0.00     0.031 A 
ATOM     57  C   UNL     1     -12.989   4.343   2.282  1.00  0.00     0.031 A 
ATOM     58  C   UNL     1     -15.350   6.019  -3.570  1.00  0.00     0.049 A 
ATOM     59  C   UNL     1     -13.935   5.419   1.816  1.00  0.00     0.074 A 
ATOM     60  C   UNL     1     -16.261   7.018  -3.866  1.00  0.00     0.029 A 
ATOM     61  N   UNL     1     -15.146   6.058  -2.199  1.00  0.00    -0.354 N 
ATOM     62  N   UNL     1     -14.365   5.672   0.602  1.00  0.00    -0.248 NA
ATOM     63  C   UNL     1     -14.480   6.315   2.845  1.00  0.00     0.031 C 
ATOM     64  C   UNL     1     -16.574   7.690  -2.681  1.00  0.00     0.029 A 
ATOM     65  C   UNL     1     -15.911   7.065  -1.637  1.00  0.00     0.049 A 
ATOM     66  H   UNL     1     -14.547   5.457  -1.700  1.00  0.00     0.167 HD
ATOM     67  C   UNL     1     -15.265   6.726   0.731  1.00  0.00     0.074 A 
ATOM     68  C   UNL     1     -15.327   7.052   2.140  1.00  0.00     0.031 C 
ATOM     69  C   UNL     1     -15.977   7.365  -0.229  1.00  0.00     0.031 A 
BRANCH  56  70
ATOM     70  C   UNL     1     -15.059   5.169  -5.933  1.00  0.00    -0.014 A 
ATOM     71  C   UNL     1     -15.825   4.162  -6.549  1.00  0.00     0.010 A 
ATOM     72  C   UNL     1     -14.671   6.290  -6.690  1.00  0.00     0.010 A 
ATOM     73  C   UNL     1     -16.172   4.259  -7.898  1.00  0.00     0.020 A 
ATOM     74  C   UNL     1     -15.043   6.406  -8.033  1.00  0.00     0.020 A 
ATOM     75  C   UNL     1     -15.783   5.383  -8.630  1.00  0.00     0.054 A 
BRANCH  75  76
ATOM     76  S   UNL     1     -16.296   5.505 -10.366  1.00  0.00     0.124 S 
ATOM     77  O   UNL     1     -15.480   4.469 -10.995  1.00  0.00    -0.237 OA
ATOM     78  O   UNL     1     -17.727   5.220 -10.295  1.00  0.00    -0.237 OA
ATOM     79  O   UNL     1     -15.954   6.876 -10.735  1.00  0.00    -0.744 OA
ENDBRANCH  75  76
ENDBRANCH  56  70
BRANCH  57  80
ATOM     80  C   UNL     1     -12.603   4.244   3.719  1.00  0.00    -0.014 A 
ATOM     81  C   UNL     1     -13.552   3.912   4.702  1.00  0.00     0.010 A 
ATOM     82  C   UNL     1     -11.282   4.524   4.115  1.00  0.00     0.010 A 
ATOM     83  C   UNL     1     -13.201   3.912   6.056  1.00  0.00     0.020 A 
ATOM     84  C   UNL     1     -10.918   4.489   5.463  1.00  0.00     0.020 A 
ATOM     85  C   UNL     1     -11.886   4.206   6.428  1.00  0.00     0.054 A 
BRANCH  85  86
ATOM     86  S   UNL     1     -11.451   4.202   8.189  1.00  0.00     0.124 S 
ATOM     87  O   UNL     1     -12.096   5.422   8.663  1.00  0.00    -0.237 OA
ATOM     88  O   UNL     1     -12.039   2.950   8.657  1.00  0.00    -0.237 OA
ATOM     89  O   UNL     1      -9.990   4.230   8.179  1.00  0.00    -0.744 OA
ENDBRANCH  85  86
ENDBRANCH  57  80
BRANCH  69  90
ATOM     90  C   UNL     1     -16.945   8.431   0.215  1.00  0.00    -0.014 A 
ATOM     91  C   UNL     1     -16.505   9.662   0.732  1.00  0.00     0.010 A 
ATOM     92  C   UNL     1     -18.327   8.204   0.073  1.00  0.00     0.010 A 
ATOM     93  C   UNL     1     -17.429  10.627   1.142  1.00  0.00     0.020 A 
ATOM     94  C   UNL     1     -19.253   9.179   0.449  1.00  0.00     0.020 A 
ATOM     95  C   UNL     1     -18.798  10.377   1.000  1.00  0.00     0.054 A 
BRANCH  95  96
ATOM     96  S   UNL     1     -19.977  11.655   1.516  1.00  0.00     0.124 S 
ATOM     97  O   UNL     1     -19.881  11.587   2.971  1.00  0.00    -0.237 OA
ATOM     98  O   UNL     1     -19.427  12.863   0.906  1.00  0.00    -0.237 OA
ATOM     99  O   UNL     1     -21.248  11.203   0.954  1.00  0.00    -0.744 OA
ENDBRANCH  95  96
ENDBRANCH  69  90
ENDBRANCH  43  44
ENDBRANCH  35  38
ENDBRANCH  33  34
ENDBRANCH  32  33
ENDBRANCH  31  32
ENDBRANCH   1  31
TORSDOF 21
