REMARK SMILES Cc1ccc(C(=O)NC2CC2)cc1NC(=O)[C@@H]1[C@@H](C(=O)NCCCCCCNC(=O)c2ccc(-c3c4nc(c(-c5ccc(S(=O)(=O)[O-])cc5)c5ccc([nH]5)c(-c5ccc(S(=O)(=O)[O-])cc5)c5nc(c(-c6ccc(S(=O)(=O)[O-])cc6)c6ccc3[nH]6)C=C5)C=C4)cc2)[C@H]2C=C[C@@H]1C2
REMARK SMILES IDX 24 1 23 2 22 3 21 4 19 5 20 6 18 8 17 9 94 10 91 11 93 12
REMARK SMILES IDX 95 13 92 14 15 15 14 16 16 18 13 19 1 20 2 21 3 22 4 23
REMARK SMILES IDX 12 24 5 25 6 26 7 27 8 28 9 30 10 31 11 32 25 33 26 34 27 35
REMARK SMILES IDX 28 36 29 37 30 39 31 40 32 41 90 42 33 43 89 44 34 45 35 46
REMARK SMILES IDX 36 47 83 48 37 49 88 50 82 51 84 52 38 53 87 54 81 55 80 56
REMARK SMILES IDX 39 58 69 59 50 60 68 61 51 62 54 63 67 64 85 65 52 66 53 67
REMARK SMILES IDX 66 69 86 70 55 71 40 72 41 73 49 74 42 75 48 76 43 77 44 78
REMARK SMILES IDX 45 79 46 80 47 81 70 82 71 83 79 84 72 85 78 86 73 87 74 88
REMARK SMILES IDX 75 89 76 90 77 91 56 92 57 93 65 94 58 95 64 96 59 97 60 98
REMARK SMILES IDX 61 99 62 100 63 101
REMARK H PARENT 21 7 14 17 8 29 28 38 84 57 54 68
REMARK Flexibility Score: inf
ROOT
ATOM      1  C   UNL     1      -4.936   9.301  -0.983  1.00  0.00     0.002 C 
ENDROOT
BRANCH   1   2
ATOM      2  C   UNL     1      -3.827   9.141   0.064  1.00  0.00     0.021 C 
BRANCH   2   3
ATOM      3  C   UNL     1      -3.517   7.724   0.546  1.00  0.00     0.116 C 
BRANCH   3   4
ATOM      4  N   UNL     1      -3.023   6.862  -0.503  1.00  0.00    -0.356 N 
ATOM      5  C   UNL     1      -2.147   5.829  -0.478  1.00  0.00     0.224 C 
ATOM      6  O   UNL     1      -1.942   5.269  -1.562  1.00  0.00    -0.275 OA
ATOM      7  H   UNL     1      -3.388   7.060  -1.395  1.00  0.00     0.163 HD
BRANCH   5   8
ATOM      8  C   UNL     1      -1.341   5.416   0.755  1.00  0.00     0.098 C 
ATOM      9  C   UNL     1      -0.959   3.885   0.619  1.00  0.00     0.099 C 
ATOM     10  C   UNL     1      -1.272   3.317   2.027  1.00  0.00     0.025 C 
ATOM     11  C   UNL     1      -1.977   5.438   2.164  1.00  0.00     0.025 C 
ATOM     12  C   UNL     1      -2.777   3.281   2.178  1.00  0.00    -0.027 C 
ATOM     13  C   UNL     1      -0.999   4.524   2.921  1.00  0.00     0.017 C 
ATOM     14  C   UNL     1      -3.201   4.552   2.226  1.00  0.00    -0.027 C 
BRANCH   9  15
ATOM     15  C   UNL     1       0.474   3.609   0.198  1.00  0.00     0.228 C 
ATOM     16  N   UNL     1       0.904   2.343  -0.116  1.00  0.00    -0.326 N 
ATOM     17  H   UNL     1       1.865   2.300  -0.324  1.00  0.00     0.169 HD
ATOM     18  O   UNL     1       1.330   4.499   0.214  1.00  0.00    -0.274 OA
BRANCH  16  19
ATOM     19  C   UNL     1       0.258   1.089  -0.203  1.00  0.00     0.044 A 
ATOM     20  C   UNL     1       2.483  -0.119   0.302  1.00  0.00     0.046 C 
ATOM     21  C   UNL     1       0.995  -0.081   0.067  1.00  0.00    -0.027 A 
ATOM     22  C   UNL     1       0.325  -1.315   0.094  1.00  0.00     0.006 A 
ATOM     23  C   UNL     1      -1.048  -1.393  -0.140  1.00  0.00     0.014 A 
ATOM     24  C   UNL     1      -1.094   0.961  -0.568  1.00  0.00     0.040 A 
ATOM     25  C   UNL     1      -1.785  -0.254  -0.488  1.00  0.00     0.041 A 
BRANCH  25  26
ATOM     26  C   UNL     1      -3.249  -0.458  -0.751  1.00  0.00     0.251 C 
ATOM     27  O   UNL     1      -3.694  -1.610  -0.743  1.00  0.00    -0.269 OA
ATOM     28  N   UNL     1      -4.160   0.554  -0.970  1.00  0.00    -0.349 N 
ATOM     29  H   UNL     1      -5.087   0.244  -1.087  1.00  0.00     0.164 HD
BRANCH  28  30
ATOM     30  C   UNL     1      -4.002   1.960  -1.056  1.00  0.00     0.082 C 
ATOM     31  C   UNL     1      -3.915   2.617  -2.406  1.00  0.00     0.027 C 
ATOM     32  C   UNL     1      -5.107   2.863  -1.531  1.00  0.00     0.027 C 
ENDBRANCH  28  30
ENDBRANCH  25  26
ENDBRANCH  16  19
ENDBRANCH   9  15
ENDBRANCH   5   8
ENDBRANCH   3   4
ENDBRANCH   2   3
ENDBRANCH   1   2
BRANCH   1  33
ATOM     33  C   UNL     1      -6.332   8.759  -0.643  1.00  0.00     0.002 C 
BRANCH  33  34
ATOM     34  C   UNL     1      -6.873   9.051   0.757  1.00  0.00     0.021 C 
BRANCH  34  35
ATOM     35  C   UNL     1      -6.886  10.524   1.146  1.00  0.00     0.116 C 
BRANCH  35  36
ATOM     36  N   UNL     1      -8.201  11.139   1.150  1.00  0.00    -0.352 N 
ATOM     37  C   UNL     1      -8.527  12.402   1.618  1.00  0.00     0.251 C 
ATOM     38  H   UNL     1      -8.940  10.601   0.782  1.00  0.00     0.163 HD
ATOM     39  O   UNL     1      -9.677  12.757   1.804  1.00  0.00    -0.269 OA
BRANCH  37  40
ATOM     40  C   UNL     1      -7.411  13.364   1.774  1.00  0.00     0.039 A 
ATOM     41  C   UNL     1      -7.357  14.434   0.873  1.00  0.00     0.014 A 
ATOM     42  C   UNL     1      -6.331  13.072   2.603  1.00  0.00     0.014 A 
ATOM     43  C   UNL     1      -6.155  15.115   0.688  1.00  0.00     0.010 A 
ATOM     44  C   UNL     1      -5.117  13.689   2.355  1.00  0.00     0.010 A 
ATOM     45  C   UNL     1      -5.016  14.682   1.371  1.00  0.00    -0.014 A 
BRANCH  45  46
ATOM     46  C   UNL     1      -3.671  15.154   1.059  1.00  0.00     0.031 A 
ATOM     47  C   UNL     1      -2.996  16.138   1.938  1.00  0.00     0.074 A 
ATOM     48  C   UNL     1      -3.009  14.707  -0.033  1.00  0.00     0.049 A 
ATOM     49  N   UNL     1      -2.148  17.019   1.517  1.00  0.00    -0.248 NA
ATOM     50  C   UNL     1      -3.263  16.231   3.370  1.00  0.00     0.031 C 
ATOM     51  C   UNL     1      -1.589  14.898  -0.322  1.00  0.00     0.029 A 
ATOM     52  N   UNL     1      -3.524  14.173  -1.215  1.00  0.00    -0.354 N 
ATOM     53  C   UNL     1      -1.556  17.582   2.625  1.00  0.00     0.074 A 
ATOM     54  C   UNL     1      -2.343  17.125   3.749  1.00  0.00     0.031 C 
ATOM     55  C   UNL     1      -1.403  14.795  -1.646  1.00  0.00     0.029 A 
ATOM     56  C   UNL     1      -2.714  14.651  -2.258  1.00  0.00     0.049 A 
ATOM     57  H   UNL     1      -4.303  13.578  -1.301  1.00  0.00     0.167 HD
ATOM     58  C   UNL     1      -0.374  18.251   2.511  1.00  0.00     0.031 A 
ATOM     59  C   UNL     1      -3.161  15.342  -3.345  1.00  0.00     0.031 A 
ATOM     60  C   UNL     1       0.125  18.264   1.140  1.00  0.00     0.049 A 
ATOM     61  C   UNL     1      -2.458  16.664  -3.547  1.00  0.00     0.074 A 
ATOM     62  C   UNL     1       1.086  17.504   0.493  1.00  0.00     0.029 A 
ATOM     63  N   UNL     1      -0.546  18.977   0.158  1.00  0.00    -0.354 N 
ATOM     64  N   UNL     1      -1.732  17.244  -2.634  1.00  0.00    -0.248 NA
ATOM     65  C   UNL     1      -2.570  17.471  -4.759  1.00  0.00     0.031 C 
ATOM     66  C   UNL     1       0.979  17.749  -0.896  1.00  0.00     0.029 A 
ATOM     67  C   UNL     1      -0.041  18.663  -1.089  1.00  0.00     0.049 A 
ATOM     68  H   UNL     1      -1.278  19.614   0.325  1.00  0.00     0.167 HD
ATOM     69  C   UNL     1      -1.310  18.469  -3.085  1.00  0.00     0.074 A 
ATOM     70  C   UNL     1      -1.847  18.557  -4.429  1.00  0.00     0.031 C 
ATOM     71  C   UNL     1      -0.570  19.298  -2.289  1.00  0.00     0.031 A 
BRANCH  58  72
ATOM     72  C   UNL     1       0.489  18.624   3.696  1.00  0.00    -0.014 A 
ATOM     73  C   UNL     1       1.892  18.662   3.548  1.00  0.00     0.010 A 
ATOM     74  C   UNL     1      -0.009  18.910   4.980  1.00  0.00     0.010 A 
ATOM     75  C   UNL     1       2.752  18.850   4.638  1.00  0.00     0.020 A 
ATOM     76  C   UNL     1       0.840  19.064   6.089  1.00  0.00     0.020 A 
ATOM     77  C   UNL     1       2.219  19.015   5.912  1.00  0.00     0.054 A 
BRANCH  77  78
ATOM     78  S   UNL     1       3.349  19.146   7.321  1.00  0.00     0.124 S 
ATOM     79  O   UNL     1       4.144  17.926   7.202  1.00  0.00    -0.237 OA
ATOM     80  O   UNL     1       4.059  20.390   7.041  1.00  0.00    -0.237 OA
ATOM     81  O   UNL     1       2.456  19.186   8.478  1.00  0.00    -0.744 OA
ENDBRANCH  77  78
ENDBRANCH  58  72
BRANCH  59  82
ATOM     82  C   UNL     1      -4.580  15.082  -3.701  1.00  0.00    -0.014 A 
ATOM     83  C   UNL     1      -4.897  13.821  -4.245  1.00  0.00     0.010 A 
ATOM     84  C   UNL     1      -5.600  15.859  -3.127  1.00  0.00     0.010 A 
ATOM     85  C   UNL     1      -6.169  13.275  -4.067  1.00  0.00     0.020 A 
ATOM     86  C   UNL     1      -6.878  15.313  -2.949  1.00  0.00     0.020 A 
ATOM     87  C   UNL     1      -7.131  14.002  -3.365  1.00  0.00     0.054 A 
BRANCH  87  88
ATOM     88  S   UNL     1      -8.640  13.134  -2.840  1.00  0.00     0.124 S 
ATOM     89  O   UNL     1      -9.225  12.728  -4.114  1.00  0.00    -0.237 OA
ATOM     90  O   UNL     1      -8.098  12.050  -2.022  1.00  0.00    -0.237 OA
ATOM     91  O   UNL     1      -9.377  14.158  -2.106  1.00  0.00    -0.744 OA
ENDBRANCH  87  88
ENDBRANCH  59  82
BRANCH  71  92
ATOM     92  C   UNL     1      -0.185  20.738  -2.560  1.00  0.00    -0.014 A 
ATOM     93  C   UNL     1      -0.765  21.554  -3.542  1.00  0.00     0.010 A 
ATOM     94  C   UNL     1       0.762  21.358  -1.704  1.00  0.00     0.010 A 
ATOM     95  C   UNL     1      -0.387  22.899  -3.694  1.00  0.00     0.020 A 
ATOM     96  C   UNL     1       1.116  22.705  -1.818  1.00  0.00     0.020 A 
ATOM     97  C   UNL     1       0.553  23.466  -2.833  1.00  0.00     0.054 A 
BRANCH  97  98
ATOM     98  S   UNL     1       0.982  25.217  -2.997  1.00  0.00     0.124 S 
ATOM     99  O   UNL     1       2.023  25.179  -4.020  1.00  0.00    -0.237 OA
ATOM    100  O   UNL     1      -0.281  25.825  -3.413  1.00  0.00    -0.237 OA
ATOM    101  O   UNL     1       1.430  25.589  -1.658  1.00  0.00    -0.744 OA
ENDBRANCH  97  98
ENDBRANCH  71  92
ENDBRANCH  45  46
ENDBRANCH  37  40
ENDBRANCH  35  36
ENDBRANCH  34  35
ENDBRANCH  33  34
ENDBRANCH   1  33
TORSDOF 20
