REMARK SMILES COc1cccc(-c2c(C(=O)NCCCCCCNC(=O)c3ccc(-c4c5nc(c(-c6ccc(S(=O)(=O)[O-])cc6)c6ccc([nH]6)c(-c6ccc(S(=O)(=O)[O-])cc6)c6nc(c(-c7ccc(S(=O)(=O)[O-])cc7)c7ccc4[nH]7)C=C6)C=C5)cc3)nnn2-c2ccc(OC(F)(F)F)cc2)c1
REMARK SMILES IDX 15 1 14 2 13 3 12 4 10 5 11 6 9 8 8 9 84 10 82 11 83 12 7 13
REMARK SMILES IDX 3 14 4 15 96 16 5 17 6 18 2 19 1 20 85 21 86 22 95 23 87 24
REMARK SMILES IDX 94 25 88 26 89 27 90 28 91 29 92 30 93 31 16 32 17 33 18 34
REMARK SMILES IDX 19 35 20 36 21 38 22 39 23 40 81 41 24 42 80 43 25 44 26 45
REMARK SMILES IDX 27 46 74 47 28 48 79 49 73 50 75 51 29 52 78 53 72 54 71 55
REMARK SMILES IDX 30 57 60 58 41 59 59 60 42 61 45 62 58 63 76 64 43 65 44 66
REMARK SMILES IDX 57 68 77 69 46 70 31 71 32 72 40 73 33 74 39 75 34 76 35 77
REMARK SMILES IDX 36 78 37 79 38 80 61 81 62 82 70 83 63 84 69 85 64 86 65 87
REMARK SMILES IDX 66 88 67 89 68 90 47 91 48 92 56 93 49 94 55 95 50 96 51 97
REMARK SMILES IDX 52 98 53 99 54 100
REMARK H PARENT 12 7 19 37 75 56 45 67
REMARK Flexibility Score: inf
ROOT
ATOM      1  C   UNL     1      -0.080  -6.556  -0.730  1.00  0.00     0.002 C 
ENDROOT
BRANCH   1   2
ATOM      2  C   UNL     1       0.860  -5.366  -0.592  1.00  0.00     0.021 C 
BRANCH   2   3
ATOM      3  C   UNL     1       1.775  -5.333   0.617  1.00  0.00     0.116 C 
BRANCH   3   4
ATOM      4  N   UNL     1       2.873  -6.253   0.659  1.00  0.00    -0.351 N 
ATOM      5  C   UNL     1       4.135  -6.075   1.189  1.00  0.00     0.274 C 
ATOM      6  O   UNL     1       4.863  -7.073   1.148  1.00  0.00    -0.267 OA
ATOM      7  H   UNL     1       2.703  -7.134   0.254  1.00  0.00     0.163 HD
BRANCH   5   8
ATOM      8  C   UNL     1       4.644  -4.803   1.744  1.00  0.00     0.178 A 
ATOM      9  C   UNL     1       4.077  -3.668   2.337  1.00  0.00     0.108 A 
ATOM     10  N   UNL     1       5.181  -2.866   2.637  1.00  0.00    -0.212 N 
ATOM     11  N   UNL     1       6.016  -4.607   1.689  1.00  0.00    -0.124 NA
ATOM     12  N   UNL     1       6.306  -3.398   2.134  1.00  0.00    -0.061 NA
BRANCH   9  13
ATOM     13  C   UNL     1       2.709  -3.168   2.521  1.00  0.00     0.006 A 
ATOM     14  C   UNL     1       0.951  -1.621   1.827  1.00  0.00     0.119 A 
ATOM     15  C   UNL     1       0.089  -2.231   2.740  1.00  0.00     0.046 A 
ATOM     16  C   UNL     1       2.262  -2.082   1.729  1.00  0.00     0.056 A 
ATOM     17  C   UNL     1       0.525  -3.288   3.544  1.00  0.00     0.005 A 
ATOM     18  C   UNL     1       1.835  -3.757   3.439  1.00  0.00     0.011 A 
BRANCH  14  19
ATOM     19  O   UNL     1       0.393  -0.597   1.115  1.00  0.00    -0.497 OA
ATOM     20  C   UNL     1       1.105  -0.099  -0.015  1.00  0.00     0.278 C 
ENDBRANCH  14  19
ENDBRANCH   9  13
BRANCH  10  21
ATOM     21  C   UNL     1       5.202  -1.641   3.347  1.00  0.00     0.067 A 
ATOM     22  C   UNL     1       5.995  -0.586   2.894  1.00  0.00     0.032 A 
ATOM     23  C   UNL     1       4.383  -1.471   4.469  1.00  0.00     0.032 A 
ATOM     24  C   UNL     1       5.892   0.660   3.522  1.00  0.00     0.049 A 
ATOM     25  C   UNL     1       4.309  -0.233   5.106  1.00  0.00     0.049 A 
ATOM     26  C   UNL     1       5.045   0.848   4.623  1.00  0.00     0.129 A 
BRANCH  26  27
ATOM     27  O   UNL     1       5.027   2.117   5.128  1.00  0.00    -0.406 OA
BRANCH  27  28
ATOM     28  C   UNL     1       4.176   2.367   6.234  1.00  0.00     0.573 C 
ATOM     29  F   UNL     1       2.884   2.113   5.935  1.00  0.00    -0.132 F 
ATOM     30  F   UNL     1       4.540   1.619   7.301  1.00  0.00    -0.132 F 
ATOM     31  F   UNL     1       4.281   3.666   6.587  1.00  0.00    -0.132 F 
ENDBRANCH  27  28
ENDBRANCH  26  27
ENDBRANCH  10  21
ENDBRANCH   5   8
ENDBRANCH   3   4
ENDBRANCH   2   3
ENDBRANCH   1   2
BRANCH   1  32
ATOM     32  C   UNL     1      -0.904  -6.978   0.497  1.00  0.00     0.002 C 
BRANCH  32  33
ATOM     33  C   UNL     1      -1.705  -5.911   1.257  1.00  0.00     0.021 C 
BRANCH  33  34
ATOM     34  C   UNL     1      -2.680  -5.107   0.417  1.00  0.00     0.116 C 
BRANCH  34  35
ATOM     35  N   UNL     1      -3.745  -5.909  -0.188  1.00  0.00    -0.352 N 
ATOM     36  C   UNL     1      -4.790  -5.487  -1.002  1.00  0.00     0.251 C 
ATOM     37  H   UNL     1      -3.718  -6.874   0.009  1.00  0.00     0.163 HD
ATOM     38  O   UNL     1      -5.789  -6.171  -1.139  1.00  0.00    -0.269 OA
BRANCH  36  39
ATOM     39  C   UNL     1      -4.658  -4.192  -1.703  1.00  0.00     0.039 A 
ATOM     40  C   UNL     1      -5.741  -3.342  -1.948  1.00  0.00     0.014 A 
ATOM     41  C   UNL     1      -3.381  -3.828  -2.104  1.00  0.00     0.014 A 
ATOM     42  C   UNL     1      -5.495  -2.104  -2.546  1.00  0.00     0.010 A 
ATOM     43  C   UNL     1      -3.113  -2.531  -2.420  1.00  0.00     0.010 A 
ATOM     44  C   UNL     1      -4.167  -1.708  -2.770  1.00  0.00    -0.014 A 
BRANCH  44  45
ATOM     45  C   UNL     1      -3.807  -0.412  -3.323  1.00  0.00     0.031 A 
ATOM     46  C   UNL     1      -4.300   0.740  -2.532  1.00  0.00     0.074 A 
ATOM     47  C   UNL     1      -2.886  -0.279  -4.306  1.00  0.00     0.049 A 
ATOM     48  N   UNL     1      -5.237   1.565  -2.854  1.00  0.00    -0.248 NA
ATOM     49  C   UNL     1      -3.815   0.894  -1.150  1.00  0.00     0.031 C 
ATOM     50  C   UNL     1      -2.063  -1.319  -4.945  1.00  0.00     0.029 A 
ATOM     51  N   UNL     1      -2.392   0.856  -4.863  1.00  0.00    -0.354 N 
ATOM     52  C   UNL     1      -5.295   2.491  -1.820  1.00  0.00     0.074 A 
ATOM     53  C   UNL     1      -4.569   1.908  -0.721  1.00  0.00     0.031 C 
ATOM     54  C   UNL     1      -1.025  -0.747  -5.596  1.00  0.00     0.029 A 
ATOM     55  C   UNL     1      -1.211   0.691  -5.582  1.00  0.00     0.049 A 
ATOM     56  H   UNL     1      -2.834   1.730  -4.766  1.00  0.00     0.167 HD
ATOM     57  C   UNL     1      -5.701   3.773  -2.041  1.00  0.00     0.031 A 
ATOM     58  C   UNL     1      -0.433   1.673  -6.104  1.00  0.00     0.031 A 
ATOM     59  C   UNL     1      -6.306   3.916  -3.343  1.00  0.00     0.049 A 
ATOM     60  C   UNL     1      -1.292   2.879  -6.208  1.00  0.00     0.074 A 
ATOM     61  C   UNL     1      -7.397   3.352  -3.973  1.00  0.00     0.029 A 
ATOM     62  N   UNL     1      -5.508   4.424  -4.344  1.00  0.00    -0.354 N 
ATOM     63  N   UNL     1      -2.336   2.946  -6.987  1.00  0.00    -0.248 NA
ATOM     64  C   UNL     1      -1.285   3.814  -5.094  1.00  0.00     0.031 C 
ATOM     65  C   UNL     1      -6.965   3.119  -5.312  1.00  0.00     0.029 A 
ATOM     66  C   UNL     1      -5.672   3.631  -5.451  1.00  0.00     0.049 A 
ATOM     67  H   UNL     1      -4.925   5.214  -4.277  1.00  0.00     0.167 HD
ATOM     68  C   UNL     1      -3.301   3.601  -6.234  1.00  0.00     0.074 A 
ATOM     69  C   UNL     1      -2.567   4.190  -5.113  1.00  0.00     0.031 C 
ATOM     70  C   UNL     1      -4.633   3.367  -6.428  1.00  0.00     0.031 A 
BRANCH  57  71
ATOM     71  C   UNL     1      -5.177   4.964  -1.276  1.00  0.00    -0.014 A 
ATOM     72  C   UNL     1      -5.697   6.240  -1.575  1.00  0.00     0.010 A 
ATOM     73  C   UNL     1      -4.014   4.920  -0.480  1.00  0.00     0.010 A 
ATOM     74  C   UNL     1      -5.041   7.407  -1.165  1.00  0.00     0.020 A 
ATOM     75  C   UNL     1      -3.377   6.076  -0.029  1.00  0.00     0.020 A 
ATOM     76  C   UNL     1      -3.875   7.315  -0.406  1.00  0.00     0.054 A 
BRANCH  76  77
ATOM     77  S   UNL     1      -2.974   8.823   0.023  1.00  0.00     0.124 S 
ATOM     78  O   UNL     1      -2.539   9.294  -1.288  1.00  0.00    -0.237 OA
ATOM     79  O   UNL     1      -4.007   9.622   0.676  1.00  0.00    -0.237 OA
ATOM     80  O   UNL     1      -1.910   8.346   0.903  1.00  0.00    -0.744 OA
ENDBRANCH  76  77
ENDBRANCH  57  71
BRANCH  58  81
ATOM     81  C   UNL     1       1.052   1.730  -6.182  1.00  0.00    -0.014 A 
ATOM     82  C   UNL     1       1.708   2.701  -6.963  1.00  0.00     0.010 A 
ATOM     83  C   UNL     1       1.829   1.010  -5.250  1.00  0.00     0.010 A 
ATOM     84  C   UNL     1       3.074   2.987  -6.772  1.00  0.00     0.020 A 
ATOM     85  C   UNL     1       3.189   1.287  -5.057  1.00  0.00     0.020 A 
ATOM     86  C   UNL     1       3.801   2.293  -5.802  1.00  0.00     0.054 A 
BRANCH  86  87
ATOM     87  S   UNL     1       5.510   2.793  -5.422  1.00  0.00     0.124 S 
ATOM     88  O   UNL     1       6.236   2.343  -6.606  1.00  0.00    -0.237 OA
ATOM     89  O   UNL     1       5.391   4.240  -5.264  1.00  0.00    -0.237 OA
ATOM     90  O   UNL     1       5.813   2.063  -4.192  1.00  0.00    -0.744 OA
ENDBRANCH  86  87
ENDBRANCH  58  81
BRANCH  70  91
ATOM     91  C   UNL     1      -5.061   2.584  -7.652  1.00  0.00    -0.014 A 
ATOM     92  C   UNL     1      -4.730   1.233  -7.884  1.00  0.00     0.010 A 
ATOM     93  C   UNL     1      -5.990   3.200  -8.509  1.00  0.00     0.010 A 
ATOM     94  C   UNL     1      -5.308   0.525  -8.952  1.00  0.00     0.020 A 
ATOM     95  C   UNL     1      -6.580   2.497  -9.562  1.00  0.00     0.020 A 
ATOM     96  C   UNL     1      -6.234   1.165  -9.783  1.00  0.00     0.054 A 
BRANCH  96  97
ATOM     97  S   UNL     1      -7.030   0.236 -11.126  1.00  0.00     0.124 S 
ATOM     98  O   UNL     1      -5.928   0.016 -12.057  1.00  0.00    -0.237 OA
ATOM     99  O   UNL     1      -7.529  -0.957 -10.446  1.00  0.00    -0.237 OA
ATOM    100  O   UNL     1      -8.072   1.144 -11.607  1.00  0.00    -0.744 OA
ENDBRANCH  96  97
ENDBRANCH  70  91
ENDBRANCH  44  45
ENDBRANCH  36  39
ENDBRANCH  34  35
ENDBRANCH  33  34
ENDBRANCH  32  33
ENDBRANCH   1  32
TORSDOF 21
