REMARK SMILES O=C(NCCCCCCNC(=O)c1nn(Cc2ccc(F)cc2)c2c1CN(C(=O)[C@H]1CC1(F)F)CC2)c1ccc(-c2c3nc(c(-c4ccc(S(=O)(=O)[O-])cc4)c4ccc([nH]4)c(-c4ccc(S(=O)(=O)[O-])cc4)c4nc(c(-c5ccc(S(=O)(=O)[O-])cc5)c5ccc2[nH]5)C=C4)C=C3)cc1
REMARK SMILES IDX 6 1 5 2 4 3 3 4 1 5 2 6 37 8 38 9 96 10 39 11 95 12 40 13
REMARK SMILES IDX 41 14 42 15 89 16 43 17 94 18 88 19 90 20 44 21 93 22 87 23
REMARK SMILES IDX 86 24 45 26 75 27 56 28 74 29 57 30 60 31 73 32 91 33 58 34
REMARK SMILES IDX 59 35 72 37 92 38 61 39 46 40 47 41 55 42 48 43 54 44 49 45
REMARK SMILES IDX 50 46 51 47 52 48 53 49 76 50 77 51 85 52 78 53 84 54 79 55
REMARK SMILES IDX 80 56 81 57 82 58 83 59 62 60 63 61 71 62 64 63 70 64 65 65
REMARK SMILES IDX 66 66 67 67 68 68 69 69 7 70 8 71 9 72 10 73 11 74 12 76
REMARK SMILES IDX 13 77 14 78 25 79 15 80 24 81 26 82 36 83 27 84 35 85 16 86
REMARK SMILES IDX 17 87 18 88 23 89 19 90 22 91 20 92 21 93 28 94 29 95 30 96
REMARK SMILES IDX 31 97 32 98 33 99 34 100
REMARK H PARENT 3 7 90 25 60 36 10 75
REMARK Flexibility Score: inf
ROOT
ATOM      1  C   UNL     1      10.078  15.856  16.454  1.00  0.00     0.002 C 
ENDROOT
BRANCH   1   2
ATOM      2  C   UNL     1       9.893  17.245  15.824  1.00  0.00     0.021 C 
BRANCH   2   3
ATOM      3  C   UNL     1       8.454  17.599  15.451  1.00  0.00     0.116 C 
BRANCH   3   4
ATOM      4  N   UNL     1       7.552  17.700  16.580  1.00  0.00    -0.352 N 
ATOM      5  O   UNL     1       6.248  18.439  18.199  1.00  0.00    -0.269 OA
ATOM      6  C   UNL     1       7.186  18.700  17.439  1.00  0.00     0.251 C 
ATOM      7  H   UNL     1       7.095  16.851  16.774  1.00  0.00     0.163 HD
BRANCH   6   8
ATOM      8  C   UNL     1       7.869  20.017  17.576  1.00  0.00     0.039 A 
ATOM      9  C   UNL     1       8.710  20.614  16.636  1.00  0.00     0.014 A 
ATOM     10  C   UNL     1       7.629  20.698  18.786  1.00  0.00     0.014 A 
ATOM     11  C   UNL     1       9.364  21.812  16.936  1.00  0.00     0.010 A 
ATOM     12  C   UNL     1       8.271  21.895  19.086  1.00  0.00     0.010 A 
ATOM     13  C   UNL     1       9.170  22.435  18.174  1.00  0.00    -0.014 A 
BRANCH  13  14
ATOM     14  C   UNL     1       9.771  23.751  18.408  1.00  0.00     0.031 A 
ATOM     15  C   UNL     1       9.248  24.825  17.508  1.00  0.00     0.074 A 
ATOM     16  C   UNL     1      10.595  24.039  19.439  1.00  0.00     0.049 A 
ATOM     17  N   UNL     1       9.902  25.539  16.651  1.00  0.00    -0.248 NA
ATOM     18  C   UNL     1       7.791  25.047  17.479  1.00  0.00     0.031 C 
ATOM     19  C   UNL     1      10.970  23.182  20.567  1.00  0.00     0.029 A 
ATOM     20  N   UNL     1      11.201  25.222  19.752  1.00  0.00    -0.354 N 
ATOM     21  C   UNL     1       8.980  26.428  16.102  1.00  0.00     0.074 A 
ATOM     22  C   UNL     1       7.680  25.991  16.543  1.00  0.00     0.031 C 
ATOM     23  C   UNL     1      11.534  23.937  21.541  1.00  0.00     0.029 A 
ATOM     24  C   UNL     1      11.692  25.298  21.055  1.00  0.00     0.049 A 
ATOM     25  H   UNL     1      11.284  25.963  19.109  1.00  0.00     0.167 HD
ATOM     26  C   UNL     1       9.359  27.580  15.480  1.00  0.00     0.031 A 
ATOM     27  C   UNL     1      12.152  26.405  21.699  1.00  0.00     0.031 A 
ATOM     28  C   UNL     1      10.749  27.562  15.117  1.00  0.00     0.049 A 
ATOM     29  C   UNL     1      12.501  27.402  20.660  1.00  0.00     0.074 A 
ATOM     30  C   UNL     1      11.519  26.780  14.279  1.00  0.00     0.029 A 
ATOM     31  N   UNL     1      11.632  28.194  15.960  1.00  0.00    -0.354 N 
ATOM     32  N   UNL     1      13.471  27.236  19.806  1.00  0.00    -0.248 NA
ATOM     33  C   UNL     1      11.480  28.360  20.270  1.00  0.00     0.031 C 
ATOM     34  C   UNL     1      12.744  26.591  14.983  1.00  0.00     0.029 A 
ATOM     35  C   UNL     1      12.682  27.334  16.164  1.00  0.00     0.049 A 
ATOM     36  H   UNL     1      11.530  29.094  16.344  1.00  0.00     0.167 HD
ATOM     37  C   UNL     1      12.968  27.713  18.606  1.00  0.00     0.074 A 
ATOM     38  C   UNL     1      11.767  28.465  18.970  1.00  0.00     0.031 C 
ATOM     39  C   UNL     1      13.414  27.230  17.409  1.00  0.00     0.031 A 
BRANCH  26  40
ATOM     40  C   UNL     1       8.549  28.852  15.517  1.00  0.00    -0.014 A 
ATOM     41  C   UNL     1       8.966  29.965  14.759  1.00  0.00     0.010 A 
ATOM     42  C   UNL     1       7.539  29.076  16.477  1.00  0.00     0.010 A 
ATOM     43  C   UNL     1       8.427  31.241  14.981  1.00  0.00     0.020 A 
ATOM     44  C   UNL     1       6.968  30.334  16.679  1.00  0.00     0.020 A 
ATOM     45  C   UNL     1       7.435  31.417  15.947  1.00  0.00     0.054 A 
BRANCH  45  46
ATOM     46  S   UNL     1       6.798  33.079  16.277  1.00  0.00     0.124 S 
ATOM     47  O   UNL     1       7.976  33.754  16.815  1.00  0.00    -0.237 OA
ATOM     48  O   UNL     1       6.368  33.514  14.951  1.00  0.00    -0.237 OA
ATOM     49  O   UNL     1       5.717  32.849  17.233  1.00  0.00    -0.744 OA
ENDBRANCH  45  46
ENDBRANCH  26  40
BRANCH  27  50
ATOM     50  C   UNL     1      11.982  26.791  23.129  1.00  0.00    -0.014 A 
ATOM     51  C   UNL     1      12.713  27.855  23.700  1.00  0.00     0.010 A 
ATOM     52  C   UNL     1      10.872  26.309  23.851  1.00  0.00     0.010 A 
ATOM     53  C   UNL     1      12.311  28.449  24.913  1.00  0.00     0.020 A 
ATOM     54  C   UNL     1      10.467  26.893  25.059  1.00  0.00     0.020 A 
ATOM     55  C   UNL     1      11.175  27.977  25.575  1.00  0.00     0.054 A 
BRANCH  55  56
ATOM     56  S   UNL     1      10.550  28.859  27.040  1.00  0.00     0.124 S 
ATOM     57  O   UNL     1      11.558  28.545  28.048  1.00  0.00    -0.237 OA
ATOM     58  O   UNL     1      10.519  30.247  26.588  1.00  0.00    -0.237 OA
ATOM     59  O   UNL     1       9.236  28.258  27.269  1.00  0.00    -0.744 OA
ENDBRANCH  55  56
ENDBRANCH  27  50
BRANCH  39  60
ATOM     60  C   UNL     1      14.638  26.339  17.400  1.00  0.00    -0.014 A 
ATOM     61  C   UNL     1      14.721  25.100  18.069  1.00  0.00     0.010 A 
ATOM     62  C   UNL     1      15.697  26.709  16.552  1.00  0.00     0.010 A 
ATOM     63  C   UNL     1      15.846  24.272  17.912  1.00  0.00     0.020 A 
ATOM     64  C   UNL     1      16.808  25.882  16.377  1.00  0.00     0.020 A 
ATOM     65  C   UNL     1      16.884  24.671  17.065  1.00  0.00     0.054 A 
BRANCH  65  66
ATOM     66  S   UNL     1      18.320  23.586  16.828  1.00  0.00     0.124 S 
ATOM     67  O   UNL     1      18.972  23.632  18.134  1.00  0.00    -0.237 OA
ATOM     68  O   UNL     1      17.707  22.307  16.475  1.00  0.00    -0.237 OA
ATOM     69  O   UNL     1      19.064  24.224  15.743  1.00  0.00    -0.744 OA
ENDBRANCH  65  66
ENDBRANCH  39  60
ENDBRANCH  13  14
ENDBRANCH   6   8
ENDBRANCH   3   4
ENDBRANCH   2   3
ENDBRANCH   1   2
BRANCH   1  70
ATOM     70  C   UNL     1       9.564  14.663  15.636  1.00  0.00     0.002 C 
BRANCH  70  71
ATOM     71  C   UNL     1      10.119  14.536  14.212  1.00  0.00     0.021 C 
BRANCH  71  72
ATOM     72  C   UNL     1      11.625  14.269  14.116  1.00  0.00     0.116 C 
BRANCH  72  73
ATOM     73  N   UNL     1      11.958  12.921  14.556  1.00  0.00    -0.351 N 
ATOM     74  C   UNL     1      12.490  11.868  13.840  1.00  0.00     0.272 C 
ATOM     75  H   UNL     1      11.777  12.733  15.505  1.00  0.00     0.163 HD
ATOM     76  O   UNL     1      12.450  10.744  14.342  1.00  0.00    -0.267 OA
BRANCH  74  77
ATOM     77  C   UNL     1      13.043  12.086  12.492  1.00  0.00     0.155 A 
ATOM     78  N   UNL     1      13.696  13.212  12.139  1.00  0.00    -0.167 NA
ATOM     79  C   UNL     1      13.037  11.164  11.407  1.00  0.00     0.026 A 
ATOM     80  N   UNL     1      13.985  13.065  10.830  1.00  0.00    -0.264 N 
ATOM     81  C   UNL     1      13.569  11.865  10.342  1.00  0.00     0.046 A 
ATOM     82  C   UNL     1      12.515   9.767  11.313  1.00  0.00     0.159 C 
ATOM     83  C   UNL     1      13.649  11.351   8.952  1.00  0.00     0.078 C 
ATOM     84  N   UNL     1      12.794   9.238   9.954  1.00  0.00    -0.337 N 
ATOM     85  C   UNL     1      12.641  10.188   8.832  1.00  0.00     0.126 C 
BRANCH  80  86
ATOM     86  C   UNL     1      14.738  14.105  10.138  1.00  0.00     0.180 C 
BRANCH  86  87
ATOM     87  C   UNL     1      13.916  15.353   9.927  1.00  0.00    -0.026 A 
ATOM     88  C   UNL     1      13.743  16.265  10.983  1.00  0.00     0.008 A 
ATOM     89  C   UNL     1      13.306  15.618   8.691  1.00  0.00     0.008 A 
ATOM     90  C   UNL     1      12.979  17.418  10.809  1.00  0.00     0.039 A 
ATOM     91  C   UNL     1      12.544  16.776   8.518  1.00  0.00     0.039 A 
ATOM     92  C   UNL     1      12.386  17.662   9.578  1.00  0.00     0.123 A 
ATOM     93  F   UNL     1      11.646  18.765   9.407  1.00  0.00    -0.207 F 
ENDBRANCH  86  87
ENDBRANCH  80  86
BRANCH  84  94
ATOM     94  C   UNL     1      13.157   7.907   9.815  1.00  0.00     0.232 C 
ATOM     95  O   UNL     1      13.248   7.123  10.756  1.00  0.00    -0.274 OA
BRANCH  94  96
ATOM     96  C   UNL     1      13.369   7.405   8.442  1.00  0.00     0.154 C 
ATOM     97  C   UNL     1      14.615   7.779   7.653  1.00  0.00     0.097 C 
ATOM     98  C   UNL     1      14.419   6.399   8.156  1.00  0.00     0.260 C 
ATOM     99  F   UNL     1      15.295   5.912   9.095  1.00  0.00    -0.206 F 
ATOM    100  F   UNL     1      14.196   5.390   7.244  1.00  0.00    -0.206 F 
ENDBRANCH  94  96
ENDBRANCH  84  94
ENDBRANCH  74  77
ENDBRANCH  72  73
ENDBRANCH  71  72
ENDBRANCH  70  71
ENDBRANCH   1  70
TORSDOF 20
