REMARK SMILES CC(C)[C@H]([NH2+]C[C@H]1CC[C@@H](C(=O)NCCCCCCNC(=O)c2ccc(-c3c4nc(c(-c5ccc(S(=O)(=O)[O-])cc5)c5ccc([nH]5)c(-c5ccc(S(=O)(=O)[O-])cc5)c5nc(c(-c6ccc(S(=O)(=O)[O-])cc6)c6ccc3[nH]6)C=C5)C=C4)cc2)CC1)c1ccccc1
REMARK SMILES IDX 16 1 15 2 14 3 13 4 11 5 12 6 10 8 7 9 8 10 84 11 9 12 83 13
REMARK SMILES IDX 6 14 5 15 4 18 2 19 1 20 3 21 85 22 86 23 90 24 87 25 89 26
REMARK SMILES IDX 88 27 17 28 18 29 19 30 20 31 21 32 22 34 23 35 24 36 82 37
REMARK SMILES IDX 25 38 81 39 26 40 27 41 28 42 75 43 29 44 80 45 74 46 76 47
REMARK SMILES IDX 30 48 79 49 73 50 72 51 31 53 61 54 42 55 60 56 43 57 46 58
REMARK SMILES IDX 59 59 77 60 44 61 45 62 58 64 78 65 47 66 32 67 33 68 41 69
REMARK SMILES IDX 34 70 40 71 35 72 36 73 37 74 38 75 39 76 62 77 63 78 71 79
REMARK SMILES IDX 64 80 70 81 65 82 66 83 67 84 68 85 69 86 48 87 49 88 57 89
REMARK SMILES IDX 50 90 56 91 51 92 52 93 53 94 54 95 55 96
REMARK H PARENT 13 7 5 16 5 17 20 33 76 52 46 63
REMARK Flexibility Score: inf
ROOT
ATOM      1  C   UNL     1       0.372  -2.763   2.369  1.00  0.00     0.002 C 
ENDROOT
BRANCH   1   2
ATOM      2  C   UNL     1       1.184  -2.510   1.093  1.00  0.00     0.021 C 
BRANCH   2   3
ATOM      3  C   UNL     1       2.052  -1.249   1.054  1.00  0.00     0.116 C 
BRANCH   3   4
ATOM      4  N   UNL     1       3.419  -1.483   1.468  1.00  0.00    -0.356 N 
ATOM      5  C   UNL     1       4.612  -1.365   0.832  1.00  0.00     0.223 C 
ATOM      6  O   UNL     1       5.608  -1.549   1.548  1.00  0.00    -0.275 OA
ATOM      7  H   UNL     1       3.500  -1.790   2.399  1.00  0.00     0.163 HD
BRANCH   5   8
ATOM      8  C   UNL     1       4.827  -1.062  -0.666  1.00  0.00     0.078 C 
ATOM      9  C   UNL     1       2.734  -0.743  -2.834  1.00  0.00     0.044 C 
ATOM     10  C   UNL     1       3.109   0.443  -1.923  1.00  0.00     0.010 C 
ATOM     11  C   UNL     1       3.111  -2.124  -2.252  1.00  0.00     0.010 C 
ATOM     12  C   UNL     1       4.439   0.322  -1.185  1.00  0.00     0.014 C 
ATOM     13  C   UNL     1       4.494  -2.197  -1.629  1.00  0.00     0.014 C 
BRANCH   9  14
ATOM     14  C   UNL     1       1.223  -0.683  -3.234  1.00  0.00     0.264 C 
BRANCH  14  15
ATOM     15  N   UNL     1       0.404  -0.824  -2.033  1.00  0.00    -0.340 N 
ATOM     16  H   UNL     1       0.716  -1.670  -1.554  1.00  0.00     0.346 HD
ATOM     17  H   UNL     1       0.544   0.053  -1.531  1.00  0.00     0.346 HD
BRANCH  15  18
ATOM     18  C   UNL     1      -1.053  -0.924  -2.185  1.00  0.00     0.216 C 
BRANCH  18  19
ATOM     19  C   UNL     1      -1.745   0.436  -2.499  1.00  0.00     0.046 C 
ATOM     20  C   UNL     1      -3.272   0.367  -2.310  1.00  0.00     0.014 C 
ATOM     21  C   UNL     1      -1.244   1.544  -1.546  1.00  0.00     0.014 C 
ENDBRANCH  18  19
BRANCH  18  22
ATOM     22  C   UNL     1      -1.467  -2.214  -2.888  1.00  0.00     0.009 A 
ATOM     23  C   UNL     1      -2.227  -2.247  -4.059  1.00  0.00     0.010 A 
ATOM     24  C   UNL     1      -1.109  -3.452  -2.306  1.00  0.00     0.010 A 
ATOM     25  C   UNL     1      -2.672  -3.466  -4.586  1.00  0.00     0.001 A 
ATOM     26  C   UNL     1      -1.532  -4.667  -2.842  1.00  0.00     0.001 A 
ATOM     27  C   UNL     1      -2.333  -4.672  -3.974  1.00  0.00     0.000 A 
ENDBRANCH  18  22
ENDBRANCH  15  18
ENDBRANCH  14  15
ENDBRANCH   9  14
ENDBRANCH   5   8
ENDBRANCH   3   4
ENDBRANCH   2   3
ENDBRANCH   1   2
BRANCH   1  28
ATOM     28  C   UNL     1      -0.700  -1.725   2.744  1.00  0.00     0.002 C 
BRANCH  28  29
ATOM     29  C   UNL     1      -1.665  -1.254   1.646  1.00  0.00     0.021 C 
BRANCH  29  30
ATOM     30  C   UNL     1      -2.540  -2.320   0.967  1.00  0.00     0.116 C 
BRANCH  30  31
ATOM     31  N   UNL     1      -3.661  -2.738   1.784  1.00  0.00    -0.352 N 
ATOM     32  C   UNL     1      -5.007  -2.780   1.495  1.00  0.00     0.251 C 
ATOM     33  H   UNL     1      -3.422  -3.041   2.689  1.00  0.00     0.163 HD
ATOM     34  O   UNL     1      -5.790  -3.005   2.418  1.00  0.00    -0.269 OA
BRANCH  32  35
ATOM     35  C   UNL     1      -5.556  -2.556   0.126  1.00  0.00     0.039 A 
ATOM     36  C   UNL     1      -6.749  -1.829   0.005  1.00  0.00     0.014 A 
ATOM     37  C   UNL     1      -5.011  -3.143  -1.019  1.00  0.00     0.014 A 
ATOM     38  C   UNL     1      -7.375  -1.672  -1.242  1.00  0.00     0.010 A 
ATOM     39  C   UNL     1      -5.626  -2.961  -2.272  1.00  0.00     0.010 A 
ATOM     40  C   UNL     1      -6.817  -2.229  -2.404  1.00  0.00    -0.014 A 
BRANCH  40  41
ATOM     41  C   UNL     1      -7.472  -2.040  -3.737  1.00  0.00     0.031 A 
ATOM     42  C   UNL     1      -8.082  -3.202  -4.487  1.00  0.00     0.074 A 
ATOM     43  C   UNL     1      -7.516  -0.815  -4.302  1.00  0.00     0.049 A 
ATOM     44  N   UNL     1      -8.697  -3.207  -5.646  1.00  0.00    -0.248 NA
ATOM     45  C   UNL     1      -7.980  -4.528  -3.861  1.00  0.00     0.031 C 
ATOM     46  C   UNL     1      -6.958   0.405  -3.719  1.00  0.00     0.029 A 
ATOM     47  N   UNL     1      -8.057  -0.393  -5.495  1.00  0.00    -0.354 N 
ATOM     48  C   UNL     1      -9.049  -4.530  -5.892  1.00  0.00     0.074 A 
ATOM     49  C   UNL     1      -8.542  -5.305  -4.778  1.00  0.00     0.031 C 
ATOM     50  C   UNL     1      -7.202   1.438  -4.542  1.00  0.00     0.029 A 
ATOM     51  C   UNL     1      -7.909   0.955  -5.726  1.00  0.00     0.049 A 
ATOM     52  H   UNL     1      -8.509  -1.000  -6.126  1.00  0.00     0.167 HD
ATOM     53  C   UNL     1      -9.741  -5.056  -6.934  1.00  0.00     0.031 A 
ATOM     54  C   UNL     1      -8.293   1.726  -6.764  1.00  0.00     0.031 A 
ATOM     55  C   UNL     1     -10.258  -4.300  -8.048  1.00  0.00     0.049 A 
ATOM     56  C   UNL     1      -9.042   1.118  -7.920  1.00  0.00     0.074 A 
ATOM     57  C   UNL     1     -11.014  -4.754  -9.118  1.00  0.00     0.029 A 
ATOM     58  N   UNL     1     -10.075  -2.941  -8.242  1.00  0.00    -0.354 N 
ATOM     59  N   UNL     1      -9.413  -0.126  -8.099  1.00  0.00    -0.248 NA
ATOM     60  C   UNL     1      -9.435   2.026  -9.010  1.00  0.00     0.031 C 
ATOM     61  C   UNL     1     -11.244  -3.679  -9.984  1.00  0.00     0.029 A 
ATOM     62  C   UNL     1     -10.680  -2.545  -9.426  1.00  0.00     0.049 A 
ATOM     63  H   UNL     1      -9.587  -2.344  -7.631  1.00  0.00     0.167 HD
ATOM     64  C   UNL     1     -10.105  -0.145  -9.306  1.00  0.00     0.074 A 
ATOM     65  C   UNL     1     -10.112   1.212  -9.809  1.00  0.00     0.031 C 
ATOM     66  C   UNL     1     -10.686  -1.196  -9.934  1.00  0.00     0.031 A 
BRANCH  53  67
ATOM     67  C   UNL     1      -9.982  -6.545  -6.930  1.00  0.00    -0.014 A 
ATOM     68  C   UNL     1     -10.896  -7.130  -6.034  1.00  0.00     0.010 A 
ATOM     69  C   UNL     1      -9.332  -7.364  -7.872  1.00  0.00     0.010 A 
ATOM     70  C   UNL     1     -11.120  -8.509  -6.049  1.00  0.00     0.020 A 
ATOM     71  C   UNL     1      -9.573  -8.741  -7.908  1.00  0.00     0.020 A 
ATOM     72  C   UNL     1     -10.451  -9.307  -6.982  1.00  0.00     0.054 A 
BRANCH  72  73
ATOM     73  S   UNL     1     -10.764 -11.095  -6.988  1.00  0.00     0.124 S 
ATOM     74  O   UNL     1     -10.030 -11.530  -5.801  1.00  0.00    -0.237 OA
ATOM     75  O   UNL     1     -12.222 -11.165  -6.882  1.00  0.00    -0.237 OA
ATOM     76  O   UNL     1     -10.213 -11.541  -8.260  1.00  0.00    -0.744 OA
ENDBRANCH  72  73
ENDBRANCH  53  67
BRANCH  54  77
ATOM     77  C   UNL     1      -7.987   3.183  -6.753  1.00  0.00    -0.014 A 
ATOM     78  C   UNL     1      -9.010   4.126  -6.554  1.00  0.00     0.010 A 
ATOM     79  C   UNL     1      -6.666   3.632  -6.934  1.00  0.00     0.010 A 
ATOM     80  C   UNL     1      -8.721   5.493  -6.547  1.00  0.00     0.020 A 
ATOM     81  C   UNL     1      -6.369   4.997  -6.901  1.00  0.00     0.020 A 
ATOM     82  C   UNL     1      -7.401   5.920  -6.717  1.00  0.00     0.054 A 
BRANCH  82  83
ATOM     83  S   UNL     1      -7.037   7.696  -6.641  1.00  0.00     0.124 S 
ATOM     84  O   UNL     1      -7.521   8.161  -7.937  1.00  0.00    -0.237 OA
ATOM     85  O   UNL     1      -7.813   8.129  -5.482  1.00  0.00    -0.237 OA
ATOM     86  O   UNL     1      -5.587   7.738  -6.460  1.00  0.00    -0.744 OA
ENDBRANCH  82  83
ENDBRANCH  54  77
BRANCH  66  87
ATOM     87  C   UNL     1     -11.408  -0.927 -11.230  1.00  0.00    -0.014 A 
ATOM     88  C   UNL     1     -10.703  -0.647 -12.414  1.00  0.00     0.010 A 
ATOM     89  C   UNL     1     -12.812  -1.005 -11.274  1.00  0.00     0.010 A 
ATOM     90  C   UNL     1     -11.391  -0.422 -13.612  1.00  0.00     0.020 A 
ATOM     91  C   UNL     1     -13.502  -0.804 -12.474  1.00  0.00     0.020 A 
ATOM     92  C   UNL     1     -12.787  -0.500 -13.633  1.00  0.00     0.054 A 
BRANCH  92  93
ATOM     93  S   UNL     1     -13.654  -0.248 -15.208  1.00  0.00     0.124 S 
ATOM     94  O   UNL     1     -13.563   1.200 -15.377  1.00  0.00    -0.237 OA
ATOM     95  O   UNL     1     -12.860  -1.041 -16.144  1.00  0.00    -0.237 OA
ATOM     96  O   UNL     1     -14.997  -0.762 -14.950  1.00  0.00    -0.744 OA
ENDBRANCH  92  93
ENDBRANCH  66  87
ENDBRANCH  40  41
ENDBRANCH  32  35
ENDBRANCH  30  31
ENDBRANCH  29  30
ENDBRANCH  28  29
ENDBRANCH   1  28
TORSDOF 21
