REMARK SMILES O=C(NCCCCCCNC(=O)[C@H](O)Cc1ccc(O)cc1)c1ccc(-c2c3nc(c(-c4ccc(S(=O)(=O)[O-])cc4)c4ccc([nH]4)c(-c4ccc(S(=O)(=O)[O-])cc4)c4nc(c(-c5ccc(S(=O)(=O)[O-])cc5)c5ccc2[nH]5)C=C4)C=C3)cc1
REMARK SMILES IDX 6 1 5 2 4 3 3 4 1 5 2 6 23 8 24 9 82 10 25 11 81 12 26 13
REMARK SMILES IDX 27 14 28 15 75 16 29 17 80 18 74 19 76 20 30 21 79 22 73 23
REMARK SMILES IDX 72 24 31 26 61 27 42 28 60 29 43 30 46 31 59 32 77 33 44 34
REMARK SMILES IDX 45 35 58 37 78 38 47 39 32 40 33 41 41 42 34 43 40 44 35 45
REMARK SMILES IDX 36 46 37 47 38 48 39 49 62 50 63 51 71 52 64 53 70 54 65 55
REMARK SMILES IDX 66 56 67 57 68 58 69 59 48 60 49 61 57 62 50 63 56 64 51 65
REMARK SMILES IDX 52 66 53 67 54 68 55 69 7 70 8 71 9 72 10 73 11 74 12 76
REMARK SMILES IDX 13 77 15 78 16 79 17 80 22 81 18 82 21 83 19 84 20 85 14 87
REMARK H PARENT 3 7 76 25 46 36 10 75 20 86 14 88
REMARK Flexibility Score: inf
ROOT
ATOM      1  C   UNL     1      13.467  -2.454  -3.053  1.00  0.00     0.002 C 
ENDROOT
BRANCH   1   2
ATOM      2  C   UNL     1      14.358  -3.171  -2.040  1.00  0.00     0.021 C 
BRANCH   2   3
ATOM      3  C   UNL     1      15.758  -3.528  -2.523  1.00  0.00     0.116 C 
BRANCH   3   4
ATOM      4  N   UNL     1      16.566  -2.370  -2.868  1.00  0.00    -0.352 N 
ATOM      5  O   UNL     1      18.344  -0.983  -2.806  1.00  0.00    -0.269 OA
ATOM      6  C   UNL     1      17.855  -2.065  -2.493  1.00  0.00     0.251 C 
ATOM      7  H   UNL     1      16.129  -1.710  -3.453  1.00  0.00     0.163 HD
BRANCH   6   8
ATOM      8  C   UNL     1      18.636  -3.024  -1.678  1.00  0.00     0.039 A 
ATOM      9  C   UNL     1      18.655  -4.385  -1.990  1.00  0.00     0.014 A 
ATOM     10  C   UNL     1      19.344  -2.553  -0.568  1.00  0.00     0.014 A 
ATOM     11  C   UNL     1      19.238  -5.288  -1.107  1.00  0.00     0.010 A 
ATOM     12  C   UNL     1      20.002  -3.456   0.274  1.00  0.00     0.010 A 
ATOM     13  C   UNL     1      19.915  -4.837   0.039  1.00  0.00    -0.014 A 
BRANCH  13  14
ATOM     14  C   UNL     1      20.531  -5.829   0.959  1.00  0.00     0.031 A 
ATOM     15  C   UNL     1      20.031  -5.999   2.371  1.00  0.00     0.074 A 
ATOM     16  C   UNL     1      21.520  -6.621   0.499  1.00  0.00     0.049 A 
ATOM     17  N   UNL     1      20.407  -6.867   3.277  1.00  0.00    -0.248 NA
ATOM     18  C   UNL     1      18.981  -5.075   2.829  1.00  0.00     0.031 C 
ATOM     19  C   UNL     1      22.101  -6.549  -0.845  1.00  0.00     0.029 A 
ATOM     20  N   UNL     1      22.190  -7.659   1.094  1.00  0.00    -0.354 N 
ATOM     21  C   UNL     1      19.664  -6.579   4.417  1.00  0.00     0.074 A 
ATOM     22  C   UNL     1      18.827  -5.443   4.094  1.00  0.00     0.031 C 
ATOM     23  C   UNL     1      22.993  -7.539  -0.991  1.00  0.00     0.029 A 
ATOM     24  C   UNL     1      23.088  -8.282   0.261  1.00  0.00     0.049 A 
ATOM     25  H   UNL     1      22.041  -7.932   2.028  1.00  0.00     0.167 HD
ATOM     26  C   UNL     1      19.673  -7.204   5.620  1.00  0.00     0.031 A 
ATOM     27  C   UNL     1      23.899  -9.335   0.473  1.00  0.00     0.031 A 
ATOM     28  C   UNL     1      20.495  -8.343   5.937  1.00  0.00     0.049 A 
ATOM     29  C   UNL     1      23.883 -10.016   1.811  1.00  0.00     0.074 A 
ATOM     30  C   UNL     1      20.547  -9.066   7.117  1.00  0.00     0.029 A 
ATOM     31  N   UNL     1      21.409  -8.926   5.073  1.00  0.00    -0.354 N 
ATOM     32  N   UNL     1      23.147  -9.746   2.862  1.00  0.00    -0.248 NA
ATOM     33  C   UNL     1      24.803 -11.147   1.988  1.00  0.00     0.031 C 
ATOM     34  C   UNL     1      21.520 -10.062   6.979  1.00  0.00     0.029 A 
ATOM     35  C   UNL     1      22.040  -9.989   5.697  1.00  0.00     0.049 A 
ATOM     36  H   UNL     1      21.583  -8.629   4.151  1.00  0.00     0.167 HD
ATOM     37  C   UNL     1      23.503 -10.687   3.821  1.00  0.00     0.074 A 
ATOM     38  C   UNL     1      24.505 -11.542   3.218  1.00  0.00     0.031 C 
ATOM     39  C   UNL     1      23.039 -10.829   5.087  1.00  0.00     0.031 A 
BRANCH  26  40
ATOM     40  C   UNL     1      18.780  -6.650   6.699  1.00  0.00    -0.014 A 
ATOM     41  C   UNL     1      17.387  -6.831   6.658  1.00  0.00     0.010 A 
ATOM     42  C   UNL     1      19.351  -5.973   7.793  1.00  0.00     0.010 A 
ATOM     43  C   UNL     1      16.576  -6.309   7.671  1.00  0.00     0.020 A 
ATOM     44  C   UNL     1      18.545  -5.470   8.819  1.00  0.00     0.020 A 
ATOM     45  C   UNL     1      17.160  -5.625   8.742  1.00  0.00     0.054 A 
BRANCH  45  46
ATOM     46  S   UNL     1      16.087  -4.967  10.049  1.00  0.00     0.124 S 
ATOM     47  O   UNL     1      15.518  -3.787   9.402  1.00  0.00    -0.237 OA
ATOM     48  O   UNL     1      15.152  -6.065  10.283  1.00  0.00    -0.237 OA
ATOM     49  O   UNL     1      17.009  -4.693  11.148  1.00  0.00    -0.744 OA
ENDBRANCH  45  46
ENDBRANCH  26  40
BRANCH  27  50
ATOM     50  C   UNL     1      24.783  -9.816  -0.621  1.00  0.00    -0.014 A 
ATOM     51  C   UNL     1      24.509 -11.027  -1.279  1.00  0.00     0.010 A 
ATOM     52  C   UNL     1      25.886  -9.045  -1.031  1.00  0.00     0.010 A 
ATOM     53  C   UNL     1      25.329 -11.464  -2.323  1.00  0.00     0.020 A 
ATOM     54  C   UNL     1      26.692  -9.466  -2.091  1.00  0.00     0.020 A 
ATOM     55  C   UNL     1      26.414 -10.680  -2.724  1.00  0.00     0.054 A 
BRANCH  55  56
ATOM     56  S   UNL     1      27.428 -11.231  -4.124  1.00  0.00     0.124 S 
ATOM     57  O   UNL     1      28.261 -12.258  -3.508  1.00  0.00    -0.237 OA
ATOM     58  O   UNL     1      26.426 -11.712  -5.072  1.00  0.00    -0.237 OA
ATOM     59  O   UNL     1      28.129 -10.016  -4.534  1.00  0.00    -0.744 OA
ENDBRANCH  55  56
ENDBRANCH  27  50
BRANCH  39  60
ATOM     60  C   UNL     1      23.592 -11.973   5.893  1.00  0.00    -0.014 A 
ATOM     61  C   UNL     1      24.898 -11.934   6.411  1.00  0.00     0.010 A 
ATOM     62  C   UNL     1      22.781 -13.092   6.152  1.00  0.00     0.010 A 
ATOM     63  C   UNL     1      25.399 -13.015   7.142  1.00  0.00     0.020 A 
ATOM     64  C   UNL     1      23.271 -14.165   6.902  1.00  0.00     0.020 A 
ATOM     65  C   UNL     1      24.584 -14.127   7.376  1.00  0.00     0.054 A 
BRANCH  65  66
ATOM     66  S   UNL     1      25.244 -15.511   8.344  1.00  0.00     0.124 S 
ATOM     67  O   UNL     1      26.080 -16.196   7.362  1.00  0.00    -0.237 OA
ATOM     68  O   UNL     1      25.965 -14.838   9.422  1.00  0.00    -0.237 OA
ATOM     69  O   UNL     1      24.049 -16.239   8.764  1.00  0.00    -0.744 OA
ENDBRANCH  65  66
ENDBRANCH  39  60
ENDBRANCH  13  14
ENDBRANCH   6   8
ENDBRANCH   3   4
ENDBRANCH   2   3
ENDBRANCH   1   2
BRANCH   1  70
ATOM     70  C   UNL     1      13.316  -3.133  -4.417  1.00  0.00     0.002 C 
BRANCH  70  71
ATOM     71  C   UNL     1      12.863  -4.598  -4.404  1.00  0.00     0.021 C 
BRANCH  71  72
ATOM     72  C   UNL     1      11.591  -4.896  -3.614  1.00  0.00     0.116 C 
BRANCH  72  73
ATOM     73  N   UNL     1      10.448  -4.135  -4.076  1.00  0.00    -0.354 N 
ATOM     74  C   UNL     1       9.146  -4.526  -4.227  1.00  0.00     0.249 C 
ATOM     75  H   UNL     1      10.636  -3.199  -4.317  1.00  0.00     0.163 HD
ATOM     76  O   UNL     1       8.325  -3.661  -4.540  1.00  0.00    -0.272 OA
BRANCH  74  77
ATOM     77  C   UNL     1       8.770  -6.010  -4.023  1.00  0.00     0.207 C 
BRANCH  77  78
ATOM     78  C   UNL     1       8.760  -6.334  -2.518  1.00  0.00     0.077 C 
BRANCH  78  79
ATOM     79  C   UNL     1       8.621  -7.813  -2.220  1.00  0.00    -0.045 A 
ATOM     80  C   UNL     1       7.591  -8.263  -1.379  1.00  0.00     0.007 A 
ATOM     81  C   UNL     1       9.520  -8.751  -2.749  1.00  0.00     0.007 A 
ATOM     82  C   UNL     1       7.445  -9.623  -1.096  1.00  0.00     0.046 A 
ATOM     83  C   UNL     1       9.367 -10.111  -2.475  1.00  0.00     0.046 A 
ATOM     84  C   UNL     1       8.332 -10.537  -1.653  1.00  0.00     0.115 A 
BRANCH  84  85
ATOM     85  O   UNL     1       8.220 -11.874  -1.413  1.00  0.00    -0.508 OA
ATOM     86  H   UNL     1       7.533 -12.195  -0.864  1.00  0.00     0.293 HD
ENDBRANCH  84  85
ENDBRANCH  78  79
ENDBRANCH  77  78
BRANCH  77  87
ATOM     87  O   UNL     1       7.489  -6.305  -4.586  1.00  0.00    -0.383 OA
ATOM     88  H   UNL     1       6.811  -5.768  -4.146  1.00  0.00     0.211 HD
ENDBRANCH  77  87
ENDBRANCH  74  77
ENDBRANCH  72  73
ENDBRANCH  71  72
ENDBRANCH  70  71
ENDBRANCH   1  70
TORSDOF 20
