REMARK SMILES COC[C@H]1CC[N@@H+]([C@H]2CCC[C@]([NH2+]C(C)C)(C(=O)NCCCCCCNC(=O)c3ccc(-c4c5nc(c(-c6ccc(S(=O)(=O)[O-])cc6)c6ccc([nH]6)c(-c6ccc(S(=O)(=O)[O-])cc6)c6nc(c(-c7ccc(S(=O)(=O)[O-])cc7)c7ccc4[nH]7)C=C6)C=C5)cc3)C2)C1
REMARK SMILES IDX 22 1 21 2 20 3 19 4 17 5 18 6 12 8 8 9 9 10 89 11 10 12
REMARK SMILES IDX 11 13 7 14 4 15 5 16 90 17 6 18 3 20 2 21 1 22 13 23 14 26
REMARK SMILES IDX 15 27 16 28 23 29 24 30 25 31 26 32 27 33 28 35 29 36 30 37
REMARK SMILES IDX 88 38 31 39 87 40 32 41 33 42 34 43 81 44 35 45 86 46 80 47
REMARK SMILES IDX 82 48 36 49 85 50 79 51 78 52 37 54 67 55 48 56 66 57 49 58
REMARK SMILES IDX 52 59 65 60 83 61 50 62 51 63 64 65 84 66 53 67 38 68 39 69
REMARK SMILES IDX 47 70 40 71 46 72 41 73 42 74 43 75 44 76 45 77 68 78 69 79
REMARK SMILES IDX 77 80 70 81 76 82 71 83 72 84 73 85 74 86 75 87 54 88 55 89
REMARK SMILES IDX 63 90 56 91 62 92 57 93 58 94 59 95 60 96 61 97
REMARK H PARENT 19 7 7 19 13 24 13 25 26 34 82 53 52 64
REMARK Flexibility Score: inf
ROOT
ATOM      1  C   UNL     1       2.289  -8.841   1.399  1.00  0.00     0.002 C 
ENDROOT
BRANCH   1   2
ATOM      2  C   UNL     1       1.707  -7.642   2.157  1.00  0.00     0.021 C 
BRANCH   2   3
ATOM      3  C   UNL     1       1.122  -6.535   1.281  1.00  0.00     0.116 C 
BRANCH   3   4
ATOM      4  N   UNL     1       0.142  -7.056   0.356  1.00  0.00    -0.351 N 
ATOM      5  C   UNL     1      -1.164  -6.764   0.133  1.00  0.00     0.281 C 
ATOM      6  O   UNL     1      -1.738  -7.608  -0.563  1.00  0.00    -0.268 OA
ATOM      7  H   UNL     1       0.491  -7.766  -0.229  1.00  0.00     0.163 HD
BRANCH   5   8
ATOM      8  C   UNL     1      -1.879  -5.522   0.787  1.00  0.00     0.181 C 
ATOM      9  C   UNL     1      -1.504  -3.038   1.591  1.00  0.00     0.190 C 
ATOM     10  C   UNL     1      -1.151  -3.525   2.994  1.00  0.00     0.065 C 
ATOM     11  C   UNL     1      -1.134  -4.176   0.598  1.00  0.00     0.144 C 
ATOM     12  C   UNL     1      -1.829  -4.821   3.401  1.00  0.00     0.013 C 
ATOM     13  C   UNL     1      -2.015  -5.891   2.311  1.00  0.00     0.079 C 
BRANCH   9  14
ATOM     14  N   UNL     1      -2.819  -2.384   1.368  1.00  0.00    -0.332 N 
ATOM     15  C   UNL     1      -4.632  -2.019   2.983  1.00  0.00     0.076 C 
ATOM     16  C   UNL     1      -3.561  -0.948   3.131  1.00  0.00     0.073 C 
ATOM     17  C   UNL     1      -4.047  -2.961   1.936  1.00  0.00     0.268 C 
ATOM     18  C   UNL     1      -2.843  -0.972   1.790  1.00  0.00     0.263 C 
ATOM     19  H   UNL     1      -2.860  -2.538   0.360  1.00  0.00     0.348 HD
BRANCH  15  20
ATOM     20  C   UNL     1      -4.985  -2.744   4.287  1.00  0.00     0.169 C 
BRANCH  20  21
ATOM     21  O   UNL     1      -6.233  -2.319   4.838  1.00  0.00    -0.384 OA
ATOM     22  C   UNL     1      -6.246  -0.965   5.257  1.00  0.00     0.194 C 
ENDBRANCH  20  21
ENDBRANCH  15  20
ENDBRANCH   9  14
BRANCH   8  23
ATOM     23  N   UNL     1      -3.262  -5.333   0.233  1.00  0.00    -0.331 N 
ATOM     24  H   UNL     1      -3.513  -4.361   0.412  1.00  0.00     0.347 HD
ATOM     25  H   UNL     1      -3.786  -6.072   0.702  1.00  0.00     0.347 HD
BRANCH  23  26
ATOM     26  C   UNL     1      -3.568  -5.584  -1.187  1.00  0.00     0.176 C 
ATOM     27  C   UNL     1      -5.048  -5.216  -1.372  1.00  0.00     0.075 C 
ATOM     28  C   UNL     1      -2.739  -4.780  -2.189  1.00  0.00     0.075 C 
ENDBRANCH  23  26
ENDBRANCH   8  23
ENDBRANCH   5   8
ENDBRANCH   3   4
ENDBRANCH   2   3
ENDBRANCH   1   2
BRANCH   1  29
ATOM     29  C   UNL     1       3.249  -8.500   0.256  1.00  0.00     0.002 C 
BRANCH  29  30
ATOM     30  C   UNL     1       4.427  -7.604   0.635  1.00  0.00     0.021 C 
BRANCH  30  31
ATOM     31  C   UNL     1       5.253  -8.093   1.817  1.00  0.00     0.116 C 
BRANCH  31  32
ATOM     32  N   UNL     1       5.803  -9.417   1.594  1.00  0.00    -0.352 N 
ATOM     33  C   UNL     1       7.085  -9.864   1.773  1.00  0.00     0.251 C 
ATOM     34  H   UNL     1       5.164 -10.091   1.267  1.00  0.00     0.163 HD
ATOM     35  O   UNL     1       7.403 -10.980   1.360  1.00  0.00    -0.269 OA
BRANCH  33  36
ATOM     36  C   UNL     1       8.088  -9.005   2.436  1.00  0.00     0.039 A 
ATOM     37  C   UNL     1       9.379  -8.957   1.908  1.00  0.00     0.014 A 
ATOM     38  C   UNL     1       7.770  -8.262   3.579  1.00  0.00     0.014 A 
ATOM     39  C   UNL     1      10.338  -8.137   2.502  1.00  0.00     0.010 A 
ATOM     40  C   UNL     1       8.704  -7.382   4.120  1.00  0.00     0.010 A 
ATOM     41  C   UNL     1      10.003  -7.323   3.598  1.00  0.00    -0.014 A 
BRANCH  41  42
ATOM     42  C   UNL     1      11.014  -6.411   4.190  1.00  0.00     0.031 A 
ATOM     43  C   UNL     1      11.507  -6.617   5.596  1.00  0.00     0.074 A 
ATOM     44  C   UNL     1      11.484  -5.384   3.454  1.00  0.00     0.049 A 
ATOM     45  N   UNL     1      12.453  -5.980   6.237  1.00  0.00    -0.248 NA
ATOM     46  C   UNL     1      10.837  -7.657   6.394  1.00  0.00     0.031 C 
ATOM     47  C   UNL     1      11.044  -5.047   2.098  1.00  0.00     0.029 A 
ATOM     48  N   UNL     1      12.448  -4.450   3.733  1.00  0.00    -0.354 N 
ATOM     49  C   UNL     1      12.488  -6.535   7.512  1.00  0.00     0.074 A 
ATOM     50  C   UNL     1      11.427  -7.516   7.571  1.00  0.00     0.031 C 
ATOM     51  C   UNL     1      11.780  -4.023   1.640  1.00  0.00     0.029 A 
ATOM     52  C   UNL     1      12.718  -3.609   2.679  1.00  0.00     0.049 A 
ATOM     53  H   UNL     1      12.904  -4.387   4.603  1.00  0.00     0.167 HD
ATOM     54  C   UNL     1      13.338  -6.268   8.533  1.00  0.00     0.031 A 
ATOM     55  C   UNL     1      13.633  -2.630   2.552  1.00  0.00     0.031 A 
ATOM     56  C   UNL     1      14.387  -5.284   8.469  1.00  0.00     0.049 A 
ATOM     57  C   UNL     1      14.572  -2.354   3.692  1.00  0.00     0.074 A 
ATOM     58  C   UNL     1      15.338  -4.974   9.425  1.00  0.00     0.029 A 
ATOM     59  N   UNL     1      14.617  -4.441   7.391  1.00  0.00    -0.354 N 
ATOM     60  N   UNL     1      14.645  -2.945   4.862  1.00  0.00    -0.248 NA
ATOM     61  C   UNL     1      15.566  -1.292   3.487  1.00  0.00     0.031 C 
ATOM     62  C   UNL     1      16.106  -3.905   8.948  1.00  0.00     0.029 A 
ATOM     63  C   UNL     1      15.676  -3.594   7.667  1.00  0.00     0.049 A 
ATOM     64  H   UNL     1      14.102  -4.446   6.551  1.00  0.00     0.167 HD
ATOM     65  C   UNL     1      15.713  -2.347   5.521  1.00  0.00     0.074 A 
ATOM     66  C   UNL     1      16.261  -1.358   4.614  1.00  0.00     0.031 C 
ATOM     67  C   UNL     1      16.201  -2.601   6.762  1.00  0.00     0.031 A 
BRANCH  54  68
ATOM     68  C   UNL     1      13.143  -7.042   9.813  1.00  0.00    -0.014 A 
ATOM     69  C   UNL     1      13.382  -8.429   9.873  1.00  0.00     0.010 A 
ATOM     70  C   UNL     1      12.714  -6.375  10.975  1.00  0.00     0.010 A 
ATOM     71  C   UNL     1      13.130  -9.142  11.048  1.00  0.00     0.020 A 
ATOM     72  C   UNL     1      12.493  -7.080  12.162  1.00  0.00     0.020 A 
ATOM     73  C   UNL     1      12.677  -8.464  12.183  1.00  0.00     0.054 A 
BRANCH  73  74
ATOM     74  S   UNL     1      12.336  -9.415  13.689  1.00  0.00     0.124 S 
ATOM     75  O   UNL     1      11.092 -10.096  13.339  1.00  0.00    -0.237 OA
ATOM     76  O   UNL     1      13.512 -10.275  13.799  1.00  0.00    -0.237 OA
ATOM     77  O   UNL     1      12.216  -8.393  14.726  1.00  0.00    -0.744 OA
ENDBRANCH  73  74
ENDBRANCH  54  68
BRANCH  55  78
ATOM     78  C   UNL     1      13.740  -1.888   1.266  1.00  0.00    -0.014 A 
ATOM     79  C   UNL     1      14.827  -2.115   0.404  1.00  0.00     0.010 A 
ATOM     80  C   UNL     1      12.728  -0.994   0.872  1.00  0.00     0.010 A 
ATOM     81  C   UNL     1      14.902  -1.460  -0.828  1.00  0.00     0.020 A 
ATOM     82  C   UNL     1      12.786  -0.358  -0.371  1.00  0.00     0.020 A 
ATOM     83  C   UNL     1      13.876  -0.592  -1.212  1.00  0.00     0.054 A 
BRANCH  83  84
ATOM     84  S   UNL     1      13.953   0.181  -2.852  1.00  0.00     0.124 S 
ATOM     85  O   UNL     1      15.018   1.162  -2.676  1.00  0.00    -0.237 OA
ATOM     86  O   UNL     1      14.270  -0.952  -3.718  1.00  0.00    -0.237 OA
ATOM     87  O   UNL     1      12.613   0.735  -3.031  1.00  0.00    -0.744 OA
ENDBRANCH  83  84
ENDBRANCH  55  78
BRANCH  67  88
ATOM     88  C   UNL     1      17.410  -1.815   7.199  1.00  0.00    -0.014 A 
ATOM     89  C   UNL     1      17.328  -0.441   7.488  1.00  0.00     0.010 A 
ATOM     90  C   UNL     1      18.645  -2.473   7.346  1.00  0.00     0.010 A 
ATOM     91  C   UNL     1      18.470   0.270   7.869  1.00  0.00     0.020 A 
ATOM     92  C   UNL     1      19.781  -1.773   7.757  1.00  0.00     0.020 A 
ATOM     93  C   UNL     1      19.691  -0.401   7.996  1.00  0.00     0.054 A 
BRANCH  93  94
ATOM     94  S   UNL     1      21.155   0.540   8.506  1.00  0.00     0.124 S 
ATOM     95  O   UNL     1      21.471   1.290   7.294  1.00  0.00    -0.237 OA
ATOM     96  O   UNL     1      20.653   1.335   9.624  1.00  0.00    -0.237 OA
ATOM     97  O   UNL     1      22.122  -0.494   8.869  1.00  0.00    -0.744 OA
ENDBRANCH  93  94
ENDBRANCH  67  88
ENDBRANCH  41  42
ENDBRANCH  33  36
ENDBRANCH  31  32
ENDBRANCH  30  31
ENDBRANCH  29  30
ENDBRANCH   1  29
TORSDOF 21
