REMARK SMILES CC1(C)[C@H](C(=O)NCCCCCCNC(=O)c2ccc(-c3c4nc(c(-c5ccc(S(=O)(=O)[O-])cc5)c5ccc([nH]5)c(-c5ccc(S(=O)(=O)[O-])cc5)c5nc(c(-c6ccc(S(=O)(=O)[O-])cc6)c6ccc3[nH]6)C=C5)C=C4)cc2)[C@H]1C(=O)Nc1cccc2[nH]ccc12
REMARK SMILES IDX 11 1 10 2 9 3 8 4 7 5 5 6 6 7 4 9 1 10 2 11 3 12 77 13 78 14
REMARK SMILES IDX 79 15 80 16 81 18 82 19 89 20 83 21 85 22 88 23 84 24 86 25
REMARK SMILES IDX 87 26 12 28 13 29 14 30 15 31 16 33 17 34 18 35 76 36 19 37
REMARK SMILES IDX 75 38 20 39 21 40 22 41 69 42 23 43 74 44 68 45 70 46 24 47
REMARK SMILES IDX 73 48 67 49 66 50 25 52 55 53 36 54 54 55 37 56 40 57 53 58
REMARK SMILES IDX 71 59 38 60 39 61 52 63 72 64 41 65 26 66 27 67 35 68 28 69
REMARK SMILES IDX 34 70 29 71 30 72 31 73 32 74 33 75 56 76 57 77 65 78 58 79
REMARK SMILES IDX 64 80 59 81 60 82 61 83 62 84 63 85 42 86 43 87 51 88 44 89
REMARK SMILES IDX 50 90 45 91 46 92 47 93 48 94 49 95
REMARK H PARENT 7 8 80 17 86 27 14 32 70 51 40 62
REMARK Flexibility Score: inf
ROOT
ATOM      1  C   UNL     1      -2.000   6.209  -1.018  1.00  0.00     0.002 C 
ENDROOT
BRANCH   1   2
ATOM      2  C   UNL     1      -1.125   5.213  -1.787  1.00  0.00     0.002 C 
BRANCH   2   3
ATOM      3  C   UNL     1      -0.623   4.022  -0.965  1.00  0.00     0.021 C 
BRANCH   3   4
ATOM      4  C   UNL     1      -1.732   3.145  -0.381  1.00  0.00     0.116 C 
BRANCH   4   5
ATOM      5  N   UNL     1      -2.145   2.129  -1.315  1.00  0.00    -0.356 N 
ATOM      6  C   UNL     1      -1.821   0.819  -1.491  1.00  0.00     0.224 C 
ATOM      7  O   UNL     1      -2.412   0.251  -2.415  1.00  0.00    -0.275 OA
ATOM      8  H   UNL     1      -2.806   2.453  -1.969  1.00  0.00     0.163 HD
BRANCH   6   9
ATOM      9  C   UNL     1      -0.857  -0.003  -0.708  1.00  0.00     0.098 C 
ATOM     10  C   UNL     1       1.595  -0.475  -0.340  1.00  0.00     0.013 C 
ATOM     11  C   UNL     1       0.413   0.363   0.072  1.00  0.00    -0.011 C 
ATOM     12  C   UNL     1       0.918   1.658   0.646  1.00  0.00     0.013 C 
ATOM     13  C   UNL     1      -0.860  -0.159   0.769  1.00  0.00     0.098 C 
BRANCH  13  14
ATOM     14  C   UNL     1      -0.887  -1.376   1.637  1.00  0.00     0.228 C 
ATOM     15  O   UNL     1      -0.839  -1.192   2.853  1.00  0.00    -0.274 OA
ATOM     16  N   UNL     1      -1.238  -2.627   1.189  1.00  0.00    -0.325 N 
ATOM     17  H   UNL     1      -1.851  -3.128   1.774  1.00  0.00     0.169 HD
BRANCH  16  18
ATOM     18  C   UNL     1      -0.851  -3.290   0.022  1.00  0.00     0.050 A 
ATOM     19  C   UNL     1      -1.853  -3.817  -0.799  1.00  0.00     0.027 A 
ATOM     20  C   UNL     1       0.498  -3.579  -0.288  1.00  0.00     0.023 A 
ATOM     21  C   UNL     1      -1.530  -4.426  -2.011  1.00  0.00     0.004 A 
ATOM     22  C   UNL     1       0.791  -4.125  -1.540  1.00  0.00     0.047 A 
ATOM     23  C   UNL     1       1.739  -3.507   0.413  1.00  0.00     0.030 A 
ATOM     24  C   UNL     1      -0.203  -4.532  -2.435  1.00  0.00     0.027 A 
ATOM     25  N   UNL     1       2.163  -4.138  -1.667  1.00  0.00    -0.361 N 
ATOM     26  C   UNL     1       2.748  -3.813  -0.474  1.00  0.00     0.083 A 
ATOM     27  H   UNL     1       2.651  -4.351  -2.496  1.00  0.00     0.166 HD
ENDBRANCH  16  18
ENDBRANCH  13  14
ENDBRANCH   6   9
ENDBRANCH   4   5
ENDBRANCH   3   4
ENDBRANCH   2   3
ENDBRANCH   1   2
BRANCH   1  28
ATOM     28  C   UNL     1      -1.407   6.721   0.298  1.00  0.00     0.021 C 
BRANCH  28  29
ATOM     29  C   UNL     1      -0.071   7.445   0.152  1.00  0.00     0.116 C 
BRANCH  29  30
ATOM     30  N   UNL     1      -0.196   8.636  -0.673  1.00  0.00    -0.352 N 
ATOM     31  C   UNL     1       0.031   9.948  -0.348  1.00  0.00     0.251 C 
ATOM     32  H   UNL     1      -0.486   8.476  -1.600  1.00  0.00     0.163 HD
ATOM     33  O   UNL     1      -0.378  10.840  -1.086  1.00  0.00    -0.269 OA
BRANCH  31  34
ATOM     34  C   UNL     1       0.766  10.287   0.889  1.00  0.00     0.039 A 
ATOM     35  C   UNL     1       0.309  11.342   1.683  1.00  0.00     0.014 A 
ATOM     36  C   UNL     1       1.924   9.590   1.246  1.00  0.00     0.014 A 
ATOM     37  C   UNL     1       0.992  11.672   2.856  1.00  0.00     0.010 A 
ATOM     38  C   UNL     1       2.563   9.874   2.450  1.00  0.00     0.010 A 
ATOM     39  C   UNL     1       2.112  10.926   3.260  1.00  0.00    -0.014 A 
BRANCH  39  40
ATOM     40  C   UNL     1       2.831  11.244   4.520  1.00  0.00     0.031 A 
ATOM     41  C   UNL     1       4.257  11.727   4.476  1.00  0.00     0.074 A 
ATOM     42  C   UNL     1       2.218  11.049   5.704  1.00  0.00     0.049 A 
ATOM     43  N   UNL     1       5.060  12.016   5.468  1.00  0.00    -0.248 NA
ATOM     44  C   UNL     1       4.868  11.882   3.145  1.00  0.00     0.031 C 
ATOM     45  C   UNL     1       0.853  10.545   5.878  1.00  0.00     0.029 A 
ATOM     46  N   UNL     1       2.664  11.247   6.986  1.00  0.00    -0.354 N 
ATOM     47  C   UNL     1       6.271  12.369   4.884  1.00  0.00     0.074 A 
ATOM     48  C   UNL     1       6.114  12.211   3.455  1.00  0.00     0.031 C 
ATOM     49  C   UNL     1       0.566  10.499   7.189  1.00  0.00     0.029 A 
ATOM     50  C   UNL     1       1.734  10.933   7.949  1.00  0.00     0.049 A 
ATOM     51  H   UNL     1       3.565  11.583   7.197  1.00  0.00     0.167 HD
ATOM     52  C   UNL     1       7.407  12.804   5.482  1.00  0.00     0.031 A 
ATOM     53  C   UNL     1       1.813  10.984   9.292  1.00  0.00     0.031 A 
ATOM     54  C   UNL     1       7.554  12.973   6.904  1.00  0.00     0.049 A 
ATOM     55  C   UNL     1       3.083  11.475   9.932  1.00  0.00     0.074 A 
ATOM     56  C   UNL     1       8.644  13.460   7.604  1.00  0.00     0.029 A 
ATOM     57  N   UNL     1       6.583  12.660   7.843  1.00  0.00    -0.354 N 
ATOM     58  N   UNL     1       4.196  11.866   9.359  1.00  0.00    -0.248 NA
ATOM     59  C   UNL     1       3.100  11.547  11.400  1.00  0.00     0.031 C 
ATOM     60  C   UNL     1       8.350  13.396   8.970  1.00  0.00     0.029 A 
ATOM     61  C   UNL     1       7.055  12.925   9.117  1.00  0.00     0.049 A 
ATOM     62  H   UNL     1       5.689  12.303   7.634  1.00  0.00     0.167 HD
ATOM     63  C   UNL     1       5.036  12.259  10.396  1.00  0.00     0.074 A 
ATOM     64  C   UNL     1       4.296  12.072  11.627  1.00  0.00     0.031 C 
ATOM     65  C   UNL     1       6.305  12.734  10.333  1.00  0.00     0.031 A 
BRANCH  52  66
ATOM     66  C   UNL     1       8.583  13.125   4.597  1.00  0.00    -0.014 A 
ATOM     67  C   UNL     1       8.569  14.244   3.744  1.00  0.00     0.010 A 
ATOM     68  C   UNL     1       9.738  12.322   4.650  1.00  0.00     0.010 A 
ATOM     69  C   UNL     1       9.669  14.531   2.933  1.00  0.00     0.020 A 
ATOM     70  C   UNL     1      10.852  12.622   3.861  1.00  0.00     0.020 A 
ATOM     71  C   UNL     1      10.804  13.716   2.995  1.00  0.00     0.054 A 
BRANCH  71  72
ATOM     72  S   UNL     1      12.228  14.128   1.949  1.00  0.00     0.124 S 
ATOM     73  O   UNL     1      11.750  13.742   0.624  1.00  0.00    -0.237 OA
ATOM     74  O   UNL     1      12.381  15.564   2.168  1.00  0.00    -0.237 OA
ATOM     75  O   UNL     1      13.305  13.301   2.487  1.00  0.00    -0.744 OA
ENDBRANCH  71  72
ENDBRANCH  52  66
BRANCH  53  76
ATOM     76  C   UNL     1       0.646  10.577  10.122  1.00  0.00    -0.014 A 
ATOM     77  C   UNL     1      -0.092  11.537  10.838  1.00  0.00     0.010 A 
ATOM     78  C   UNL     1       0.260   9.226  10.194  1.00  0.00     0.010 A 
ATOM     79  C   UNL     1      -1.179  11.151  11.627  1.00  0.00     0.020 A 
ATOM     80  C   UNL     1      -0.844   8.840  10.959  1.00  0.00     0.020 A 
ATOM     81  C   UNL     1      -1.548   9.804  11.682  1.00  0.00     0.054 A 
BRANCH  81  82
ATOM     82  S   UNL     1      -2.990   9.332  12.678  1.00  0.00     0.124 S 
ATOM     83  O   UNL     1      -2.470   9.445  14.037  1.00  0.00    -0.237 OA
ATOM     84  O   UNL     1      -3.982  10.334  12.293  1.00  0.00    -0.237 OA
ATOM     85  O   UNL     1      -3.284   7.973  12.230  1.00  0.00    -0.744 OA
ENDBRANCH  81  82
ENDBRANCH  53  76
BRANCH  65  86
ATOM     86  C   UNL     1       6.962  13.123  11.631  1.00  0.00    -0.014 A 
ATOM     87  C   UNL     1       7.375  12.153  12.562  1.00  0.00     0.010 A 
ATOM     88  C   UNL     1       7.207  14.482  11.901  1.00  0.00     0.010 A 
ATOM     89  C   UNL     1       7.987  12.539  13.758  1.00  0.00     0.020 A 
ATOM     90  C   UNL     1       7.845  14.870  13.082  1.00  0.00     0.020 A 
ATOM     91  C   UNL     1       8.215  13.896  14.011  1.00  0.00     0.054 A 
BRANCH  91  92
ATOM     92  S   UNL     1       9.039  14.370  15.555  1.00  0.00     0.124 S 
ATOM     93  O   UNL     1       7.978  14.171  16.539  1.00  0.00    -0.237 OA
ATOM     94  O   UNL     1      10.150  13.424  15.630  1.00  0.00    -0.237 OA
ATOM     95  O   UNL     1       9.427  15.760  15.329  1.00  0.00    -0.744 OA
ENDBRANCH  91  92
ENDBRANCH  65  86
ENDBRANCH  39  40
ENDBRANCH  31  34
ENDBRANCH  29  30
ENDBRANCH  28  29
ENDBRANCH   1  28
TORSDOF 18
