REMARK SMILES N#C[C@H]1CN(c2cc(C(=O)NCCCCCCNC(=O)c3ccc(-c4c5nc(c(-c6ccc(S(=O)(=O)[O-])cc6)c6ccc([nH]6)c(-c6ccc(S(=O)(=O)[O-])cc6)c6nc(c(-c7ccc(S(=O)(=O)[O-])cc7)c7ccc4[nH]7)C=C6)C=C5)cc3)c(N)cc2F)CCO1
REMARK SMILES IDX 15 1 14 2 13 3 12 4 11 5 9 6 10 7 8 9 6 10 7 11 84 12 83 13
REMARK SMILES IDX 85 14 81 15 5 16 3 17 4 18 88 19 87 20 86 21 2 22 1 23 82 24
REMARK SMILES IDX 16 27 17 28 18 29 19 30 20 32 21 33 22 34 80 35 23 36 79 37
REMARK SMILES IDX 24 38 25 39 26 40 73 41 27 42 78 43 72 44 74 45 28 46 77 47
REMARK SMILES IDX 71 48 70 49 29 51 59 52 40 53 58 54 41 55 44 56 57 57 75 58
REMARK SMILES IDX 42 59 43 60 56 62 76 63 45 64 30 65 31 66 39 67 32 68 38 69
REMARK SMILES IDX 33 70 34 71 35 72 36 73 37 74 60 75 61 76 69 77 62 78 68 79
REMARK SMILES IDX 63 80 64 81 65 82 66 83 67 84 46 85 47 86 55 87 48 88 54 89
REMARK SMILES IDX 49 90 50 91 51 92 52 93 53 94
REMARK H PARENT 11 8 82 25 82 26 18 31 74 50 44 61
REMARK Flexibility Score: inf
ROOT
ATOM      1  C   UNL     1       1.140   7.704  -8.364  1.00  0.00     0.002 C 
ENDROOT
BRANCH   1   2
ATOM      2  C   UNL     1       1.037   8.025  -6.869  1.00  0.00     0.002 C 
BRANCH   2   3
ATOM      3  C   UNL     1       0.514   6.912  -5.958  1.00  0.00     0.021 C 
BRANCH   3   4
ATOM      4  C   UNL     1       1.197   5.558  -6.090  1.00  0.00     0.116 C 
BRANCH   4   5
ATOM      5  N   UNL     1       2.604   5.538  -5.745  1.00  0.00    -0.352 N 
ATOM      6  C   UNL     1       3.381   4.512  -5.255  1.00  0.00     0.253 C 
ATOM      7  O   UNL     1       4.578   4.744  -5.075  1.00  0.00    -0.269 OA
ATOM      8  H   UNL     1       3.078   6.390  -5.883  1.00  0.00     0.163 HD
BRANCH   6   9
ATOM      9  C   UNL     1       2.837   3.170  -4.861  1.00  0.00     0.065 A 
ATOM     10  C   UNL     1       3.128   1.285  -3.304  1.00  0.00     0.074 A 
ATOM     11  C   UNL     1       3.496   2.553  -3.767  1.00  0.00     0.045 A 
ATOM     12  C   UNL     1       1.967   0.725  -3.849  1.00  0.00     0.148 A 
ATOM     13  C   UNL     1       1.311   1.301  -4.926  1.00  0.00     0.067 A 
ATOM     14  F   UNL     1       1.495  -0.437  -3.369  1.00  0.00    -0.205 F 
ATOM     15  C   UNL     1       1.816   2.459  -5.524  1.00  0.00     0.047 A 
BRANCH  10  16
ATOM     16  N   UNL     1       3.934   0.581  -2.434  1.00  0.00    -0.363 N 
ATOM     17  C   UNL     1       3.765  -0.009  -0.048  1.00  0.00     0.240 C 
ATOM     18  C   UNL     1       4.262   1.036  -1.081  1.00  0.00     0.164 C 
ATOM     19  O   UNL     1       4.251  -1.338  -0.368  1.00  0.00    -0.360 OA
ATOM     20  C   UNL     1       3.797  -1.747  -1.671  1.00  0.00     0.183 C 
ATOM     21  C   UNL     1       4.317  -0.800  -2.757  1.00  0.00     0.145 C 
BRANCH  17  22
ATOM     22  C   UNL     1       4.220   0.371   1.303  1.00  0.00     0.096 C 
ATOM     23  N   UNL     1       4.573   0.684   2.362  1.00  0.00    -0.195 NA
ENDBRANCH  17  22
ENDBRANCH  10  16
BRANCH  15  24
ATOM     24  N   UNL     1       1.288   2.805  -6.762  1.00  0.00    -0.398 N 
ATOM     25  H   UNL     1       1.609   3.612  -7.226  1.00  0.00     0.156 HD
ATOM     26  H   UNL     1       0.593   2.244  -7.175  1.00  0.00     0.156 HD
ENDBRANCH  15  24
ENDBRANCH   6   9
ENDBRANCH   4   5
ENDBRANCH   3   4
ENDBRANCH   2   3
ENDBRANCH   1   2
BRANCH   1  27
ATOM     27  C   UNL     1      -0.122   7.156  -9.034  1.00  0.00     0.021 C 
BRANCH  27  28
ATOM     28  C   UNL     1      -1.390   7.974  -8.821  1.00  0.00     0.116 C 
BRANCH  28  29
ATOM     29  N   UNL     1      -1.265   9.340  -9.300  1.00  0.00    -0.352 N 
ATOM     30  C   UNL     1      -2.086  10.044 -10.147  1.00  0.00     0.251 C 
ATOM     31  H   UNL     1      -0.479   9.832  -8.969  1.00  0.00     0.163 HD
ATOM     32  O   UNL     1      -1.735  11.142 -10.569  1.00  0.00    -0.269 OA
BRANCH  30  33
ATOM     33  C   UNL     1      -3.380   9.464 -10.568  1.00  0.00     0.039 A 
ATOM     34  C   UNL     1      -3.749   9.537 -11.914  1.00  0.00     0.014 A 
ATOM     35  C   UNL     1      -4.222   8.842  -9.642  1.00  0.00     0.014 A 
ATOM     36  C   UNL     1      -4.933   8.931 -12.339  1.00  0.00     0.010 A 
ATOM     37  C   UNL     1      -5.355   8.166 -10.082  1.00  0.00     0.010 A 
ATOM     38  C   UNL     1      -5.728   8.209 -11.434  1.00  0.00    -0.014 A 
BRANCH  38  39
ATOM     39  C   UNL     1      -6.954   7.496 -11.877  1.00  0.00     0.031 A 
ATOM     40  C   UNL     1      -8.298   7.890 -11.325  1.00  0.00     0.074 A 
ATOM     41  C   UNL     1      -6.855   6.458 -12.731  1.00  0.00     0.049 A 
ATOM     42  N   UNL     1      -9.472   7.359 -11.552  1.00  0.00    -0.248 NA
ATOM     43  C   UNL     1      -8.321   9.013 -10.373  1.00  0.00     0.031 C 
ATOM     44  C   UNL     1      -5.609   5.964 -13.321  1.00  0.00     0.029 A 
ATOM     45  N   UNL     1      -7.819   5.633 -13.253  1.00  0.00    -0.354 N 
ATOM     46  C   UNL     1     -10.369   8.075 -10.768  1.00  0.00     0.074 A 
ATOM     47  C   UNL     1      -9.593   9.028 -10.006  1.00  0.00     0.031 C 
ATOM     48  C   UNL     1      -5.891   4.951 -14.157  1.00  0.00     0.029 A 
ATOM     49  C   UNL     1      -7.326   4.688 -14.121  1.00  0.00     0.049 A 
ATOM     50  H   UNL     1      -8.774   5.710 -13.027  1.00  0.00     0.167 HD
ATOM     51  C   UNL     1     -11.719   7.968 -10.703  1.00  0.00     0.031 A 
ATOM     52  C   UNL     1      -7.955   3.715 -14.809  1.00  0.00     0.031 A 
ATOM     53  C   UNL     1     -12.484   7.004 -11.450  1.00  0.00     0.049 A 
ATOM     54  C   UNL     1      -9.446   3.570 -14.674  1.00  0.00     0.074 A 
ATOM     55  C   UNL     1     -13.856   6.830 -11.480  1.00  0.00     0.029 A 
ATOM     56  N   UNL     1     -11.942   6.043 -12.293  1.00  0.00    -0.354 N 
ATOM     57  N   UNL     1     -10.285   4.290 -13.968  1.00  0.00    -0.248 NA
ATOM     58  C   UNL     1     -10.077   2.484 -15.437  1.00  0.00     0.031 C 
ATOM     59  C   UNL     1     -14.138   5.720 -12.282  1.00  0.00     0.029 A 
ATOM     60  C   UNL     1     -12.949   5.253 -12.821  1.00  0.00     0.049 A 
ATOM     61  H   UNL     1     -10.982   5.939 -12.486  1.00  0.00     0.167 HD
ATOM     62  C   UNL     1     -11.547   3.770 -14.232  1.00  0.00     0.074 A 
ATOM     63  C   UNL     1     -11.361   2.680 -15.168  1.00  0.00     0.031 C 
ATOM     64  C   UNL     1     -12.752   4.165 -13.749  1.00  0.00     0.031 A 
BRANCH  51  65
ATOM     65  C   UNL     1     -12.442   8.908  -9.770  1.00  0.00    -0.014 A 
ATOM     66  C   UNL     1     -12.449  10.298  -9.995  1.00  0.00     0.010 A 
ATOM     67  C   UNL     1     -13.123   8.398  -8.649  1.00  0.00     0.010 A 
ATOM     68  C   UNL     1     -13.059  11.163  -9.082  1.00  0.00     0.020 A 
ATOM     69  C   UNL     1     -13.769   9.257  -7.754  1.00  0.00     0.020 A 
ATOM     70  C   UNL     1     -13.709  10.636  -7.962  1.00  0.00     0.054 A 
BRANCH  70  71
ATOM     71  S   UNL     1     -14.474  11.783  -6.785  1.00  0.00     0.124 S 
ATOM     72  O   UNL     1     -13.304  12.400  -6.164  1.00  0.00    -0.237 OA
ATOM     73  O   UNL     1     -15.258  12.656  -7.653  1.00  0.00    -0.237 OA
ATOM     74  O   UNL     1     -15.255  10.913  -5.909  1.00  0.00    -0.744 OA
ENDBRANCH  70  71
ENDBRANCH  51  65
BRANCH  52  75
ATOM     75  C   UNL     1      -7.177   2.827 -15.717  1.00  0.00    -0.014 A 
ATOM     76  C   UNL     1      -7.338   2.919 -17.110  1.00  0.00     0.010 A 
ATOM     77  C   UNL     1      -6.250   1.904 -15.197  1.00  0.00     0.010 A 
ATOM     78  C   UNL     1      -6.594   2.103 -17.967  1.00  0.00     0.020 A 
ATOM     79  C   UNL     1      -5.480   1.109 -16.051  1.00  0.00     0.020 A 
ATOM     80  C   UNL     1      -5.662   1.210 -17.432  1.00  0.00     0.054 A 
BRANCH  80  81
ATOM     81  S   UNL     1      -4.657   0.215 -18.568  1.00  0.00     0.124 S 
ATOM     82  O   UNL     1      -5.647  -0.696 -19.133  1.00  0.00    -0.237 OA
ATOM     83  O   UNL     1      -4.130   1.225 -19.483  1.00  0.00    -0.237 OA
ATOM     84  O   UNL     1      -3.663  -0.403 -17.694  1.00  0.00    -0.744 OA
ENDBRANCH  80  81
ENDBRANCH  52  75
BRANCH  64  85
ATOM     85  C   UNL     1     -13.977   3.446 -14.255  1.00  0.00    -0.014 A 
ATOM     86  C   UNL     1     -14.248   2.112 -13.901  1.00  0.00     0.010 A 
ATOM     87  C   UNL     1     -14.904   4.143 -15.052  1.00  0.00     0.010 A 
ATOM     88  C   UNL     1     -15.408   1.481 -14.360  1.00  0.00     0.020 A 
ATOM     89  C   UNL     1     -16.082   3.527 -15.483  1.00  0.00     0.020 A 
ATOM     90  C   UNL     1     -16.320   2.195 -15.143  1.00  0.00     0.054 A 
BRANCH  90  91
ATOM     91  S   UNL     1     -17.843   1.368 -15.678  1.00  0.00     0.124 S 
ATOM     92  O   UNL     1     -17.340   0.402 -16.651  1.00  0.00    -0.237 OA
ATOM     93  O   UNL     1     -18.350   0.800 -14.432  1.00  0.00    -0.237 OA
ATOM     94  O   UNL     1     -18.649   2.451 -16.237  1.00  0.00    -0.744 OA
ENDBRANCH  90  91
ENDBRANCH  64  85
ENDBRANCH  38  39
ENDBRANCH  30  33
ENDBRANCH  28  29
ENDBRANCH  27  28
ENDBRANCH   1  27
TORSDOF 19
