REMARK SMILES C[C@H]1CC=C(C2=NN=C(C(=O)NCCCCCCNC(=O)c3ccc(-c4c5nc(c(-c6ccc(S(=O)(=O)[O-])cc6)c6ccc([nH]6)c(-c6ccc(S(=O)(=O)[O-])cc6)c6nc(c(-c7ccc(S(=O)(=O)[O-])cc7)c7ccc4[nH]7)C=C6)C=C5)cc3)C2)O1
REMARK SMILES IDX 16 1 15 2 14 3 13 4 12 5 10 6 11 7 9 9 6 10 7 11 82 12 8 13
REMARK SMILES IDX 5 14 1 15 2 16 3 17 83 18 4 19 17 20 18 21 19 22 20 23 21 25
REMARK SMILES IDX 22 26 23 27 81 28 24 29 80 30 25 31 26 32 27 33 74 34 28 35
REMARK SMILES IDX 79 36 73 37 75 38 29 39 78 40 72 41 71 42 30 44 60 45 41 46
REMARK SMILES IDX 59 47 42 48 45 49 58 50 76 51 43 52 44 53 57 55 77 56 46 57
REMARK SMILES IDX 31 58 32 59 40 60 33 61 39 62 34 63 35 64 36 65 37 66 38 67
REMARK SMILES IDX 61 68 62 69 70 70 63 71 69 72 64 73 65 74 66 75 67 76 68 77
REMARK SMILES IDX 47 78 48 79 56 80 49 81 55 82 50 83 51 84 52 85 53 86 54 87
REMARK H PARENT 12 8 19 24 75 43 45 54
REMARK Flexibility Score: inf
ROOT
ATOM      1  C   UNL     1       7.838   8.150  -5.778  1.00  0.00     0.002 C 
ENDROOT
BRANCH   1   2
ATOM      2  C   UNL     1       6.380   8.428  -5.387  1.00  0.00     0.002 C 
BRANCH   2   3
ATOM      3  C   UNL     1       5.381   7.299  -5.655  1.00  0.00     0.021 C 
BRANCH   3   4
ATOM      4  C   UNL     1       5.737   5.950  -5.032  1.00  0.00     0.116 C 
BRANCH   4   5
ATOM      5  N   UNL     1       5.708   6.000  -3.580  1.00  0.00    -0.351 N 
ATOM      6  C   UNL     1       5.050   5.196  -2.685  1.00  0.00     0.267 C 
ATOM      7  O   UNL     1       5.131   5.405  -1.478  1.00  0.00    -0.268 OA
ATOM      8  H   UNL     1       6.243   6.722  -3.178  1.00  0.00     0.163 HD
BRANCH   6   9
ATOM      9  C   UNL     1       4.238   4.013  -3.131  1.00  0.00     0.134 C 
ATOM     10  C   UNL     1       2.877   2.248  -3.100  1.00  0.00     0.111 C 
ATOM     11  N   UNL     1       3.469   2.287  -4.256  1.00  0.00    -0.151 NA
ATOM     12  C   UNL     1       3.278   3.367  -2.196  1.00  0.00     0.126 C 
ATOM     13  N   UNL     1       4.348   3.403  -4.271  1.00  0.00    -0.149 NA
BRANCH  10  14
ATOM     14  C   UNL     1       1.969   1.186  -2.644  1.00  0.00     0.139 C 
ATOM     15  C   UNL     1      -1.021   0.037  -1.372  1.00  0.00     0.053 C 
ATOM     16  C   UNL     1       0.499   0.095  -1.376  1.00  0.00     0.174 C 
ATOM     17  C   UNL     1       1.114  -0.910  -2.358  1.00  0.00     0.076 C 
ATOM     18  O   UNL     1       0.950   1.424  -1.734  1.00  0.00    -0.489 OA
ATOM     19  C   UNL     1       2.139  -0.080  -3.016  1.00  0.00     0.025 C 
ENDBRANCH  10  14
ENDBRANCH   6   9
ENDBRANCH   4   5
ENDBRANCH   3   4
ENDBRANCH   2   3
ENDBRANCH   1   2
BRANCH   1  20
ATOM     20  C   UNL     1       8.082   7.653  -7.209  1.00  0.00     0.021 C 
BRANCH  20  21
ATOM     21  C   UNL     1       7.664   8.634  -8.296  1.00  0.00     0.116 C 
BRANCH  21  22
ATOM     22  N   UNL     1       8.497   9.834  -8.318  1.00  0.00    -0.352 N 
ATOM     23  C   UNL     1       8.366  10.943  -9.134  1.00  0.00     0.251 C 
ATOM     24  H   UNL     1       9.241   9.856  -7.674  1.00  0.00     0.163 HD
ATOM     25  O   UNL     1       9.310  11.690  -9.329  1.00  0.00    -0.269 OA
BRANCH  23  26
ATOM     26  C   UNL     1       7.058  11.199  -9.766  1.00  0.00     0.039 A 
ATOM     27  C   UNL     1       6.970  11.573 -11.109  1.00  0.00     0.014 A 
ATOM     28  C   UNL     1       5.909  11.022  -8.998  1.00  0.00     0.014 A 
ATOM     29  C   UNL     1       5.711  11.675 -11.698  1.00  0.00     0.010 A 
ATOM     30  C   UNL     1       4.677  11.004  -9.609  1.00  0.00     0.010 A 
ATOM     31  C   UNL     1       4.564  11.361 -10.950  1.00  0.00    -0.014 A 
BRANCH  31  32
ATOM     32  C   UNL     1       3.258  11.257 -11.602  1.00  0.00     0.031 A 
ATOM     33  C   UNL     1       3.222  10.339 -12.773  1.00  0.00     0.074 A 
ATOM     34  C   UNL     1       2.117  11.751 -11.073  1.00  0.00     0.049 A 
ATOM     35  N   UNL     1       3.080  10.654 -14.018  1.00  0.00    -0.248 NA
ATOM     36  C   UNL     1       3.516   8.913 -12.550  1.00  0.00     0.031 C 
ATOM     37  C   UNL     1       1.948  12.413  -9.773  1.00  0.00     0.029 A 
ATOM     38  N   UNL     1       0.836  11.652 -11.528  1.00  0.00    -0.354 N 
ATOM     39  C   UNL     1       3.022   9.448 -14.710  1.00  0.00     0.074 A 
ATOM     40  C   UNL     1       3.496   8.438 -13.798  1.00  0.00     0.031 C 
ATOM     41  C   UNL     1       0.640  12.426  -9.438  1.00  0.00     0.029 A 
ATOM     42  C   UNL     1      -0.130  11.953 -10.572  1.00  0.00     0.049 A 
ATOM     43  H   UNL     1       0.613  11.391 -12.451  1.00  0.00     0.167 HD
ATOM     44  C   UNL     1       2.322   9.332 -15.874  1.00  0.00     0.031 A 
ATOM     45  C   UNL     1      -1.474  11.823 -10.691  1.00  0.00     0.031 A 
ATOM     46  C   UNL     1       1.938  10.623 -16.387  1.00  0.00     0.049 A 
ATOM     47  C   UNL     1      -1.784  11.831 -12.136  1.00  0.00     0.074 A 
ATOM     48  C   UNL     1       2.595  11.737 -16.861  1.00  0.00     0.029 A 
ATOM     49  N   UNL     1       0.661  11.017 -16.067  1.00  0.00    -0.354 N 
ATOM     50  N   UNL     1      -1.582  12.866 -12.903  1.00  0.00    -0.248 NA
ATOM     51  C   UNL     1      -1.969  10.568 -12.834  1.00  0.00     0.031 C 
ATOM     52  C   UNL     1       1.792  12.847 -16.463  1.00  0.00     0.029 A 
ATOM     53  C   UNL     1       0.651  12.363 -15.818  1.00  0.00     0.049 A 
ATOM     54  H   UNL     1      -0.124  10.424 -16.023  1.00  0.00     0.167 HD
ATOM     55  C   UNL     1      -1.170  12.330 -14.111  1.00  0.00     0.074 A 
ATOM     56  C   UNL     1      -1.586  10.933 -14.062  1.00  0.00     0.031 C 
ATOM     57  C   UNL     1      -0.278  12.997 -14.901  1.00  0.00     0.031 A 
BRANCH  44  58
ATOM     58  C   UNL     1       1.575   8.082 -16.291  1.00  0.00    -0.014 A 
ATOM     59  C   UNL     1       0.903   8.075 -17.533  1.00  0.00     0.010 A 
ATOM     60  C   UNL     1       1.259   7.042 -15.393  1.00  0.00     0.010 A 
ATOM     61  C   UNL     1      -0.081   7.120 -17.826  1.00  0.00     0.020 A 
ATOM     62  C   UNL     1       0.311   6.061 -15.692  1.00  0.00     0.020 A 
ATOM     63  C   UNL     1      -0.378   6.126 -16.895  1.00  0.00     0.054 A 
BRANCH  63  64
ATOM     64  S   UNL     1      -1.719   4.958 -17.235  1.00  0.00     0.124 S 
ATOM     65  O   UNL     1      -2.889   5.830 -17.212  1.00  0.00    -0.237 OA
ATOM     66  O   UNL     1      -1.344   4.431 -18.545  1.00  0.00    -0.237 OA
ATOM     67  O   UNL     1      -1.626   4.002 -16.134  1.00  0.00    -0.744 OA
ENDBRANCH  63  64
ENDBRANCH  44  58
BRANCH  45  68
ATOM     68  C   UNL     1      -2.469  11.473  -9.651  1.00  0.00    -0.014 A 
ATOM     69  C   UNL     1      -3.843  11.701  -9.848  1.00  0.00     0.010 A 
ATOM     70  C   UNL     1      -2.088  10.648  -8.573  1.00  0.00     0.010 A 
ATOM     71  C   UNL     1      -4.804  11.072  -9.038  1.00  0.00     0.020 A 
ATOM     72  C   UNL     1      -3.039  10.021  -7.759  1.00  0.00     0.020 A 
ATOM     73  C   UNL     1      -4.395  10.216  -8.011  1.00  0.00     0.054 A 
BRANCH  73  74
ATOM     74  S   UNL     1      -5.642   9.267  -7.088  1.00  0.00     0.124 S 
ATOM     75  O   UNL     1      -6.298  10.302  -6.296  1.00  0.00    -0.237 OA
ATOM     76  O   UNL     1      -6.449   8.680  -8.155  1.00  0.00    -0.237 OA
ATOM     77  O   UNL     1      -4.846   8.310  -6.320  1.00  0.00    -0.744 OA
ENDBRANCH  73  74
ENDBRANCH  45  68
BRANCH  57  78
ATOM     78  C   UNL     1      -0.103  14.480 -14.673  1.00  0.00    -0.014 A 
ATOM     79  C   UNL     1       0.387  15.051 -13.483  1.00  0.00     0.010 A 
ATOM     80  C   UNL     1      -0.354  15.326 -15.768  1.00  0.00     0.010 A 
ATOM     81  C   UNL     1       0.591  16.437 -13.385  1.00  0.00     0.020 A 
ATOM     82  C   UNL     1      -0.135  16.701 -15.685  1.00  0.00     0.020 A 
ATOM     83  C   UNL     1       0.326  17.253 -14.489  1.00  0.00     0.054 A 
BRANCH  83  84
ATOM     84  S   UNL     1       0.619  19.041 -14.375  1.00  0.00     0.124 S 
ATOM     85  O   UNL     1      -0.423  19.475 -13.448  1.00  0.00    -0.237 OA
ATOM     86  O   UNL     1       1.986  19.115 -13.865  1.00  0.00    -0.237 OA
ATOM     87  O   UNL     1       0.455  19.510 -15.751  1.00  0.00    -0.744 OA
ENDBRANCH  83  84
ENDBRANCH  57  78
ENDBRANCH  31  32
ENDBRANCH  23  26
ENDBRANCH  21  22
ENDBRANCH  20  21
ENDBRANCH   1  20
TORSDOF 17
