REMARK SMILES COc1c[nH]c(C[N@H+]2CCC[C@@H](c3ccc(C(=O)NCCCCCCNC(=O)c4ccc(-c5c6nc(c(-c7ccc(S(=O)(=O)[O-])cc7)c7ccc([nH]7)c(-c7ccc(S(=O)(=O)[O-])cc7)c7nc(c(-c8ccc(S(=O)(=O)[O-])cc8)c8ccc5[nH]8)C=C7)C=C6)cc4)cc3)C2)cc1=O
REMARK SMILES IDX 22 1 21 2 20 3 19 4 17 5 18 6 16 8 13 9 14 10 90 11 15 12
REMARK SMILES IDX 89 13 12 14 8 15 9 16 91 17 10 19 11 20 7 21 6 22 3 23 4 24
REMARK SMILES IDX 93 25 5 26 92 27 94 28 2 30 1 31 23 32 24 33 25 34 26 35
REMARK SMILES IDX 27 36 28 38 29 39 30 40 88 41 31 42 87 43 32 44 33 45 34 46
REMARK SMILES IDX 81 47 35 48 86 49 80 50 82 51 36 52 85 53 79 54 78 55 37 57
REMARK SMILES IDX 67 58 48 59 66 60 49 61 52 62 65 63 83 64 50 65 51 66 64 68
REMARK SMILES IDX 84 69 53 70 38 71 39 72 47 73 40 74 46 75 41 76 42 77 43 78
REMARK SMILES IDX 44 79 45 80 68 81 69 82 77 83 70 84 76 85 71 86 72 87 73 88
REMARK SMILES IDX 74 89 75 90 54 91 55 92 63 93 56 94 62 95 57 96 58 97 59 98
REMARK SMILES IDX 60 99 61 100
REMARK H PARENT 19 7 8 18 5 29 26 37 82 56 52 67
REMARK Flexibility Score: inf
ROOT
ATOM      1  C   UNL     1      -8.497  10.013  -4.519  1.00  0.00     0.002 C 
ENDROOT
BRANCH   1   2
ATOM      2  C   UNL     1      -7.005   9.973  -4.162  1.00  0.00     0.021 C 
BRANCH   2   3
ATOM      3  C   UNL     1      -6.694   9.042  -2.989  1.00  0.00     0.116 C 
BRANCH   3   4
ATOM      4  N   UNL     1      -6.739   7.664  -3.436  1.00  0.00    -0.352 N 
ATOM      5  C   UNL     1      -5.752   6.789  -3.802  1.00  0.00     0.251 C 
ATOM      6  O   UNL     1      -6.092   5.667  -4.179  1.00  0.00    -0.269 OA
ATOM      7  H   UNL     1      -7.647   7.288  -3.485  1.00  0.00     0.163 HD
BRANCH   5   8
ATOM      8  C   UNL     1      -4.302   7.106  -3.682  1.00  0.00     0.039 A 
ATOM      9  C   UNL     1      -1.540   7.516  -3.231  1.00  0.00    -0.039 A 
ATOM     10  C   UNL     1      -2.093   6.226  -3.200  1.00  0.00     0.005 A 
ATOM     11  C   UNL     1      -2.371   8.582  -3.590  1.00  0.00     0.005 A 
ATOM     12  C   UNL     1      -3.458   6.027  -3.402  1.00  0.00     0.014 A 
ATOM     13  C   UNL     1      -3.733   8.373  -3.842  1.00  0.00     0.014 A 
BRANCH   9  14
ATOM     14  C   UNL     1      -0.077   7.765  -2.882  1.00  0.00     0.074 C 
ATOM     15  N   UNL     1       1.728   7.093  -1.216  1.00  0.00    -0.329 N 
ATOM     16  C   UNL     1       2.569   6.632  -2.329  1.00  0.00     0.262 C 
ATOM     17  C   UNL     1       0.302   7.054  -1.562  1.00  0.00     0.270 C 
ATOM     18  H   UNL     1       1.963   8.071  -1.046  1.00  0.00     0.348 HD
ATOM     19  C   UNL     1       2.301   7.425  -3.609  1.00  0.00     0.062 C 
ATOM     20  C   UNL     1       0.838   7.318  -4.027  1.00  0.00     0.020 C 
BRANCH  15  21
ATOM     21  C   UNL     1       2.025   6.367   0.043  1.00  0.00     0.317 C 
BRANCH  21  22
ATOM     22  C   UNL     1       1.769   4.858   0.028  1.00  0.00     0.074 A 
ATOM     23  C   UNL     1       1.021   2.132  -0.380  1.00  0.00     0.182 A 
ATOM     24  C   UNL     1       0.126   3.110  -0.186  1.00  0.00     0.133 A 
ATOM     25  C   UNL     1       2.471   2.525  -0.251  1.00  0.00     0.223 A 
ATOM     26  N   UNL     1       0.463   4.405   0.092  1.00  0.00    -0.357 N 
ATOM     27  C   UNL     1       2.780   3.976  -0.085  1.00  0.00     0.083 A 
ATOM     28  O   UNL     1       3.392   1.716  -0.310  1.00  0.00    -0.286 OA
ATOM     29  H   UNL     1      -0.248   5.037   0.346  1.00  0.00     0.166 HD
BRANCH  23  30
ATOM     30  O   UNL     1       0.608   0.872  -0.771  1.00  0.00    -0.491 OA
ATOM     31  C   UNL     1       1.130  -0.169   0.043  1.00  0.00     0.278 C 
ENDBRANCH  23  30
ENDBRANCH  21  22
ENDBRANCH  15  21
ENDBRANCH   9  14
ENDBRANCH   5   8
ENDBRANCH   3   4
ENDBRANCH   2   3
ENDBRANCH   1   2
BRANCH   1  32
ATOM     32  C   UNL     1      -9.405  10.574  -3.418  1.00  0.00     0.002 C 
BRANCH  32  33
ATOM     33  C   UNL     1      -9.005  11.959  -2.903  1.00  0.00     0.021 C 
BRANCH  33  34
ATOM     34  C   UNL     1      -9.031  13.047  -3.970  1.00  0.00     0.116 C 
BRANCH  34  35
ATOM     35  N   UNL     1     -10.389  13.326  -4.414  1.00  0.00    -0.352 N 
ATOM     36  C   UNL     1     -11.049  14.531  -4.430  1.00  0.00     0.251 C 
ATOM     37  H   UNL     1     -10.899  12.552  -4.746  1.00  0.00     0.163 HD
ATOM     38  O   UNL     1     -12.257  14.582  -4.611  1.00  0.00    -0.269 OA
BRANCH  36  39
ATOM     39  C   UNL     1     -10.269  15.766  -4.210  1.00  0.00     0.039 A 
ATOM     40  C   UNL     1     -10.693  16.687  -3.249  1.00  0.00     0.014 A 
ATOM     41  C   UNL     1      -9.098  15.985  -4.940  1.00  0.00     0.014 A 
ATOM     42  C   UNL     1      -9.905  17.808  -2.977  1.00  0.00     0.010 A 
ATOM     43  C   UNL     1      -8.286  17.067  -4.624  1.00  0.00     0.010 A 
ATOM     44  C   UNL     1      -8.682  17.990  -3.642  1.00  0.00    -0.014 A 
BRANCH  44  45
ATOM     45  C   UNL     1      -7.792  19.143  -3.362  1.00  0.00     0.031 A 
ATOM     46  C   UNL     1      -7.516  20.139  -4.455  1.00  0.00     0.074 A 
ATOM     47  C   UNL     1      -7.151  19.233  -2.181  1.00  0.00     0.049 A 
ATOM     48  N   UNL     1      -6.631  21.100  -4.493  1.00  0.00    -0.248 NA
ATOM     49  C   UNL     1      -8.324  20.014  -5.680  1.00  0.00     0.031 C 
ATOM     50  C   UNL     1      -7.323  18.320  -1.049  1.00  0.00     0.029 A 
ATOM     51  N   UNL     1      -6.203  20.125  -1.746  1.00  0.00    -0.354 N 
ATOM     52  C   UNL     1      -6.749  21.670  -5.755  1.00  0.00     0.074 A 
ATOM     53  C   UNL     1      -7.767  20.926  -6.463  1.00  0.00     0.031 C 
ATOM     54  C   UNL     1      -6.512  18.703  -0.049  1.00  0.00     0.029 A 
ATOM     55  C   UNL     1      -5.728  19.855  -0.484  1.00  0.00     0.049 A 
ATOM     56  H   UNL     1      -5.893  20.887  -2.287  1.00  0.00     0.167 HD
ATOM     57  C   UNL     1      -6.076  22.724  -6.273  1.00  0.00     0.031 A 
ATOM     58  C   UNL     1      -4.754  20.451   0.231  1.00  0.00     0.031 A 
ATOM     59  C   UNL     1      -5.081  23.471  -5.554  1.00  0.00     0.049 A 
ATOM     60  C   UNL     1      -4.014  21.617  -0.366  1.00  0.00     0.074 A 
ATOM     61  C   UNL     1      -4.373  24.584  -5.971  1.00  0.00     0.029 A 
ATOM     62  N   UNL     1      -4.658  23.186  -4.264  1.00  0.00    -0.354 N 
ATOM     63  N   UNL     1      -4.160  22.163  -1.550  1.00  0.00    -0.248 NA
ATOM     64  C   UNL     1      -2.983  22.252   0.467  1.00  0.00     0.031 C 
ATOM     65  C   UNL     1      -3.492  24.948  -4.949  1.00  0.00     0.029 A 
ATOM     66  C   UNL     1      -3.692  24.095  -3.874  1.00  0.00     0.049 A 
ATOM     67  H   UNL     1      -4.996  22.447  -3.709  1.00  0.00     0.167 HD
ATOM     68  C   UNL     1      -3.268  23.229  -1.588  1.00  0.00     0.074 A 
ATOM     69  C   UNL     1      -2.584  23.250  -0.311  1.00  0.00     0.031 C 
ATOM     70  C   UNL     1      -3.042  24.115  -2.588  1.00  0.00     0.031 A 
BRANCH  57  71
ATOM     71  C   UNL     1      -6.390  23.122  -7.690  1.00  0.00    -0.014 A 
ATOM     72  C   UNL     1      -7.621  23.713  -8.024  1.00  0.00     0.010 A 
ATOM     73  C   UNL     1      -5.427  22.928  -8.698  1.00  0.00     0.010 A 
ATOM     74  C   UNL     1      -7.902  24.062  -9.347  1.00  0.00     0.020 A 
ATOM     75  C   UNL     1      -5.693  23.302 -10.018  1.00  0.00     0.020 A 
ATOM     76  C   UNL     1      -6.938  23.849 -10.337  1.00  0.00     0.054 A 
BRANCH  76  77
ATOM     77  S   UNL     1      -7.324  24.323 -12.044  1.00  0.00     0.124 S 
ATOM     78  O   UNL     1      -8.250  23.267 -12.446  1.00  0.00    -0.237 OA
ATOM     79  O   UNL     1      -7.916  25.649 -11.884  1.00  0.00    -0.237 OA
ATOM     80  O   UNL     1      -6.026  24.301 -12.713  1.00  0.00    -0.744 OA
ENDBRANCH  76  77
ENDBRANCH  57  71
BRANCH  58  81
ATOM     81  C   UNL     1      -4.428  19.958   1.597  1.00  0.00    -0.014 A 
ATOM     82  C   UNL     1      -4.777  20.715   2.728  1.00  0.00     0.010 A 
ATOM     83  C   UNL     1      -3.782  18.720   1.776  1.00  0.00     0.010 A 
ATOM     84  C   UNL     1      -4.474  20.253   4.013  1.00  0.00     0.020 A 
ATOM     85  C   UNL     1      -3.500  18.243   3.059  1.00  0.00     0.020 A 
ATOM     86  C   UNL     1      -3.838  19.018   4.170  1.00  0.00     0.054 A 
BRANCH  86  87
ATOM     87  S   UNL     1      -3.502  18.414   5.847  1.00  0.00     0.124 S 
ATOM     88  O   UNL     1      -2.375  19.248   6.250  1.00  0.00    -0.237 OA
ATOM     89  O   UNL     1      -4.763  18.675   6.536  1.00  0.00    -0.237 OA
ATOM     90  O   UNL     1      -3.195  17.000   5.644  1.00  0.00    -0.744 OA
ENDBRANCH  86  87
ENDBRANCH  58  81
BRANCH  70  91
ATOM     91  C   UNL     1      -2.063  25.228  -2.335  1.00  0.00    -0.014 A 
ATOM     92  C   UNL     1      -0.677  25.003  -2.359  1.00  0.00     0.010 A 
ATOM     93  C   UNL     1      -2.546  26.542  -2.184  1.00  0.00     0.010 A 
ATOM     94  C   UNL     1       0.212  26.075  -2.234  1.00  0.00     0.020 A 
ATOM     95  C   UNL     1      -1.661  27.617  -2.082  1.00  0.00     0.020 A 
ATOM     96  C   UNL     1      -0.286  27.376  -2.104  1.00  0.00     0.054 A 
BRANCH  96  97
ATOM     97  S   UNL     1       0.886  28.759  -2.041  1.00  0.00     0.124 S 
ATOM     98  O   UNL     1       1.427  28.636  -0.690  1.00  0.00    -0.237 OA
ATOM     99  O   UNL     1       1.816  28.441  -3.122  1.00  0.00    -0.237 OA
ATOM    100  O   UNL     1       0.049  29.934  -2.273  1.00  0.00    -0.744 OA
ENDBRANCH  96  97
ENDBRANCH  70  91
ENDBRANCH  44  45
ENDBRANCH  36  39
ENDBRANCH  34  35
ENDBRANCH  33  34
ENDBRANCH  32  33
ENDBRANCH   1  32
TORSDOF 20
