REMARK SMILES CCc1ccc2c(c1)C=C(C(=O)NCCCCCCNC(=O)c1ccc(-c3c4nc(c(-c5ccc(S(=O)(=O)[O-])cc5)c5ccc([nH]5)c(-c5ccc(S(=O)(=O)[O-])cc5)c5nc(c(-c6ccc(S(=O)(=O)[O-])cc6)c6ccc3[nH]6)C=C5)C=C4)cc1)[C@H](C(F)(F)F)O2
REMARK SMILES IDX 17 1 16 2 15 3 14 4 13 5 11 6 12 7 10 9 3 10 4 11 8 12 5 13
REMARK SMILES IDX 7 14 6 15 9 16 88 17 83 18 2 19 1 20 84 21 85 22 86 23 87 24
REMARK SMILES IDX 18 25 19 26 20 27 21 28 22 30 23 31 24 32 82 33 25 34 81 35
REMARK SMILES IDX 26 36 27 37 28 38 75 39 29 40 80 41 74 42 76 43 30 44 79 45
REMARK SMILES IDX 73 46 72 47 31 49 61 50 42 51 60 52 43 53 46 54 59 55 77 56
REMARK SMILES IDX 44 57 45 58 58 60 78 61 47 62 32 63 33 64 41 65 34 66 40 67
REMARK SMILES IDX 35 68 36 69 37 70 38 71 39 72 62 73 63 74 71 75 64 76 70 77
REMARK SMILES IDX 65 78 66 79 67 80 68 81 69 82 48 83 49 84 57 85 50 86 56 87
REMARK SMILES IDX 51 88 52 89 53 90 54 91 55 92
REMARK H PARENT 13 8 20 29 76 48 46 59
REMARK Flexibility Score: inf
ROOT
ATOM      1  C   UNL     1       0.260  -8.608   0.267  1.00  0.00     0.002 C 
ENDROOT
BRANCH   1   2
ATOM      2  C   UNL     1      -0.659  -8.003  -0.801  1.00  0.00     0.002 C 
BRANCH   2   3
ATOM      3  C   UNL     1      -0.319  -6.557  -1.191  1.00  0.00     0.021 C 
BRANCH   3   4
ATOM      4  C   UNL     1       1.062  -6.419  -1.846  1.00  0.00     0.116 C 
BRANCH   4   5
ATOM      5  N   UNL     1       0.983  -6.845  -3.234  1.00  0.00    -0.352 N 
ATOM      6  C   UNL     1       0.782  -6.171  -4.397  1.00  0.00     0.251 C 
ATOM      7  O   UNL     1       0.557  -6.827  -5.411  1.00  0.00    -0.270 OA
ATOM      8  H   UNL     1       1.099  -7.815  -3.356  1.00  0.00     0.163 HD
BRANCH   6   9
ATOM      9  C   UNL     1       0.913  -4.694  -4.501  1.00  0.00     0.067 C 
ATOM     10  C   UNL     1       0.892  -0.238  -2.617  1.00  0.00    -0.047 A 
ATOM     11  C   UNL     1       1.607   0.223  -3.730  1.00  0.00     0.007 A 
ATOM     12  C   UNL     1       0.474  -1.577  -2.592  1.00  0.00     0.015 A 
ATOM     13  C   UNL     1       1.934  -0.647  -4.773  1.00  0.00     0.047 A 
ATOM     14  C   UNL     1       0.806  -2.451  -3.634  1.00  0.00     0.017 A 
ATOM     15  C   UNL     1       1.544  -1.984  -4.718  1.00  0.00     0.128 A 
ATOM     16  C   UNL     1       0.499  -3.868  -3.530  1.00  0.00     0.025 C 
ATOM     17  O   UNL     1       1.989  -2.794  -5.720  1.00  0.00    -0.475 OA
ATOM     18  C   UNL     1       1.402  -4.125  -5.831  1.00  0.00     0.314 C 
BRANCH  10  19
ATOM     19  C   UNL     1       0.577   0.688  -1.466  1.00  0.00     0.032 C 
ATOM     20  C   UNL     1       1.143   0.208  -0.135  1.00  0.00     0.009 C 
ENDBRANCH  10  19
BRANCH  18  21
ATOM     21  C   UNL     1       2.388  -4.982  -6.658  1.00  0.00     0.429 C 
ATOM     22  F   UNL     1       1.770  -5.934  -7.393  1.00  0.00    -0.167 F 
ATOM     23  F   UNL     1       3.050  -4.212  -7.566  1.00  0.00    -0.167 F 
ATOM     24  F   UNL     1       3.332  -5.577  -5.894  1.00  0.00    -0.167 F 
ENDBRANCH  18  21
ENDBRANCH   6   9
ENDBRANCH   4   5
ENDBRANCH   3   4
ENDBRANCH   2   3
ENDBRANCH   1   2
BRANCH   1  25
ATOM     25  C   UNL     1       0.350  -7.804   1.567  1.00  0.00     0.021 C 
BRANCH  25  26
ATOM     26  C   UNL     1      -0.977  -7.661   2.305  1.00  0.00     0.116 C 
BRANCH  26  27
ATOM     27  N   UNL     1      -1.473  -8.948   2.766  1.00  0.00    -0.352 N 
ATOM     28  C   UNL     1      -1.827  -9.336   4.034  1.00  0.00     0.251 C 
ATOM     29  H   UNL     1      -1.568  -9.638   2.070  1.00  0.00     0.163 HD
ATOM     30  O   UNL     1      -1.989 -10.525   4.287  1.00  0.00    -0.269 OA
BRANCH  28  31
ATOM     31  C   UNL     1      -2.001  -8.318   5.091  1.00  0.00     0.039 A 
ATOM     32  C   UNL     1      -1.490  -8.570   6.365  1.00  0.00     0.014 A 
ATOM     33  C   UNL     1      -2.684  -7.125   4.830  1.00  0.00     0.014 A 
ATOM     34  C   UNL     1      -1.629  -7.607   7.367  1.00  0.00     0.010 A 
ATOM     35  C   UNL     1      -2.752  -6.136   5.806  1.00  0.00     0.010 A 
ATOM     36  C   UNL     1      -2.238  -6.372   7.089  1.00  0.00    -0.014 A 
BRANCH  36  37
ATOM     37  C   UNL     1      -2.348  -5.325   8.137  1.00  0.00     0.031 A 
ATOM     38  C   UNL     1      -3.700  -4.878   8.627  1.00  0.00     0.074 A 
ATOM     39  C   UNL     1      -1.229  -4.751   8.622  1.00  0.00     0.049 A 
ATOM     40  N   UNL     1      -3.991  -3.984   9.537  1.00  0.00    -0.248 NA
ATOM     41  C   UNL     1      -4.878  -5.494   7.995  1.00  0.00     0.031 C 
ATOM     42  C   UNL     1       0.137  -5.062   8.191  1.00  0.00     0.029 A 
ATOM     43  N   UNL     1      -1.060  -3.791   9.587  1.00  0.00    -0.354 N 
ATOM     44  C   UNL     1      -5.380  -3.925   9.580  1.00  0.00     0.074 A 
ATOM     45  C   UNL     1      -5.872  -4.827   8.563  1.00  0.00     0.031 C 
ATOM     46  C   UNL     1       1.003  -4.336   8.916  1.00  0.00     0.029 A 
ATOM     47  C   UNL     1       0.257  -3.483   9.835  1.00  0.00     0.049 A 
ATOM     48  H   UNL     1      -1.812  -3.361  10.057  1.00  0.00     0.167 HD
ATOM     49  C   UNL     1      -6.174  -3.202  10.406  1.00  0.00     0.031 A 
ATOM     50  C   UNL     1       0.804  -2.617  10.709  1.00  0.00     0.031 A 
ATOM     51  C   UNL     1      -5.679  -2.312  11.422  1.00  0.00     0.049 A 
ATOM     52  C   UNL     1      -0.098  -1.832  11.622  1.00  0.00     0.074 A 
ATOM     53  C   UNL     1      -6.399  -1.573  12.345  1.00  0.00     0.029 A 
ATOM     54  N   UNL     1      -4.338  -2.038  11.650  1.00  0.00    -0.354 N 
ATOM     55  N   UNL     1      -1.408  -1.841  11.693  1.00  0.00    -0.248 NA
ATOM     56  C   UNL     1       0.554  -0.937  12.587  1.00  0.00     0.031 C 
ATOM     57  C   UNL     1      -5.497  -0.813  13.096  1.00  0.00     0.029 A 
ATOM     58  C   UNL     1      -4.211  -1.128  12.686  1.00  0.00     0.049 A 
ATOM     59  H   UNL     1      -3.588  -2.433  11.149  1.00  0.00     0.167 HD
ATOM     60  C   UNL     1      -1.735  -0.979  12.735  1.00  0.00     0.074 A 
ATOM     61  C   UNL     1      -0.486  -0.479  13.270  1.00  0.00     0.031 C 
ATOM     62  C   UNL     1      -2.960  -0.638  13.208  1.00  0.00     0.031 A 
BRANCH  49  63
ATOM     63  C   UNL     1      -7.666  -3.345  10.241  1.00  0.00    -0.014 A 
ATOM     64  C   UNL     1      -8.324  -4.544  10.572  1.00  0.00     0.010 A 
ATOM     65  C   UNL     1      -8.427  -2.254   9.784  1.00  0.00     0.010 A 
ATOM     66  C   UNL     1      -9.707  -4.664  10.408  1.00  0.00     0.020 A 
ATOM     67  C   UNL     1      -9.815  -2.359   9.648  1.00  0.00     0.020 A 
ATOM     68  C   UNL     1     -10.443  -3.570   9.944  1.00  0.00     0.054 A 
BRANCH  68  69
ATOM     69  S   UNL     1     -12.239  -3.747   9.761  1.00  0.00     0.124 S 
ATOM     70  O   UNL     1     -12.338  -4.614   8.589  1.00  0.00    -0.237 OA
ATOM     71  O   UNL     1     -12.631  -4.358  11.028  1.00  0.00    -0.237 OA
ATOM     72  O   UNL     1     -12.705  -2.377   9.562  1.00  0.00    -0.744 OA
ENDBRANCH  68  69
ENDBRANCH  49  63
BRANCH  50  73
ATOM     73  C   UNL     1       2.284  -2.473  10.784  1.00  0.00    -0.014 A 
ATOM     74  C   UNL     1       2.995  -2.944  11.902  1.00  0.00     0.010 A 
ATOM     75  C   UNL     1       2.994  -1.874   9.726  1.00  0.00     0.010 A 
ATOM     76  C   UNL     1       4.384  -2.800  11.972  1.00  0.00     0.020 A 
ATOM     77  C   UNL     1       4.386  -1.756   9.779  1.00  0.00     0.020 A 
ATOM     78  C   UNL     1       5.071  -2.209  10.908  1.00  0.00     0.054 A 
BRANCH  78  79
ATOM     79  S   UNL     1       6.878  -2.076  10.998  1.00  0.00     0.124 S 
ATOM     80  O   UNL     1       7.055  -1.014  11.984  1.00  0.00    -0.237 OA
ATOM     81  O   UNL     1       7.271  -3.415  11.430  1.00  0.00    -0.237 OA
ATOM     82  O   UNL     1       7.263  -1.732   9.631  1.00  0.00    -0.744 OA
ENDBRANCH  78  79
ENDBRANCH  50  73
BRANCH  62  83
ATOM     83  C   UNL     1      -3.008   0.285  14.398  1.00  0.00    -0.014 A 
ATOM     84  C   UNL     1      -2.658   1.642  14.291  1.00  0.00     0.010 A 
ATOM     85  C   UNL     1      -3.450  -0.213  15.637  1.00  0.00     0.010 A 
ATOM     86  C   UNL     1      -2.705   2.474  15.414  1.00  0.00     0.020 A 
ATOM     87  C   UNL     1      -3.529   0.622  16.754  1.00  0.00     0.020 A 
ATOM     88  C   UNL     1      -3.138   1.956  16.639  1.00  0.00     0.054 A 
BRANCH  88  89
ATOM     89  S   UNL     1      -3.212   3.060  18.076  1.00  0.00     0.124 S 
ATOM     90  O   UNL     1      -1.799   3.220  18.409  1.00  0.00    -0.237 OA
ATOM     91  O   UNL     1      -3.869   4.247  17.534  1.00  0.00    -0.237 OA
ATOM     92  O   UNL     1      -4.000   2.309  19.050  1.00  0.00    -0.744 OA
ENDBRANCH  88  89
ENDBRANCH  62  83
ENDBRANCH  36  37
ENDBRANCH  28  31
ENDBRANCH  26  27
ENDBRANCH  25  26
ENDBRANCH   1  25
TORSDOF 18
