REMARK SMILES Nn1c(S[C@@H](C(=O)NCCCCCCNC(=O)c2ccc(-c3c4nc(c(-c5ccc(S(=O)(=O)[O-])cc5)c5ccc([nH]5)c(-c5ccc(S(=O)(=O)[O-])cc5)c5nc(c(-c6ccc(S(=O)(=O)[O-])cc6)c6ccc3[nH]6)C=C5)C=C4)cc2)c2ccccc2)nc2ccc(Br)cc2c1=O
REMARK SMILES IDX 11 1 10 2 9 3 8 4 6 5 7 6 5 8 4 9 3 10 2 11 92 12 84 13
REMARK SMILES IDX 91 14 93 15 85 16 90 17 86 18 88 19 87 20 89 21 1 22 78 25
REMARK SMILES IDX 79 26 83 27 80 28 82 29 81 30 12 31 13 32 14 33 15 34 16 35
REMARK SMILES IDX 17 37 18 38 19 39 77 40 20 41 76 42 21 43 22 44 23 45 70 46
REMARK SMILES IDX 24 47 75 48 69 49 71 50 25 51 74 52 68 53 67 54 26 56 56 57
REMARK SMILES IDX 37 58 55 59 38 60 41 61 54 62 72 63 39 64 40 65 53 67 73 68
REMARK SMILES IDX 42 69 27 70 28 71 36 72 29 73 35 74 30 75 31 76 32 77 33 78
REMARK SMILES IDX 34 79 57 80 58 81 66 82 59 83 65 84 60 85 61 86 62 87 63 88
REMARK SMILES IDX 64 89 43 90 44 91 52 92 45 93 51 94 46 95 47 96 48 97 49 98
REMARK SMILES IDX 50 99
REMARK H PARENT 8 7 1 23 1 24 15 36 71 55 41 66
REMARK Flexibility Score: inf
ROOT
ATOM      1  C   UNL     1       5.412   1.159   2.702  1.00  0.00     0.002 C 
ENDROOT
BRANCH   1   2
ATOM      2  C   UNL     1       4.838   2.111   1.641  1.00  0.00     0.021 C 
BRANCH   2   3
ATOM      3  C   UNL     1       5.000   1.646   0.189  1.00  0.00     0.116 C 
BRANCH   3   4
ATOM      4  N   UNL     1       4.396   0.342  -0.018  1.00  0.00    -0.355 N 
ATOM      5  C   UNL     1       3.205  -0.030  -0.582  1.00  0.00     0.238 C 
ATOM      6  O   UNL     1       2.925  -1.223  -0.419  1.00  0.00    -0.273 OA
ATOM      7  H   UNL     1       4.941  -0.411   0.307  1.00  0.00     0.163 HD
BRANCH   5   8
ATOM      8  C   UNL     1       2.341   0.985  -1.379  1.00  0.00     0.174 C 
BRANCH   8   9
ATOM      9  S   UNL     1       1.741   2.306  -0.290  1.00  0.00    -0.068 SA
BRANCH   9  10
ATOM     10  C   UNL     1       0.463   1.818   0.789  1.00  0.00     0.191 A 
ATOM     11  N   UNL     1      -0.042   0.530   0.956  1.00  0.00    -0.202 N 
ATOM     12  C   UNL     1      -1.065   0.250   1.869  1.00  0.00     0.280 A 
ATOM     13  N   UNL     1       0.013   2.824   1.476  1.00  0.00    -0.222 NA
ATOM     14  C   UNL     1      -1.589   1.389   2.631  1.00  0.00     0.069 A 
ATOM     15  O   UNL     1      -1.541  -0.874   2.038  1.00  0.00    -0.267 OA
ATOM     16  C   UNL     1      -1.020   2.635   2.392  1.00  0.00     0.079 A 
ATOM     17  C   UNL     1      -2.635   1.226   3.545  1.00  0.00     0.031 A 
ATOM     18  C   UNL     1      -1.511   3.742   3.088  1.00  0.00     0.030 A 
ATOM     19  C   UNL     1      -3.115   2.341   4.226  1.00  0.00     0.018 A 
ATOM     20  C   UNL     1      -2.558   3.600   4.003  1.00  0.00     0.018 A 
ATOM     21  Br  UNL     1      -4.538   2.148   5.454  1.00  0.00    -0.051 Br
BRANCH  11  22
ATOM     22  N   UNL     1       0.372  -0.563   0.186  1.00  0.00    -0.334 N 
ATOM     23  H   UNL     1       1.088  -0.453  -0.481  1.00  0.00     0.178 HD
ATOM     24  H   UNL     1      -0.052  -1.443   0.312  1.00  0.00     0.178 HD
ENDBRANCH  11  22
ENDBRANCH   9  10
ENDBRANCH   8   9
BRANCH   8  25
ATOM     25  C   UNL     1       1.313   0.478  -2.407  1.00  0.00    -0.025 A 
ATOM     26  C   UNL     1       1.264  -0.858  -2.843  1.00  0.00     0.005 A 
ATOM     27  C   UNL     1       0.395   1.373  -2.998  1.00  0.00     0.005 A 
ATOM     28  C   UNL     1       0.279  -1.300  -3.733  1.00  0.00     0.000 A 
ATOM     29  C   UNL     1      -0.586   0.934  -3.893  1.00  0.00     0.000 A 
ATOM     30  C   UNL     1      -0.656  -0.407  -4.246  1.00  0.00     0.000 A 
ENDBRANCH   8  25
ENDBRANCH   5   8
ENDBRANCH   3   4
ENDBRANCH   2   3
ENDBRANCH   1   2
BRANCH   1  31
ATOM     31  C   UNL     1       6.890   0.792   2.543  1.00  0.00     0.002 C 
BRANCH  31  32
ATOM     32  C   UNL     1       7.851   1.975   2.425  1.00  0.00     0.021 C 
BRANCH  32  33
ATOM     33  C   UNL     1       7.815   2.959   3.588  1.00  0.00     0.116 C 
BRANCH  33  34
ATOM     34  N   UNL     1       8.330   2.394   4.826  1.00  0.00    -0.352 N 
ATOM     35  C   UNL     1       9.266   2.919   5.690  1.00  0.00     0.251 C 
ATOM     36  H   UNL     1       7.959   1.518   5.081  1.00  0.00     0.163 HD
ATOM     37  O   UNL     1       9.684   2.257   6.630  1.00  0.00    -0.269 OA
BRANCH  35  38
ATOM     38  C   UNL     1       9.797   4.279   5.438  1.00  0.00     0.039 A 
ATOM     39  C   UNL     1       8.932   5.345   5.182  1.00  0.00     0.014 A 
ATOM     40  C   UNL     1      11.181   4.468   5.397  1.00  0.00     0.014 A 
ATOM     41  C   UNL     1       9.447   6.553   4.718  1.00  0.00     0.010 A 
ATOM     42  C   UNL     1      11.697   5.705   4.999  1.00  0.00     0.010 A 
ATOM     43  C   UNL     1      10.834   6.739   4.602  1.00  0.00    -0.014 A 
BRANCH  43  44
ATOM     44  C   UNL     1      11.372   7.995   4.015  1.00  0.00     0.031 A 
ATOM     45  C   UNL     1      12.096   7.960   2.692  1.00  0.00     0.074 A 
ATOM     46  C   UNL     1      11.165   9.173   4.637  1.00  0.00     0.049 A 
ATOM     47  N   UNL     1      12.681   8.938   2.050  1.00  0.00    -0.248 NA
ATOM     48  C   UNL     1      12.169   6.663   1.995  1.00  0.00     0.031 C 
ATOM     49  C   UNL     1      10.423   9.347   5.887  1.00  0.00     0.029 A 
ATOM     50  N   UNL     1      11.537  10.449   4.292  1.00  0.00    -0.354 N 
ATOM     51  C   UNL     1      13.201   8.376   0.888  1.00  0.00     0.074 A 
ATOM     52  C   UNL     1      12.885   6.966   0.920  1.00  0.00     0.031 C 
ATOM     53  C   UNL     1      10.351  10.655   6.176  1.00  0.00     0.029 A 
ATOM     54  C   UNL     1      11.103  11.409   5.177  1.00  0.00     0.049 A 
ATOM     55  H   UNL     1      12.065  10.657   3.487  1.00  0.00     0.167 HD
ATOM     56  C   UNL     1      13.868   8.986  -0.119  1.00  0.00     0.031 A 
ATOM     57  C   UNL     1      11.300  12.743   5.196  1.00  0.00     0.031 A 
ATOM     58  C   UNL     1      14.159  10.394  -0.158  1.00  0.00     0.049 A 
ATOM     59  C   UNL     1      12.121  13.380   4.110  1.00  0.00     0.074 A 
ATOM     60  C   UNL     1      14.847  11.096  -1.133  1.00  0.00     0.029 A 
ATOM     61  N   UNL     1      13.767  11.315   0.799  1.00  0.00    -0.354 N 
ATOM     62  N   UNL     1      12.643  12.823   3.044  1.00  0.00    -0.248 NA
ATOM     63  C   UNL     1      12.392  14.820   4.231  1.00  0.00     0.031 C 
ATOM     64  C   UNL     1      14.913  12.434  -0.742  1.00  0.00     0.029 A 
ATOM     65  C   UNL     1      14.212  12.576   0.445  1.00  0.00     0.049 A 
ATOM     66  H   UNL     1      13.250  11.104   1.610  1.00  0.00     0.167 HD
ATOM     67  C   UNL     1      13.284  13.847   2.357  1.00  0.00     0.074 A 
ATOM     68  C   UNL     1      13.079  15.060   3.120  1.00  0.00     0.031 C 
ATOM     69  C   UNL     1      13.982  13.782   1.199  1.00  0.00     0.031 A 
BRANCH  56  70
ATOM     70  C   UNL     1      14.333   8.158  -1.287  1.00  0.00    -0.014 A 
ATOM     71  C   UNL     1      15.710   7.939  -1.482  1.00  0.00     0.010 A 
ATOM     72  C   UNL     1      13.425   7.742  -2.276  1.00  0.00     0.010 A 
ATOM     73  C   UNL     1      16.175   7.361  -2.666  1.00  0.00     0.020 A 
ATOM     74  C   UNL     1      13.886   7.141  -3.452  1.00  0.00     0.020 A 
ATOM     75  C   UNL     1      15.259   6.980  -3.651  1.00  0.00     0.054 A 
BRANCH  75  76
ATOM     76  S   UNL     1      15.884   6.285  -5.206  1.00  0.00     0.124 S 
ATOM     77  O   UNL     1      16.398   7.469  -5.888  1.00  0.00    -0.237 OA
ATOM     78  O   UNL     1      16.891   5.331  -4.748  1.00  0.00    -0.237 OA
ATOM     79  O   UNL     1      14.698   5.681  -5.810  1.00  0.00    -0.744 OA
ENDBRANCH  75  76
ENDBRANCH  56  70
BRANCH  57  80
ATOM     80  C   UNL     1      10.704  13.560   6.289  1.00  0.00    -0.014 A 
ATOM     81  C   UNL     1      11.148  13.414   7.616  1.00  0.00     0.010 A 
ATOM     82  C   UNL     1       9.659  14.460   6.014  1.00  0.00     0.010 A 
ATOM     83  C   UNL     1      10.531  14.117   8.654  1.00  0.00     0.020 A 
ATOM     84  C   UNL     1       9.060  15.190   7.046  1.00  0.00     0.020 A 
ATOM     85  C   UNL     1       9.484  14.994   8.363  1.00  0.00     0.054 A 
BRANCH  85  86
ATOM     86  S   UNL     1       8.690  15.892   9.725  1.00  0.00     0.124 S 
ATOM     87  O   UNL     1       7.790  14.877  10.266  1.00  0.00    -0.237 OA
ATOM     88  O   UNL     1       9.821  16.250  10.577  1.00  0.00    -0.237 OA
ATOM     89  O   UNL     1       8.038  17.015   9.056  1.00  0.00    -0.744 OA
ENDBRANCH  85  86
ENDBRANCH  57  80
BRANCH  69  90
ATOM     90  C   UNL     1      14.571  15.048   0.638  1.00  0.00    -0.014 A 
ATOM     91  C   UNL     1      14.042  15.589  -0.549  1.00  0.00     0.010 A 
ATOM     92  C   UNL     1      15.749  15.590   1.178  1.00  0.00     0.010 A 
ATOM     93  C   UNL     1      14.711  16.616  -1.217  1.00  0.00     0.020 A 
ATOM     94  C   UNL     1      16.408  16.635   0.524  1.00  0.00     0.020 A 
ATOM     95  C   UNL     1      15.902  17.119  -0.685  1.00  0.00     0.054 A 
BRANCH  95  96
ATOM     96  S   UNL     1      16.800  18.397  -1.607  1.00  0.00     0.124 S 
ATOM     97  O   UNL     1      17.427  17.622  -2.674  1.00  0.00    -0.237 OA
ATOM     98  O   UNL     1      15.731  19.300  -2.029  1.00  0.00    -0.237 OA
ATOM     99  O   UNL     1      17.718  18.953  -0.616  1.00  0.00    -0.744 OA
ENDBRANCH  95  96
ENDBRANCH  69  90
ENDBRANCH  43  44
ENDBRANCH  35  38
ENDBRANCH  33  34
ENDBRANCH  32  33
ENDBRANCH  31  32
ENDBRANCH   1  31
TORSDOF 20
