REMARK SMILES CC[C@@H](C)[C@@H](C(=O)NCCCCCCNC(=O)c1ccc(-c2c3nc(c(-c4ccc(S(=O)(=O)[O-])cc4)c4ccc([nH]4)c(-c4ccc(S(=O)(=O)[O-])cc4)c4nc(c(-c5ccc(S(=O)(=O)[O-])cc5)c5ccc2[nH]5)C=C4)C=C3)cc1)S(=O)(=O)c1ccc(OC)cc1
REMARK SMILES IDX 11 1 10 2 9 3 8 4 6 5 7 6 5 8 3 9 4 10 2 11 1 12 78 13 79 14
REMARK SMILES IDX 80 15 81 16 82 17 88 18 83 19 87 20 84 21 85 22 86 23 12 24
REMARK SMILES IDX 13 25 14 26 15 27 16 28 17 30 18 31 19 32 77 33 20 34 76 35
REMARK SMILES IDX 21 36 22 37 23 38 70 39 24 40 75 41 69 42 71 43 25 44 74 45
REMARK SMILES IDX 68 46 67 47 26 49 56 50 37 51 55 52 38 53 41 54 54 55 72 56
REMARK SMILES IDX 39 57 40 58 53 60 73 61 42 62 27 63 28 64 36 65 29 66 35 67
REMARK SMILES IDX 30 68 31 69 32 70 33 71 34 72 57 73 58 74 66 75 59 76 65 77
REMARK SMILES IDX 60 78 61 79 62 80 63 81 64 82 43 83 44 84 52 85 45 86 51 87
REMARK SMILES IDX 46 88 47 89 48 90 49 91 50 92
REMARK H PARENT 8 7 15 29 71 48 41 59
REMARK Flexibility Score: inf
ROOT
ATOM      1  C   UNL     1       0.701   4.418  -1.532  1.00  0.00     0.002 C 
ENDROOT
BRANCH   1   2
ATOM      2  C   UNL     1       0.413   2.943  -1.245  1.00  0.00     0.021 C 
BRANCH   2   3
ATOM      3  C   UNL     1      -0.450   2.235  -2.299  1.00  0.00     0.116 C 
BRANCH   3   4
ATOM      4  N   UNL     1       0.346   1.914  -3.458  1.00  0.00    -0.355 N 
ATOM      5  C   UNL     1       0.765   0.794  -4.084  1.00  0.00     0.239 C 
ATOM      6  O   UNL     1       1.306   1.103  -5.151  1.00  0.00    -0.274 OA
ATOM      7  H   UNL     1       0.667   2.726  -3.913  1.00  0.00     0.163 HD
BRANCH   5   8
ATOM      8  C   UNL     1       0.541  -0.678  -3.640  1.00  0.00     0.205 C 
BRANCH   8   9
ATOM      9  C   UNL     1       1.118  -1.247  -2.275  1.00  0.00     0.014 C 
ATOM     10  C   UNL     1       0.567  -2.651  -1.953  1.00  0.00     0.009 C 
BRANCH   9  11
ATOM     11  C   UNL     1       0.838  -0.354  -1.066  1.00  0.00     0.002 C 
ATOM     12  C   UNL     1       1.425  -0.749   0.282  1.00  0.00     0.004 C 
ENDBRANCH   9  11
ENDBRANCH   8   9
BRANCH   8  13
ATOM     13  S   UNL     1       1.162  -1.745  -5.051  1.00  0.00     0.190 S 
ATOM     14  O   UNL     1       0.724  -3.110  -4.808  1.00  0.00    -0.223 OA
ATOM     15  O   UNL     1       0.846  -1.185  -6.352  1.00  0.00    -0.223 OA
BRANCH  13  16
ATOM     16  C   UNL     1       2.959  -1.764  -4.907  1.00  0.00     0.068 A 
ATOM     17  C   UNL     1       3.628  -2.981  -4.749  1.00  0.00     0.024 A 
ATOM     18  C   UNL     1       3.702  -0.583  -4.943  1.00  0.00     0.024 A 
ATOM     19  C   UNL     1       5.024  -2.994  -4.612  1.00  0.00     0.048 A 
ATOM     20  C   UNL     1       5.089  -0.599  -4.779  1.00  0.00     0.048 A 
ATOM     21  C   UNL     1       5.761  -1.805  -4.622  1.00  0.00     0.118 A 
BRANCH  21  22
ATOM     22  O   UNL     1       7.114  -1.941  -4.483  1.00  0.00    -0.497 OA
ATOM     23  C   UNL     1       7.884  -0.745  -4.579  1.00  0.00     0.278 C 
ENDBRANCH  21  22
ENDBRANCH  13  16
ENDBRANCH   8  13
ENDBRANCH   5   8
ENDBRANCH   3   4
ENDBRANCH   2   3
ENDBRANCH   1   2
BRANCH   1  24
ATOM     24  C   UNL     1      -0.531   5.319  -1.554  1.00  0.00     0.002 C 
BRANCH  24  25
ATOM     25  C   UNL     1      -1.449   5.168  -0.340  1.00  0.00     0.021 C 
BRANCH  25  26
ATOM     26  C   UNL     1      -0.753   5.348   1.006  1.00  0.00     0.116 C 
BRANCH  26  27
ATOM     27  N   UNL     1      -0.172   6.672   1.136  1.00  0.00    -0.352 N 
ATOM     28  C   UNL     1      -0.468   7.657   2.043  1.00  0.00     0.251 C 
ATOM     29  H   UNL     1       0.531   6.893   0.483  1.00  0.00     0.163 HD
ATOM     30  O   UNL     1      -0.074   8.803   1.857  1.00  0.00    -0.269 OA
BRANCH  28  31
ATOM     31  C   UNL     1      -1.271   7.325   3.238  1.00  0.00     0.039 A 
ATOM     32  C   UNL     1      -2.301   8.184   3.622  1.00  0.00     0.014 A 
ATOM     33  C   UNL     1      -0.995   6.174   3.983  1.00  0.00     0.014 A 
ATOM     34  C   UNL     1      -3.082   7.866   4.734  1.00  0.00     0.010 A 
ATOM     35  C   UNL     1      -1.826   5.818   5.040  1.00  0.00     0.010 A 
ATOM     36  C   UNL     1      -2.866   6.669   5.439  1.00  0.00    -0.014 A 
BRANCH  36  37
ATOM     37  C   UNL     1      -3.708   6.306   6.607  1.00  0.00     0.031 A 
ATOM     38  C   UNL     1      -3.091   6.185   7.974  1.00  0.00     0.074 A 
ATOM     39  C   UNL     1      -5.019   6.048   6.429  1.00  0.00     0.049 A 
ATOM     40  N   UNL     1      -3.657   5.860   9.108  1.00  0.00    -0.248 NA
ATOM     41  C   UNL     1      -1.643   6.436   8.079  1.00  0.00     0.031 C 
ATOM     42  C   UNL     1      -5.725   6.092   5.146  1.00  0.00     0.029 A 
ATOM     43  N   UNL     1      -5.992   5.697   7.330  1.00  0.00    -0.354 N 
ATOM     44  C   UNL     1      -2.638   5.857  10.054  1.00  0.00     0.074 A 
ATOM     45  C   UNL     1      -1.409   6.153   9.352  1.00  0.00     0.031 C 
ATOM     46  C   UNL     1      -7.023   5.816   5.349  1.00  0.00     0.029 A 
ATOM     47  C   UNL     1      -7.235   5.532   6.765  1.00  0.00     0.049 A 
ATOM     48  H   UNL     1      -5.818   5.574   8.291  1.00  0.00     0.167 HD
ATOM     49  C   UNL     1      -2.720   5.649  11.390  1.00  0.00     0.031 A 
ATOM     50  C   UNL     1      -8.413   5.189   7.322  1.00  0.00     0.031 A 
ATOM     51  C   UNL     1      -3.947   5.361  12.084  1.00  0.00     0.049 A 
ATOM     52  C   UNL     1      -8.476   4.949   8.806  1.00  0.00     0.074 A 
ATOM     53  C   UNL     1      -4.146   5.186  13.442  1.00  0.00     0.029 A 
ATOM     54  N   UNL     1      -5.183   5.204  11.475  1.00  0.00    -0.354 N 
ATOM     55  N   UNL     1      -7.512   5.018   9.694  1.00  0.00    -0.248 NA
ATOM     56  C   UNL     1      -9.789   4.601   9.365  1.00  0.00     0.031 C 
ATOM     57  C   UNL     1      -5.490   4.861  13.648  1.00  0.00     0.029 A 
ATOM     58  C   UNL     1      -6.144   4.906  12.427  1.00  0.00     0.049 A 
ATOM     59  H   UNL     1      -5.353   5.291  10.509  1.00  0.00     0.167 HD
ATOM     60  C   UNL     1      -8.110   4.752  10.921  1.00  0.00     0.074 A 
ATOM     61  C   UNL     1      -9.519   4.538  10.662  1.00  0.00     0.031 C 
ATOM     62  C   UNL     1      -7.544   4.693  12.153  1.00  0.00     0.031 A 
BRANCH  49  63
ATOM     63  C   UNL     1      -1.442   5.717  12.187  1.00  0.00    -0.014 A 
ATOM     64  C   UNL     1      -0.755   6.933  12.362  1.00  0.00     0.010 A 
ATOM     65  C   UNL     1      -0.940   4.556  12.803  1.00  0.00     0.010 A 
ATOM     66  C   UNL     1       0.431   6.977  13.100  1.00  0.00     0.020 A 
ATOM     67  C   UNL     1       0.228   4.603  13.570  1.00  0.00     0.020 A 
ATOM     68  C   UNL     1       0.916   5.811  13.698  1.00  0.00     0.054 A 
BRANCH  68  69
ATOM     69  S   UNL     1       2.445   5.904  14.669  1.00  0.00     0.124 S 
ATOM     70  O   UNL     1       3.451   6.098  13.627  1.00  0.00    -0.237 OA
ATOM     71  O   UNL     1       2.205   7.058  15.532  1.00  0.00    -0.237 OA
ATOM     72  O   UNL     1       2.501   4.616  15.355  1.00  0.00    -0.744 OA
ENDBRANCH  68  69
ENDBRANCH  49  63
BRANCH  50  73
ATOM     73  C   UNL     1      -9.631   5.070   6.473  1.00  0.00    -0.014 A 
ATOM     74  C   UNL     1     -10.682   5.995   6.593  1.00  0.00     0.010 A 
ATOM     75  C   UNL     1      -9.740   4.031   5.530  1.00  0.00     0.010 A 
ATOM     76  C   UNL     1     -11.828   5.873   5.801  1.00  0.00     0.020 A 
ATOM     77  C   UNL     1     -10.870   3.924   4.715  1.00  0.00     0.020 A 
ATOM     78  C   UNL     1     -11.913   4.839   4.865  1.00  0.00     0.054 A 
BRANCH  78  79
ATOM     79  S   UNL     1     -13.389   4.728   3.816  1.00  0.00     0.124 S 
ATOM     80  O   UNL     1     -14.402   4.275   4.763  1.00  0.00    -0.237 OA
ATOM     81  O   UNL     1     -13.537   6.099   3.336  1.00  0.00    -0.237 OA
ATOM     82  O   UNL     1     -13.008   3.756   2.793  1.00  0.00    -0.744 OA
ENDBRANCH  78  79
ENDBRANCH  50  73
BRANCH  62  83
ATOM     83  C   UNL     1      -8.454   4.424  13.322  1.00  0.00    -0.014 A 
ATOM     84  C   UNL     1      -9.048   3.165  13.517  1.00  0.00     0.010 A 
ATOM     85  C   UNL     1      -8.680   5.441  14.269  1.00  0.00     0.010 A 
ATOM     86  C   UNL     1      -9.883   2.940  14.615  1.00  0.00     0.020 A 
ATOM     87  C   UNL     1      -9.486   5.210  15.386  1.00  0.00     0.020 A 
ATOM     88  C   UNL     1     -10.096   3.965  15.543  1.00  0.00     0.054 A 
BRANCH  88  89
ATOM     89  S   UNL     1     -11.155   3.635  16.978  1.00  0.00     0.124 S 
ATOM     90  O   UNL     1     -12.483   3.591  16.371  1.00  0.00    -0.237 OA
ATOM     91  O   UNL     1     -10.643   2.357  17.466  1.00  0.00    -0.237 OA
ATOM     92  O   UNL     1     -10.911   4.776  17.858  1.00  0.00    -0.744 OA
ENDBRANCH  88  89
ENDBRANCH  62  83
ENDBRANCH  36  37
ENDBRANCH  28  31
ENDBRANCH  26  27
ENDBRANCH  25  26
ENDBRANCH  24  25
ENDBRANCH   1  24
TORSDOF 21
