REMARK SMILES C[N@@H+]1CC[C@H]2CN(C(=O)c3csc(-c4ccncc4)n3)C[C@@]2(C(=O)NCCCCCCNC(=O)c2ccc(-c3c4nc(c(-c5ccc(S(=O)(=O)[O-])cc5)c5ccc([nH]5)c(-c5ccc(S(=O)(=O)[O-])cc5)c5nc(c(-c6ccc(S(=O)(=O)[O-])cc6)c6ccc3[nH]6)C=C5)C=C4)cc2)C1
REMARK SMILES IDX 28 1 27 2 26 3 25 4 23 5 24 6 22 8 1 9 2 10 3 11 95 12 4 14
REMARK SMILES IDX 5 15 21 16 6 17 7 18 8 19 9 20 10 21 11 22 20 23 12 24 13 25
REMARK SMILES IDX 14 26 15 27 19 28 16 29 18 30 17 31 29 32 30 33 31 34 32 35
REMARK SMILES IDX 33 36 34 38 35 39 36 40 94 41 37 42 93 43 38 44 39 45 40 46
REMARK SMILES IDX 87 47 41 48 92 49 86 50 88 51 42 52 91 53 85 54 84 55 43 57
REMARK SMILES IDX 73 58 54 59 72 60 55 61 58 62 71 63 89 64 56 65 57 66 70 68
REMARK SMILES IDX 90 69 59 70 44 71 45 72 53 73 46 74 52 75 47 76 48 77 49 78
REMARK SMILES IDX 50 79 51 80 74 81 75 82 83 83 76 84 82 85 77 86 78 87 79 88
REMARK SMILES IDX 80 89 81 90 60 91 61 92 69 93 62 94 68 95 63 96 64 97 65 98
REMARK SMILES IDX 66 99 67 100
REMARK H PARENT 25 7 2 13 32 37 88 56 58 67
REMARK Flexibility Score: inf
ROOT
ATOM      1  C   UNL     1      -2.156   4.533  -0.471  1.00  0.00     0.002 C 
ENDROOT
BRANCH   1   2
ATOM      2  C   UNL     1      -1.411   4.188  -1.760  1.00  0.00     0.021 C 
BRANCH   2   3
ATOM      3  C   UNL     1       0.092   4.467  -1.749  1.00  0.00     0.116 C 
BRANCH   3   4
ATOM      4  N   UNL     1       0.993   3.481  -1.122  1.00  0.00    -0.355 N 
ATOM      5  C   UNL     1       1.780   2.439  -1.596  1.00  0.00     0.234 C 
ATOM      6  O   UNL     1       2.728   2.086  -0.890  1.00  0.00    -0.274 OA
ATOM      7  H   UNL     1       1.049   3.585  -0.144  1.00  0.00     0.163 HD
BRANCH   5   8
ATOM      8  C   UNL     1       1.384   1.652  -2.863  1.00  0.00     0.120 C 
ATOM      9  C   UNL     1       0.580  -0.421  -0.297  1.00  0.00     0.332 C 
ATOM     10  N   UNL     1       0.356  -0.465  -1.743  1.00  0.00    -0.336 N 
ATOM     11  C   UNL     1       1.383  -1.308  -2.357  1.00  0.00     0.262 C 
ATOM     12  C   UNL     1       0.128   0.855  -2.398  1.00  0.00     0.281 C 
ATOM     13  H   UNL     1      -0.550  -0.902  -1.910  1.00  0.00     0.347 HD
ATOM     14  C   UNL     1       1.835  -0.774  -3.692  1.00  0.00     0.068 C 
ATOM     15  C   UNL     1       2.396   0.645  -3.531  1.00  0.00     0.037 C 
ATOM     16  C   UNL     1       1.271   2.729  -3.954  1.00  0.00     0.143 C 
ATOM     17  C   UNL     1       2.690   1.144  -4.952  1.00  0.00     0.125 C 
ATOM     18  N   UNL     1       2.323   2.515  -4.920  1.00  0.00    -0.336 N 
BRANCH  18  19
ATOM     19  C   UNL     1       2.925   3.459  -5.743  1.00  0.00     0.273 C 
ATOM     20  O   UNL     1       3.489   3.136  -6.785  1.00  0.00    -0.267 OA
BRANCH  19  21
ATOM     21  C   UNL     1       2.900   4.862  -5.293  1.00  0.00     0.139 A 
ATOM     22  C   UNL     1       2.601   5.934  -6.114  1.00  0.00     0.101 A 
ATOM     23  N   UNL     1       3.278   5.231  -3.993  1.00  0.00    -0.231 NA
ATOM     24  S   UNL     1       2.751   7.409  -5.252  1.00  0.00    -0.122 S 
ATOM     25  C   UNL     1       3.276   6.542  -3.864  1.00  0.00     0.124 A 
BRANCH  25  26
ATOM     26  C   UNL     1       3.718   7.267  -2.671  1.00  0.00     0.013 A 
ATOM     27  C   UNL     1       5.066   7.241  -2.300  1.00  0.00     0.031 A 
ATOM     28  C   UNL     1       2.817   7.980  -1.877  1.00  0.00     0.031 A 
ATOM     29  C   UNL     1       5.452   7.927  -1.161  1.00  0.00     0.111 A 
ATOM     30  C   UNL     1       3.301   8.627  -0.750  1.00  0.00     0.111 A 
ATOM     31  N   UNL     1       4.596   8.608  -0.371  1.00  0.00    -0.265 NA
ENDBRANCH  25  26
ENDBRANCH  19  21
ENDBRANCH  18  19
ENDBRANCH   5   8
ENDBRANCH   3   4
ENDBRANCH   2   3
ENDBRANCH   1   2
BRANCH   1  32
ATOM     32  C   UNL     1      -1.782   5.873   0.173  1.00  0.00     0.002 C 
BRANCH  32  33
ATOM     33  C   UNL     1      -1.827   7.103  -0.743  1.00  0.00     0.021 C 
BRANCH  33  34
ATOM     34  C   UNL     1      -3.199   7.432  -1.314  1.00  0.00     0.116 C 
BRANCH  34  35
ATOM     35  N   UNL     1      -4.145   7.788  -0.272  1.00  0.00    -0.352 N 
ATOM     36  C   UNL     1      -4.836   8.961  -0.085  1.00  0.00     0.251 C 
ATOM     37  H   UNL     1      -4.317   7.087   0.398  1.00  0.00     0.163 HD
ATOM     38  O   UNL     1      -5.408   9.169   0.978  1.00  0.00    -0.269 OA
BRANCH  36  39
ATOM     39  C   UNL     1      -4.873   9.974  -1.163  1.00  0.00     0.039 A 
ATOM     40  C   UNL     1      -4.704  11.321  -0.835  1.00  0.00     0.014 A 
ATOM     41  C   UNL     1      -5.090   9.597  -2.492  1.00  0.00     0.014 A 
ATOM     42  C   UNL     1      -4.699  12.284  -1.847  1.00  0.00     0.010 A 
ATOM     43  C   UNL     1      -5.008  10.547  -3.505  1.00  0.00     0.010 A 
ATOM     44  C   UNL     1      -4.821  11.902  -3.194  1.00  0.00    -0.014 A 
BRANCH  44  45
ATOM     45  C   UNL     1      -4.767  12.906  -4.288  1.00  0.00     0.031 A 
ATOM     46  C   UNL     1      -5.965  13.121  -5.176  1.00  0.00     0.074 A 
ATOM     47  C   UNL     1      -3.623  13.580  -4.521  1.00  0.00     0.049 A 
ATOM     48  N   UNL     1      -6.091  13.909  -6.213  1.00  0.00    -0.248 NA
ATOM     49  C   UNL     1      -7.170  12.331  -4.874  1.00  0.00     0.031 C 
ATOM     50  C   UNL     1      -2.383  13.434  -3.755  1.00  0.00     0.029 A 
ATOM     51  N   UNL     1      -3.315  14.521  -5.472  1.00  0.00    -0.354 N 
ATOM     52  C   UNL     1      -7.378  13.698  -6.695  1.00  0.00     0.074 A 
ATOM     53  C   UNL     1      -7.974  12.669  -5.871  1.00  0.00     0.031 C 
ATOM     54  C   UNL     1      -1.460  14.275  -4.248  1.00  0.00     0.029 A 
ATOM     55  C   UNL     1      -2.024  14.987  -5.390  1.00  0.00     0.049 A 
ATOM     56  H   UNL     1      -3.958  14.832  -6.149  1.00  0.00     0.167 HD
ATOM     57  C   UNL     1      -8.014  14.317  -7.718  1.00  0.00     0.031 A 
ATOM     58  C   UNL     1      -1.364  15.880  -6.153  1.00  0.00     0.031 A 
ATOM     59  C   UNL     1      -7.420  15.347  -8.529  1.00  0.00     0.049 A 
ATOM     60  C   UNL     1      -2.086  16.543  -7.295  1.00  0.00     0.074 A 
ATOM     61  C   UNL     1      -7.998  16.074  -9.554  1.00  0.00     0.029 A 
ATOM     62  N   UNL     1      -6.112  15.793  -8.410  1.00  0.00    -0.354 N 
ATOM     63  N   UNL     1      -3.325  16.376  -7.693  1.00  0.00    -0.248 NA
ATOM     64  C   UNL     1      -1.326  17.523  -8.082  1.00  0.00     0.031 C 
ATOM     65  C   UNL     1      -7.023  16.917 -10.095  1.00  0.00     0.029 A 
ATOM     66  C   UNL     1      -5.857  16.765  -9.362  1.00  0.00     0.049 A 
ATOM     67  H   UNL     1      -5.461  15.466  -7.748  1.00  0.00     0.167 HD
ATOM     68  C   UNL     1      -3.501  17.253  -8.758  1.00  0.00     0.074 A 
ATOM     69  C   UNL     1      -2.247  17.958  -8.931  1.00  0.00     0.031 C 
ATOM     70  C   UNL     1      -4.603  17.458  -9.522  1.00  0.00     0.031 A 
BRANCH  57  71
ATOM     71  C   UNL     1      -9.428  13.891  -8.023  1.00  0.00    -0.014 A 
ATOM     72  C   UNL     1     -10.482  14.172  -7.135  1.00  0.00     0.010 A 
ATOM     73  C   UNL     1      -9.713  13.237  -9.235  1.00  0.00     0.010 A 
ATOM     74  C   UNL     1     -11.787  13.769  -7.432  1.00  0.00     0.020 A 
ATOM     75  C   UNL     1     -11.022  12.860  -9.552  1.00  0.00     0.020 A 
ATOM     76  C   UNL     1     -12.048  13.114  -8.639  1.00  0.00     0.054 A 
BRANCH  76  77
ATOM     77  S   UNL     1     -13.754  12.623  -9.009  1.00  0.00     0.124 S 
ATOM     78  O   UNL     1     -13.960  11.520  -8.073  1.00  0.00    -0.237 OA
ATOM     79  O   UNL     1     -14.507  13.841  -8.719  1.00  0.00    -0.237 OA
ATOM     80  O   UNL     1     -13.709  12.243 -10.419  1.00  0.00    -0.744 OA
ENDBRANCH  76  77
ENDBRANCH  57  71
BRANCH  58  81
ATOM     81  C   UNL     1       0.058  16.208  -5.854  1.00  0.00    -0.014 A 
ATOM     82  C   UNL     1       0.411  17.474  -5.354  1.00  0.00     0.010 A 
ATOM     83  C   UNL     1       1.067  15.249  -6.059  1.00  0.00     0.010 A 
ATOM     84  C   UNL     1       1.748  17.782  -5.085  1.00  0.00     0.020 A 
ATOM     85  C   UNL     1       2.401  15.543  -5.762  1.00  0.00     0.020 A 
ATOM     86  C   UNL     1       2.735  16.812  -5.288  1.00  0.00     0.054 A 
BRANCH  86  87
ATOM     87  S   UNL     1       4.457  17.220  -4.889  1.00  0.00     0.124 S 
ATOM     88  O   UNL     1       4.808  18.141  -5.965  1.00  0.00    -0.237 OA
ATOM     89  O   UNL     1       4.338  17.813  -3.559  1.00  0.00    -0.237 OA
ATOM     90  O   UNL     1       5.131  15.924  -4.927  1.00  0.00    -0.744 OA
ENDBRANCH  86  87
ENDBRANCH  58  81
BRANCH  70  91
ATOM     91  C   UNL     1      -4.519  18.514 -10.594  1.00  0.00    -0.014 A 
ATOM     92  C   UNL     1      -3.749  18.321 -11.754  1.00  0.00     0.010 A 
ATOM     93  C   UNL     1      -5.272  19.695 -10.460  1.00  0.00     0.010 A 
ATOM     94  C   UNL     1      -3.709  19.304 -12.746  1.00  0.00     0.020 A 
ATOM     95  C   UNL     1      -5.260  20.666 -11.463  1.00  0.00     0.020 A 
ATOM     96  C   UNL     1      -4.466  20.470 -12.595  1.00  0.00     0.054 A 
BRANCH  96  97
ATOM     97  S   UNL     1      -4.433  21.710 -13.919  1.00  0.00     0.124 S 
ATOM     98  O   UNL     1      -3.098  22.282 -13.766  1.00  0.00    -0.237 OA
ATOM     99  O   UNL     1      -4.637  20.901 -15.118  1.00  0.00    -0.237 OA
ATOM    100  O   UNL     1      -5.537  22.606 -13.583  1.00  0.00    -0.744 OA
ENDBRANCH  96  97
ENDBRANCH  70  91
ENDBRANCH  44  45
ENDBRANCH  36  39
ENDBRANCH  34  35
ENDBRANCH  33  34
ENDBRANCH  32  33
ENDBRANCH   1  32
TORSDOF 19
