REMARK SMILES O=C(NCCCCCCNC(=O)[C@H]1CCCCN1c1cc(-c2ccccc2)nc(-c2cccc(Cl)c2)n1)c1ccc(-c2c3nc(c(-c4ccc(S(=O)(=O)[O-])cc4)c4ccc([nH]4)c(-c4ccc(S(=O)(=O)[O-])cc4)c4nc(c(-c5ccc(S(=O)(=O)[O-])cc5)c5ccc2[nH]5)C=C4)C=C3)cc1
REMARK SMILES IDX 6 1 5 2 4 3 3 4 1 5 2 6 38 8 39 9 97 10 40 11 96 12 41 13
REMARK SMILES IDX 42 14 43 15 90 16 44 17 95 18 89 19 91 20 45 21 94 22 88 23
REMARK SMILES IDX 87 24 46 26 76 27 57 28 75 29 58 30 61 31 74 32 92 33 59 34
REMARK SMILES IDX 60 35 73 37 93 38 62 39 47 40 48 41 56 42 49 43 55 44 50 45
REMARK SMILES IDX 51 46 52 47 53 48 54 49 77 50 78 51 86 52 79 53 85 54 80 55
REMARK SMILES IDX 81 56 82 57 83 58 84 59 63 60 64 61 72 62 65 63 71 64 66 65
REMARK SMILES IDX 67 66 68 67 69 68 70 69 7 70 8 71 9 72 10 73 11 74 12 76
REMARK SMILES IDX 13 77 14 78 18 79 15 80 17 81 16 82 19 83 20 84 37 85 21 86
REMARK SMILES IDX 29 87 28 88 22 89 23 90 27 91 24 92 26 93 25 94 30 95 31 96
REMARK SMILES IDX 36 97 32 98 34 99 33 100 35 101
REMARK H PARENT 3 7 91 25 61 36 10 75
REMARK Flexibility Score: inf
ROOT
ATOM      1  C   UNL     1       6.460   7.730   0.366  1.00  0.00     0.002 C 
ENDROOT
BRANCH   1   2
ATOM      2  C   UNL     1       5.141   8.369   0.800  1.00  0.00     0.021 C 
BRANCH   2   3
ATOM      3  C   UNL     1       5.109   9.886   0.686  1.00  0.00     0.116 C 
BRANCH   3   4
ATOM      4  N   UNL     1       5.187  10.330  -0.695  1.00  0.00    -0.352 N 
ATOM      5  O   UNL     1       4.409  11.261  -2.597  1.00  0.00    -0.269 OA
ATOM      6  C   UNL     1       4.318  11.144  -1.377  1.00  0.00     0.251 C 
ATOM      7  H   UNL     1       5.962  10.005  -1.207  1.00  0.00     0.163 HD
BRANCH   6   8
ATOM      8  C   UNL     1       3.269  11.870  -0.631  1.00  0.00     0.039 A 
ATOM      9  C   UNL     1       3.587  12.544   0.552  1.00  0.00     0.014 A 
ATOM     10  C   UNL     1       1.964  11.890  -1.127  1.00  0.00     0.014 A 
ATOM     11  C   UNL     1       2.582  13.158   1.290  1.00  0.00     0.010 A 
ATOM     12  C   UNL     1       0.969  12.576  -0.425  1.00  0.00     0.010 A 
ATOM     13  C   UNL     1       1.272  13.213   0.789  1.00  0.00    -0.014 A 
BRANCH  13  14
ATOM     14  C   UNL     1       0.270  14.067   1.471  1.00  0.00     0.031 A 
ATOM     15  C   UNL     1      -0.954  13.484   2.115  1.00  0.00     0.074 A 
ATOM     16  C   UNL     1       0.480  15.400   1.474  1.00  0.00     0.049 A 
ATOM     17  N   UNL     1      -1.937  14.107   2.712  1.00  0.00    -0.248 NA
ATOM     18  C   UNL     1      -1.104  12.020   2.083  1.00  0.00     0.031 C 
ATOM     19  C   UNL     1       1.631  16.073   0.860  1.00  0.00     0.029 A 
ATOM     20  N   UNL     1      -0.258  16.427   2.002  1.00  0.00    -0.354 N 
ATOM     21  C   UNL     1      -2.834  13.121   3.104  1.00  0.00     0.074 A 
ATOM     22  C   UNL     1      -2.282  11.855   2.672  1.00  0.00     0.031 C 
ATOM     23  C   UNL     1       1.532  17.393   1.065  1.00  0.00     0.029 A 
ATOM     24  C   UNL     1       0.280  17.669   1.757  1.00  0.00     0.049 A 
ATOM     25  H   UNL     1      -1.091  16.290   2.507  1.00  0.00     0.167 HD
ATOM     26  C   UNL     1      -4.011  13.269   3.758  1.00  0.00     0.031 A 
ATOM     27  C   UNL     1      -0.198  18.900   2.017  1.00  0.00     0.031 A 
ATOM     28  C   UNL     1      -4.540  14.539   4.188  1.00  0.00     0.049 A 
ATOM     29  C   UNL     1      -1.526  19.028   2.705  1.00  0.00     0.074 A 
ATOM     30  C   UNL     1      -5.686  14.783   4.925  1.00  0.00     0.029 A 
ATOM     31  N   UNL     1      -3.977  15.774   3.904  1.00  0.00    -0.354 N 
ATOM     32  N   UNL     1      -2.316  18.078   3.146  1.00  0.00    -0.248 NA
ATOM     33  C   UNL     1      -2.031  20.389   2.926  1.00  0.00     0.031 C 
ATOM     34  C   UNL     1      -5.855  16.167   5.023  1.00  0.00     0.029 A 
ATOM     35  C   UNL     1      -4.780  16.785   4.404  1.00  0.00     0.049 A 
ATOM     36  H   UNL     1      -3.131  15.911   3.419  1.00  0.00     0.167 HD
ATOM     37  C   UNL     1      -3.410  18.728   3.702  1.00  0.00     0.074 A 
ATOM     38  C   UNL     1      -3.164  20.150   3.571  1.00  0.00     0.031 C 
ATOM     39  C   UNL     1      -4.523  18.195   4.260  1.00  0.00     0.031 A 
BRANCH  26  40
ATOM     40  C   UNL     1      -4.841  12.043   4.032  1.00  0.00    -0.014 A 
ATOM     41  C   UNL     1      -4.485  11.126   5.036  1.00  0.00     0.010 A 
ATOM     42  C   UNL     1      -6.062  11.873   3.353  1.00  0.00     0.010 A 
ATOM     43  C   UNL     1      -5.332  10.057   5.349  1.00  0.00     0.020 A 
ATOM     44  C   UNL     1      -6.921  10.819   3.676  1.00  0.00     0.020 A 
ATOM     45  C   UNL     1      -6.547   9.914   4.671  1.00  0.00     0.054 A 
BRANCH  45  46
ATOM     46  S   UNL     1      -7.657   8.559   5.147  1.00  0.00     0.124 S 
ATOM     47  O   UNL     1      -6.941   7.391   4.639  1.00  0.00    -0.237 OA
ATOM     48  O   UNL     1      -7.705   8.682   6.601  1.00  0.00    -0.237 OA
ATOM     49  O   UNL     1      -8.905   8.871   4.456  1.00  0.00    -0.744 OA
ENDBRANCH  45  46
ENDBRANCH  26  40
BRANCH  27  50
ATOM     50  C   UNL     1       0.552  20.101   1.561  1.00  0.00    -0.014 A 
ATOM     51  C   UNL     1       1.121  20.993   2.486  1.00  0.00     0.010 A 
ATOM     52  C   UNL     1       0.694  20.361   0.184  1.00  0.00     0.010 A 
ATOM     53  C   UNL     1       1.789  22.138   2.043  1.00  0.00     0.020 A 
ATOM     54  C   UNL     1       1.391  21.485  -0.263  1.00  0.00     0.020 A 
ATOM     55  C   UNL     1       1.917  22.378   0.671  1.00  0.00     0.054 A 
BRANCH  55  56
ATOM     56  S   UNL     1       2.801  23.861   0.118  1.00  0.00     0.124 S 
ATOM     57  O   UNL     1       1.831  24.914   0.404  1.00  0.00    -0.237 OA
ATOM     58  O   UNL     1       3.993  23.852   0.962  1.00  0.00    -0.237 OA
ATOM     59  O   UNL     1       3.048  23.603  -1.299  1.00  0.00    -0.744 OA
ENDBRANCH  55  56
ENDBRANCH  27  50
BRANCH  39  60
ATOM     60  C   UNL     1      -5.559  19.154   4.779  1.00  0.00    -0.014 A 
ATOM     61  C   UNL     1      -6.374  19.881   3.893  1.00  0.00     0.010 A 
ATOM     62  C   UNL     1      -5.765  19.278   6.164  1.00  0.00     0.010 A 
ATOM     63  C   UNL     1      -7.367  20.731   4.386  1.00  0.00     0.020 A 
ATOM     64  C   UNL     1      -6.776  20.105   6.660  1.00  0.00     0.020 A 
ATOM     65  C   UNL     1      -7.565  20.833   5.767  1.00  0.00     0.054 A 
BRANCH  65  66
ATOM     66  S   UNL     1      -8.906  21.891   6.376  1.00  0.00     0.124 S 
ATOM     67  O   UNL     1      -8.378  23.228   6.120  1.00  0.00    -0.237 OA
ATOM     68  O   UNL     1     -10.035  21.489   5.541  1.00  0.00    -0.237 OA
ATOM     69  O   UNL     1      -9.021  21.526   7.787  1.00  0.00    -0.744 OA
ENDBRANCH  65  66
ENDBRANCH  39  60
ENDBRANCH  13  14
ENDBRANCH   6   8
ENDBRANCH   3   4
ENDBRANCH   2   3
ENDBRANCH   1   2
BRANCH   1  70
ATOM     70  C   UNL     1       7.701   8.234   1.110  1.00  0.00     0.002 C 
BRANCH  70  71
ATOM     71  C   UNL     1       7.627   8.159   2.640  1.00  0.00     0.021 C 
BRANCH  71  72
ATOM     72  C   UNL     1       7.273   6.782   3.200  1.00  0.00     0.116 C 
BRANCH  72  73
ATOM     73  N   UNL     1       8.236   5.780   2.792  1.00  0.00    -0.354 N 
ATOM     74  C   UNL     1       9.065   5.011   3.560  1.00  0.00     0.242 C 
ATOM     75  H   UNL     1       8.303   5.630   1.822  1.00  0.00     0.163 HD
ATOM     76  O   UNL     1       9.815   4.230   2.967  1.00  0.00    -0.273 OA
BRANCH  74  77
ATOM     77  C   UNL     1       9.047   5.165   5.103  1.00  0.00     0.173 C 
ATOM     78  C   UNL     1       9.633   3.930   5.801  1.00  0.00     0.035 C 
ATOM     79  N   UNL     1       9.791   6.379   5.488  1.00  0.00    -0.344 N 
ATOM     80  C   UNL     1      11.158   3.853   5.726  1.00  0.00     0.004 C 
ATOM     81  C   UNL     1      11.245   6.355   5.386  1.00  0.00     0.119 C 
ATOM     82  C   UNL     1      11.800   5.164   6.168  1.00  0.00     0.022 C 
BRANCH  79  83
ATOM     83  C   UNL     1       9.162   7.335   6.261  1.00  0.00     0.133 A 
ATOM     84  C   UNL     1       9.337   8.676   5.976  1.00  0.00     0.076 A 
ATOM     85  N   UNL     1       8.311   6.938   7.218  1.00  0.00    -0.211 NA
ATOM     86  C   UNL     1       8.566   9.589   6.672  1.00  0.00     0.076 A 
ATOM     87  C   UNL     1       7.641   7.895   7.886  1.00  0.00     0.162 A 
ATOM     88  N   UNL     1       7.721   9.212   7.647  1.00  0.00    -0.228 NA
BRANCH  86  89
ATOM     89  C   UNL     1       8.565  11.020   6.341  1.00  0.00     0.000 A 
ATOM     90  C   UNL     1       8.845  11.990   7.316  1.00  0.00     0.010 A 
ATOM     91  C   UNL     1       8.254  11.461   5.042  1.00  0.00     0.010 A 
ATOM     92  C   UNL     1       8.831  13.352   6.999  1.00  0.00     0.001 A 
ATOM     93  C   UNL     1       8.228  12.822   4.727  1.00  0.00     0.001 A 
ATOM     94  C   UNL     1       8.521  13.767   5.706  1.00  0.00     0.000 A 
ENDBRANCH  86  89
BRANCH  87  95
ATOM     95  C   UNL     1       6.721   7.458   8.937  1.00  0.00     0.021 A 
ATOM     96  C   UNL     1       7.171   6.665  10.008  1.00  0.00     0.012 A 
ATOM     97  C   UNL     1       5.362   7.812   8.897  1.00  0.00     0.032 A 
ATOM     98  C   UNL     1       6.294   6.240  11.010  1.00  0.00     0.002 A 
ATOM     99  C   UNL     1       4.486   7.368   9.887  1.00  0.00     0.041 A 
ATOM    100  C   UNL     1       4.947   6.587  10.944  1.00  0.00     0.020 A 
ATOM    101  Cl  UNL     1       2.817   7.777   9.796  1.00  0.00    -0.084 Cl
ENDBRANCH  87  95
ENDBRANCH  79  83
ENDBRANCH  74  77
ENDBRANCH  72  73
ENDBRANCH  71  72
ENDBRANCH  70  71
ENDBRANCH   1  70
TORSDOF 19
