REMARK SMILES Cc1ccc(S(=O)(=O)n2cc(C(=O)C(=O)NCC(=O)NCCCCCCNC(=O)c3ccc(-c4c5nc(c(-c6ccc(S(=O)(=O)[O-])cc6)c6ccc([nH]6)c(-c6ccc(S(=O)(=O)[O-])cc6)c6nc(c(-c7ccc(S(=O)(=O)[O-])cc7)c7ccc4[nH]7)C=C6)C=C5)cc3)c3ccccc32)cc1
REMARK SMILES IDX 22 1 21 2 20 3 18 4 19 5 17 7 16 8 14 9 15 10 12 12 13 13
REMARK SMILES IDX 11 14 9 15 10 16 95 17 90 18 94 19 91 20 93 21 92 22 6 23
REMARK SMILES IDX 7 24 8 25 5 26 1 27 2 28 3 29 97 30 4 31 96 32 23 33 24 34
REMARK SMILES IDX 25 35 26 36 27 37 28 38 29 40 30 41 31 42 89 43 32 44 88 45
REMARK SMILES IDX 33 46 34 47 35 48 82 49 36 50 87 51 81 52 83 53 37 54 86 55
REMARK SMILES IDX 80 56 79 57 38 59 68 60 49 61 67 62 50 63 53 64 66 65 84 66
REMARK SMILES IDX 51 67 52 68 65 70 85 71 54 72 39 73 40 74 48 75 41 76 47 77
REMARK SMILES IDX 42 78 43 79 44 80 45 81 46 82 69 83 70 84 78 85 71 86 77 87
REMARK SMILES IDX 72 88 73 89 74 90 75 91 76 92 55 93 56 94 64 95 57 96 63 97
REMARK SMILES IDX 58 98 59 99 60 100 61 101 62 102
REMARK H PARENT 20 6 16 11 27 39 83 58 53 69
REMARK Flexibility Score: inf
ROOT
ATOM      1  C   UNL     1     -10.117   3.542   1.286  1.00  0.00     0.021 C 
ENDROOT
BRANCH   1   2
ATOM      2  C   UNL     1      -9.437   4.880   1.007  1.00  0.00     0.116 C 
BRANCH   2   3
ATOM      3  N   UNL     1      -9.916   5.912   1.903  1.00  0.00    -0.355 N 
ATOM      4  C   UNL     1      -9.247   6.592   2.877  1.00  0.00     0.239 C 
ATOM      5  O   UNL     1      -9.838   7.497   3.472  1.00  0.00    -0.273 OA
ATOM      6  H   UNL     1     -10.863   6.157   1.794  1.00  0.00     0.163 HD
BRANCH   4   7
ATOM      7  C   UNL     1      -7.754   6.340   3.110  1.00  0.00     0.216 C 
BRANCH   7   8
ATOM      8  N   UNL     1      -7.411   4.957   3.421  1.00  0.00    -0.340 N 
ATOM      9  C   UNL     1      -6.489   4.101   2.854  1.00  0.00     0.292 C 
ATOM     10  O   UNL     1      -6.335   2.994   3.357  1.00  0.00    -0.265 OA
ATOM     11  H   UNL     1      -7.926   4.567   4.164  1.00  0.00     0.164 HD
BRANCH   9  12
ATOM     12  C   UNL     1      -5.673   4.511   1.598  1.00  0.00     0.252 C 
ATOM     13  O   UNL     1      -5.544   5.707   1.354  1.00  0.00    -0.283 OA
BRANCH  12  14
ATOM     14  C   UNL     1      -5.052   3.511   0.710  1.00  0.00     0.054 A 
ATOM     15  N   UNL     1      -4.175   1.617  -0.094  1.00  0.00    -0.240 N 
ATOM     16  C   UNL     1      -4.852   2.166   0.966  1.00  0.00     0.117 A 
ATOM     17  C   UNL     1      -3.942   2.555  -1.077  1.00  0.00     0.065 A 
ATOM     18  C   UNL     1      -4.485   3.755  -0.596  1.00  0.00     0.012 A 
ATOM     19  C   UNL     1      -3.282   2.479  -2.318  1.00  0.00     0.028 A 
ATOM     20  C   UNL     1      -4.376   4.907  -1.409  1.00  0.00     0.011 A 
ATOM     21  C   UNL     1      -3.169   3.642  -3.081  1.00  0.00     0.002 A 
ATOM     22  C   UNL     1      -3.714   4.840  -2.639  1.00  0.00     0.001 A 
BRANCH  15  23
ATOM     23  S   UNL     1      -3.595   0.013  -0.118  1.00  0.00     0.268 S 
ATOM     24  O   UNL     1      -3.923  -0.486  -1.436  1.00  0.00    -0.201 OA
ATOM     25  O   UNL     1      -4.099  -0.598   1.098  1.00  0.00    -0.201 OA
BRANCH  23  26
ATOM     26  C   UNL     1      -1.825   0.068   0.014  1.00  0.00     0.088 A 
ATOM     27  C   UNL     1       2.478  -0.050   0.027  1.00  0.00     0.044 C 
ATOM     28  C   UNL     1       0.979  -0.002   0.043  1.00  0.00    -0.051 A 
ATOM     29  C   UNL     1       0.243  -1.191  -0.029  1.00  0.00     0.005 A 
ATOM     30  C   UNL     1       0.297   1.218   0.133  1.00  0.00     0.005 A 
ATOM     31  C   UNL     1      -1.153  -1.158  -0.049  1.00  0.00     0.022 A 
ATOM     32  C   UNL     1      -1.101   1.256   0.131  1.00  0.00     0.022 A 
ENDBRANCH  23  26
ENDBRANCH  15  23
ENDBRANCH  12  14
ENDBRANCH   9  12
ENDBRANCH   7   8
ENDBRANCH   4   7
ENDBRANCH   2   3
ENDBRANCH   1   2
BRANCH   1  33
ATOM     33  C   UNL     1     -11.589   3.486   0.851  1.00  0.00     0.002 C 
BRANCH  33  34
ATOM     34  C   UNL     1     -11.875   3.891  -0.604  1.00  0.00     0.002 C 
BRANCH  34  35
ATOM     35  C   UNL     1     -10.984   3.234  -1.655  1.00  0.00     0.021 C 
BRANCH  35  36
ATOM     36  C   UNL     1     -11.261   1.753  -1.851  1.00  0.00     0.116 C 
BRANCH  36  37
ATOM     37  N   UNL     1     -12.064   1.504  -3.042  1.00  0.00    -0.352 N 
ATOM     38  C   UNL     1     -12.006   0.391  -3.865  1.00  0.00     0.251 C 
ATOM     39  H   UNL     1     -12.717   2.199  -3.286  1.00  0.00     0.163 HD
ATOM     40  O   UNL     1     -12.202   0.420  -5.072  1.00  0.00    -0.269 OA
BRANCH  38  41
ATOM     41  C   UNL     1     -11.868  -0.899  -3.166  1.00  0.00     0.039 A 
ATOM     42  C   UNL     1     -13.044  -1.643  -2.996  1.00  0.00     0.014 A 
ATOM     43  C   UNL     1     -10.751  -1.093  -2.365  1.00  0.00     0.014 A 
ATOM     44  C   UNL     1     -13.190  -2.415  -1.858  1.00  0.00     0.010 A 
ATOM     45  C   UNL     1     -10.945  -1.733  -1.173  1.00  0.00     0.010 A 
ATOM     46  C   UNL     1     -12.179  -2.346  -0.912  1.00  0.00    -0.014 A 
BRANCH  46  47
ATOM     47  C   UNL     1     -12.241  -2.954   0.395  1.00  0.00     0.031 A 
ATOM     48  C   UNL     1     -11.553  -4.244   0.531  1.00  0.00     0.074 A 
ATOM     49  C   UNL     1     -12.676  -2.180   1.411  1.00  0.00     0.049 A 
ATOM     50  N   UNL     1     -11.637  -5.012   1.551  1.00  0.00    -0.248 NA
ATOM     51  C   UNL     1     -10.717  -4.801  -0.536  1.00  0.00     0.031 C 
ATOM     52  C   UNL     1     -12.463  -2.332   2.843  1.00  0.00     0.029 A 
ATOM     53  N   UNL     1     -13.626  -1.166   1.317  1.00  0.00    -0.354 N 
ATOM     54  C   UNL     1     -10.618  -5.935   1.438  1.00  0.00     0.074 A 
ATOM     55  C   UNL     1     -10.163  -5.848   0.077  1.00  0.00     0.031 C 
ATOM     56  C   UNL     1     -13.425  -1.654   3.498  1.00  0.00     0.029 A 
ATOM     57  C   UNL     1     -14.380  -1.190   2.498  1.00  0.00     0.049 A 
ATOM     58  H   UNL     1     -13.745  -0.547   0.560  1.00  0.00     0.167 HD
ATOM     59  C   UNL     1     -10.169  -6.525   2.578  1.00  0.00     0.031 A 
ATOM     60  C   UNL     1     -15.681  -1.614   2.432  1.00  0.00     0.031 A 
ATOM     61  C   UNL     1     -11.050  -6.176   3.693  1.00  0.00     0.049 A 
ATOM     62  C   UNL     1     -15.873  -2.959   3.112  1.00  0.00     0.074 A 
ATOM     63  C   UNL     1     -10.964  -5.220   4.691  1.00  0.00     0.029 A 
ATOM     64  N   UNL     1     -12.389  -6.547   3.615  1.00  0.00    -0.354 N 
ATOM     65  N   UNL     1     -14.927  -3.847   3.283  1.00  0.00    -0.248 NA
ATOM     66  C   UNL     1     -17.131  -3.361   3.731  1.00  0.00     0.031 C 
ATOM     67  C   UNL     1     -12.291  -4.933   5.127  1.00  0.00     0.029 A 
ATOM     68  C   UNL     1     -13.170  -5.736   4.417  1.00  0.00     0.049 A 
ATOM     69  H   UNL     1     -12.733  -7.287   3.064  1.00  0.00     0.167 HD
ATOM     70  C   UNL     1     -15.396  -4.881   4.054  1.00  0.00     0.074 A 
ATOM     71  C   UNL     1     -16.785  -4.529   4.302  1.00  0.00     0.031 C 
ATOM     72  C   UNL     1     -14.616  -5.931   4.460  1.00  0.00     0.031 A 
BRANCH  59  73
ATOM     73  C   UNL     1      -8.806  -7.156   2.741  1.00  0.00    -0.014 A 
ATOM     74  C   UNL     1      -8.295  -7.327   4.044  1.00  0.00     0.010 A 
ATOM     75  C   UNL     1      -7.949  -7.537   1.688  1.00  0.00     0.010 A 
ATOM     76  C   UNL     1      -7.000  -7.808   4.283  1.00  0.00     0.020 A 
ATOM     77  C   UNL     1      -6.646  -8.012   1.911  1.00  0.00     0.020 A 
ATOM     78  C   UNL     1      -6.178  -8.143   3.212  1.00  0.00     0.054 A 
BRANCH  78  79
ATOM     79  S   UNL     1      -4.512  -8.768   3.546  1.00  0.00     0.124 S 
ATOM     80  O   UNL     1      -3.894  -7.655   4.261  1.00  0.00    -0.237 OA
ATOM     81  O   UNL     1      -4.780  -9.960   4.347  1.00  0.00    -0.237 OA
ATOM     82  O   UNL     1      -3.963  -9.028   2.216  1.00  0.00    -0.744 OA
ENDBRANCH  78  79
ENDBRANCH  59  73
BRANCH  60  83
ATOM     83  C   UNL     1     -16.381  -1.119   1.199  1.00  0.00    -0.014 A 
ATOM     84  C   UNL     1     -16.568   0.281   1.095  1.00  0.00     0.010 A 
ATOM     85  C   UNL     1     -16.411  -1.882   0.018  1.00  0.00     0.010 A 
ATOM     86  C   UNL     1     -16.577   0.917  -0.152  1.00  0.00     0.020 A 
ATOM     87  C   UNL     1     -16.443  -1.244  -1.238  1.00  0.00     0.020 A 
ATOM     88  C   UNL     1     -16.451   0.153  -1.310  1.00  0.00     0.054 A 
BRANCH  88  89
ATOM     89  S   UNL     1     -16.095   1.023  -2.872  1.00  0.00     0.124 S 
ATOM     90  O   UNL     1     -17.323   1.778  -3.093  1.00  0.00    -0.237 OA
ATOM     91  O   UNL     1     -14.916   1.824  -2.525  1.00  0.00    -0.237 OA
ATOM     92  O   UNL     1     -15.848  -0.060  -3.817  1.00  0.00    -0.744 OA
ENDBRANCH  88  89
ENDBRANCH  60  83
BRANCH  72  93
ATOM     93  C   UNL     1     -15.127  -7.246   5.016  1.00  0.00    -0.014 A 
ATOM     94  C   UNL     1     -16.464  -7.664   4.953  1.00  0.00     0.010 A 
ATOM     95  C   UNL     1     -14.195  -8.191   5.518  1.00  0.00     0.010 A 
ATOM     96  C   UNL     1     -16.862  -8.915   5.439  1.00  0.00     0.020 A 
ATOM     97  C   UNL     1     -14.568  -9.469   5.936  1.00  0.00     0.020 A 
ATOM     98  C   UNL     1     -15.912  -9.810   5.928  1.00  0.00     0.054 A 
BRANCH  98  99
ATOM     99  S   UNL     1     -16.447 -11.431   6.515  1.00  0.00     0.124 S 
ATOM    100  O   UNL     1     -16.979 -11.109   7.836  1.00  0.00    -0.237 OA
ATOM    101  O   UNL     1     -17.442 -11.821   5.517  1.00  0.00    -0.237 OA
ATOM    102  O   UNL     1     -15.222 -12.226   6.508  1.00  0.00    -0.744 OA
ENDBRANCH  98  99
ENDBRANCH  72  93
ENDBRANCH  46  47
ENDBRANCH  38  41
ENDBRANCH  36  37
ENDBRANCH  35  36
ENDBRANCH  34  35
ENDBRANCH  33  34
ENDBRANCH   1  33
TORSDOF 21
