REMARK SMILES O=C(Cn1c2ccccc2c(=O)c2ccccc21)N[C@@H](Cc1ccccc1)C(=O)NCCCCCCNC(=O)c1ccc(-c2c3nc(c(-c4ccc(S(=O)(=O)[O-])cc4)c4ccc([nH]4)c(-c4ccc(S(=O)(=O)[O-])cc4)c4nc(c(-c5ccc(S(=O)(=O)[O-])cc5)c5ccc2[nH]5)C=C4)C=C3)cc1
REMARK SMILES IDX 33 1 32 2 31 3 30 4 28 5 29 6 20 8 19 9 1 10 2 11 3 13 4 14
REMARK SMILES IDX 5 15 18 16 6 17 10 18 13 19 17 20 7 21 9 22 11 23 14 24
REMARK SMILES IDX 16 25 8 26 12 27 15 28 21 29 22 30 23 31 27 32 24 33 26 34
REMARK SMILES IDX 25 35 34 36 35 37 36 38 37 39 38 40 39 42 40 43 41 44 99 45
REMARK SMILES IDX 42 46 98 47 43 48 44 49 45 50 92 51 46 52 97 53 91 54 93 55
REMARK SMILES IDX 47 56 96 57 90 58 89 59 48 61 78 62 59 63 77 64 60 65 63 66
REMARK SMILES IDX 76 67 94 68 61 69 62 70 75 72 95 73 64 74 49 75 50 76 58 77
REMARK SMILES IDX 51 78 57 79 52 80 53 81 54 82 55 83 56 84 79 85 80 86 88 87
REMARK SMILES IDX 81 88 87 89 82 90 83 91 84 92 85 93 86 94 65 95 66 96 74 97
REMARK SMILES IDX 67 98 73 99 68 100 69 101 70 102 71 103 72 104
REMARK H PARENT 30 7 19 12 37 41 93 60 63 71
REMARK Flexibility Score: inf
ROOT
ATOM      1  C   UNL     1       6.600   2.114  -5.028  1.00  0.00     0.002 C 
ENDROOT
BRANCH   1   2
ATOM      2  C   UNL     1       5.850   1.622  -3.791  1.00  0.00     0.021 C 
BRANCH   2   3
ATOM      3  C   UNL     1       4.829   2.575  -3.192  1.00  0.00     0.116 C 
BRANCH   3   4
ATOM      4  N   UNL     1       3.485   2.385  -3.683  1.00  0.00    -0.354 N 
ATOM      5  C   UNL     1       2.305   2.345  -2.999  1.00  0.00     0.242 C 
ATOM      6  O   UNL     1       1.277   2.482  -3.674  1.00  0.00    -0.273 OA
ATOM      7  H   UNL     1       3.408   2.267  -4.657  1.00  0.00     0.163 HD
BRANCH   5   8
ATOM      8  C   UNL     1       2.207   2.197  -1.456  1.00  0.00     0.175 C 
BRANCH   8   9
ATOM      9  N   UNL     1       2.864   0.996  -0.908  1.00  0.00    -0.342 N 
ATOM     10  O   UNL     1       0.926   0.041  -0.155  1.00  0.00    -0.273 OA
ATOM     11  C   UNL     1       2.155   0.008  -0.247  1.00  0.00     0.240 C 
ATOM     12  H   UNL     1       3.837   0.894  -1.015  1.00  0.00     0.164 HD
BRANCH  11  13
ATOM     13  C   UNL     1       2.960  -1.051   0.533  1.00  0.00     0.222 C 
BRANCH  13  14
ATOM     14  N   UNL     1       3.748  -1.990  -0.300  1.00  0.00    -0.331 N 
ATOM     15  C   UNL     1       4.980  -1.568  -0.852  1.00  0.00     0.053 A 
ATOM     16  C   UNL     1       3.336  -3.341  -0.446  1.00  0.00     0.053 A 
ATOM     17  C   UNL     1       5.753  -0.525  -0.321  1.00  0.00     0.027 A 
ATOM     18  C   UNL     1       5.536  -2.280  -1.933  1.00  0.00     0.046 A 
ATOM     19  C   UNL     1       3.890  -4.123  -1.483  1.00  0.00     0.046 A 
ATOM     20  C   UNL     1       2.500  -4.018   0.456  1.00  0.00     0.027 A 
ATOM     21  C   UNL     1       7.009  -0.207  -0.850  1.00  0.00     0.002 A 
ATOM     22  C   UNL     1       6.772  -1.944  -2.495  1.00  0.00     0.014 A 
ATOM     23  C   UNL     1       4.846  -3.492  -2.412  1.00  0.00     0.197 A 
ATOM     24  C   UNL     1       3.643  -5.498  -1.613  1.00  0.00     0.014 A 
ATOM     25  C   UNL     1       2.264  -5.399   0.346  1.00  0.00     0.002 A 
ATOM     26  C   UNL     1       7.516  -0.914  -1.936  1.00  0.00     0.001 A 
ATOM     27  O   UNL     1       5.119  -3.998  -3.495  1.00  0.00    -0.288 OA
ATOM     28  C   UNL     1       2.839  -6.140  -0.682  1.00  0.00     0.001 A 
ENDBRANCH  13  14
ENDBRANCH  11  13
ENDBRANCH   8   9
BRANCH   8  29
ATOM     29  C   UNL     1       2.455   3.494  -0.638  1.00  0.00     0.070 C 
BRANCH  29  30
ATOM     30  C   UNL     1       3.862   4.034  -0.496  1.00  0.00    -0.045 A 
ATOM     31  C   UNL     1       4.216   5.252  -1.100  1.00  0.00     0.004 A 
ATOM     32  C   UNL     1       4.838   3.346   0.240  1.00  0.00     0.004 A 
ATOM     33  C   UNL     1       5.527   5.729  -1.028  1.00  0.00     0.000 A 
ATOM     34  C   UNL     1       6.155   3.812   0.291  1.00  0.00     0.000 A 
ATOM     35  C   UNL     1       6.501   5.000  -0.350  1.00  0.00     0.000 A 
ENDBRANCH  29  30
ENDBRANCH   8  29
ENDBRANCH   5   8
ENDBRANCH   3   4
ENDBRANCH   2   3
ENDBRANCH   1   2
BRANCH   1  36
ATOM     36  C   UNL     1       7.446   3.384  -4.857  1.00  0.00     0.002 C 
BRANCH  36  37
ATOM     37  C   UNL     1       8.388   3.441  -3.650  1.00  0.00     0.021 C 
BRANCH  37  38
ATOM     38  C   UNL     1       9.376   2.288  -3.503  1.00  0.00     0.116 C 
BRANCH  38  39
ATOM     39  N   UNL     1      10.324   2.181  -4.598  1.00  0.00    -0.352 N 
ATOM     40  C   UNL     1      11.698   2.243  -4.609  1.00  0.00     0.251 C 
ATOM     41  H   UNL     1       9.914   2.040  -5.482  1.00  0.00     0.163 HD
ATOM     42  O   UNL     1      12.292   2.207  -5.685  1.00  0.00    -0.269 OA
BRANCH  40  43
ATOM     43  C   UNL     1      12.469   2.400  -3.353  1.00  0.00     0.039 A 
ATOM     44  C   UNL     1      12.177   1.656  -2.209  1.00  0.00     0.014 A 
ATOM     45  C   UNL     1      13.526   3.317  -3.327  1.00  0.00     0.014 A 
ATOM     46  C   UNL     1      12.812   1.956  -1.004  1.00  0.00     0.010 A 
ATOM     47  C   UNL     1      14.219   3.559  -2.135  1.00  0.00     0.010 A 
ATOM     48  C   UNL     1      13.828   2.925  -0.947  1.00  0.00    -0.014 A 
BRANCH  48  49
ATOM     49  C   UNL     1      14.450   3.278   0.361  1.00  0.00     0.031 A 
ATOM     50  C   UNL     1      14.282   4.660   0.943  1.00  0.00     0.074 A 
ATOM     51  C   UNL     1      15.122   2.340   1.058  1.00  0.00     0.049 A 
ATOM     52  N   UNL     1      14.710   5.125   2.090  1.00  0.00    -0.248 NA
ATOM     53  C   UNL     1      13.540   5.646   0.141  1.00  0.00     0.031 C 
ATOM     54  C   UNL     1      15.345   0.963   0.614  1.00  0.00     0.029 A 
ATOM     55  N   UNL     1      15.716   2.390   2.296  1.00  0.00    -0.354 N 
ATOM     56  C   UNL     1      14.300   6.453   2.143  1.00  0.00     0.074 A 
ATOM     57  C   UNL     1      13.621   6.733   0.897  1.00  0.00     0.031 C 
ATOM     58  C   UNL     1      15.973   0.285   1.587  1.00  0.00     0.029 A 
ATOM     59  C   UNL     1      16.254   1.190   2.699  1.00  0.00     0.049 A 
ATOM     60  H   UNL     1      15.753   3.208   2.843  1.00  0.00     0.167 HD
ATOM     61  C   UNL     1      14.457   7.353   3.143  1.00  0.00     0.031 A 
ATOM     62  C   UNL     1      16.902   0.845   3.831  1.00  0.00     0.031 A 
ATOM     63  C   UNL     1      15.123   7.071   4.388  1.00  0.00     0.049 A 
ATOM     64  C   UNL     1      17.101   1.871   4.911  1.00  0.00     0.074 A 
ATOM     65  C   UNL     1      15.312   7.919   5.467  1.00  0.00     0.029 A 
ATOM     66  N   UNL     1      15.703   5.859   4.729  1.00  0.00    -0.354 N 
ATOM     67  N   UNL     1      16.690   3.116   4.944  1.00  0.00    -0.248 NA
ATOM     68  C   UNL     1      17.843   1.449   6.107  1.00  0.00     0.031 C 
ATOM     69  C   UNL     1      16.059   7.241   6.432  1.00  0.00     0.029 A 
ATOM     70  C   UNL     1      16.270   5.945   5.990  1.00  0.00     0.049 A 
ATOM     71  H   UNL     1      15.710   5.056   4.159  1.00  0.00     0.167 HD
ATOM     72  C   UNL     1      17.111   3.622   6.169  1.00  0.00     0.074 A 
ATOM     73  C   UNL     1      17.790   2.544   6.856  1.00  0.00     0.031 C 
ATOM     74  C   UNL     1      16.948   4.870   6.672  1.00  0.00     0.031 A 
BRANCH  61  75
ATOM     75  C   UNL     1      13.894   8.739   2.955  1.00  0.00    -0.014 A 
ATOM     76  C   UNL     1      14.764   9.842   2.865  1.00  0.00     0.010 A 
ATOM     77  C   UNL     1      12.506   8.966   2.994  1.00  0.00     0.010 A 
ATOM     78  C   UNL     1      14.260  11.146   2.849  1.00  0.00     0.020 A 
ATOM     79  C   UNL     1      11.997  10.267   2.949  1.00  0.00     0.020 A 
ATOM     80  C   UNL     1      12.879  11.350   2.901  1.00  0.00     0.054 A 
BRANCH  80  81
ATOM     81  S   UNL     1      12.242  13.049   2.905  1.00  0.00     0.124 S 
ATOM     82  O   UNL     1      12.520  13.479   4.272  1.00  0.00    -0.237 OA
ATOM     83  O   UNL     1      13.041  13.692   1.865  1.00  0.00    -0.237 OA
ATOM     84  O   UNL     1      10.828  12.882   2.576  1.00  0.00    -0.744 OA
ENDBRANCH  80  81
ENDBRANCH  61  75
BRANCH  62  85
ATOM     85  C   UNL     1      17.372  -0.559   3.995  1.00  0.00    -0.014 A 
ATOM     86  C   UNL     1      18.393  -1.068   3.170  1.00  0.00     0.010 A 
ATOM     87  C   UNL     1      16.740  -1.420   4.908  1.00  0.00     0.010 A 
ATOM     88  C   UNL     1      18.726  -2.424   3.207  1.00  0.00     0.020 A 
ATOM     89  C   UNL     1      17.093  -2.772   4.971  1.00  0.00     0.020 A 
ATOM     90  C   UNL     1      18.060  -3.271   4.096  1.00  0.00     0.054 A 
BRANCH  90  91
ATOM     91  S   UNL     1      18.458  -5.041   4.077  1.00  0.00     0.124 S 
ATOM     92  O   UNL     1      17.763  -5.488   2.873  1.00  0.00    -0.237 OA
ATOM     93  O   UNL     1      19.916  -5.040   3.999  1.00  0.00    -0.237 OA
ATOM     94  O   UNL     1      17.903  -5.529   5.337  1.00  0.00    -0.744 OA
ENDBRANCH  90  91
ENDBRANCH  62  85
BRANCH  74  95
ATOM     95  C   UNL     1      17.504   5.167   8.041  1.00  0.00    -0.014 A 
ATOM     96  C   UNL     1      16.624   5.452   9.103  1.00  0.00     0.010 A 
ATOM     97  C   UNL     1      18.889   5.296   8.248  1.00  0.00     0.010 A 
ATOM     98  C   UNL     1      17.115   5.893  10.334  1.00  0.00     0.020 A 
ATOM     99  C   UNL     1      19.385   5.709   9.488  1.00  0.00     0.020 A 
ATOM    100  C   UNL     1      18.493   6.029  10.515  1.00  0.00     0.054 A 
BRANCH 100 101
ATOM    101  S   UNL     1      19.111   6.634  12.110  1.00  0.00     0.124 S 
ATOM    102  O   UNL     1      18.841   8.066  12.021  1.00  0.00    -0.237 OA
ATOM    103  O   UNL     1      18.294   5.897  13.072  1.00  0.00    -0.237 OA
ATOM    104  O   UNL     1      20.524   6.262  12.092  1.00  0.00    -0.744 OA
ENDBRANCH 100 101
ENDBRANCH  74  95
ENDBRANCH  48  49
ENDBRANCH  40  43
ENDBRANCH  38  39
ENDBRANCH  37  38
ENDBRANCH  36  37
ENDBRANCH   1  36
TORSDOF 21
