REMARK SMILES CCc1sc(NC(=O)[C@H]2CC(C)=C(C)C[C@H]2C(=O)NCCCCCCNC(=O)c2ccc(-c3c4nc(c(-c5ccc(S(=O)(=O)[O-])cc5)c5ccc([nH]5)c(-c5ccc(S(=O)(=O)[O-])cc5)c5nc(c(-c6ccc(S(=O)(=O)[O-])cc6)c6ccc3[nH]6)C=C5)C=C4)cc2)nc1-c1ccccc1
REMARK SMILES IDX 22 1 21 2 20 3 19 4 17 5 18 6 16 8 9 9 10 10 11 11 15 12
REMARK SMILES IDX 12 13 13 14 14 15 7 16 6 17 8 19 5 20 3 21 4 22 90 23 89 24
REMARK SMILES IDX 2 25 1 26 91 27 92 28 96 29 93 30 95 31 94 32 23 33 24 34
REMARK SMILES IDX 25 35 26 36 27 37 28 39 29 40 30 41 88 42 31 43 87 44 32 45
REMARK SMILES IDX 33 46 34 47 81 48 35 49 86 50 80 51 82 52 36 53 85 54 79 55
REMARK SMILES IDX 78 56 37 58 67 59 48 60 66 61 49 62 52 63 65 64 83 65 50 66
REMARK SMILES IDX 51 67 64 69 84 70 53 71 38 72 39 73 47 74 40 75 46 76 41 77
REMARK SMILES IDX 42 78 43 79 44 80 45 81 68 82 69 83 77 84 70 85 76 86 71 87
REMARK SMILES IDX 72 88 73 89 74 90 75 91 54 92 55 93 63 94 56 95 62 96 57 97
REMARK SMILES IDX 58 98 59 99 60 100 61 101
REMARK H PARENT 19 7 6 18 26 38 82 57 52 68
REMARK Flexibility Score: inf
ROOT
ATOM      1  C   UNL     1      -1.210  -4.191  -7.575  1.00  0.00     0.002 C 
ENDROOT
BRANCH   1   2
ATOM      2  C   UNL     1      -0.988  -3.868  -6.097  1.00  0.00     0.021 C 
BRANCH   2   3
ATOM      3  C   UNL     1      -1.803  -4.735  -5.147  1.00  0.00     0.116 C 
BRANCH   3   4
ATOM      4  N   UNL     1      -1.250  -6.059  -5.007  1.00  0.00    -0.356 N 
ATOM      5  C   UNL     1      -0.765  -6.711  -3.922  1.00  0.00     0.224 C 
ATOM      6  O   UNL     1      -0.517  -7.915  -4.064  1.00  0.00    -0.275 OA
ATOM      7  H   UNL     1      -1.220  -6.579  -5.843  1.00  0.00     0.163 HD
BRANCH   5   8
ATOM      8  C   UNL     1      -0.622  -6.061  -2.537  1.00  0.00     0.095 C 
ATOM      9  C   UNL     1       0.278  -4.800  -2.370  1.00  0.00     0.095 C 
ATOM     10  C   UNL     1      -0.529  -3.504  -2.181  1.00  0.00     0.045 C 
ATOM     11  C   UNL     1      -1.990  -3.536  -1.835  1.00  0.00    -0.074 C 
ATOM     12  C   UNL     1      -2.001  -6.026  -1.849  1.00  0.00     0.045 C 
ATOM     13  C   UNL     1      -2.586  -2.156  -1.678  1.00  0.00     0.039 C 
ATOM     14  C   UNL     1      -2.670  -4.686  -1.699  1.00  0.00    -0.074 C 
ATOM     15  C   UNL     1      -4.145  -4.719  -1.398  1.00  0.00     0.039 C 
BRANCH   9  16
ATOM     16  C   UNL     1       1.419  -4.770  -3.432  1.00  0.00     0.230 C 
ATOM     17  N   UNL     1       2.045  -3.661  -3.908  1.00  0.00    -0.302 N 
ATOM     18  H   UNL     1       2.521  -3.807  -4.757  1.00  0.00     0.172 HD
ATOM     19  O   UNL     1       1.822  -5.836  -3.917  1.00  0.00    -0.274 OA
BRANCH  17  20
ATOM     20  C   UNL     1       2.142  -2.386  -3.437  1.00  0.00     0.190 A 
ATOM     21  C   UNL     1       1.797  -0.438  -2.109  1.00  0.00     0.034 A 
ATOM     22  S   UNL     1       2.230  -2.069  -1.769  1.00  0.00    -0.101 S 
ATOM     23  C   UNL     1       2.150  -0.194  -3.433  1.00  0.00     0.087 A 
ATOM     24  N   UNL     1       2.329  -1.338  -4.202  1.00  0.00    -0.220 NA
BRANCH  21  25
ATOM     25  C   UNL     1       1.122   0.462  -1.114  1.00  0.00     0.046 C 
ATOM     26  C   UNL     1       1.240   0.051   0.343  1.00  0.00     0.010 C 
ENDBRANCH  21  25
BRANCH  23  27
ATOM     27  C   UNL     1       2.243   1.143  -3.999  1.00  0.00     0.001 A 
ATOM     28  C   UNL     1       3.078   2.093  -3.389  1.00  0.00     0.010 A 
ATOM     29  C   UNL     1       1.515   1.504  -5.136  1.00  0.00     0.010 A 
ATOM     30  C   UNL     1       3.151   3.396  -3.880  1.00  0.00     0.001 A 
ATOM     31  C   UNL     1       1.591   2.812  -5.628  1.00  0.00     0.001 A 
ATOM     32  C   UNL     1       2.402   3.757  -4.997  1.00  0.00     0.000 A 
ENDBRANCH  23  27
ENDBRANCH  17  20
ENDBRANCH   9  16
ENDBRANCH   5   8
ENDBRANCH   3   4
ENDBRANCH   2   3
ENDBRANCH   1   2
BRANCH   1  33
ATOM     33  C   UNL     1      -2.659  -4.066  -8.055  1.00  0.00     0.002 C 
BRANCH  33  34
ATOM     34  C   UNL     1      -3.345  -2.733  -7.737  1.00  0.00     0.021 C 
BRANCH  34  35
ATOM     35  C   UNL     1      -2.607  -1.491  -8.231  1.00  0.00     0.116 C 
BRANCH  35  36
ATOM     36  N   UNL     1      -2.383  -1.524  -9.665  1.00  0.00    -0.352 N 
ATOM     37  C   UNL     1      -2.728  -0.613 -10.630  1.00  0.00     0.251 C 
ATOM     38  H   UNL     1      -1.911  -2.322  -9.996  1.00  0.00     0.163 HD
ATOM     39  O   UNL     1      -2.630  -0.915 -11.815  1.00  0.00    -0.269 OA
BRANCH  37  40
ATOM     40  C   UNL     1      -3.231   0.724 -10.246  1.00  0.00     0.039 A 
ATOM     41  C   UNL     1      -4.328   1.248 -10.934  1.00  0.00     0.014 A 
ATOM     42  C   UNL     1      -2.606   1.475  -9.245  1.00  0.00     0.014 A 
ATOM     43  C   UNL     1      -4.829   2.503 -10.586  1.00  0.00     0.010 A 
ATOM     44  C   UNL     1      -3.144   2.702  -8.858  1.00  0.00     0.010 A 
ATOM     45  C   UNL     1      -4.257   3.230  -9.529  1.00  0.00    -0.014 A 
BRANCH  45  46
ATOM     46  C   UNL     1      -4.827   4.537  -9.115  1.00  0.00     0.031 A 
ATOM     47  C   UNL     1      -4.042   5.807  -9.297  1.00  0.00     0.074 A 
ATOM     48  C   UNL     1      -6.044   4.571  -8.537  1.00  0.00     0.049 A 
ATOM     49  N   UNL     1      -4.383   7.034  -8.996  1.00  0.00    -0.248 NA
ATOM     50  C   UNL     1      -2.692   5.682  -9.870  1.00  0.00     0.031 C 
ATOM     51  C   UNL     1      -6.882   3.402  -8.259  1.00  0.00     0.029 A 
ATOM     52  N   UNL     1      -6.788   5.629  -8.078  1.00  0.00    -0.354 N 
ATOM     53  C   UNL     1      -3.290   7.825  -9.331  1.00  0.00     0.074 A 
ATOM     54  C   UNL     1      -2.258   6.934  -9.816  1.00  0.00     0.031 C 
ATOM     55  C   UNL     1      -8.035   3.809  -7.704  1.00  0.00     0.029 A 
ATOM     56  C   UNL     1      -8.007   5.261  -7.560  1.00  0.00     0.049 A 
ATOM     57  H   UNL     1      -6.478   6.562  -8.117  1.00  0.00     0.167 HD
ATOM     58  C   UNL     1      -3.163   9.172  -9.258  1.00  0.00     0.031 A 
ATOM     59  C   UNL     1      -8.994   6.008  -7.029  1.00  0.00     0.031 A 
ATOM     60  C   UNL     1      -4.196  10.057  -8.788  1.00  0.00     0.049 A 
ATOM     61  C   UNL     1      -8.836   7.501  -6.975  1.00  0.00     0.074 A 
ATOM     62  C   UNL     1      -4.187  11.440  -8.738  1.00  0.00     0.029 A 
ATOM     63  N   UNL     1      -5.422   9.647  -8.286  1.00  0.00    -0.354 N 
ATOM     64  N   UNL     1      -7.823   8.236  -7.367  1.00  0.00    -0.248 NA
ATOM     65  C   UNL     1      -9.961   8.267  -6.420  1.00  0.00     0.031 C 
ATOM     66  C   UNL     1      -5.389  11.865  -8.162  1.00  0.00     0.029 A 
ATOM     67  C   UNL     1      -6.168  10.749  -7.900  1.00  0.00     0.049 A 
ATOM     68  H   UNL     1      -5.718   8.711  -8.213  1.00  0.00     0.167 HD
ATOM     69  C   UNL     1      -8.196   9.553  -7.124  1.00  0.00     0.074 A 
ATOM     70  C   UNL     1      -9.534   9.514  -6.569  1.00  0.00     0.031 C 
ATOM     71  C   UNL     1      -7.493  10.692  -7.339  1.00  0.00     0.031 A 
BRANCH  58  72
ATOM     72  C   UNL     1      -1.853   9.772  -9.694  1.00  0.00    -0.014 A 
ATOM     73  C   UNL     1      -1.485   9.805 -11.052  1.00  0.00     0.010 A 
ATOM     74  C   UNL     1      -0.997  10.351  -8.739  1.00  0.00     0.010 A 
ATOM     75  C   UNL     1      -0.268  10.370 -11.442  1.00  0.00     0.020 A 
ATOM     76  C   UNL     1       0.210  10.940  -9.129  1.00  0.00     0.020 A 
ATOM     77  C   UNL     1       0.574  10.930 -10.477  1.00  0.00     0.054 A 
BRANCH  77  78
ATOM     78  S   UNL     1       2.139  11.676 -11.012  1.00  0.00     0.124 S 
ATOM     79  O   UNL     1       2.948  10.495 -11.305  1.00  0.00    -0.237 OA
ATOM     80  O   UNL     1       1.738  12.466 -12.174  1.00  0.00    -0.237 OA
ATOM     81  O   UNL     1       2.567  12.453  -9.852  1.00  0.00    -0.744 OA
ENDBRANCH  77  78
ENDBRANCH  58  72
BRANCH  59  82
ATOM     82  C   UNL     1     -10.229   5.350  -6.526  1.00  0.00    -0.014 A 
ATOM     83  C   UNL     1     -11.439   5.464  -7.233  1.00  0.00     0.010 A 
ATOM     84  C   UNL     1     -10.195   4.587  -5.345  1.00  0.00     0.010 A 
ATOM     85  C   UNL     1     -12.597   4.840  -6.760  1.00  0.00     0.020 A 
ATOM     86  C   UNL     1     -11.345   3.940  -4.883  1.00  0.00     0.020 A 
ATOM     87  C   UNL     1     -12.542   4.081  -5.588  1.00  0.00     0.054 A 
BRANCH  87  88
ATOM     88  S   UNL     1     -14.041   3.230  -5.021  1.00  0.00     0.124 S 
ATOM     89  O   UNL     1     -14.810   4.326  -4.441  1.00  0.00    -0.237 OA
ATOM     90  O   UNL     1     -14.574   2.667  -6.260  1.00  0.00    -0.237 OA
ATOM     91  O   UNL     1     -13.533   2.246  -4.068  1.00  0.00    -0.744 OA
ENDBRANCH  87  88
ENDBRANCH  59  82
BRANCH  71  92
ATOM     92  C   UNL     1      -8.166  11.991  -6.987  1.00  0.00    -0.014 A 
ATOM     93  C   UNL     1      -8.344  12.376  -5.647  1.00  0.00     0.010 A 
ATOM     94  C   UNL     1      -8.595  12.854  -8.013  1.00  0.00     0.010 A 
ATOM     95  C   UNL     1      -8.972  13.585  -5.337  1.00  0.00     0.020 A 
ATOM     96  C   UNL     1      -9.200  14.075  -7.707  1.00  0.00     0.020 A 
ATOM     97  C   UNL     1      -9.399  14.426  -6.370  1.00  0.00     0.054 A 
BRANCH  97  98
ATOM     98  S   UNL     1     -10.185  16.004  -5.944  1.00  0.00     0.124 S 
ATOM     99  O   UNL     1     -11.521  15.577  -5.537  1.00  0.00    -0.237 OA
ATOM    100  O   UNL     1      -9.332  16.510  -4.871  1.00  0.00    -0.237 OA
ATOM    101  O   UNL     1     -10.126  16.766  -7.189  1.00  0.00    -0.744 OA
ENDBRANCH  97  98
ENDBRANCH  71  92
ENDBRANCH  45  46
ENDBRANCH  37  40
ENDBRANCH  35  36
ENDBRANCH  34  35
ENDBRANCH  33  34
ENDBRANCH   1  33
TORSDOF 20
