REMARK SMILES CC1=C(C)C[C@@H](C(=O)NCCCCCCNC(=O)c2ccc(-c3c4nc(c(-c5ccc(S(=O)(=O)[O-])cc5)c5ccc([nH]5)c(-c5ccc(S(=O)(=O)[O-])cc5)c5nc(c(-c6ccc(S(=O)(=O)[O-])cc6)c6ccc3[nH]6)C=C5)C=C4)cc2)[C@@H](C(=O)N2CCN(c3cccc(C(F)(F)F)c3)CC2)C1
REMARK SMILES IDX 12 1 11 2 10 3 9 4 7 5 8 6 6 8 1 9 2 10 3 11 98 12 4 13 5 14
REMARK SMILES IDX 79 15 80 16 81 17 82 18 83 19 97 20 84 21 96 22 85 23 86 24
REMARK SMILES IDX 87 25 95 26 88 27 90 28 89 29 91 30 92 31 93 32 94 33 13 34
REMARK SMILES IDX 14 35 15 36 16 37 17 38 18 40 19 41 20 42 78 43 21 44 77 45
REMARK SMILES IDX 22 46 23 47 24 48 71 49 25 50 76 51 70 52 72 53 26 54 75 55
REMARK SMILES IDX 69 56 68 57 27 59 57 60 38 61 56 62 39 63 42 64 55 65 73 66
REMARK SMILES IDX 40 67 41 68 54 70 74 71 43 72 28 73 29 74 37 75 30 76 36 77
REMARK SMILES IDX 31 78 32 79 33 80 34 81 35 82 58 83 59 84 67 85 60 86 66 87
REMARK SMILES IDX 61 88 62 89 63 90 64 91 65 92 44 93 45 94 53 95 46 96 52 97
REMARK SMILES IDX 47 98 48 99 49 100 50 101 51 102
REMARK H PARENT 9 7 16 39 72 58 42 69
REMARK Flexibility Score: inf
ROOT
ATOM      1  C   UNL     1       3.458   2.686   4.573  1.00  0.00     0.002 C 
ENDROOT
BRANCH   1   2
ATOM      2  C   UNL     1       2.772   2.321   3.256  1.00  0.00     0.021 C 
BRANCH   2   3
ATOM      3  C   UNL     1       1.252   2.237   3.353  1.00  0.00     0.116 C 
BRANCH   3   4
ATOM      4  N   UNL     1       0.621   3.515   3.575  1.00  0.00    -0.356 N 
ATOM      5  C   UNL     1      -0.068   4.338   2.748  1.00  0.00     0.224 C 
ATOM      6  O   UNL     1      -0.557   5.357   3.254  1.00  0.00    -0.275 OA
ATOM      7  H   UNL     1       0.708   3.852   4.496  1.00  0.00     0.163 HD
BRANCH   5   8
ATOM      8  C   UNL     1      -0.331   4.041   1.269  1.00  0.00     0.095 C 
ATOM      9  C   UNL     1       1.048   0.136  -0.331  1.00  0.00     0.039 C 
ATOM     10  C   UNL     1       0.424   1.458   0.051  1.00  0.00    -0.074 C 
ATOM     11  C   UNL     1      -0.788   1.569   0.633  1.00  0.00    -0.074 C 
ATOM     12  C   UNL     1       1.327   2.647  -0.176  1.00  0.00     0.045 C 
ATOM     13  C   UNL     1      -1.693   0.405   0.952  1.00  0.00     0.039 C 
ATOM     14  C   UNL     1      -1.340   2.900   1.083  1.00  0.00     0.045 C 
ATOM     15  C   UNL     1       0.833   4.039   0.271  1.00  0.00     0.095 C 
BRANCH  15  16
ATOM     16  C   UNL     1       2.052   4.875   0.688  1.00  0.00     0.226 C 
ATOM     17  O   UNL     1       2.312   5.244   1.826  1.00  0.00    -0.275 OA
ATOM     18  N   UNL     1       2.926   5.122  -0.358  1.00  0.00    -0.339 N 
ATOM     19  C   UNL     1       4.346   4.821  -0.152  1.00  0.00     0.141 C 
ATOM     20  C   UNL     1       2.688   6.335  -1.137  1.00  0.00     0.141 C 
ATOM     21  C   UNL     1       5.096   4.720  -1.493  1.00  0.00     0.138 C 
ATOM     22  C   UNL     1       3.425   6.311  -2.482  1.00  0.00     0.138 C 
ATOM     23  N   UNL     1       4.825   5.918  -2.297  1.00  0.00    -0.368 N 
BRANCH  23  24
ATOM     24  C   UNL     1       5.858   6.676  -2.789  1.00  0.00     0.037 A 
ATOM     25  C   UNL     1       6.795   6.130  -3.670  1.00  0.00     0.026 A 
ATOM     26  C   UNL     1       6.012   8.013  -2.403  1.00  0.00     0.039 A 
ATOM     27  C   UNL     1       7.846   6.899  -4.174  1.00  0.00     0.003 A 
ATOM     28  C   UNL     1       7.080   8.794  -2.872  1.00  0.00     0.058 A 
ATOM     29  C   UNL     1       7.989   8.226  -3.775  1.00  0.00     0.013 A 
BRANCH  28  30
ATOM     30  C   UNL     1       7.257  10.216  -2.410  1.00  0.00     0.416 C 
ATOM     31  F   UNL     1       8.490  10.445  -1.877  1.00  0.00    -0.166 F 
ATOM     32  F   UNL     1       7.120  11.114  -3.426  1.00  0.00    -0.166 F 
ATOM     33  F   UNL     1       6.364  10.600  -1.455  1.00  0.00    -0.166 F 
ENDBRANCH  28  30
ENDBRANCH  23  24
ENDBRANCH  15  16
ENDBRANCH   5   8
ENDBRANCH   3   4
ENDBRANCH   2   3
ENDBRANCH   1   2
BRANCH   1  34
ATOM     34  C   UNL     1       3.192   1.703   5.717  1.00  0.00     0.002 C 
BRANCH  34  35
ATOM     35  C   UNL     1       3.475   0.235   5.383  1.00  0.00     0.021 C 
BRANCH  35  36
ATOM     36  C   UNL     1       4.897  -0.038   4.902  1.00  0.00     0.116 C 
BRANCH  36  37
ATOM     37  N   UNL     1       5.878   0.281   5.927  1.00  0.00    -0.352 N 
ATOM     38  C   UNL     1       6.745  -0.556   6.579  1.00  0.00     0.251 C 
ATOM     39  H   UNL     1       5.925   1.229   6.189  1.00  0.00     0.163 HD
ATOM     40  O   UNL     1       7.326  -0.179   7.595  1.00  0.00    -0.269 OA
BRANCH  38  41
ATOM     41  C   UNL     1       6.970  -1.918   6.057  1.00  0.00     0.039 A 
ATOM     42  C   UNL     1       6.909  -3.003   6.934  1.00  0.00     0.014 A 
ATOM     43  C   UNL     1       7.239  -2.118   4.700  1.00  0.00     0.014 A 
ATOM     44  C   UNL     1       7.060  -4.299   6.437  1.00  0.00     0.010 A 
ATOM     45  C   UNL     1       7.331  -3.412   4.197  1.00  0.00     0.010 A 
ATOM     46  C   UNL     1       7.240  -4.515   5.060  1.00  0.00    -0.014 A 
BRANCH  46  47
ATOM     47  C   UNL     1       7.314  -5.886   4.498  1.00  0.00     0.031 A 
ATOM     48  C   UNL     1       8.584  -6.374   3.857  1.00  0.00     0.074 A 
ATOM     49  C   UNL     1       6.213  -6.663   4.499  1.00  0.00     0.049 A 
ATOM     50  N   UNL     1       8.814  -7.505   3.242  1.00  0.00    -0.248 NA
ATOM     51  C   UNL     1       9.739  -5.462   3.893  1.00  0.00     0.031 C 
ATOM     52  C   UNL     1       4.912  -6.288   5.059  1.00  0.00     0.029 A 
ATOM     53  N   UNL     1       6.009  -7.925   4.001  1.00  0.00    -0.354 N 
ATOM     54  C   UNL     1      10.131  -7.438   2.805  1.00  0.00     0.074 A 
ATOM     55  C   UNL     1      10.637  -6.137   3.189  1.00  0.00     0.031 C 
ATOM     56  C   UNL     1       4.051  -7.305   4.888  1.00  0.00     0.029 A 
ATOM     57  C   UNL     1       4.724  -8.383   4.172  1.00  0.00     0.049 A 
ATOM     58  H   UNL     1       6.715  -8.452   3.562  1.00  0.00     0.167 HD
ATOM     59  C   UNL     1      10.858  -8.379   2.156  1.00  0.00     0.031 A 
ATOM     60  C   UNL     1       4.146  -9.537   3.784  1.00  0.00     0.031 A 
ATOM     61  C   UNL     1      10.352  -9.673   1.782  1.00  0.00     0.049 A 
ATOM     62  C   UNL     1       4.968 -10.557   3.046  1.00  0.00     0.074 A 
ATOM     63  C   UNL     1      11.027 -10.716   1.172  1.00  0.00     0.029 A 
ATOM     64  N   UNL     1       9.048 -10.100   1.976  1.00  0.00    -0.354 N 
ATOM     65  N   UNL     1       6.231 -10.499   2.696  1.00  0.00    -0.248 NA
ATOM     66  C   UNL     1       4.288 -11.800   2.656  1.00  0.00     0.031 C 
ATOM     67  C   UNL     1      10.117 -11.755   0.951  1.00  0.00     0.029 A 
ATOM     68  C   UNL     1       8.889 -11.380   1.472  1.00  0.00     0.049 A 
ATOM     69  H   UNL     1       8.339  -9.571   2.408  1.00  0.00     0.167 HD
ATOM     70  C   UNL     1       6.502 -11.705   2.060  1.00  0.00     0.074 A 
ATOM     71  C   UNL     1       5.277 -12.479   2.091  1.00  0.00     0.031 C 
ATOM     72  C   UNL     1       7.660 -12.133   1.500  1.00  0.00     0.031 A 
BRANCH  59  73
ATOM     73  C   UNL     1      12.280  -8.035   1.800  1.00  0.00    -0.014 A 
ATOM     74  C   UNL     1      13.273  -7.933   2.791  1.00  0.00     0.010 A 
ATOM     75  C   UNL     1      12.638  -7.850   0.452  1.00  0.00     0.010 A 
ATOM     76  C   UNL     1      14.588  -7.611   2.446  1.00  0.00     0.020 A 
ATOM     77  C   UNL     1      13.958  -7.554   0.099  1.00  0.00     0.020 A 
ATOM     78  C   UNL     1      14.921  -7.418   1.101  1.00  0.00     0.054 A 
BRANCH  78  79
ATOM     79  S   UNL     1      16.640  -7.019   0.679  1.00  0.00     0.124 S 
ATOM     80  O   UNL     1      16.740  -5.628   1.115  1.00  0.00    -0.237 OA
ATOM     81  O   UNL     1      17.398  -7.982   1.474  1.00  0.00    -0.237 OA
ATOM     82  O   UNL     1      16.698  -7.224  -0.766  1.00  0.00    -0.744 OA
ENDBRANCH  78  79
ENDBRANCH  59  73
BRANCH  60  83
ATOM     83  C   UNL     1       2.711  -9.785   4.088  1.00  0.00    -0.014 A 
ATOM     84  C   UNL     1       2.342 -10.732   5.059  1.00  0.00     0.010 A 
ATOM     85  C   UNL     1       1.707  -9.062   3.419  1.00  0.00     0.010 A 
ATOM     86  C   UNL     1       0.993 -10.962   5.346  1.00  0.00     0.020 A 
ATOM     87  C   UNL     1       0.358  -9.271   3.721  1.00  0.00     0.020 A 
ATOM     88  C   UNL     1       0.010 -10.228   4.676  1.00  0.00     0.054 A 
BRANCH  88  89
ATOM     89  S   UNL     1      -1.732 -10.502   5.104  1.00  0.00     0.124 S 
ATOM     90  O   UNL     1      -2.006 -11.780   4.457  1.00  0.00    -0.237 OA
ATOM     91  O   UNL     1      -1.699 -10.525   6.565  1.00  0.00    -0.237 OA
ATOM     92  O   UNL     1      -2.410  -9.345   4.524  1.00  0.00    -0.744 OA
ENDBRANCH  88  89
ENDBRANCH  60  83
BRANCH  72  93
ATOM     93  C   UNL     1       7.664 -13.507   0.888  1.00  0.00    -0.014 A 
ATOM     94  C   UNL     1       7.012 -13.759  -0.332  1.00  0.00     0.010 A 
ATOM     95  C   UNL     1       8.371 -14.548   1.517  1.00  0.00     0.010 A 
ATOM     96  C   UNL     1       7.043 -15.036  -0.898  1.00  0.00     0.020 A 
ATOM     97  C   UNL     1       8.427 -15.819   0.940  1.00  0.00     0.020 A 
ATOM     98  C   UNL     1       7.750 -16.058  -0.258  1.00  0.00     0.054 A 
BRANCH  98  99
ATOM     99  S   UNL     1       7.814 -17.696  -1.036  1.00  0.00     0.124 S 
ATOM    100  O   UNL     1       6.474 -18.211  -0.768  1.00  0.00    -0.237 OA
ATOM    101  O   UNL     1       8.097 -17.377  -2.433  1.00  0.00    -0.237 OA
ATOM    102  O   UNL     1       8.896 -18.374  -0.327  1.00  0.00    -0.744 OA
ENDBRANCH  98  99
ENDBRANCH  72  93
ENDBRANCH  46  47
ENDBRANCH  38  41
ENDBRANCH  36  37
ENDBRANCH  35  36
ENDBRANCH  34  35
ENDBRANCH   1  34
TORSDOF 19
