REMARK SMILES C[C@H](c1ccccc1)N1C(=O)c2ccc(C(=O)NCCCCCCNC(=O)c3ccc(-c4c5nc(c(-c6ccc(S(=O)(=O)[O-])cc6)c6ccc([nH]6)c(-c6ccc(S(=O)(=O)[O-])cc6)c6nc(c(-c7ccc(S(=O)(=O)[O-])cc7)c7ccc4[nH]7)C=C6)C=C5)cc3)cc2C1=O
REMARK SMILES IDX 22 1 21 2 20 3 19 4 18 5 16 6 17 7 15 9 9 10 10 11 90 12
REMARK SMILES IDX 11 13 12 14 89 15 91 16 13 17 88 18 14 19 2 20 1 21 3 22
REMARK SMILES IDX 4 23 8 24 5 25 7 26 6 27 23 28 24 29 25 30 26 31 27 33 28 34
REMARK SMILES IDX 29 35 87 36 30 37 86 38 31 39 32 40 33 41 80 42 34 43 85 44
REMARK SMILES IDX 79 45 81 46 35 47 84 48 78 49 77 50 36 52 66 53 47 54 65 55
REMARK SMILES IDX 48 56 51 57 64 58 82 59 49 60 50 61 63 63 83 64 52 65 37 66
REMARK SMILES IDX 38 67 46 68 39 69 45 70 40 71 41 72 42 73 43 74 44 75 67 76
REMARK SMILES IDX 68 77 76 78 69 79 75 80 70 81 71 82 72 83 73 84 74 85 53 86
REMARK SMILES IDX 54 87 62 88 55 89 61 90 56 91 57 92 58 93 59 94 60 95
REMARK H PARENT 18 8 25 32 81 51 51 62
REMARK Flexibility Score: inf
ROOT
ATOM      1  C   UNL     1     -10.030   4.788  -1.157  1.00  0.00     0.002 C 
ENDROOT
BRANCH   1   2
ATOM      2  C   UNL     1      -9.547   4.012  -2.385  1.00  0.00     0.002 C 
BRANCH   2   3
ATOM      3  C   UNL     1      -8.035   3.795  -2.515  1.00  0.00     0.021 C 
BRANCH   3   4
ATOM      4  C   UNL     1      -7.317   3.208  -1.298  1.00  0.00     0.116 C 
BRANCH   4   5
ATOM      5  N   UNL     1      -7.888   1.951  -0.850  1.00  0.00    -0.352 N 
ATOM      6  C   UNL     1      -7.319   0.721  -0.665  1.00  0.00     0.251 C 
ATOM      7  O   UNL     1      -8.020  -0.232  -0.333  1.00  0.00    -0.269 OA
ATOM      8  H   UNL     1      -8.850   1.991  -0.644  1.00  0.00     0.163 HD
BRANCH   6   9
ATOM      9  C   UNL     1      -5.881   0.489  -0.920  1.00  0.00     0.040 A 
ATOM     10  N   UNL     1      -1.294   0.793  -0.845  1.00  0.00    -0.267 N 
ATOM     11  C   UNL     1      -1.829  -0.111  -1.719  1.00  0.00     0.262 C 
ATOM     12  C   UNL     1      -2.283   1.531  -0.242  1.00  0.00     0.262 C 
ATOM     13  O   UNL     1      -1.316  -0.793  -2.589  1.00  0.00    -0.269 OA
ATOM     14  C   UNL     1      -3.268  -0.091  -1.520  1.00  0.00     0.053 A 
ATOM     15  C   UNL     1      -3.564   0.950  -0.663  1.00  0.00     0.054 A 
ATOM     16  O   UNL     1      -2.190   2.495   0.487  1.00  0.00    -0.269 OA
ATOM     17  C   UNL     1      -4.236  -0.915  -2.057  1.00  0.00     0.015 A 
ATOM     18  C   UNL     1      -4.870   1.275  -0.340  1.00  0.00     0.028 A 
ATOM     19  C   UNL     1      -5.560  -0.623  -1.736  1.00  0.00     0.015 A 
BRANCH  10  20
ATOM     20  C   UNL     1       0.138   1.057  -0.662  1.00  0.00     0.121 C 
ATOM     21  C   UNL     1       0.715   1.876  -1.821  1.00  0.00     0.037 C 
BRANCH  20  22
ATOM     22  C   UNL     1       0.909  -0.228  -0.368  1.00  0.00    -0.025 A 
ATOM     23  C   UNL     1       1.302  -1.110  -1.389  1.00  0.00     0.006 A 
ATOM     24  C   UNL     1       1.163  -0.603   0.961  1.00  0.00     0.006 A 
ATOM     25  C   UNL     1       1.862  -2.354  -1.094  1.00  0.00     0.000 A 
ATOM     26  C   UNL     1       1.753  -1.837   1.255  1.00  0.00     0.000 A 
ATOM     27  C   UNL     1       2.083  -2.720   0.229  1.00  0.00     0.000 A 
ENDBRANCH  20  22
ENDBRANCH  10  20
ENDBRANCH   6   9
ENDBRANCH   4   5
ENDBRANCH   3   4
ENDBRANCH   2   3
ENDBRANCH   1   2
BRANCH   1  28
ATOM     28  C   UNL     1      -9.365   6.143  -0.905  1.00  0.00     0.021 C 
BRANCH  28  29
ATOM     29  C   UNL     1      -9.434   7.143  -2.055  1.00  0.00     0.116 C 
BRANCH  29  30
ATOM     30  N   UNL     1     -10.789   7.581  -2.343  1.00  0.00    -0.352 N 
ATOM     31  C   UNL     1     -11.280   8.858  -2.481  1.00  0.00     0.251 C 
ATOM     32  H   UNL     1     -11.450   6.860  -2.456  1.00  0.00     0.163 HD
ATOM     33  O   UNL     1     -12.490   9.037  -2.589  1.00  0.00    -0.269 OA
BRANCH  31  34
ATOM     34  C   UNL     1     -10.360  10.020  -2.470  1.00  0.00     0.039 A 
ATOM     35  C   UNL     1     -10.695  11.136  -1.698  1.00  0.00     0.014 A 
ATOM     36  C   UNL     1      -9.183  10.023  -3.225  1.00  0.00     0.014 A 
ATOM     37  C   UNL     1      -9.822  12.226  -1.632  1.00  0.00     0.010 A 
ATOM     38  C   UNL     1      -8.287  11.086  -3.115  1.00  0.00     0.010 A 
ATOM     39  C   UNL     1      -8.596  12.198  -2.317  1.00  0.00    -0.014 A 
BRANCH  39  40
ATOM     40  C   UNL     1      -7.628  13.322  -2.210  1.00  0.00     0.031 A 
ATOM     41  C   UNL     1      -7.312  14.167  -3.415  1.00  0.00     0.074 A 
ATOM     42  C   UNL     1      -6.989  13.546  -1.045  1.00  0.00     0.049 A 
ATOM     43  N   UNL     1      -6.444  15.139  -3.535  1.00  0.00    -0.248 NA
ATOM     44  C   UNL     1      -8.052  13.866  -4.651  1.00  0.00     0.031 C 
ATOM     45  C   UNL     1      -7.177  12.778   0.189  1.00  0.00     0.029 A 
ATOM     46  N   UNL     1      -6.040  14.481  -0.710  1.00  0.00    -0.354 N 
ATOM     47  C   UNL     1      -6.521  15.555  -4.859  1.00  0.00     0.074 A 
ATOM     48  C   UNL     1      -7.493  14.705  -5.512  1.00  0.00     0.031 C 
ATOM     49  C   UNL     1      -6.383  13.283   1.147  1.00  0.00     0.029 A 
ATOM     50  C   UNL     1      -5.606  14.386   0.591  1.00  0.00     0.049 A 
ATOM     51  H   UNL     1      -5.703  15.156  -1.343  1.00  0.00     0.167 HD
ATOM     52  C   UNL     1      -5.855  16.563  -5.473  1.00  0.00     0.031 A 
ATOM     53  C   UNL     1      -4.681  15.101   1.261  1.00  0.00     0.031 A 
ATOM     54  C   UNL     1      -4.902  17.421  -4.821  1.00  0.00     0.049 A 
ATOM     55  C   UNL     1      -3.961  16.220   0.558  1.00  0.00     0.074 A 
ATOM     56  C   UNL     1      -4.211  18.498  -5.351  1.00  0.00     0.029 A 
ATOM     57  N   UNL     1      -4.510  17.308  -3.497  1.00  0.00    -0.354 N 
ATOM     58  N   UNL     1      -4.082  16.625  -0.683  1.00  0.00    -0.248 NA
ATOM     59  C   UNL     1      -2.986  16.983   1.351  1.00  0.00     0.031 C 
ATOM     60  C   UNL     1      -3.375  19.015  -4.355  1.00  0.00     0.029 A 
ATOM     61  C   UNL     1      -3.579  18.286  -3.194  1.00  0.00     0.049 A 
ATOM     62  H   UNL     1      -4.845  16.631  -2.865  1.00  0.00     0.167 HD
ATOM     63  C   UNL     1      -3.217  17.705  -0.813  1.00  0.00     0.074 A 
ATOM     64  C   UNL     1      -2.589  17.899   0.478  1.00  0.00     0.031 C 
ATOM     65  C   UNL     1      -2.966  18.469  -1.904  1.00  0.00     0.031 A 
BRANCH  52  66
ATOM     66  C   UNL     1      -6.141  16.796  -6.932  1.00  0.00    -0.014 A 
ATOM     67  C   UNL     1      -7.354  17.372  -7.346  1.00  0.00     0.010 A 
ATOM     68  C   UNL     1      -5.167  16.478  -7.896  1.00  0.00     0.010 A 
ATOM     69  C   UNL     1      -7.605  17.595  -8.702  1.00  0.00     0.020 A 
ATOM     70  C   UNL     1      -5.405  16.720  -9.252  1.00  0.00     0.020 A 
ATOM     71  C   UNL     1      -6.630  17.263  -9.648  1.00  0.00     0.054 A 
BRANCH  71  72
ATOM     72  S   UNL     1      -6.970  17.586 -11.400  1.00  0.00     0.124 S 
ATOM     73  O   UNL     1      -7.888  16.499 -11.733  1.00  0.00    -0.237 OA
ATOM     74  O   UNL     1      -7.561  18.921 -11.374  1.00  0.00    -0.237 OA
ATOM     75  O   UNL     1      -5.654  17.503 -12.029  1.00  0.00    -0.744 OA
ENDBRANCH  71  72
ENDBRANCH  52  66
BRANCH  53  76
ATOM     76  C   UNL     1      -4.386  14.789   2.685  1.00  0.00    -0.014 A 
ATOM     77  C   UNL     1      -4.818  15.652   3.707  1.00  0.00     0.010 A 
ATOM     78  C   UNL     1      -3.668  13.628   3.024  1.00  0.00     0.010 A 
ATOM     79  C   UNL     1      -4.518  15.371   5.043  1.00  0.00     0.020 A 
ATOM     80  C   UNL     1      -3.387  13.332   4.361  1.00  0.00     0.020 A 
ATOM     81  C   UNL     1      -3.802  14.214   5.362  1.00  0.00     0.054 A 
BRANCH  81  82
ATOM     82  S   UNL     1      -3.458  13.843   7.104  1.00  0.00     0.124 S 
ATOM     83  O   UNL     1      -2.334  14.730   7.386  1.00  0.00    -0.237 OA
ATOM     84  O   UNL     1      -4.717  14.190   7.759  1.00  0.00    -0.237 OA
ATOM     85  O   UNL     1      -3.145  12.416   7.091  1.00  0.00    -0.744 OA
ENDBRANCH  81  82
ENDBRANCH  53  76
BRANCH  65  86
ATOM     86  C   UNL     1      -1.994  19.605  -1.744  1.00  0.00    -0.014 A 
ATOM     87  C   UNL     1      -0.610  19.370  -1.667  1.00  0.00     0.010 A 
ATOM     88  C   UNL     1      -2.470  20.928  -1.720  1.00  0.00     0.010 A 
ATOM     89  C   UNL     1       0.281  20.439  -1.543  1.00  0.00     0.020 A 
ATOM     90  C   UNL     1      -1.581  22.001  -1.618  1.00  0.00     0.020 A 
ATOM     91  C   UNL     1      -0.211  21.748  -1.516  1.00  0.00     0.054 A 
BRANCH  91  92
ATOM     92  S   UNL     1       0.965  23.125  -1.400  1.00  0.00     0.124 S 
ATOM     93  O   UNL     1       1.318  23.104   0.017  1.00  0.00    -0.237 OA
ATOM     94  O   UNL     1       2.028  22.721  -2.318  1.00  0.00    -0.237 OA
ATOM     95  O   UNL     1       0.185  24.282  -1.832  1.00  0.00    -0.744 OA
ENDBRANCH  91  92
ENDBRANCH  65  86
ENDBRANCH  39  40
ENDBRANCH  31  34
ENDBRANCH  29  30
ENDBRANCH  28  29
ENDBRANCH   1  28
TORSDOF 18
