REMARK SMILES CCSc1ccc(-c2cc(Cl)cc3c2O[C@H](C(F)(F)F)C(C(=O)NCCCCCCNC(=O)c2ccc(-c4c5nc(c(-c6ccc(S(=O)(=O)[O-])cc6)c6ccc([nH]6)c(-c6ccc(S(=O)(=O)[O-])cc6)c6nc(c(-c7ccc(S(=O)(=O)[O-])cc7)c7ccc4[nH]7)C=C6)C=C5)cc2)=C3)cc1
REMARK SMILES IDX 27 1 26 2 25 3 24 4 22 5 23 6 21 8 8 9 9 10 14 11 10 12
REMARK SMILES IDX 13 13 15 14 11 15 12 16 94 17 16 18 7 19 4 20 5 21 96 22
REMARK SMILES IDX 6 23 95 24 3 25 2 26 1 27 17 28 18 29 19 30 20 31 28 32
REMARK SMILES IDX 29 33 30 34 31 35 32 36 33 38 34 39 35 40 93 41 36 42 92 43
REMARK SMILES IDX 37 44 38 45 39 46 86 47 40 48 91 49 85 50 87 51 41 52 90 53
REMARK SMILES IDX 84 54 83 55 42 57 72 58 53 59 71 60 54 61 57 62 70 63 88 64
REMARK SMILES IDX 55 65 56 66 69 68 89 69 58 70 43 71 44 72 52 73 45 74 51 75
REMARK SMILES IDX 46 76 47 77 48 78 49 79 50 80 73 81 74 82 82 83 75 84 81 85
REMARK SMILES IDX 76 86 77 87 78 88 79 89 80 90 59 91 60 92 68 93 61 94 67 95
REMARK SMILES IDX 62 96 63 97 64 98 65 99 66 100
REMARK H PARENT 24 7 31 37 87 56 57 67
REMARK Flexibility Score: inf
ROOT
ATOM      1  C   UNL     1      16.109  -1.956   0.022  1.00  0.00     0.002 C 
ENDROOT
BRANCH   1   2
ATOM      2  C   UNL     1      15.042  -1.359   0.955  1.00  0.00     0.021 C 
BRANCH   2   3
ATOM      3  C   UNL     1      14.196  -0.244   0.327  1.00  0.00     0.116 C 
BRANCH   3   4
ATOM      4  N   UNL     1      13.525  -0.749  -0.854  1.00  0.00    -0.352 N 
ATOM      5  C   UNL     1      12.181  -0.824  -1.005  1.00  0.00     0.251 C 
ATOM      6  O   UNL     1      11.658  -1.871  -1.368  1.00  0.00    -0.270 OA
ATOM      7  H   UNL     1      14.086  -1.059  -1.600  1.00  0.00     0.163 HD
BRANCH   5   8
ATOM      8  C   UNL     1      11.437   0.463  -0.877  1.00  0.00     0.067 C 
ATOM      9  C   UNL     1       7.782  -0.862  -2.002  1.00  0.00     0.026 A 
ATOM     10  C   UNL     1       7.981  -1.678  -3.148  1.00  0.00     0.033 A 
ATOM     11  C   UNL     1       8.865  -0.059  -1.613  1.00  0.00     0.135 A 
ATOM     12  C   UNL     1       9.105  -1.565  -3.962  1.00  0.00     0.042 A 
ATOM     13  C   UNL     1       9.940   0.130  -2.518  1.00  0.00     0.019 A 
ATOM     14  O   UNL     1       8.971   0.519  -0.354  1.00  0.00    -0.475 OA
ATOM     15  Cl  UNL     1       9.284  -2.604  -5.319  1.00  0.00    -0.084 Cl
ATOM     16  C   UNL     1      10.057  -0.603  -3.695  1.00  0.00     0.032 A 
ATOM     17  C   UNL     1      11.071   0.970  -2.070  1.00  0.00     0.025 C 
ATOM     18  C   UNL     1      10.361   0.477   0.198  1.00  0.00     0.314 C 
BRANCH   9  19
ATOM     19  C   UNL     1       6.373  -0.788  -1.532  1.00  0.00    -0.015 A 
ATOM     20  C   UNL     1       3.564  -0.761  -1.940  1.00  0.00     0.007 A 
ATOM     21  C   UNL     1       4.225  -1.953  -1.638  1.00  0.00     0.015 A 
ATOM     22  C   UNL     1       4.284   0.435  -1.904  1.00  0.00     0.015 A 
ATOM     23  C   UNL     1       5.606  -1.963  -1.404  1.00  0.00     0.010 A 
ATOM     24  C   UNL     1       5.673   0.423  -1.685  1.00  0.00     0.010 A 
BRANCH  20  25
ATOM     25  S   UNL     1       1.879  -0.862  -2.528  1.00  0.00    -0.126 SA
BRANCH  25  26
ATOM     26  C   UNL     1       1.025   0.331  -1.454  1.00  0.00     0.071 C 
ATOM     27  C   UNL     1       1.120  -0.067   0.007  1.00  0.00     0.016 C 
ENDBRANCH  25  26
ENDBRANCH  20  25
ENDBRANCH   9  19
BRANCH  18  28
ATOM     28  C   UNL     1      10.651   1.665   1.143  1.00  0.00     0.429 C 
ATOM     29  F   UNL     1       9.752   2.666   1.012  1.00  0.00    -0.167 F 
ATOM     30  F   UNL     1      10.646   1.273   2.439  1.00  0.00    -0.167 F 
ATOM     31  F   UNL     1      11.875   2.216   0.921  1.00  0.00    -0.167 F 
ENDBRANCH  18  28
ENDBRANCH   5   8
ENDBRANCH   3   4
ENDBRANCH   2   3
ENDBRANCH   1   2
BRANCH   1  32
ATOM     32  C   UNL     1      17.055  -0.931  -0.606  1.00  0.00     0.002 C 
BRANCH  32  33
ATOM     33  C   UNL     1      17.841  -0.097   0.405  1.00  0.00     0.021 C 
BRANCH  33  34
ATOM     34  C   UNL     1      18.648  -0.916   1.404  1.00  0.00     0.116 C 
BRANCH  34  35
ATOM     35  N   UNL     1      19.634  -1.762   0.752  1.00  0.00    -0.352 N 
ATOM     36  C   UNL     1      20.950  -1.954   1.076  1.00  0.00     0.251 C 
ATOM     37  H   UNL     1      19.311  -2.265  -0.030  1.00  0.00     0.163 HD
ATOM     38  O   UNL     1      21.688  -2.566   0.300  1.00  0.00    -0.269 OA
BRANCH  36  39
ATOM     39  C   UNL     1      21.487  -1.415   2.342  1.00  0.00     0.039 A 
ATOM     40  C   UNL     1      22.747  -0.815   2.338  1.00  0.00     0.014 A 
ATOM     41  C   UNL     1      20.760  -1.515   3.533  1.00  0.00     0.014 A 
ATOM     42  C   UNL     1      23.265  -0.291   3.523  1.00  0.00     0.010 A 
ATOM     43  C   UNL     1      21.241  -0.915   4.693  1.00  0.00     0.010 A 
ATOM     44  C   UNL     1      22.510  -0.320   4.707  1.00  0.00    -0.014 A 
BRANCH  44  45
ATOM     45  C   UNL     1      23.058   0.231   5.972  1.00  0.00     0.031 A 
ATOM     46  C   UNL     1      23.308  -0.679   7.147  1.00  0.00     0.074 A 
ATOM     47  C   UNL     1      23.311   1.550   6.072  1.00  0.00     0.049 A 
ATOM     48  N   UNL     1      23.791  -0.386   8.327  1.00  0.00    -0.248 NA
ATOM     49  C   UNL     1      22.947  -2.097   6.984  1.00  0.00     0.031 C 
ATOM     50  C   UNL     1      23.066   2.542   5.021  1.00  0.00     0.029 A 
ATOM     51  N   UNL     1      23.834   2.285   7.105  1.00  0.00    -0.354 N 
ATOM     52  C   UNL     1      23.784  -1.577   9.045  1.00  0.00     0.074 A 
ATOM     53  C   UNL     1      23.187  -2.581   8.193  1.00  0.00     0.031 C 
ATOM     54  C   UNL     1      23.472   3.747   5.451  1.00  0.00     0.029 A 
ATOM     55  C   UNL     1      23.971   3.623   6.817  1.00  0.00     0.049 A 
ATOM     56  H   UNL     1      24.089   1.892   7.971  1.00  0.00     0.167 HD
ATOM     57  C   UNL     1      24.257  -1.823  10.290  1.00  0.00     0.031 A 
ATOM     58  C   UNL     1      24.445   4.637   7.567  1.00  0.00     0.031 A 
ATOM     59  C   UNL     1      24.854  -0.821  11.134  1.00  0.00     0.049 A 
ATOM     60  C   UNL     1      24.962   4.342   8.949  1.00  0.00     0.074 A 
ATOM     61  C   UNL     1      25.403  -0.973  12.395  1.00  0.00     0.029 A 
ATOM     62  N   UNL     1      24.980   0.520  10.802  1.00  0.00    -0.354 N 
ATOM     63  N   UNL     1      25.006   3.196   9.586  1.00  0.00    -0.248 NA
ATOM     64  C   UNL     1      25.514   5.475   9.704  1.00  0.00     0.031 C 
ATOM     65  C   UNL     1      25.809   0.286  12.849  1.00  0.00     0.029 A 
ATOM     66  C   UNL     1      25.579   1.210  11.842  1.00  0.00     0.049 A 
ATOM     67  H   UNL     1      24.686   0.922   9.953  1.00  0.00     0.167 HD
ATOM     68  C   UNL     1      25.618   3.464  10.806  1.00  0.00     0.074 A 
ATOM     69  C   UNL     1      25.943   4.877  10.807  1.00  0.00     0.031 C 
ATOM     70  C   UNL     1      25.890   2.618  11.831  1.00  0.00     0.031 A 
BRANCH  57  71
ATOM     71  C   UNL     1      24.142  -3.233  10.813  1.00  0.00    -0.014 A 
ATOM     72  C   UNL     1      24.892  -4.282  10.248  1.00  0.00     0.010 A 
ATOM     73  C   UNL     1      23.296  -3.510  11.902  1.00  0.00     0.010 A 
ATOM     74  C   UNL     1      24.761  -5.587  10.728  1.00  0.00     0.020 A 
ATOM     75  C   UNL     1      23.188  -4.809  12.408  1.00  0.00     0.020 A 
ATOM     76  C   UNL     1      23.908  -5.843  11.805  1.00  0.00     0.054 A 
BRANCH  76  77
ATOM     77  S   UNL     1      23.772  -7.544  12.419  1.00  0.00     0.124 S 
ATOM     78  O   UNL     1      23.025  -8.193  11.344  1.00  0.00    -0.237 OA
ATOM     79  O   UNL     1      25.169  -7.950  12.547  1.00  0.00    -0.237 OA
ATOM     80  O   UNL     1      23.049  -7.402  13.680  1.00  0.00    -0.744 OA
ENDBRANCH  76  77
ENDBRANCH  57  71
BRANCH  58  81
ATOM     81  C   UNL     1      24.469   6.019   7.014  1.00  0.00    -0.014 A 
ATOM     82  C   UNL     1      25.686   6.648   6.697  1.00  0.00     0.010 A 
ATOM     83  C   UNL     1      23.265   6.710   6.785  1.00  0.00     0.010 A 
ATOM     84  C   UNL     1      25.700   7.947   6.180  1.00  0.00     0.020 A 
ATOM     85  C   UNL     1      23.272   7.997   6.240  1.00  0.00     0.020 A 
ATOM     86  C   UNL     1      24.491   8.612   5.952  1.00  0.00     0.054 A 
BRANCH  86  87
ATOM     87  S   UNL     1      24.531  10.277   5.231  1.00  0.00     0.124 S 
ATOM     88  O   UNL     1      25.032  11.078   6.343  1.00  0.00    -0.237 OA
ATOM     89  O   UNL     1      25.447  10.111   4.106  1.00  0.00    -0.237 OA
ATOM     90  O   UNL     1      23.139  10.521   4.860  1.00  0.00    -0.744 OA
ENDBRANCH  86  87
ENDBRANCH  58  81
BRANCH  70  91
ATOM     91  C   UNL     1      26.613   3.188  13.024  1.00  0.00    -0.014 A 
ATOM     92  C   UNL     1      25.987   4.093  13.901  1.00  0.00     0.010 A 
ATOM     93  C   UNL     1      27.933   2.781  13.290  1.00  0.00     0.010 A 
ATOM     94  C   UNL     1      26.686   4.617  14.992  1.00  0.00     0.020 A 
ATOM     95  C   UNL     1      28.623   3.275  14.399  1.00  0.00     0.020 A 
ATOM     96  C   UNL     1      28.001   4.207  15.232  1.00  0.00     0.054 A 
BRANCH  96  97
ATOM     97  S   UNL     1      28.879   4.886  16.666  1.00  0.00     0.124 S 
ATOM     98  O   UNL     1      29.147   6.256  16.236  1.00  0.00    -0.237 OA
ATOM     99  O   UNL     1      27.898   4.744  17.739  1.00  0.00    -0.237 OA
ATOM    100  O   UNL     1      30.057   4.031  16.789  1.00  0.00    -0.744 OA
ENDBRANCH  96  97
ENDBRANCH  70  91
ENDBRANCH  44  45
ENDBRANCH  36  39
ENDBRANCH  34  35
ENDBRANCH  33  34
ENDBRANCH  32  33
ENDBRANCH   1  32
TORSDOF 20
