REMARK SMILES CC(=O)Nc1cccc(-c2ccc(F)c(C(=O)NCCCCCCNC(=O)c3ccc(-c4c5nc(c(-c6ccc(S(=O)(=O)[O-])cc6)c6ccc([nH]6)c(-c6ccc(S(=O)(=O)[O-])cc6)c6nc(c(-c7ccc(S(=O)(=O)[O-])cc7)c7ccc4[nH]7)C=C6)C=C5)cc3)c2)c1
REMARK SMILES IDX 22 1 21 2 20 3 19 4 18 5 16 6 17 7 15 9 10 10 11 11 88 12
REMARK SMILES IDX 12 13 13 14 14 15 9 16 5 17 6 18 89 19 7 20 8 21 4 22 1 23
REMARK SMILES IDX 2 24 3 25 23 27 24 28 25 29 26 30 27 32 28 33 29 34 87 35
REMARK SMILES IDX 30 36 86 37 31 38 32 39 33 40 80 41 34 42 85 43 79 44 81 45
REMARK SMILES IDX 35 46 84 47 78 48 77 49 36 51 66 52 47 53 65 54 48 55 51 56
REMARK SMILES IDX 64 57 82 58 49 59 50 60 63 62 83 63 52 64 37 65 38 66 46 67
REMARK SMILES IDX 39 68 45 69 40 70 41 71 42 72 43 73 44 74 67 75 68 76 76 77
REMARK SMILES IDX 69 78 75 79 70 80 71 81 72 82 73 83 74 84 53 85 54 86 62 87
REMARK SMILES IDX 55 88 61 89 56 90 57 91 58 92 59 93 60 94
REMARK H PARENT 18 8 4 26 25 31 81 50 51 61
REMARK Flexibility Score: inf
ROOT
ATOM      1  C   UNL     1       6.792   5.313  -0.630  1.00  0.00     0.002 C 
ENDROOT
BRANCH   1   2
ATOM      2  C   UNL     1       7.657   4.966   0.584  1.00  0.00     0.002 C 
BRANCH   2   3
ATOM      3  C   UNL     1       7.041   4.016   1.609  1.00  0.00     0.021 C 
BRANCH   3   4
ATOM      4  C   UNL     1       6.528   2.681   1.083  1.00  0.00     0.116 C 
BRANCH   4   5
ATOM      5  N   UNL     1       7.557   1.797   0.553  1.00  0.00    -0.352 N 
ATOM      6  C   UNL     1       7.753   0.433   0.660  1.00  0.00     0.254 C 
ATOM      7  O   UNL     1       8.706  -0.057   0.057  1.00  0.00    -0.269 OA
ATOM      8  H   UNL     1       8.241   2.258   0.016  1.00  0.00     0.163 HD
BRANCH   6   9
ATOM      9  C   UNL     1       6.880  -0.438   1.494  1.00  0.00     0.076 A 
ATOM     10  C   UNL     1       4.775  -0.788   2.704  1.00  0.00    -0.017 A 
ATOM     11  C   UNL     1       5.336  -1.907   3.330  1.00  0.00     0.012 A 
ATOM     12  C   UNL     1       5.531  -0.147   1.704  1.00  0.00     0.025 A 
ATOM     13  C   UNL     1       6.634  -2.316   3.012  1.00  0.00     0.041 A 
ATOM     14  C   UNL     1       7.409  -1.562   2.128  1.00  0.00     0.135 A 
ATOM     15  F   UNL     1       8.682  -1.939   1.942  1.00  0.00    -0.206 F 
BRANCH  10  16
ATOM     16  C   UNL     1       3.509  -0.170   3.148  1.00  0.00    -0.016 A 
ATOM     17  C   UNL     1       1.502   1.127   2.602  1.00  0.00     0.041 A 
ATOM     18  C   UNL     1       1.334   1.423   3.956  1.00  0.00     0.026 A 
ATOM     19  C   UNL     1       2.587   0.337   2.214  1.00  0.00     0.034 A 
ATOM     20  C   UNL     1       2.203   0.891   4.908  1.00  0.00     0.003 A 
ATOM     21  C   UNL     1       3.280   0.099   4.507  1.00  0.00     0.009 A 
BRANCH  17  22
ATOM     22  N   UNL     1       0.626   1.736   1.691  1.00  0.00    -0.326 N 
ATOM     23  C   UNL     1       0.694   0.128  -0.214  1.00  0.00     0.114 C 
ATOM     24  C   UNL     1       0.337   1.460   0.385  1.00  0.00     0.221 C 
ATOM     25  O   UNL     1      -0.263   2.305  -0.280  1.00  0.00    -0.275 OA
ATOM     26  H   UNL     1       0.129   2.502   2.060  1.00  0.00     0.169 HD
ENDBRANCH  17  22
ENDBRANCH  10  16
ENDBRANCH   6   9
ENDBRANCH   4   5
ENDBRANCH   3   4
ENDBRANCH   2   3
ENDBRANCH   1   2
BRANCH   1  27
ATOM     27  C   UNL     1       5.376   5.815  -0.338  1.00  0.00     0.021 C 
BRANCH  27  28
ATOM     28  C   UNL     1       5.274   7.004   0.613  1.00  0.00     0.116 C 
BRANCH  28  29
ATOM     29  N   UNL     1       5.973   8.178   0.120  1.00  0.00    -0.352 N 
ATOM     30  C   UNL     1       5.514   9.460  -0.060  1.00  0.00     0.251 C 
ATOM     31  H   UNL     1       6.917   8.033  -0.121  1.00  0.00     0.163 HD
ATOM     32  O   UNL     1       6.212  10.280  -0.647  1.00  0.00    -0.269 OA
BRANCH  30  33
ATOM     33  C   UNL     1       4.173   9.848   0.434  1.00  0.00     0.039 A 
ATOM     34  C   UNL     1       3.349  10.619  -0.390  1.00  0.00     0.014 A 
ATOM     35  C   UNL     1       3.734   9.470   1.706  1.00  0.00     0.014 A 
ATOM     36  C   UNL     1       2.064  10.961   0.039  1.00  0.00     0.010 A 
ATOM     37  C   UNL     1       2.426   9.746   2.100  1.00  0.00     0.010 A 
ATOM     38  C   UNL     1       1.579  10.500   1.274  1.00  0.00    -0.014 A 
BRANCH  38  39
ATOM     39  C   UNL     1       0.188  10.790   1.710  1.00  0.00     0.031 A 
ATOM     40  C   UNL     1      -0.071  11.610   2.944  1.00  0.00     0.074 A 
ATOM     41  C   UNL     1      -0.846  10.257   1.030  1.00  0.00     0.049 A 
ATOM     42  N   UNL     1      -1.213  11.935   3.495  1.00  0.00    -0.248 NA
ATOM     43  C   UNL     1       1.109  12.105   3.671  1.00  0.00     0.031 C 
ATOM     44  C   UNL     1      -0.727   9.399  -0.152  1.00  0.00     0.029 A 
ATOM     45  N   UNL     1      -2.199  10.347   1.239  1.00  0.00    -0.354 N 
ATOM     46  C   UNL     1      -0.890  12.653   4.641  1.00  0.00     0.074 A 
ATOM     47  C   UNL     1       0.554  12.668   4.734  1.00  0.00     0.031 C 
ATOM     48  C   UNL     1      -1.955   9.062  -0.575  1.00  0.00     0.029 A 
ATOM     49  C   UNL     1      -2.946   9.641   0.326  1.00  0.00     0.049 A 
ATOM     50  H   UNL     1      -2.597  10.868   1.974  1.00  0.00     0.167 HD
ATOM     51  C   UNL     1      -1.719  13.256   5.528  1.00  0.00     0.031 A 
ATOM     52  C   UNL     1      -4.279   9.467   0.226  1.00  0.00     0.031 A 
ATOM     53  C   UNL     1      -3.155  13.232   5.432  1.00  0.00     0.049 A 
ATOM     54  C   UNL     1      -5.183  10.146   1.216  1.00  0.00     0.074 A 
ATOM     55  C   UNL     1      -4.083  13.869   6.238  1.00  0.00     0.029 A 
ATOM     56  N   UNL     1      -3.874  12.521   4.481  1.00  0.00    -0.354 N 
ATOM     57  N   UNL     1      -4.862  10.896   2.244  1.00  0.00    -0.248 NA
ATOM     58  C   UNL     1      -6.628   9.969   1.025  1.00  0.00     0.031 C 
ATOM     59  C   UNL     1      -5.362  13.487   5.818  1.00  0.00     0.029 A 
ATOM     60  C   UNL     1      -5.234  12.672   4.704  1.00  0.00     0.049 A 
ATOM     61  H   UNL     1      -3.477  11.988   3.756  1.00  0.00     0.167 HD
ATOM     62  C   UNL     1      -6.066  11.297   2.812  1.00  0.00     0.074 A 
ATOM     63  C   UNL     1      -7.121  10.720   2.002  1.00  0.00     0.031 C 
ATOM     64  C   UNL     1      -6.277  12.076   3.903  1.00  0.00     0.031 A 
BRANCH  51  65
ATOM     65  C   UNL     1      -1.081  13.964   6.699  1.00  0.00    -0.014 A 
ATOM     66  C   UNL     1      -0.288  15.113   6.522  1.00  0.00     0.010 A 
ATOM     67  C   UNL     1      -1.275  13.467   8.001  1.00  0.00     0.010 A 
ATOM     68  C   UNL     1       0.357  15.706   7.611  1.00  0.00     0.020 A 
ATOM     69  C   UNL     1      -0.661  14.078   9.099  1.00  0.00     0.020 A 
ATOM     70  C   UNL     1       0.175  15.177   8.892  1.00  0.00     0.054 A 
BRANCH  70  71
ATOM     71  S   UNL     1       1.046  15.947  10.284  1.00  0.00     0.124 S 
ATOM     72  O   UNL     1       2.424  15.522  10.047  1.00  0.00    -0.237 OA
ATOM     73  O   UNL     1       0.783  17.369  10.080  1.00  0.00    -0.237 OA
ATOM     74  O   UNL     1       0.408  15.360  11.460  1.00  0.00    -0.744 OA
ENDBRANCH  70  71
ENDBRANCH  51  65
BRANCH  52  75
ATOM     75  C   UNL     1      -4.821   8.622  -0.873  1.00  0.00    -0.014 A 
ATOM     76  C   UNL     1      -5.479   9.205  -1.969  1.00  0.00     0.010 A 
ATOM     77  C   UNL     1      -4.611   7.230  -0.864  1.00  0.00     0.010 A 
ATOM     78  C   UNL     1      -5.912   8.414  -3.038  1.00  0.00     0.020 A 
ATOM     79  C   UNL     1      -5.017   6.439  -1.943  1.00  0.00     0.020 A 
ATOM     80  C   UNL     1      -5.667   7.038  -3.023  1.00  0.00     0.054 A 
BRANCH  80  81
ATOM     81  S   UNL     1      -6.151   6.051  -4.468  1.00  0.00     0.124 S 
ATOM     82  O   UNL     1      -7.606   6.050  -4.363  1.00  0.00    -0.237 OA
ATOM     83  O   UNL     1      -5.597   6.826  -5.576  1.00  0.00    -0.237 OA
ATOM     84  O   UNL     1      -5.505   4.761  -4.236  1.00  0.00    -0.744 OA
ENDBRANCH  80  81
ENDBRANCH  52  75
BRANCH  64  85
ATOM     85  C   UNL     1      -7.706  12.370   4.281  1.00  0.00    -0.014 A 
ATOM     86  C   UNL     1      -8.541  11.374   4.818  1.00  0.00     0.010 A 
ATOM     87  C   UNL     1      -8.203  13.680   4.148  1.00  0.00     0.010 A 
ATOM     88  C   UNL     1      -9.856  11.676   5.185  1.00  0.00     0.020 A 
ATOM     89  C   UNL     1      -9.506  13.993   4.543  1.00  0.00     0.020 A 
ATOM     90  C   UNL     1     -10.329  12.985   5.046  1.00  0.00     0.054 A 
BRANCH  90  91
ATOM     91  S   UNL     1     -12.025  13.360   5.570  1.00  0.00     0.124 S 
ATOM     92  O   UNL     1     -12.816  12.711   4.528  1.00  0.00    -0.237 OA
ATOM     93  O   UNL     1     -12.096  12.739   6.891  1.00  0.00    -0.237 OA
ATOM     94  O   UNL     1     -12.074  14.820   5.571  1.00  0.00    -0.744 OA
ENDBRANCH  90  91
ENDBRANCH  64  85
ENDBRANCH  38  39
ENDBRANCH  30  33
ENDBRANCH  28  29
ENDBRANCH  27  28
ENDBRANCH   1  27
TORSDOF 18
