REMARK SMILES O=C(NCCCCCCNC(=O)[C@@]1([NH2+]C2CC2)CC[C@H](OC2CCC2)C1)c1ccc(-c2c3nc(c(-c4ccc(S(=O)(=O)[O-])cc4)c4ccc([nH]4)c(-c4ccc(S(=O)(=O)[O-])cc4)c4nc(c(-c5ccc(S(=O)(=O)[O-])cc5)c5ccc2[nH]5)C=C4)C=C3)cc1
REMARK SMILES IDX 6 1 5 2 4 3 3 4 1 5 2 6 27 8 28 9 86 10 29 11 85 12 30 13
REMARK SMILES IDX 31 14 32 15 79 16 33 17 84 18 78 19 80 20 34 21 83 22 77 23
REMARK SMILES IDX 76 24 35 26 65 27 46 28 64 29 47 30 50 31 63 32 81 33 48 34
REMARK SMILES IDX 49 35 62 37 82 38 51 39 36 40 37 41 45 42 38 43 44 44 39 45
REMARK SMILES IDX 40 46 41 47 42 48 43 49 66 50 67 51 75 52 68 53 74 54 69 55
REMARK SMILES IDX 70 56 71 57 72 58 73 59 52 60 53 61 61 62 54 63 60 64 55 65
REMARK SMILES IDX 56 66 57 67 58 68 59 69 7 70 8 71 9 72 10 73 11 74 12 76
REMARK SMILES IDX 13 77 18 78 26 79 19 80 20 81 14 82 15 85 16 86 17 87 21 88
REMARK SMILES IDX 22 89 23 90 25 91 24 92
REMARK H PARENT 3 7 80 25 50 36 10 75 14 83 14 84
REMARK Flexibility Score: inf
ROOT
ATOM      1  C   UNL     1       4.015  -3.646   0.780  1.00  0.00     0.002 C 
ENDROOT
BRANCH   1   2
ATOM      2  C   UNL     1       4.439  -2.245   1.221  1.00  0.00     0.021 C 
BRANCH   2   3
ATOM      3  C   UNL     1       4.331  -1.198   0.121  1.00  0.00     0.116 C 
BRANCH   3   4
ATOM      4  N   UNL     1       2.946  -0.966  -0.261  1.00  0.00    -0.352 N 
ATOM      5  O   UNL     1       1.022   0.210  -0.358  1.00  0.00    -0.269 OA
ATOM      6  C   UNL     1       2.243   0.212  -0.238  1.00  0.00     0.251 C 
ATOM      7  H   UNL     1       2.450  -1.756  -0.576  1.00  0.00     0.163 HD
BRANCH   6   8
ATOM      8  C   UNL     1       2.979   1.479  -0.058  1.00  0.00     0.039 A 
ATOM      9  C   UNL     1       4.143   1.719  -0.793  1.00  0.00     0.014 A 
ATOM     10  C   UNL     1       2.507   2.427   0.852  1.00  0.00     0.014 A 
ATOM     11  C   UNL     1       4.900   2.853  -0.531  1.00  0.00     0.010 A 
ATOM     12  C   UNL     1       3.225   3.608   1.050  1.00  0.00     0.010 A 
ATOM     13  C   UNL     1       4.436   3.821   0.373  1.00  0.00    -0.014 A 
BRANCH  13  14
ATOM     14  C   UNL     1       5.191   5.089   0.524  1.00  0.00     0.031 A 
ATOM     15  C   UNL     1       5.846   5.460   1.823  1.00  0.00     0.074 A 
ATOM     16  C   UNL     1       5.293   5.900  -0.547  1.00  0.00     0.049 A 
ATOM     17  N   UNL     1       6.557   6.521   2.109  1.00  0.00    -0.248 NA
ATOM     18  C   UNL     1       5.680   4.527   2.949  1.00  0.00     0.031 C 
ATOM     19  C   UNL     1       4.692   5.640  -1.860  1.00  0.00     0.029 A 
ATOM     20  N   UNL     1       5.948   7.091  -0.714  1.00  0.00    -0.354 N 
ATOM     21  C   UNL     1       6.905   6.398   3.449  1.00  0.00     0.074 A 
ATOM     22  C   UNL     1       6.308   5.168   3.926  1.00  0.00     0.031 C 
ATOM     23  C   UNL     1       5.051   6.612  -2.708  1.00  0.00     0.029 A 
ATOM     24  C   UNL     1       5.844   7.599  -1.987  1.00  0.00     0.049 A 
ATOM     25  H   UNL     1       6.446   7.540   0.008  1.00  0.00     0.167 HD
ATOM     26  C   UNL     1       7.655   7.234   4.208  1.00  0.00     0.031 A 
ATOM     27  C   UNL     1       6.318   8.742  -2.516  1.00  0.00     0.031 A 
ATOM     28  C   UNL     1       8.234   8.462   3.723  1.00  0.00     0.049 A 
ATOM     29  C   UNL     1       7.112   9.668  -1.644  1.00  0.00     0.074 A 
ATOM     30  C   UNL     1       9.033   9.365   4.403  1.00  0.00     0.029 A 
ATOM     31  N   UNL     1       8.069   8.965   2.440  1.00  0.00    -0.354 N 
ATOM     32  N   UNL     1       7.458   9.518  -0.388  1.00  0.00    -0.248 NA
ATOM     33  C   UNL     1       7.578  10.917  -2.259  1.00  0.00     0.031 C 
ATOM     34  C   UNL     1       9.303  10.440   3.549  1.00  0.00     0.029 A 
ATOM     35  C   UNL     1       8.726  10.179   2.317  1.00  0.00     0.049 A 
ATOM     36  H   UNL     1       7.560   8.524   1.722  1.00  0.00     0.167 HD
ATOM     37  C   UNL     1       8.197  10.649  -0.064  1.00  0.00     0.074 A 
ATOM     38  C   UNL     1       8.264  11.461  -1.263  1.00  0.00     0.031 C 
ATOM     39  C   UNL     1       8.769  10.982   1.120  1.00  0.00     0.031 A 
BRANCH  26  40
ATOM     40  C   UNL     1       7.858   6.867   5.656  1.00  0.00    -0.014 A 
ATOM     41  C   UNL     1       8.668   5.779   6.029  1.00  0.00     0.010 A 
ATOM     42  C   UNL     1       7.250   7.641   6.662  1.00  0.00     0.010 A 
ATOM     43  C   UNL     1       8.826   5.443   7.378  1.00  0.00     0.020 A 
ATOM     44  C   UNL     1       7.427   7.325   8.013  1.00  0.00     0.020 A 
ATOM     45  C   UNL     1       8.197   6.213   8.361  1.00  0.00     0.054 A 
BRANCH  45  46
ATOM     46  S   UNL     1       8.416   5.753  10.102  1.00  0.00     0.124 S 
ATOM     47  O   UNL     1       7.586   4.555  10.201  1.00  0.00    -0.237 OA
ATOM     48  O   UNL     1       9.856   5.526  10.196  1.00  0.00    -0.237 OA
ATOM     49  O   UNL     1       7.922   6.916  10.834  1.00  0.00    -0.744 OA
ENDBRANCH  45  46
ENDBRANCH  26  40
BRANCH  27  50
ATOM     50  C   UNL     1       6.037   9.060  -3.941  1.00  0.00    -0.014 A 
ATOM     51  C   UNL     1       7.064   9.014  -4.898  1.00  0.00     0.010 A 
ATOM     52  C   UNL     1       4.725   9.355  -4.356  1.00  0.00     0.010 A 
ATOM     53  C   UNL     1       6.784   9.260  -6.245  1.00  0.00     0.020 A 
ATOM     54  C   UNL     1       4.436   9.572  -5.705  1.00  0.00     0.020 A 
ATOM     55  C   UNL     1       5.471   9.531  -6.641  1.00  0.00     0.054 A 
BRANCH  55  56
ATOM     56  S   UNL     1       5.120   9.773  -8.404  1.00  0.00     0.124 S 
ATOM     57  O   UNL     1       5.675  11.101  -8.644  1.00  0.00    -0.237 OA
ATOM     58  O   UNL     1       5.841   8.663  -9.024  1.00  0.00    -0.237 OA
ATOM     59  O   UNL     1       3.664   9.678  -8.479  1.00  0.00    -0.744 OA
ENDBRANCH  55  56
ENDBRANCH  27  50
BRANCH  39  60
ATOM     60  C   UNL     1       9.537  12.276   1.167  1.00  0.00    -0.014 A 
ATOM     61  C   UNL     1       8.875  13.516   1.146  1.00  0.00     0.010 A 
ATOM     62  C   UNL     1      10.939  12.246   1.271  1.00  0.00     0.010 A 
ATOM     63  C   UNL     1       9.606  14.706   1.196  1.00  0.00     0.020 A 
ATOM     64  C   UNL     1      11.671  13.433   1.349  1.00  0.00     0.020 A 
ATOM     65  C   UNL     1      11.000  14.656   1.296  1.00  0.00     0.054 A 
BRANCH  65  66
ATOM     66  S   UNL     1      11.924  16.214   1.399  1.00  0.00     0.124 S 
ATOM     67  O   UNL     1      11.848  16.703   0.025  1.00  0.00    -0.237 OA
ATOM     68  O   UNL     1      11.159  16.977   2.381  1.00  0.00    -0.237 OA
ATOM     69  O   UNL     1      13.254  15.799   1.839  1.00  0.00    -0.744 OA
ENDBRANCH  65  66
ENDBRANCH  39  60
ENDBRANCH  13  14
ENDBRANCH   6   8
ENDBRANCH   3   4
ENDBRANCH   2   3
ENDBRANCH   1   2
BRANCH   1  70
ATOM     70  C   UNL     1       4.820  -4.206  -0.397  1.00  0.00     0.002 C 
BRANCH  70  71
ATOM     71  C   UNL     1       6.343  -4.205  -0.185  1.00  0.00     0.021 C 
BRANCH  71  72
ATOM     72  C   UNL     1       6.782  -5.057   1.011  1.00  0.00     0.116 C 
BRANCH  72  73
ATOM     73  N   UNL     1       6.535  -6.449   0.712  1.00  0.00    -0.351 N 
ATOM     74  C   UNL     1       7.343  -7.357   0.099  1.00  0.00     0.281 C 
ATOM     75  H   UNL     1       5.656  -6.790   0.993  1.00  0.00     0.163 HD
ATOM     76  O   UNL     1       6.768  -8.307  -0.448  1.00  0.00    -0.268 OA
BRANCH  74  77
ATOM     77  C   UNL     1       8.895  -7.268   0.158  1.00  0.00     0.178 C 
ATOM     78  C   UNL     1       9.512  -8.265  -0.846  1.00  0.00     0.082 C 
ATOM     79  C   UNL     1       9.510  -5.959  -0.388  1.00  0.00     0.111 C 
ATOM     80  C   UNL     1      10.955  -7.829  -0.998  1.00  0.00     0.039 C 
ATOM     81  C   UNL     1      10.916  -6.310  -0.910  1.00  0.00     0.125 C 
BRANCH  77  82
ATOM     82  N   UNL     1       9.371  -7.453   1.544  1.00  0.00    -0.331 N 
ATOM     83  H   UNL     1       9.157  -6.587   2.039  1.00  0.00     0.347 HD
ATOM     84  H   UNL     1      10.349  -7.710   1.406  1.00  0.00     0.347 HD
BRANCH  82  85
ATOM     85  C   UNL     1       8.879  -8.540   2.386  1.00  0.00     0.183 C 
ATOM     86  C   UNL     1       8.238  -9.819   1.930  1.00  0.00     0.071 C 
ATOM     87  C   UNL     1       9.658  -9.832   2.403  1.00  0.00     0.071 C 
ENDBRANCH  82  85
ENDBRANCH  77  82
BRANCH  81  88
ATOM     88  O   UNL     1      11.889  -5.830   0.016  1.00  0.00    -0.375 OA
BRANCH  88  89
ATOM     89  C   UNL     1      13.274  -5.658  -0.368  1.00  0.00     0.118 C 
ATOM     90  C   UNL     1      14.134  -6.921  -0.595  1.00  0.00     0.032 C 
ATOM     91  C   UNL     1      13.650  -5.210  -1.799  1.00  0.00     0.032 C 
ATOM     92  C   UNL     1      14.836  -6.189  -1.748  1.00  0.00     0.005 C 
ENDBRANCH  88  89
ENDBRANCH  81  88
ENDBRANCH  74  77
ENDBRANCH  72  73
ENDBRANCH  71  72
ENDBRANCH  70  71
ENDBRANCH   1  70
TORSDOF 20
