REMARK SMILES O=C(NCCCCCCNC(=O)[C@H]1[C@H]2CC[C@H](C2)[C@@H]1C(=O)N1CCN(c2cccc(Cl)c2)CC1)c1ccc(-c2c3nc(c(-c4ccc(S(=O)(=O)[O-])cc4)c4ccc([nH]4)c(-c4ccc(S(=O)(=O)[O-])cc4)c4nc(c(-c5ccc(S(=O)(=O)[O-])cc5)c5ccc2[nH]5)C=C4)C=C3)cc1
REMARK SMILES IDX 6 1 5 2 4 3 3 4 1 5 2 6 35 8 36 9 94 10 37 11 93 12 38 13
REMARK SMILES IDX 39 14 40 15 87 16 41 17 92 18 86 19 88 20 42 21 91 22 85 23
REMARK SMILES IDX 84 24 43 26 73 27 54 28 72 29 55 30 58 31 71 32 89 33 56 34
REMARK SMILES IDX 57 35 70 37 90 38 59 39 44 40 45 41 53 42 46 43 52 44 47 45
REMARK SMILES IDX 48 46 49 47 50 48 51 49 74 50 75 51 83 52 76 53 82 54 77 55
REMARK SMILES IDX 78 56 79 57 80 58 81 59 60 60 61 61 69 62 62 63 68 64 63 65
REMARK SMILES IDX 64 66 65 67 66 68 67 69 7 70 8 71 9 72 10 73 11 74 12 76
REMARK SMILES IDX 13 77 14 78 19 79 15 80 18 81 17 82 16 83 20 84 21 85 22 86
REMARK SMILES IDX 23 87 34 88 24 89 33 90 25 91 26 92 27 93 32 94 28 95 30 96
REMARK SMILES IDX 29 97 31 98
REMARK H PARENT 3 7 88 25 58 36 10 75
REMARK Flexibility Score: inf
ROOT
ATOM      1  C   UNL     1      11.232  11.542   4.715  1.00  0.00     0.002 C 
ENDROOT
BRANCH   1   2
ATOM      2  C   UNL     1      11.377  12.029   3.272  1.00  0.00     0.021 C 
BRANCH   2   3
ATOM      3  C   UNL     1      10.464  13.188   2.899  1.00  0.00     0.116 C 
BRANCH   3   4
ATOM      4  N   UNL     1      10.749  14.375   3.684  1.00  0.00    -0.352 N 
ATOM      5  O   UNL     1      11.507  16.471   4.027  1.00  0.00    -0.269 OA
ATOM      6  C   UNL     1      11.079  15.629   3.240  1.00  0.00     0.251 C 
ATOM      7  H   UNL     1      10.698  14.265   4.661  1.00  0.00     0.163 HD
BRANCH   6   8
ATOM      8  C   UNL     1      10.920  15.954   1.808  1.00  0.00     0.039 A 
ATOM      9  C   UNL     1       9.753  15.584   1.131  1.00  0.00     0.014 A 
ATOM     10  C   UNL     1      11.929  16.656   1.146  1.00  0.00     0.014 A 
ATOM     11  C   UNL     1       9.635  15.833  -0.229  1.00  0.00     0.010 A 
ATOM     12  C   UNL     1      11.771  16.982  -0.202  1.00  0.00     0.010 A 
ATOM     13  C   UNL     1      10.621  16.575  -0.897  1.00  0.00    -0.014 A 
BRANCH  13  14
ATOM     14  C   UNL     1      10.351  17.055  -2.274  1.00  0.00     0.031 A 
ATOM     15  C   UNL     1      11.176  16.601  -3.442  1.00  0.00     0.074 A 
ATOM     16  C   UNL     1       9.343  17.935  -2.441  1.00  0.00     0.049 A 
ATOM     17  N   UNL     1      11.074  16.955  -4.697  1.00  0.00    -0.248 NA
ATOM     18  C   UNL     1      12.254  15.634  -3.177  1.00  0.00     0.031 C 
ATOM     19  C   UNL     1       8.490  18.454  -1.365  1.00  0.00     0.029 A 
ATOM     20  N   UNL     1       8.858  18.548  -3.567  1.00  0.00    -0.354 N 
ATOM     21  C   UNL     1      12.085  16.279  -5.369  1.00  0.00     0.074 A 
ATOM     22  C   UNL     1      12.796  15.495  -4.381  1.00  0.00     0.031 C 
ATOM     23  C   UNL     1       7.574  19.282  -1.885  1.00  0.00     0.029 A 
ATOM     24  C   UNL     1       7.820  19.414  -3.314  1.00  0.00     0.049 A 
ATOM     25  H   UNL     1       9.218  18.384  -4.468  1.00  0.00     0.167 HD
ATOM     26  C   UNL     1      12.388  16.321  -6.688  1.00  0.00     0.031 A 
ATOM     27  C   UNL     1       7.163  20.258  -4.131  1.00  0.00     0.031 A 
ATOM     28  C   UNL     1      11.665  17.107  -7.656  1.00  0.00     0.049 A 
ATOM     29  C   UNL     1       7.556  20.309  -5.578  1.00  0.00     0.074 A 
ATOM     30  C   UNL     1      11.853  17.160  -9.027  1.00  0.00     0.029 A 
ATOM     31  N   UNL     1      10.636  17.988  -7.359  1.00  0.00    -0.354 N 
ATOM     32  N   UNL     1       8.457  19.594  -6.209  1.00  0.00    -0.248 NA
ATOM     33  C   UNL     1       6.851  21.281  -6.423  1.00  0.00     0.031 C 
ATOM     34  C   UNL     1      10.990  18.128  -9.548  1.00  0.00     0.029 A 
ATOM     35  C   UNL     1      10.216  18.628  -8.514  1.00  0.00     0.049 A 
ATOM     36  H   UNL     1      10.260  18.136  -6.462  1.00  0.00     0.167 HD
ATOM     37  C   UNL     1       8.422  20.027  -7.528  1.00  0.00     0.074 A 
ATOM     38  C   UNL     1       7.386  21.037  -7.611  1.00  0.00     0.031 C 
ATOM     39  C   UNL     1       9.187  19.634  -8.575  1.00  0.00     0.031 A 
BRANCH  26  40
ATOM     40  C   UNL     1      13.567  15.525  -7.182  1.00  0.00    -0.014 A 
ATOM     41  C   UNL     1      13.503  14.127  -7.314  1.00  0.00     0.010 A 
ATOM     42  C   UNL     1      14.712  16.204  -7.641  1.00  0.00     0.010 A 
ATOM     43  C   UNL     1      14.564  13.423  -7.893  1.00  0.00     0.020 A 
ATOM     44  C   UNL     1      15.765  15.507  -8.241  1.00  0.00     0.020 A 
ATOM     45  C   UNL     1      15.685  14.118  -8.360  1.00  0.00     0.054 A 
BRANCH  45  46
ATOM     46  S   UNL     1      17.008  13.185  -9.178  1.00  0.00     0.124 S 
ATOM     47  O   UNL     1      17.591  12.446  -8.061  1.00  0.00    -0.237 OA
ATOM     48  O   UNL     1      16.274  12.377 -10.149  1.00  0.00    -0.237 OA
ATOM     49  O   UNL     1      17.863  14.221  -9.753  1.00  0.00    -0.744 OA
ENDBRANCH  45  46
ENDBRANCH  26  40
BRANCH  27  50
ATOM     50  C   UNL     1       6.121  21.169  -3.583  1.00  0.00    -0.014 A 
ATOM     51  C   UNL     1       4.777  21.047  -3.971  1.00  0.00     0.010 A 
ATOM     52  C   UNL     1       6.482  22.183  -2.674  1.00  0.00     0.010 A 
ATOM     53  C   UNL     1       3.820  21.947  -3.491  1.00  0.00     0.020 A 
ATOM     54  C   UNL     1       5.523  23.059  -2.163  1.00  0.00     0.020 A 
ATOM     55  C   UNL     1       4.201  22.950  -2.595  1.00  0.00     0.054 A 
BRANCH  55  56
ATOM     56  S   UNL     1       2.943  24.104  -1.984  1.00  0.00     0.124 S 
ATOM     57  O   UNL     1       2.716  24.947  -3.153  1.00  0.00    -0.237 OA
ATOM     58  O   UNL     1       1.845  23.212  -1.622  1.00  0.00    -0.237 OA
ATOM     59  O   UNL     1       3.601  24.761  -0.856  1.00  0.00    -0.744 OA
ENDBRANCH  55  56
ENDBRANCH  27  50
BRANCH  39  60
ATOM     60  C   UNL     1       8.925  20.292  -9.902  1.00  0.00    -0.014 A 
ATOM     61  C   UNL     1       9.296  21.630 -10.129  1.00  0.00     0.010 A 
ATOM     62  C   UNL     1       8.353  19.549 -10.949  1.00  0.00     0.010 A 
ATOM     63  C   UNL     1       9.077  22.219 -11.376  1.00  0.00     0.020 A 
ATOM     64  C   UNL     1       8.162  20.126 -12.207  1.00  0.00     0.020 A 
ATOM     65  C   UNL     1       8.516  21.462 -12.408  1.00  0.00     0.054 A 
BRANCH  65  66
ATOM     66  S   UNL     1       8.299  22.235 -14.034  1.00  0.00     0.124 S 
ATOM     67  O   UNL     1       7.198  23.161 -13.786  1.00  0.00    -0.237 OA
ATOM     68  O   UNL     1       9.601  22.854 -14.269  1.00  0.00    -0.237 OA
ATOM     69  O   UNL     1       7.982  21.111 -14.913  1.00  0.00    -0.744 OA
ENDBRANCH  65  66
ENDBRANCH  39  60
ENDBRANCH  13  14
ENDBRANCH   6   8
ENDBRANCH   3   4
ENDBRANCH   2   3
ENDBRANCH   1   2
BRANCH   1  70
ATOM     70  C   UNL     1       9.813  11.157   5.144  1.00  0.00     0.002 C 
BRANCH  70  71
ATOM     71  C   UNL     1       9.066  10.222   4.196  1.00  0.00     0.021 C 
BRANCH  71  72
ATOM     72  C   UNL     1       9.789   8.931   3.852  1.00  0.00     0.116 C 
BRANCH  72  73
ATOM     73  N   UNL     1       9.838   8.001   4.952  1.00  0.00    -0.356 N 
ATOM     74  C   UNL     1       9.629   6.659   4.970  1.00  0.00     0.224 C 
ATOM     75  H   UNL     1      10.057   8.400   5.825  1.00  0.00     0.163 HD
ATOM     76  O   UNL     1       9.762   6.098   6.059  1.00  0.00    -0.275 OA
BRANCH  74  77
ATOM     77  C   UNL     1       9.140   5.906   3.727  1.00  0.00     0.094 C 
ATOM     78  C   UNL     1       9.863   6.163   2.376  1.00  0.00     0.002 C 
ATOM     79  C   UNL     1       9.348   4.368   3.909  1.00  0.00     0.094 C 
ATOM     80  C   UNL     1      11.375   5.977   2.512  1.00  0.00     0.005 C 
ATOM     81  C   UNL     1       9.488   4.931   1.565  1.00  0.00     0.009 C 
ATOM     82  C   UNL     1      10.043   3.957   2.594  1.00  0.00     0.002 C 
ATOM     83  C   UNL     1      11.511   4.452   2.654  1.00  0.00     0.005 C 
BRANCH  79  84
ATOM     84  C   UNL     1       8.062   3.643   4.332  1.00  0.00     0.226 C 
ATOM     85  O   UNL     1       8.005   3.048   5.411  1.00  0.00    -0.275 OA
ATOM     86  N   UNL     1       6.930   3.820   3.568  1.00  0.00    -0.339 N 
ATOM     87  C   UNL     1       5.661   4.079   4.259  1.00  0.00     0.141 C 
ATOM     88  C   UNL     1       6.750   3.160   2.275  1.00  0.00     0.141 C 
ATOM     89  C   UNL     1       4.719   4.929   3.379  1.00  0.00     0.138 C 
ATOM     90  C   UNL     1       5.840   3.993   1.357  1.00  0.00     0.138 C 
ATOM     91  N   UNL     1       4.576   4.300   2.054  1.00  0.00    -0.368 N 
BRANCH  91  92
ATOM     92  C   UNL     1       3.477   4.544   1.250  1.00  0.00     0.038 A 
ATOM     93  C   UNL     1       2.989   3.507   0.437  1.00  0.00     0.026 A 
ATOM     94  C   UNL     1       2.824   5.780   1.197  1.00  0.00     0.046 A 
ATOM     95  C   UNL     1       1.889   3.687  -0.402  1.00  0.00     0.004 A 
ATOM     96  C   UNL     1       1.729   5.965   0.348  1.00  0.00     0.043 A 
ATOM     97  C   UNL     1       1.258   4.924  -0.449  1.00  0.00     0.020 A 
ATOM     98  Cl  UNL     1       0.954   7.501   0.277  1.00  0.00    -0.084 Cl
ENDBRANCH  91  92
ENDBRANCH  79  84
ENDBRANCH  74  77
ENDBRANCH  72  73
ENDBRANCH  71  72
ENDBRANCH  70  71
ENDBRANCH   1  70
TORSDOF 18
