REMARK SMILES Cc1cc(-n2cnc(C(=O)NCCCCCCNC(=O)c3ccc(-c4c5nc(c(-c6ccc(S(=O)(=O)[O-])cc6)c6ccc([nH]6)c(-c6ccc(S(=O)(=O)[O-])cc6)c6nc(c(-c7ccc(S(=O)(=O)[O-])cc7)c7ccc4[nH]7)C=C6)C=C5)cc3)c2)nc(Cl)n1
REMARK SMILES IDX 15 1 14 2 13 3 12 4 11 5 9 6 10 7 8 9 5 10 6 11 81 12 7 13
REMARK SMILES IDX 4 14 1 15 2 16 3 17 85 18 83 19 82 20 84 21 16 22 17 23
REMARK SMILES IDX 18 24 19 25 20 27 21 28 22 29 80 30 23 31 79 32 24 33 25 34
REMARK SMILES IDX 26 35 73 36 27 37 78 38 72 39 74 40 28 41 77 42 71 43 70 44
REMARK SMILES IDX 29 46 59 47 40 48 58 49 41 50 44 51 57 52 75 53 42 54 43 55
REMARK SMILES IDX 56 57 76 58 45 59 30 60 31 61 39 62 32 63 38 64 33 65 34 66
REMARK SMILES IDX 35 67 36 68 37 69 60 70 61 71 69 72 62 73 68 74 63 75 64 76
REMARK SMILES IDX 65 77 66 78 67 79 46 80 47 81 55 82 48 83 54 84 49 85 50 86
REMARK SMILES IDX 51 87 52 88 53 89
REMARK H PARENT 11 8 18 26 74 45 44 56
REMARK Flexibility Score: inf
ROOT
ATOM      1  C   UNL     1       4.497  -7.195   4.125  1.00  0.00     0.002 C 
ENDROOT
BRANCH   1   2
ATOM      2  C   UNL     1       3.986  -6.488   5.392  1.00  0.00     0.002 C 
BRANCH   2   3
ATOM      3  C   UNL     1       3.209  -5.190   5.146  1.00  0.00     0.021 C 
BRANCH   3   4
ATOM      4  C   UNL     1       2.024  -5.371   4.200  1.00  0.00     0.116 C 
BRANCH   4   5
ATOM      5  N   UNL     1       0.843  -5.847   4.890  1.00  0.00    -0.351 N 
ATOM      6  C   UNL     1      -0.361  -5.278   5.239  1.00  0.00     0.271 C 
ATOM      7  O   UNL     1      -1.145  -6.022   5.832  1.00  0.00    -0.267 OA
ATOM      8  H   UNL     1       0.918  -6.787   5.172  1.00  0.00     0.163 HD
BRANCH   6   9
ATOM      9  C   UNL     1      -0.719  -3.888   4.907  1.00  0.00     0.146 A 
ATOM     10  N   UNL     1      -0.845  -1.825   4.099  1.00  0.00    -0.290 N 
ATOM     11  C   UNL     1      -1.928  -2.073   4.892  1.00  0.00     0.206 A 
ATOM     12  C   UNL     1      -0.036  -2.933   4.188  1.00  0.00     0.128 A 
ATOM     13  N   UNL     1      -1.921  -3.317   5.329  1.00  0.00    -0.231 NA
BRANCH  10  14
ATOM     14  C   UNL     1      -0.565  -0.679   3.323  1.00  0.00     0.143 A 
ATOM     15  C   UNL     1       1.097   0.148   0.072  1.00  0.00     0.067 C 
ATOM     16  C   UNL     1       0.416   0.267   1.402  1.00  0.00     0.044 A 
ATOM     17  C   UNL     1       0.117  -0.865   2.128  1.00  0.00     0.071 A 
ATOM     18  N   UNL     1       0.144   1.497   1.869  1.00  0.00    -0.223 NA
ATOM     19  C   UNL     1      -0.505   1.555   3.045  1.00  0.00     0.224 A 
ATOM     20  N   UNL     1      -0.938   0.525   3.785  1.00  0.00    -0.200 NA
ATOM     21  Cl  UNL     1      -0.752   3.112   3.694  1.00  0.00    -0.041 Cl
ENDBRANCH  10  14
ENDBRANCH   6   9
ENDBRANCH   4   5
ENDBRANCH   3   4
ENDBRANCH   2   3
ENDBRANCH   1   2
BRANCH   1  22
ATOM     22  C   UNL     1       5.287  -6.316   3.141  1.00  0.00     0.021 C 
BRANCH  22  23
ATOM     23  C   UNL     1       6.615  -5.834   3.708  1.00  0.00     0.116 C 
BRANCH  23  24
ATOM     24  N   UNL     1       7.518  -6.952   3.932  1.00  0.00    -0.352 N 
ATOM     25  C   UNL     1       8.817  -6.963   4.377  1.00  0.00     0.251 C 
ATOM     26  H   UNL     1       7.139  -7.839   3.735  1.00  0.00     0.163 HD
ATOM     27  O   UNL     1       9.512  -7.947   4.165  1.00  0.00    -0.269 OA
BRANCH  25  28
ATOM     28  C   UNL     1       9.372  -5.803   5.102  1.00  0.00     0.039 A 
ATOM     29  C   UNL     1      10.731  -5.503   4.961  1.00  0.00     0.014 A 
ATOM     30  C   UNL     1       8.573  -5.062   5.976  1.00  0.00     0.014 A 
ATOM     31  C   UNL     1      11.269  -4.433   5.666  1.00  0.00     0.010 A 
ATOM     32  C   UNL     1       9.083  -3.949   6.610  1.00  0.00     0.010 A 
ATOM     33  C   UNL     1      10.436  -3.655   6.482  1.00  0.00    -0.014 A 
BRANCH  33  34
ATOM     34  C   UNL     1      10.952  -2.431   7.079  1.00  0.00     0.031 A 
ATOM     35  C   UNL     1      11.375  -1.424   6.074  1.00  0.00     0.074 A 
ATOM     36  C   UNL     1      10.857  -2.133   8.390  1.00  0.00     0.049 A 
ATOM     37  N   UNL     1      12.580  -1.092   5.747  1.00  0.00    -0.248 NA
ATOM     38  C   UNL     1      10.336  -0.841   5.205  1.00  0.00     0.031 C 
ATOM     39  C   UNL     1      10.154  -2.897   9.427  1.00  0.00     0.029 A 
ATOM     40  N   UNL     1      11.270  -1.020   9.059  1.00  0.00    -0.354 N 
ATOM     41  C   UNL     1      12.437  -0.064   4.823  1.00  0.00     0.074 A 
ATOM     42  C   UNL     1      11.073  -0.115   4.362  1.00  0.00     0.031 C 
ATOM     43  C   UNL     1       9.991  -2.122  10.523  1.00  0.00     0.029 A 
ATOM     44  C   UNL     1      10.716  -0.879  10.329  1.00  0.00     0.049 A 
ATOM     45  H   UNL     1      11.904  -0.371   8.677  1.00  0.00     0.167 HD
ATOM     46  C   UNL     1      13.332   0.960   4.767  1.00  0.00     0.031 A 
ATOM     47  C   UNL     1      10.825   0.200  11.143  1.00  0.00     0.031 A 
ATOM     48  C   UNL     1      14.514   0.677   5.534  1.00  0.00     0.049 A 
ATOM     49  C   UNL     1      12.043   0.931  10.720  1.00  0.00     0.074 A 
ATOM     50  C   UNL     1      15.558  -0.219   5.466  1.00  0.00     0.029 A 
ATOM     51  N   UNL     1      14.479   1.170   6.815  1.00  0.00    -0.354 N 
ATOM     52  N   UNL     1      13.247   0.434  10.803  1.00  0.00    -0.248 NA
ATOM     53  C   UNL     1      11.911   2.110   9.874  1.00  0.00     0.031 C 
ATOM     54  C   UNL     1      15.954  -0.451   6.816  1.00  0.00     0.029 A 
ATOM     55  C   UNL     1      15.173   0.345   7.657  1.00  0.00     0.049 A 
ATOM     56  H   UNL     1      14.020   1.997   7.088  1.00  0.00     0.167 HD
ATOM     57  C   UNL     1      13.915   0.964   9.715  1.00  0.00     0.074 A 
ATOM     58  C   UNL     1      13.109   2.099   9.287  1.00  0.00     0.031 C 
ATOM     59  C   UNL     1      14.888   0.255   9.076  1.00  0.00     0.031 A 
BRANCH  46  60
ATOM     60  C   UNL     1      12.923   2.389   4.486  1.00  0.00    -0.014 A 
ATOM     61  C   UNL     1      13.921   3.365   4.296  1.00  0.00     0.010 A 
ATOM     62  C   UNL     1      11.608   2.851   4.708  1.00  0.00     0.010 A 
ATOM     63  C   UNL     1      13.615   4.733   4.346  1.00  0.00     0.020 A 
ATOM     64  C   UNL     1      11.285   4.207   4.716  1.00  0.00     0.020 A 
ATOM     65  C   UNL     1      12.296   5.143   4.553  1.00  0.00     0.054 A 
BRANCH  65  66
ATOM     66  S   UNL     1      11.921   6.908   4.685  1.00  0.00     0.124 S 
ATOM     67  O   UNL     1      12.756   7.314   5.811  1.00  0.00    -0.237 OA
ATOM     68  O   UNL     1      12.334   7.404   3.375  1.00  0.00    -0.237 OA
ATOM     69  O   UNL     1      10.481   6.934   4.931  1.00  0.00    -0.744 OA
ENDBRANCH  65  66
ENDBRANCH  46  60
BRANCH  47  70
ATOM     70  C   UNL     1       9.807   0.800  12.048  1.00  0.00    -0.014 A 
ATOM     71  C   UNL     1      10.144   1.904  12.859  1.00  0.00     0.010 A 
ATOM     72  C   UNL     1       8.438   0.501  11.894  1.00  0.00     0.010 A 
ATOM     73  C   UNL     1       9.153   2.744  13.394  1.00  0.00     0.020 A 
ATOM     74  C   UNL     1       7.443   1.326  12.438  1.00  0.00     0.020 A 
ATOM     75  C   UNL     1       7.807   2.468  13.147  1.00  0.00     0.054 A 
BRANCH  75  76
ATOM     76  S   UNL     1       6.547   3.673  13.660  1.00  0.00     0.124 S 
ATOM     77  O   UNL     1       6.749   3.747  15.104  1.00  0.00    -0.237 OA
ATOM     78  O   UNL     1       6.932   4.862  12.906  1.00  0.00    -0.237 OA
ATOM     79  O   UNL     1       5.290   3.055  13.242  1.00  0.00    -0.744 OA
ENDBRANCH  75  76
ENDBRANCH  47  70
BRANCH  59  80
ATOM     80  C   UNL     1      15.615  -0.815   9.841  1.00  0.00    -0.014 A 
ATOM     81  C   UNL     1      15.058  -2.050  10.217  1.00  0.00     0.010 A 
ATOM     82  C   UNL     1      16.990  -0.599  10.041  1.00  0.00     0.010 A 
ATOM     83  C   UNL     1      15.873  -3.054  10.766  1.00  0.00     0.020 A 
ATOM     84  C   UNL     1      17.806  -1.597  10.571  1.00  0.00     0.020 A 
ATOM     85  C   UNL     1      17.246  -2.824  10.922  1.00  0.00     0.054 A 
BRANCH  85  86
ATOM     86  S   UNL     1      18.315  -4.152  11.548  1.00  0.00     0.124 S 
ATOM     87  O   UNL     1      17.731  -4.450  12.852  1.00  0.00    -0.237 OA
ATOM     88  O   UNL     1      18.156  -5.191  10.534  1.00  0.00    -0.237 OA
ATOM     89  O   UNL     1      19.643  -3.540  11.593  1.00  0.00    -0.744 OA
ENDBRANCH  85  86
ENDBRANCH  59  80
ENDBRANCH  33  34
ENDBRANCH  25  28
ENDBRANCH  23  24
ENDBRANCH  22  23
ENDBRANCH   1  22
TORSDOF 17
