REMARK SMILES C[C@H]1OCC[C@@H]1C(=O)Nc1sc2c(c1C(=O)NCCCCCCNC(=O)c1ccc(-c3c4nc(c(-c5ccc(S(=O)(=O)[O-])cc5)c5ccc([nH]5)c(-c5ccc(S(=O)(=O)[O-])cc5)c5nc(c(-c6ccc(S(=O)(=O)[O-])cc6)c6ccc3[nH]6)C=C5)C=C4)cc1)CCC2
REMARK SMILES IDX 21 1 20 2 19 3 18 4 17 5 15 6 16 7 14 9 10 10 11 11 12 12
REMARK SMILES IDX 13 13 89 14 87 15 88 16 9 17 7 18 8 19 6 21 1 22 2 23 3 24
REMARK SMILES IDX 4 25 5 26 22 27 23 28 24 29 25 30 26 32 27 33 28 34 86 35
REMARK SMILES IDX 29 36 85 37 30 38 31 39 32 40 79 41 33 42 84 43 78 44 80 45
REMARK SMILES IDX 34 46 83 47 77 48 76 49 35 51 65 52 46 53 64 54 47 55 50 56
REMARK SMILES IDX 63 57 81 58 48 59 49 60 62 62 82 63 51 64 36 65 37 66 45 67
REMARK SMILES IDX 38 68 44 69 39 70 40 71 41 72 42 73 43 74 66 75 67 76 75 77
REMARK SMILES IDX 68 78 74 79 69 80 70 81 71 82 72 83 73 84 52 85 53 86 61 87
REMARK SMILES IDX 54 88 60 89 55 90 56 91 57 92 58 93 59 94
REMARK H PARENT 17 8 9 20 24 31 80 50 50 61
REMARK Flexibility Score: inf
ROOT
ATOM      1  C   UNL     1      -5.661   3.046  -0.823  1.00  0.00     0.002 C 
ENDROOT
BRANCH   1   2
ATOM      2  C   UNL     1      -4.177   2.950  -1.194  1.00  0.00     0.002 C 
BRANCH   2   3
ATOM      3  C   UNL     1      -3.384   2.961   0.076  1.00  0.00     0.021 C 
BRANCH   3   4
ATOM      4  C   UNL     1      -3.934   1.778   0.872  1.00  0.00     0.116 C 
BRANCH   4   5
ATOM      5  N   UNL     1      -3.768   0.434   0.472  1.00  0.00    -0.352 N 
ATOM      6  C   UNL     1      -3.213  -0.551   1.320  1.00  0.00     0.254 C 
ATOM      7  O   UNL     1      -3.359  -1.720   0.941  1.00  0.00    -0.269 OA
ATOM      8  H   UNL     1      -4.050   0.172  -0.434  1.00  0.00     0.163 HD
BRANCH   6   9
ATOM      9  C   UNL     1      -2.165  -0.181   2.428  1.00  0.00     0.078 A 
ATOM     10  C   UNL     1      -1.092  -1.034   2.807  1.00  0.00     0.108 A 
ATOM     11  S   UNL     1      -0.287  -0.515   4.254  1.00  0.00    -0.122 S 
ATOM     12  C   UNL     1      -1.070   0.951   4.187  1.00  0.00     0.011 A 
ATOM     13  C   UNL     1      -1.952   1.060   3.159  1.00  0.00    -0.019 A 
ATOM     14  C   UNL     1      -1.096   2.131   5.094  1.00  0.00     0.047 C 
ATOM     15  C   UNL     1      -2.558   2.438   3.232  1.00  0.00     0.038 C 
ATOM     16  C   UNL     1      -1.774   3.215   4.245  1.00  0.00     0.010 C 
BRANCH  10  17
ATOM     17  N   UNL     1      -0.517  -2.197   2.294  1.00  0.00    -0.317 N 
ATOM     18  C   UNL     1      -0.059  -2.457   1.008  1.00  0.00     0.230 C 
ATOM     19  O   UNL     1       0.314  -3.609   0.741  1.00  0.00    -0.274 OA
ATOM     20  H   UNL     1      -0.422  -2.939   2.933  1.00  0.00     0.170 HD
BRANCH  18  21
ATOM     21  C   UNL     1       0.103  -1.363  -0.093  1.00  0.00     0.110 C 
ATOM     22  C   UNL     1       2.171  -0.080  -0.423  1.00  0.00     0.039 C 
ATOM     23  C   UNL     1       0.926  -0.174   0.395  1.00  0.00     0.127 C 
ATOM     24  O   UNL     1       0.230   1.061   0.159  1.00  0.00    -0.378 OA
ATOM     25  C   UNL     1      -0.959   0.771  -0.536  1.00  0.00     0.161 C 
ATOM     26  C   UNL     1      -1.152  -0.693  -0.438  1.00  0.00     0.044 C 
ENDBRANCH  18  21
ENDBRANCH  10  17
ENDBRANCH   6   9
ENDBRANCH   4   5
ENDBRANCH   3   4
ENDBRANCH   2   3
ENDBRANCH   1   2
BRANCH   1  27
ATOM     27  C   UNL     1      -5.936   4.313  -0.045  1.00  0.00     0.021 C 
BRANCH  27  28
ATOM     28  C   UNL     1      -5.522   5.466  -0.887  1.00  0.00     0.116 C 
BRANCH  28  29
ATOM     29  N   UNL     1      -6.323   5.579  -2.080  1.00  0.00    -0.352 N 
ATOM     30  C   UNL     1      -7.081   6.685  -2.391  1.00  0.00     0.251 C 
ATOM     31  H   UNL     1      -6.329   4.821  -2.708  1.00  0.00     0.163 HD
ATOM     32  O   UNL     1      -7.854   6.627  -3.344  1.00  0.00    -0.269 OA
BRANCH  30  33
ATOM     33  C   UNL     1      -6.750   7.969  -1.592  1.00  0.00     0.039 A 
ATOM     34  C   UNL     1      -7.247   9.170  -1.886  1.00  0.00     0.014 A 
ATOM     35  C   UNL     1      -5.439   8.225  -1.080  1.00  0.00     0.014 A 
ATOM     36  C   UNL     1      -6.042  10.393  -2.011  1.00  0.00     0.010 A 
ATOM     37  C   UNL     1      -4.488   9.406  -0.880  1.00  0.00     0.010 A 
ATOM     38  C   UNL     1      -4.274  10.325  -1.918  1.00  0.00    -0.014 A 
BRANCH  38  39
ATOM     39  C   UNL     1      -2.389  11.029  -1.961  1.00  0.00     0.031 A 
ATOM     40  C   UNL     1      -3.287  11.644  -0.236  1.00  0.00     0.074 A 
ATOM     41  C   UNL     1      -0.893  10.810  -3.068  1.00  0.00     0.049 A 
ATOM     42  N   UNL     1      -4.294  12.588  -0.124  1.00  0.00    -0.248 NA
ATOM     43  C   UNL     1      -4.067  11.090   1.435  1.00  0.00     0.031 C 
ATOM     44  C   UNL     1       0.683  10.584  -4.225  1.00  0.00     0.029 A 
ATOM     45  N   UNL     1       0.645  11.774  -3.092  1.00  0.00    -0.354 N 
ATOM     46  C   UNL     1      -4.117  13.118   1.245  1.00  0.00     0.074 A 
ATOM     47  C   UNL     1      -4.313  12.172   2.235  1.00  0.00     0.031 C 
ATOM     48  C   UNL     1       2.191  10.626  -4.441  1.00  0.00     0.029 A 
ATOM     49  C   UNL     1       2.300  11.380  -3.299  1.00  0.00     0.049 A 
ATOM     50  H   UNL     1       0.495  12.737  -2.956  1.00  0.00     0.167 HD
ATOM     51  C   UNL     1      -3.018  13.855   1.459  1.00  0.00     0.031 A 
ATOM     52  C   UNL     1       3.500  11.619  -2.595  1.00  0.00     0.031 A 
ATOM     53  C   UNL     1      -2.616  14.293   0.191  1.00  0.00     0.049 A 
ATOM     54  C   UNL     1       2.695  12.419  -1.704  1.00  0.00     0.074 A 
ATOM     55  C   UNL     1      -3.400  14.790  -0.829  1.00  0.00     0.029 A 
ATOM     56  N   UNL     1      -1.557  13.664  -0.359  1.00  0.00    -0.354 N 
ATOM     57  N   UNL     1       2.148  13.557  -2.093  1.00  0.00    -0.248 NA
ATOM     58  C   UNL     1       2.018  11.581  -0.724  1.00  0.00     0.031 C 
ATOM     59  C   UNL     1      -2.687  14.622  -2.002  1.00  0.00     0.029 A 
ATOM     60  C   UNL     1      -1.506  13.997  -1.671  1.00  0.00     0.049 A 
ATOM     61  H   UNL     1      -0.930  13.068   0.111  1.00  0.00     0.167 HD
ATOM     62  C   UNL     1       0.833  13.484  -1.634  1.00  0.00     0.074 A 
ATOM     63  C   UNL     1       0.883  12.280  -0.667  1.00  0.00     0.031 C 
ATOM     64  C   UNL     1      -0.303  13.860  -2.389  1.00  0.00     0.031 A 
BRANCH  51  65
ATOM     65  C   UNL     1      -2.208  13.950   2.684  1.00  0.00    -0.014 A 
ATOM     66  C   UNL     1      -1.787  15.255   2.865  1.00  0.00     0.010 A 
ATOM     67  C   UNL     1      -1.746  12.926   3.543  1.00  0.00     0.010 A 
ATOM     68  C   UNL     1      -0.808  15.543   3.791  1.00  0.00     0.020 A 
ATOM     69  C   UNL     1      -0.836  13.238   4.559  1.00  0.00     0.020 A 
ATOM     70  C   UNL     1      -0.379  14.554   4.679  1.00  0.00     0.054 A 
BRANCH  70  71
ATOM     71  S   UNL     1       0.695  15.052   6.062  1.00  0.00     0.124 S 
ATOM     72  O   UNL     1       1.881  15.558   5.380  1.00  0.00    -0.237 OA
ATOM     73  O   UNL     1      -0.121  16.059   6.739  1.00  0.00    -0.237 OA
ATOM     74  O   UNL     1       0.881  13.813   6.814  1.00  0.00    -0.744 OA
ENDBRANCH  70  71
ENDBRANCH  51  65
BRANCH  52  75
ATOM     75  C   UNL     1       4.548  10.475  -2.227  1.00  0.00    -0.014 A 
ATOM     76  C   UNL     1       5.914  10.630  -1.857  1.00  0.00     0.010 A 
ATOM     77  C   UNL     1       4.065   9.149  -2.078  1.00  0.00     0.010 A 
ATOM     78  C   UNL     1       6.688   9.561  -1.280  1.00  0.00     0.020 A 
ATOM     79  C   UNL     1       4.785   8.111  -1.429  1.00  0.00     0.020 A 
ATOM     80  C   UNL     1       6.080   8.339  -0.974  1.00  0.00     0.054 A 
BRANCH  80  81
ATOM     81  S   UNL     1       6.926   7.112   0.116  1.00  0.00     0.124 S 
ATOM     82  O   UNL     1       8.119   6.767  -0.652  1.00  0.00    -0.237 OA
ATOM     83  O   UNL     1       7.167   7.875   1.338  1.00  0.00    -0.237 OA
ATOM     84  O   UNL     1       5.948   6.033   0.253  1.00  0.00    -0.744 OA
ENDBRANCH  80  81
ENDBRANCH  52  75
BRANCH  64  85
ATOM     85  C   UNL     1      -0.385  14.343  -3.903  1.00  0.00    -0.014 A 
ATOM     86  C   UNL     1      -0.432  13.581  -5.122  1.00  0.00     0.010 A 
ATOM     87  C   UNL     1      -0.482  15.709  -4.072  1.00  0.00     0.010 A 
ATOM     88  C   UNL     1      -0.209  14.149  -6.387  1.00  0.00     0.020 A 
ATOM     89  C   UNL     1      -0.450  16.297  -5.344  1.00  0.00     0.020 A 
ATOM     90  C   UNL     1      -0.292  15.524  -6.498  1.00  0.00     0.054 A 
BRANCH  90  91
ATOM     91  S   UNL     1      -0.353  16.286  -8.152  1.00  0.00     0.124 S 
ATOM     92  O   UNL     1       0.950  15.946  -8.717  1.00  0.00    -0.237 OA
ATOM     93  O   UNL     1      -1.494  15.616  -8.774  1.00  0.00    -0.237 OA
ATOM     94  O   UNL     1      -0.559  17.705  -7.869  1.00  0.00    -0.744 OA
ENDBRANCH  90  91
ENDBRANCH  64  85
ENDBRANCH  38  39
ENDBRANCH  30  33
ENDBRANCH  28  29
ENDBRANCH  27  28
ENDBRANCH   1  27
TORSDOF 18
