REMARK SMILES CN1C=C/C(=C\C=C/C=N\c2ccc(C(=O)NCCCCCCNC(=O)c3ccc(-c4c5nc(c(-c6ccc(S(=O)(=O)[O-])cc6)c6ccc([nH]6)c(-c6ccc(S(=O)(=O)[O-])cc6)c6nc(c(-c7ccc(S(=O)(=O)[O-])cc7)c7ccc4[nH]7)C=C6)C=C5)cc3)cc2)c2ccccc21
REMARK SMILES IDX 20 1 19 2 18 3 17 4 15 5 16 6 14 8 11 9 12 10 88 11 13 12
REMARK SMILES IDX 87 13 10 14 9 15 8 16 7 17 6 18 1 19 2 20 3 21 94 22 4 23
REMARK SMILES IDX 89 24 93 25 5 26 90 27 92 28 91 29 21 30 22 31 23 32 24 33
REMARK SMILES IDX 25 34 26 36 27 37 28 38 86 39 29 40 85 41 30 42 31 43 32 44
REMARK SMILES IDX 79 45 33 46 84 47 78 48 80 49 34 50 83 51 77 52 76 53 35 55
REMARK SMILES IDX 65 56 46 57 64 58 47 59 50 60 63 61 81 62 48 63 49 64 62 66
REMARK SMILES IDX 82 67 51 68 36 69 37 70 45 71 38 72 44 73 39 74 40 75 41 76
REMARK SMILES IDX 42 77 43 78 66 79 67 80 75 81 68 82 74 83 69 84 70 85 71 86
REMARK SMILES IDX 72 87 73 88 52 89 53 90 61 91 54 92 60 93 55 94 56 95 57 96
REMARK SMILES IDX 58 97 59 98
REMARK H PARENT 17 7 24 35 80 54 50 65
REMARK Flexibility Score: inf
ROOT
ATOM      1  C   UNL     1      -3.290  -9.203  12.877  1.00  0.00     0.002 C 
ENDROOT
BRANCH   1   2
ATOM      2  C   UNL     1      -2.463  -8.993  11.607  1.00  0.00     0.021 C 
BRANCH   2   3
ATOM      3  C   UNL     1      -3.089  -9.425  10.284  1.00  0.00     0.116 C 
BRANCH   3   4
ATOM      4  N   UNL     1      -4.377  -8.820  10.012  1.00  0.00    -0.352 N 
ATOM      5  C   UNL     1      -4.963  -8.439   8.830  1.00  0.00     0.251 C 
ATOM      6  O   UNL     1      -6.085  -7.933   8.876  1.00  0.00    -0.269 OA
ATOM      7  H   UNL     1      -4.926  -8.653  10.812  1.00  0.00     0.163 HD
BRANCH   5   8
ATOM      8  C   UNL     1      -4.268  -8.543   7.516  1.00  0.00     0.039 A 
ATOM      9  C   UNL     1      -2.862  -8.436   5.076  1.00  0.00     0.063 A 
ATOM     10  C   UNL     1      -3.914  -7.552   5.325  1.00  0.00     0.029 A 
ATOM     11  C   UNL     1      -2.623  -9.462   5.991  1.00  0.00     0.029 A 
ATOM     12  C   UNL     1      -4.589  -7.581   6.548  1.00  0.00     0.016 A 
ATOM     13  C   UNL     1      -3.343  -9.537   7.190  1.00  0.00     0.016 A 
BRANCH   9  14
ATOM     14  N   UNL     1      -2.073  -8.363   3.922  1.00  0.00    -0.257 NA
ATOM     15  C   UNL     1      -1.444  -7.277   3.596  1.00  0.00     0.111 C 
BRANCH  15  16
ATOM     16  C   UNL     1      -1.404  -5.958   4.289  1.00  0.00     0.020 C 
ATOM     17  C   UNL     1      -0.920  -4.817   3.774  1.00  0.00     0.002 C 
BRANCH  17  18
ATOM     18  C   UNL     1      -0.229  -4.646   2.510  1.00  0.00     0.009 C 
ATOM     19  C   UNL     1       1.039   0.264  -0.019  1.00  0.00     0.149 C 
ATOM     20  N   UNL     1       0.670  -1.016   0.579  1.00  0.00    -0.351 N 
ATOM     21  C   UNL     1      -0.190  -1.091   1.659  1.00  0.00     0.086 C 
ATOM     22  C   UNL     1       1.207  -2.213   0.021  1.00  0.00     0.048 A 
ATOM     23  C   UNL     1      -0.538  -2.219   2.291  1.00  0.00     0.026 C 
ATOM     24  C   UNL     1       0.883  -3.480   0.602  1.00  0.00     0.005 A 
ATOM     25  C   UNL     1       2.057  -2.194  -1.104  1.00  0.00     0.027 A 
ATOM     26  C   UNL     1       0.014  -3.495   1.842  1.00  0.00    -0.015 C 
ATOM     27  C   UNL     1       1.405  -4.650   0.013  1.00  0.00     0.011 A 
ATOM     28  C   UNL     1       2.574  -3.368  -1.654  1.00  0.00     0.002 A 
ATOM     29  C   UNL     1       2.245  -4.594  -1.099  1.00  0.00     0.001 A 
ENDBRANCH  17  18
ENDBRANCH  15  16
ENDBRANCH   9  14
ENDBRANCH   5   8
ENDBRANCH   3   4
ENDBRANCH   2   3
ENDBRANCH   1   2
BRANCH   1  30
ATOM     30  C   UNL     1      -3.884 -10.595  13.104  1.00  0.00     0.002 C 
BRANCH  30  31
ATOM     31  C   UNL     1      -2.924 -11.778  12.995  1.00  0.00     0.021 C 
BRANCH  31  32
ATOM     32  C   UNL     1      -1.643 -11.682  13.812  1.00  0.00     0.116 C 
BRANCH  32  33
ATOM     33  N   UNL     1      -1.866 -11.652  15.246  1.00  0.00    -0.352 N 
ATOM     34  C   UNL     1      -1.291 -12.423  16.234  1.00  0.00     0.251 C 
ATOM     35  H   UNL     1      -2.521 -10.986  15.558  1.00  0.00     0.163 HD
ATOM     36  O   UNL     1      -1.669 -12.321  17.392  1.00  0.00    -0.269 OA
BRANCH  34  37
ATOM     37  C   UNL     1      -0.244 -13.410  15.874  1.00  0.00     0.039 A 
ATOM     38  C   UNL     1       0.814 -13.062  15.032  1.00  0.00     0.014 A 
ATOM     39  C   UNL     1      -0.346 -14.714  16.367  1.00  0.00     0.014 A 
ATOM     40  C   UNL     1       1.667 -14.051  14.551  1.00  0.00     0.010 A 
ATOM     41  C   UNL     1       0.564 -15.689  15.947  1.00  0.00     0.010 A 
ATOM     42  C   UNL     1       1.551 -15.377  15.000  1.00  0.00    -0.014 A 
BRANCH  42  43
ATOM     43  C   UNL     1       2.483 -16.414  14.482  1.00  0.00     0.031 A 
ATOM     44  C   UNL     1       1.978 -17.565  13.653  1.00  0.00     0.074 A 
ATOM     45  C   UNL     1       3.803 -16.290  14.729  1.00  0.00     0.049 A 
ATOM     46  N   UNL     1       2.657 -18.547  13.117  1.00  0.00    -0.248 NA
ATOM     47  C   UNL     1       0.531 -17.625  13.386  1.00  0.00     0.031 C 
ATOM     48  C   UNL     1       4.413 -15.207  15.503  1.00  0.00     0.029 A 
ATOM     49  N   UNL     1       4.870 -17.059  14.337  1.00  0.00    -0.354 N 
ATOM     50  C   UNL     1       1.725 -19.347  12.466  1.00  0.00     0.074 A 
ATOM     51  C   UNL     1       0.427 -18.752  12.692  1.00  0.00     0.031 C 
ATOM     52  C   UNL     1       5.745 -15.350  15.485  1.00  0.00     0.029 A 
ATOM     53  C   UNL     1       6.084 -16.572  14.761  1.00  0.00     0.049 A 
ATOM     54  H   UNL     1       4.775 -17.882  13.804  1.00  0.00     0.167 HD
ATOM     55  C   UNL     1       1.938 -20.468  11.738  1.00  0.00     0.031 A 
ATOM     56  C   UNL     1       7.333 -17.054  14.605  1.00  0.00     0.031 A 
ATOM     57  C   UNL     1       3.236 -21.045  11.502  1.00  0.00     0.049 A 
ATOM     58  C   UNL     1       7.536 -18.329  13.840  1.00  0.00     0.074 A 
ATOM     59  C   UNL     1       3.549 -22.162  10.746  1.00  0.00     0.029 A 
ATOM     60  N   UNL     1       4.431 -20.559  12.009  1.00  0.00    -0.354 N 
ATOM     61  N   UNL     1       6.641 -19.062  13.222  1.00  0.00    -0.248 NA
ATOM     62  C   UNL     1       8.907 -18.848  13.755  1.00  0.00     0.031 C 
ATOM     63  C   UNL     1       4.922 -22.389  10.850  1.00  0.00     0.029 A 
ATOM     64  C   UNL     1       5.478 -21.375  11.614  1.00  0.00     0.049 A 
ATOM     65  H   UNL     1       4.522 -19.753  12.568  1.00  0.00     0.167 HD
ATOM     66  C   UNL     1       7.340 -20.131  12.676  1.00  0.00     0.074 A 
ATOM     67  C   UNL     1       8.736 -19.936  13.013  1.00  0.00     0.031 C 
ATOM     68  C   UNL     1       6.862 -21.182  11.966  1.00  0.00     0.031 A 
BRANCH  55  69
ATOM     69  C   UNL     1       0.751 -21.169  11.126  1.00  0.00    -0.014 A 
ATOM     70  C   UNL     1       0.376 -22.442  11.596  1.00  0.00     0.010 A 
ATOM     71  C   UNL     1       0.103 -20.638   9.997  1.00  0.00     0.010 A 
ATOM     72  C   UNL     1      -0.600 -23.187  10.928  1.00  0.00     0.020 A 
ATOM     73  C   UNL     1      -0.892 -21.371   9.340  1.00  0.00     0.020 A 
ATOM     74  C   UNL     1      -1.218 -22.651   9.796  1.00  0.00     0.054 A 
BRANCH  74  75
ATOM     75  S   UNL     1      -2.453 -23.649   8.917  1.00  0.00     0.124 S 
ATOM     76  O   UNL     1      -1.621 -24.613   8.205  1.00  0.00    -0.237 OA
ATOM     77  O   UNL     1      -3.260 -24.193  10.007  1.00  0.00    -0.237 OA
ATOM     78  O   UNL     1      -3.142 -22.673   8.074  1.00  0.00    -0.744 OA
ENDBRANCH  74  75
ENDBRANCH  55  69
BRANCH  56  79
ATOM     79  C   UNL     1       8.473 -16.305  15.200  1.00  0.00    -0.014 A 
ATOM     80  C   UNL     1       8.602 -16.206  16.599  1.00  0.00     0.010 A 
ATOM     81  C   UNL     1       9.370 -15.600  14.380  1.00  0.00     0.010 A 
ATOM     82  C   UNL     1       9.560 -15.364  17.167  1.00  0.00     0.020 A 
ATOM     83  C   UNL     1      10.351 -14.779  14.945  1.00  0.00     0.020 A 
ATOM     84  C   UNL     1      10.416 -14.640  16.334  1.00  0.00     0.054 A 
BRANCH  84  85
ATOM     85  S   UNL     1      11.607 -13.498  17.088  1.00  0.00     0.124 S 
ATOM     86  O   UNL     1      10.760 -12.353  17.408  1.00  0.00    -0.237 OA
ATOM     87  O   UNL     1      12.099 -14.257  18.235  1.00  0.00    -0.237 OA
ATOM     88  O   UNL     1      12.586 -13.277  16.026  1.00  0.00    -0.744 OA
ENDBRANCH  84  85
ENDBRANCH  56  79
BRANCH  68  89
ATOM     89  C   UNL     1       7.838 -22.234  11.511  1.00  0.00    -0.014 A 
ATOM     90  C   UNL     1       8.120 -22.383  10.141  1.00  0.00     0.010 A 
ATOM     91  C   UNL     1       8.360 -23.166  12.426  1.00  0.00     0.010 A 
ATOM     92  C   UNL     1       8.871 -23.469   9.687  1.00  0.00     0.020 A 
ATOM     93  C   UNL     1       9.135 -24.239  11.977  1.00  0.00     0.020 A 
ATOM     94  C   UNL     1       9.362 -24.399  10.608  1.00  0.00     0.054 A 
BRANCH  94  95
ATOM     95  S   UNL     1      10.294 -25.829   9.996  1.00  0.00     0.124 S 
ATOM     96  O   UNL     1       9.235 -26.686   9.473  1.00  0.00    -0.237 OA
ATOM     97  O   UNL     1      11.175 -25.234   8.994  1.00  0.00    -0.237 OA
ATOM     98  O   UNL     1      10.973 -26.331  11.189  1.00  0.00    -0.744 OA
ENDBRANCH  94  95
ENDBRANCH  68  89
ENDBRANCH  42  43
ENDBRANCH  34  37
ENDBRANCH  32  33
ENDBRANCH  31  32
ENDBRANCH  30  31
ENDBRANCH   1  30
TORSDOF 19
