REMARK SMILES CC(=O)Nc1nc(C[N@@H+]2CCO[C@@H](CC(=O)NCCCCCCNC(=O)c3ccc(-c4c5nc(c(-c6ccc(S(=O)(=O)[O-])cc6)c6ccc([nH]6)c(-c6ccc(S(=O)(=O)[O-])cc6)c6nc(c(-c7ccc(S(=O)(=O)[O-])cc7)c7ccc4[nH]7)C=C6)C=C5)cc3)C2)cs1
REMARK SMILES IDX 20 1 19 2 18 3 17 4 15 5 16 6 14 8 13 9 9 10 10 11 87 12
REMARK SMILES IDX 11 14 12 15 8 16 7 17 5 18 6 19 89 20 88 21 4 22 1 23 2 24
REMARK SMILES IDX 3 25 21 27 22 28 23 29 24 30 25 31 26 33 27 34 28 35 86 36
REMARK SMILES IDX 29 37 85 38 30 39 31 40 32 41 79 42 33 43 84 44 78 45 80 46
REMARK SMILES IDX 34 47 83 48 77 49 76 50 35 52 65 53 46 54 64 55 47 56 50 57
REMARK SMILES IDX 63 58 81 59 48 60 49 61 62 63 82 64 51 65 36 66 37 67 45 68
REMARK SMILES IDX 38 69 44 70 39 71 40 72 41 73 42 74 43 75 66 76 67 77 75 78
REMARK SMILES IDX 68 79 74 80 69 81 70 82 71 83 72 84 73 85 52 86 53 87 61 88
REMARK SMILES IDX 54 89 60 90 55 91 56 92 57 93 58 94 59 95
REMARK H PARENT 17 7 9 13 4 26 24 32 80 51 50 62
REMARK Flexibility Score: inf
ROOT
ATOM      1  C   UNL     1       8.541   0.434   1.276  1.00  0.00     0.002 C 
ENDROOT
BRANCH   1   2
ATOM      2  C   UNL     1       7.784  -0.836   1.658  1.00  0.00     0.021 C 
BRANCH   2   3
ATOM      3  C   UNL     1       7.547  -0.999   3.163  1.00  0.00     0.116 C 
BRANCH   3   4
ATOM      4  N   UNL     1       6.266  -0.428   3.548  1.00  0.00    -0.356 N 
ATOM      5  C   UNL     1       5.124  -1.044   3.972  1.00  0.00     0.222 C 
ATOM      6  O   UNL     1       4.112  -0.362   4.142  1.00  0.00    -0.275 OA
ATOM      7  H   UNL     1       6.214   0.553   3.494  1.00  0.00     0.163 HD
BRANCH   5   8
ATOM      8  C   UNL     1       5.111  -2.534   4.224  1.00  0.00     0.138 C 
BRANCH   8   9
ATOM      9  C   UNL     1       4.584  -3.361   3.049  1.00  0.00     0.182 C 
ATOM     10  N   UNL     1       5.054  -3.964   0.602  1.00  0.00    -0.326 N 
ATOM     11  C   UNL     1       5.022  -5.361   1.033  1.00  0.00     0.291 C 
ATOM     12  C   UNL     1       5.312  -3.056   1.723  1.00  0.00     0.295 C 
ATOM     13  H   UNL     1       5.869  -3.915  -0.009  1.00  0.00     0.348 HD
ATOM     14  C   UNL     1       4.319  -5.620   2.377  1.00  0.00     0.222 C 
ATOM     15  O   UNL     1       4.780  -4.744   3.409  1.00  0.00    -0.366 OA
BRANCH  10  16
ATOM     16  C   UNL     1       4.050  -3.519  -0.365  1.00  0.00     0.320 C 
BRANCH  16  17
ATOM     17  C   UNL     1       2.684  -3.344   0.223  1.00  0.00     0.108 A 
ATOM     18  C   UNL     1       1.121  -2.156   1.223  1.00  0.00     0.189 A 
ATOM     19  N   UNL     1       2.251  -2.067   0.570  1.00  0.00    -0.219 NA
ATOM     20  S   UNL     1       0.478  -3.720   1.427  1.00  0.00    -0.105 S 
ATOM     21  C   UNL     1       1.758  -4.342   0.470  1.00  0.00     0.098 A 
BRANCH  18  22
ATOM     22  N   UNL     1       0.372  -1.163   1.775  1.00  0.00    -0.302 N 
ATOM     23  C   UNL     1       1.105   0.549   0.138  1.00  0.00     0.114 C 
ATOM     24  C   UNL     1       0.410   0.148   1.414  1.00  0.00     0.223 C 
ATOM     25  O   UNL     1      -0.211   0.977   2.085  1.00  0.00    -0.275 OA
ATOM     26  H   UNL     1      -0.249  -1.415   2.496  1.00  0.00     0.172 HD
ENDBRANCH  18  22
ENDBRANCH  16  17
ENDBRANCH  10  16
ENDBRANCH   8   9
ENDBRANCH   5   8
ENDBRANCH   3   4
ENDBRANCH   2   3
ENDBRANCH   1   2
BRANCH   1  27
ATOM     27  C   UNL     1      10.007   0.456   1.715  1.00  0.00     0.002 C 
BRANCH  27  28
ATOM     28  C   UNL     1      10.847  -0.740   1.254  1.00  0.00     0.021 C 
BRANCH  28  29
ATOM     29  C   UNL     1      10.830  -0.997  -0.251  1.00  0.00     0.116 C 
BRANCH  29  30
ATOM     30  N   UNL     1      11.347   0.141  -0.997  1.00  0.00    -0.352 N 
ATOM     31  C   UNL     1      12.483   0.237  -1.755  1.00  0.00     0.251 C 
ATOM     32  H   UNL     1      10.801   0.959  -0.951  1.00  0.00     0.163 HD
ATOM     33  O   UNL     1      12.898   1.345  -2.104  1.00  0.00    -0.269 OA
BRANCH  31  34
ATOM     34  C   UNL     1      13.217  -0.983  -2.146  1.00  0.00     0.039 A 
ATOM     35  C   UNL     1      14.607  -1.015  -2.012  1.00  0.00     0.014 A 
ATOM     36  C   UNL     1      12.534  -2.090  -2.658  1.00  0.00     0.014 A 
ATOM     37  C   UNL     1      15.305  -2.181  -2.333  1.00  0.00     0.010 A 
ATOM     38  C   UNL     1      13.223  -3.272  -2.915  1.00  0.00     0.010 A 
ATOM     39  C   UNL     1      14.616  -3.330  -2.754  1.00  0.00    -0.014 A 
BRANCH  39  40
ATOM     40  C   UNL     1      15.333  -4.606  -3.006  1.00  0.00     0.031 A 
ATOM     41  C   UNL     1      15.369  -5.200  -4.388  1.00  0.00     0.074 A 
ATOM     42  C   UNL     1      15.900  -5.261  -1.974  1.00  0.00     0.049 A 
ATOM     43  N   UNL     1      15.906  -6.325  -4.786  1.00  0.00    -0.248 NA
ATOM     44  C   UNL     1      14.697  -4.444  -5.457  1.00  0.00     0.031 C 
ATOM     45  C   UNL     1      15.896  -4.808  -0.580  1.00  0.00     0.029 A 
ATOM     46  N   UNL     1      16.584  -6.449  -1.933  1.00  0.00    -0.354 N 
ATOM     47  C   UNL     1      15.629  -6.418  -6.145  1.00  0.00     0.074 A 
ATOM     48  C   UNL     1      14.834  -5.260  -6.493  1.00  0.00     0.031 C 
ATOM     49  C   UNL     1      16.569  -5.694   0.172  1.00  0.00     0.029 A 
ATOM     50  C   UNL     1      17.014  -6.796  -0.673  1.00  0.00     0.049 A 
ATOM     51  H   UNL     1      16.752  -7.002  -2.730  1.00  0.00     0.167 HD
ATOM     52  C   UNL     1      16.014  -7.372  -7.027  1.00  0.00     0.031 A 
ATOM     53  C   UNL     1      17.685  -7.882  -0.243  1.00  0.00     0.031 A 
ATOM     54  C   UNL     1      16.807  -8.521  -6.676  1.00  0.00     0.049 A 
ATOM     55  C   UNL     1      18.087  -8.936  -1.238  1.00  0.00     0.074 A 
ATOM     56  C   UNL     1      17.296  -9.515  -7.507  1.00  0.00     0.029 A 
ATOM     57  N   UNL     1      17.225  -8.834  -5.391  1.00  0.00    -0.354 N 
ATOM     58  N   UNL     1      17.874  -8.970  -2.532  1.00  0.00    -0.248 NA
ATOM     59  C   UNL     1      18.830 -10.091  -0.717  1.00  0.00     0.031 C 
ATOM     60  C   UNL     1      17.960 -10.458  -6.716  1.00  0.00     0.029 A 
ATOM     61  C   UNL     1      17.940 -10.020  -5.402  1.00  0.00     0.049 A 
ATOM     62  H   UNL     1      17.040  -8.293  -4.589  1.00  0.00     0.167 HD
ATOM     63  C   UNL     1      18.476 -10.139  -2.983  1.00  0.00     0.074 A 
ATOM     64  C   UNL     1      19.078 -10.773  -1.827  1.00  0.00     0.031 C 
ATOM     65  C   UNL     1      18.527 -10.643  -4.242  1.00  0.00     0.031 A 
BRANCH  52  66
ATOM     66  C   UNL     1      15.575  -7.218  -8.460  1.00  0.00    -0.014 A 
ATOM     67  C   UNL     1      16.108  -6.205  -9.278  1.00  0.00     0.010 A 
ATOM     68  C   UNL     1      14.652  -8.126  -9.011  1.00  0.00     0.010 A 
ATOM     69  C   UNL     1      15.696  -6.078 -10.608  1.00  0.00     0.020 A 
ATOM     70  C   UNL     1      14.259  -8.020 -10.348  1.00  0.00     0.020 A 
ATOM     71  C   UNL     1      14.772  -6.986 -11.134  1.00  0.00     0.054 A 
BRANCH  71  72
ATOM     72  S   UNL     1      14.274  -6.812 -12.870  1.00  0.00     0.124 S 
ATOM     73  O   UNL     1      13.430  -5.620 -12.822  1.00  0.00    -0.237 OA
ATOM     74  O   UNL     1      15.553  -6.647 -13.555  1.00  0.00    -0.237 OA
ATOM     75  O   UNL     1      13.573  -8.060 -13.157  1.00  0.00    -0.744 OA
ENDBRANCH  71  72
ENDBRANCH  52  66
BRANCH  53  76
ATOM     76  C   UNL     1      18.026  -8.022   1.199  1.00  0.00    -0.014 A 
ATOM     77  C   UNL     1      19.358  -7.910   1.633  1.00  0.00     0.010 A 
ATOM     78  C   UNL     1      17.014  -8.254   2.149  1.00  0.00     0.010 A 
ATOM     79  C   UNL     1      19.675  -8.045   2.988  1.00  0.00     0.020 A 
ATOM     80  C   UNL     1      17.324  -8.360   3.508  1.00  0.00     0.020 A 
ATOM     81  C   UNL     1      18.655  -8.267   3.917  1.00  0.00     0.054 A 
BRANCH  81  82
ATOM     82  S   UNL     1      19.084  -8.387   5.676  1.00  0.00     0.124 S 
ATOM     83  O   UNL     1      19.709  -9.704   5.746  1.00  0.00    -0.237 OA
ATOM     84  O   UNL     1      19.980  -7.249   5.861  1.00  0.00    -0.237 OA
ATOM     85  O   UNL     1      17.793  -8.269   6.351  1.00  0.00    -0.744 OA
ENDBRANCH  81  82
ENDBRANCH  53  76
BRANCH  65  86
ATOM     86  C   UNL     1      19.281 -11.931  -4.441  1.00  0.00    -0.014 A 
ATOM     87  C   UNL     1      18.766 -13.155  -3.979  1.00  0.00     0.010 A 
ATOM     88  C   UNL     1      20.498 -11.921  -5.146  1.00  0.00     0.010 A 
ATOM     89  C   UNL     1      19.472 -14.343  -4.190  1.00  0.00     0.020 A 
ATOM     90  C   UNL     1      21.192 -13.110  -5.385  1.00  0.00     0.020 A 
ATOM     91  C   UNL     1      20.681 -14.312  -4.892  1.00  0.00     0.054 A 
BRANCH  91  92
ATOM     92  S   UNL     1      21.556 -15.873  -5.190  1.00  0.00     0.124 S 
ATOM     93  O   UNL     1      22.094 -16.176  -3.867  1.00  0.00    -0.237 OA
ATOM     94  O   UNL     1      20.488 -16.756  -5.652  1.00  0.00    -0.237 OA
ATOM     95  O   UNL     1      22.550 -15.525  -6.202  1.00  0.00    -0.744 OA
ENDBRANCH  91  92
ENDBRANCH  65  86
ENDBRANCH  39  40
ENDBRANCH  31  34
ENDBRANCH  29  30
ENDBRANCH  28  29
ENDBRANCH  27  28
ENDBRANCH   1  27
TORSDOF 20
