REMARK SMILES NC(=O)C[C@@H](NC(=O)c1ccc(CO)cc1)C(=O)NCCCCCCNC(=O)c1ccc(-c2c3nc(c(-c4ccc(S(=O)(=O)[O-])cc4)c4ccc([nH]4)c(-c4ccc(S(=O)(=O)[O-])cc4)c4nc(c(-c5ccc(S(=O)(=O)[O-])cc5)c5ccc2[nH]5)C=C4)C=C3)cc1
REMARK SMILES IDX 22 1 21 2 20 3 19 4 17 5 18 6 5 8 4 9 2 10 1 11 3 14 6 15
REMARK SMILES IDX 7 16 8 18 9 19 10 20 16 21 11 22 15 23 12 24 13 25 14 26
REMARK SMILES IDX 23 28 24 29 25 30 26 31 27 32 28 34 29 35 30 36 88 37 31 38
REMARK SMILES IDX 87 39 32 40 33 41 34 42 81 43 35 44 86 45 80 46 82 47 36 48
REMARK SMILES IDX 85 49 79 50 78 51 37 53 67 54 48 55 66 56 49 57 52 58 65 59
REMARK SMILES IDX 83 60 50 61 51 62 64 64 84 65 53 66 38 67 39 68 47 69 40 70
REMARK SMILES IDX 46 71 41 72 42 73 43 74 44 75 45 76 68 77 69 78 77 79 70 80
REMARK SMILES IDX 76 81 71 82 72 83 73 84 74 85 75 86 54 87 55 88 63 89 56 90
REMARK SMILES IDX 62 91 57 92 58 93 59 94 60 95 61 96
REMARK H PARENT 19 7 1 12 1 13 6 17 14 27 26 33 82 52 52 63
REMARK Flexibility Score: inf
ROOT
ATOM      1  C   UNL     1       4.277  -3.311   5.073  1.00  0.00     0.002 C 
ENDROOT
BRANCH   1   2
ATOM      2  C   UNL     1       3.325  -2.370   4.325  1.00  0.00     0.021 C 
BRANCH   2   3
ATOM      3  C   UNL     1       3.496  -2.434   2.814  1.00  0.00     0.116 C 
BRANCH   3   4
ATOM      4  N   UNL     1       2.995  -3.702   2.320  1.00  0.00    -0.354 N 
ATOM      5  C   UNL     1       2.269  -3.982   1.206  1.00  0.00     0.243 C 
ATOM      6  O   UNL     1       1.807  -5.121   1.087  1.00  0.00    -0.273 OA
ATOM      7  H   UNL     1       3.217  -4.482   2.878  1.00  0.00     0.163 HD
BRANCH   5   8
ATOM      8  C   UNL     1       1.924  -2.887   0.190  1.00  0.00     0.180 C 
BRANCH   8   9
ATOM      9  C   UNL     1       0.763  -2.103   0.832  1.00  0.00     0.134 C 
BRANCH   9  10
ATOM     10  C   UNL     1       0.161  -1.054  -0.058  1.00  0.00     0.220 C 
ATOM     11  N   UNL     1       0.866   0.112  -0.142  1.00  0.00    -0.370 N 
ATOM     12  H   UNL     1       0.534   0.847  -0.706  1.00  0.00     0.159 HD
ATOM     13  H   UNL     1       1.705   0.217   0.362  1.00  0.00     0.159 HD
ATOM     14  O   UNL     1      -0.896  -1.206  -0.656  1.00  0.00    -0.275 OA
ENDBRANCH   9  10
ENDBRANCH   8   9
BRANCH   8  15
ATOM     15  N   UNL     1       3.048  -2.024  -0.234  1.00  0.00    -0.340 N 
ATOM     16  C   UNL     1       4.335  -2.319  -0.634  1.00  0.00     0.251 C 
ATOM     17  H   UNL     1       2.839  -1.062  -0.230  1.00  0.00     0.164 HD
ATOM     18  O   UNL     1       4.965  -1.471  -1.262  1.00  0.00    -0.269 OA
BRANCH  16  19
ATOM     19  C   UNL     1       5.039  -3.537  -0.178  1.00  0.00     0.039 A 
ATOM     20  C   UNL     1       6.179  -3.361   0.620  1.00  0.00     0.014 A 
ATOM     21  C   UNL     1       4.585  -4.824  -0.459  1.00  0.00     0.014 A 
ATOM     22  C   UNL     1       6.769  -4.457   1.253  1.00  0.00     0.007 A 
ATOM     23  C   UNL     1       5.172  -5.920   0.187  1.00  0.00     0.007 A 
ATOM     24  C   UNL     1       6.234  -5.740   1.085  1.00  0.00    -0.023 A 
BRANCH  24  25
ATOM     25  C   UNL     1       6.788  -6.897   1.876  1.00  0.00     0.191 C 
BRANCH  25  26
ATOM     26  O   UNL     1       8.066  -7.287   1.399  1.00  0.00    -0.392 OA
ATOM     27  H   UNL     1       7.993  -7.568   0.473  1.00  0.00     0.211 HD
ENDBRANCH  25  26
ENDBRANCH  24  25
ENDBRANCH  16  19
ENDBRANCH   8  15
ENDBRANCH   5   8
ENDBRANCH   3   4
ENDBRANCH   2   3
ENDBRANCH   1   2
BRANCH   1  28
ATOM     28  C   UNL     1       5.765  -3.030   4.833  1.00  0.00     0.002 C 
BRANCH  28  29
ATOM     29  C   UNL     1       6.195  -1.591   5.119  1.00  0.00     0.021 C 
BRANCH  29  30
ATOM     30  C   UNL     1       5.833  -1.105   6.515  1.00  0.00     0.116 C 
BRANCH  30  31
ATOM     31  N   UNL     1       6.442  -1.927   7.548  1.00  0.00    -0.352 N 
ATOM     32  C   UNL     1       7.148  -1.527   8.652  1.00  0.00     0.251 C 
ATOM     33  H   UNL     1       6.333  -2.899   7.440  1.00  0.00     0.163 HD
ATOM     34  O   UNL     1       7.772  -2.347   9.320  1.00  0.00    -0.269 OA
BRANCH  32  35
ATOM     35  C   UNL     1       7.163  -0.097   9.012  1.00  0.00     0.039 A 
ATOM     36  C   UNL     1       8.381   0.512   9.320  1.00  0.00     0.014 A 
ATOM     37  C   UNL     1       5.977   0.644   9.014  1.00  0.00     0.014 A 
ATOM     38  C   UNL     1       8.415   1.881   9.582  1.00  0.00     0.010 A 
ATOM     39  C   UNL     1       6.026   2.021   9.193  1.00  0.00     0.010 A 
ATOM     40  C   UNL     1       7.243   2.652   9.489  1.00  0.00    -0.014 A 
BRANCH  40  41
ATOM     41  C   UNL     1       7.271   4.119   9.706  1.00  0.00     0.031 A 
ATOM     42  C   UNL     1       6.504   4.726  10.849  1.00  0.00     0.074 A 
ATOM     43  C   UNL     1       7.940   4.907   8.841  1.00  0.00     0.049 A 
ATOM     44  N   UNL     1       6.372   5.986  11.175  1.00  0.00    -0.248 NA
ATOM     45  C   UNL     1       5.769   3.800  11.727  1.00  0.00     0.031 C 
ATOM     46  C   UNL     1       8.688   4.439   7.671  1.00  0.00     0.029 A 
ATOM     47  N   UNL     1       8.098   6.270   8.811  1.00  0.00    -0.354 N 
ATOM     48  C   UNL     1       5.531   6.004  12.281  1.00  0.00     0.074 A 
ATOM     49  C   UNL     1       5.137   4.637  12.536  1.00  0.00     0.031 C 
ATOM     50  C   UNL     1       9.251   5.492   7.059  1.00  0.00     0.029 A 
ATOM     51  C   UNL     1       8.868   6.713   7.761  1.00  0.00     0.049 A 
ATOM     52  H   UNL     1       7.698   6.873   9.478  1.00  0.00     0.167 HD
ATOM     53  C   UNL     1       5.138   7.062  13.031  1.00  0.00     0.031 A 
ATOM     54  C   UNL     1       9.222   7.962   7.400  1.00  0.00     0.031 A 
ATOM     55  C   UNL     1       5.539   8.420  12.774  1.00  0.00     0.049 A 
ATOM     56  C   UNL     1       8.757   9.122   8.237  1.00  0.00     0.074 A 
ATOM     57  C   UNL     1       5.240   9.556  13.505  1.00  0.00     0.029 A 
ATOM     58  N   UNL     1       6.319   8.827  11.702  1.00  0.00    -0.354 N 
ATOM     59  N   UNL     1       8.018   9.113   9.321  1.00  0.00    -0.248 NA
ATOM     60  C   UNL     1       9.184  10.461   7.809  1.00  0.00     0.031 C 
ATOM     61  C   UNL     1       5.787  10.658  12.840  1.00  0.00     0.029 A 
ATOM     62  C   UNL     1       6.487  10.201  11.735  1.00  0.00     0.049 A 
ATOM     63  H   UNL     1       6.698   8.227  11.019  1.00  0.00     0.167 HD
ATOM     64  C   UNL     1       7.916  10.441   9.721  1.00  0.00     0.074 A 
ATOM     65  C   UNL     1       8.683  11.222   8.772  1.00  0.00     0.031 C 
ATOM     66  C   UNL     1       7.250  10.965  10.780  1.00  0.00     0.031 A 
BRANCH  53  67
ATOM     67  C   UNL     1       4.220   6.790  14.194  1.00  0.00    -0.014 A 
ATOM     68  C   UNL     1       4.664   6.080  15.325  1.00  0.00     0.010 A 
ATOM     69  C   UNL     1       2.902   7.282  14.173  1.00  0.00     0.010 A 
ATOM     70  C   UNL     1       3.797   5.830  16.391  1.00  0.00     0.020 A 
ATOM     71  C   UNL     1       2.040   7.062  15.252  1.00  0.00     0.020 A 
ATOM     72  C   UNL     1       2.489   6.322  16.347  1.00  0.00     0.054 A 
BRANCH  72  73
ATOM     73  S   UNL     1       1.392   5.999  17.755  1.00  0.00     0.124 S 
ATOM     74  O   UNL     1       1.136   4.567  17.614  1.00  0.00    -0.237 OA
ATOM     75  O   UNL     1       2.219   6.379  18.897  1.00  0.00    -0.237 OA
ATOM     76  O   UNL     1       0.242   6.864  17.505  1.00  0.00    -0.744 OA
ENDBRANCH  72  73
ENDBRANCH  53  67
BRANCH  54  77
ATOM     77  C   UNL     1      10.070   8.175   6.195  1.00  0.00    -0.014 A 
ATOM     78  C   UNL     1      11.396   8.624   6.322  1.00  0.00     0.010 A 
ATOM     79  C   UNL     1       9.558   7.915   4.910  1.00  0.00     0.010 A 
ATOM     80  C   UNL     1      12.188   8.826   5.188  1.00  0.00     0.020 A 
ATOM     81  C   UNL     1      10.356   8.086   3.776  1.00  0.00     0.020 A 
ATOM     82  C   UNL     1      11.664   8.552   3.922  1.00  0.00     0.054 A 
BRANCH  82  83
ATOM     83  S   UNL     1      12.727   8.774   2.469  1.00  0.00     0.124 S 
ATOM     84  O   UNL     1      12.823  10.227   2.382  1.00  0.00    -0.237 OA
ATOM     85  O   UNL     1      13.949   8.079   2.866  1.00  0.00    -0.237 OA
ATOM     86  O   UNL     1      11.975   8.130   1.394  1.00  0.00    -0.744 OA
ENDBRANCH  82  83
ENDBRANCH  54  77
BRANCH  66  87
ATOM     87  C   UNL     1       7.347  12.454  10.993  1.00  0.00    -0.014 A 
ATOM     88  C   UNL     1       6.707  13.360  10.130  1.00  0.00     0.010 A 
ATOM     89  C   UNL     1       8.046  12.948  12.110  1.00  0.00     0.010 A 
ATOM     90  C   UNL     1       6.791  14.736  10.363  1.00  0.00     0.020 A 
ATOM     91  C   UNL     1       8.105  14.320  12.365  1.00  0.00     0.020 A 
ATOM     92  C   UNL     1       7.489  15.206  11.480  1.00  0.00     0.054 A 
BRANCH  92  93
ATOM     93  S   UNL     1       7.544  16.993  11.784  1.00  0.00     0.124 S 
ATOM     94  O   UNL     1       8.445  17.453  10.730  1.00  0.00    -0.237 OA
ATOM     95  O   UNL     1       6.145  17.387  11.631  1.00  0.00    -0.237 OA
ATOM     96  O   UNL     1       8.070  17.099  13.143  1.00  0.00    -0.744 OA
ENDBRANCH  92  93
ENDBRANCH  66  87
ENDBRANCH  40  41
ENDBRANCH  32  35
ENDBRANCH  30  31
ENDBRANCH  29  30
ENDBRANCH  28  29
ENDBRANCH   1  28
TORSDOF 22
