REMARK SMILES O=C(NCCCCCCNC(=O)c1nnn(-c2cccc(OC(F)(F)F)c2)c1-c1ccncc1)c1ccc(-c2c3nc(c(-c4ccc(S(=O)(=O)[O-])cc4)c4ccc([nH]4)c(-c4ccc(S(=O)(=O)[O-])cc4)c4nc(c(-c5ccc(S(=O)(=O)[O-])cc5)c5ccc2[nH]5)C=C4)C=C3)cc1
REMARK SMILES IDX 6 1 5 2 4 3 3 4 1 5 2 6 35 8 36 9 94 10 37 11 93 12 38 13
REMARK SMILES IDX 39 14 40 15 87 16 41 17 92 18 86 19 88 20 42 21 91 22 85 23
REMARK SMILES IDX 84 24 43 26 73 27 54 28 72 29 55 30 58 31 71 32 89 33 56 34
REMARK SMILES IDX 57 35 70 37 90 38 59 39 44 40 45 41 53 42 46 43 52 44 47 45
REMARK SMILES IDX 48 46 49 47 50 48 51 49 74 50 75 51 83 52 76 53 82 54 77 55
REMARK SMILES IDX 78 56 79 57 80 58 81 59 60 60 61 61 69 62 62 63 68 64 63 65
REMARK SMILES IDX 64 66 65 67 66 68 67 69 7 70 8 71 9 72 10 73 11 74 12 76
REMARK SMILES IDX 13 77 14 78 28 79 15 80 16 81 29 82 30 83 34 84 31 85 33 86
REMARK SMILES IDX 32 87 17 88 18 89 27 90 19 91 21 92 20 93 22 94 23 95 24 96
REMARK SMILES IDX 25 97 26 98
REMARK H PARENT 3 7 88 25 58 36 10 75
REMARK Flexibility Score: inf
ROOT
ATOM      1  C   UNL     1       4.318   0.354   3.512  1.00  0.00     0.002 C 
ENDROOT
BRANCH   1   2
ATOM      2  C   UNL     1       4.877   0.810   2.157  1.00  0.00     0.021 C 
BRANCH   2   3
ATOM      3  C   UNL     1       4.657  -0.155   0.993  1.00  0.00     0.116 C 
BRANCH   3   4
ATOM      4  N   UNL     1       3.271  -0.498   0.754  1.00  0.00    -0.352 N 
ATOM      5  O   UNL     1       1.212  -0.630  -0.008  1.00  0.00    -0.269 OA
ATOM      6  C   UNL     1       2.235   0.059   0.056  1.00  0.00     0.251 C 
ATOM      7  H   UNL     1       3.011  -1.334   1.203  1.00  0.00     0.163 HD
BRANCH   6   8
ATOM      8  C   UNL     1       2.230   1.407  -0.582  1.00  0.00     0.039 A 
ATOM      9  C   UNL     1       3.337   2.232  -0.775  1.00  0.00     0.014 A 
ATOM     10  C   UNL     1       0.972   1.869  -1.027  1.00  0.00     0.014 A 
ATOM     11  C   UNL     1       3.186   3.492  -1.363  1.00  0.00     0.010 A 
ATOM     12  C   UNL     1       0.816   3.125  -1.614  1.00  0.00     0.010 A 
ATOM     13  C   UNL     1       1.925   3.947  -1.774  1.00  0.00    -0.014 A 
BRANCH  13  14
ATOM     14  C   UNL     1       1.849   5.210  -2.510  1.00  0.00     0.031 A 
ATOM     15  C   UNL     1       2.517   5.203  -3.842  1.00  0.00     0.074 A 
ATOM     16  C   UNL     1       1.141   6.300  -2.154  1.00  0.00     0.049 A 
ATOM     17  N   UNL     1       3.597   5.823  -4.190  1.00  0.00    -0.248 NA
ATOM     18  C   UNL     1       1.959   4.335  -4.888  1.00  0.00     0.031 C 
ATOM     19  C   UNL     1       0.163   6.437  -1.075  1.00  0.00     0.029 A 
ATOM     20  N   UNL     1       1.097   7.521  -2.769  1.00  0.00    -0.354 N 
ATOM     21  C   UNL     1       3.763   5.578  -5.551  1.00  0.00     0.074 A 
ATOM     22  C   UNL     1       2.807   4.554  -5.895  1.00  0.00     0.031 C 
ATOM     23  C   UNL     1      -0.523   7.593  -1.239  1.00  0.00     0.029 A 
ATOM     24  C   UNL     1       0.061   8.341  -2.343  1.00  0.00     0.049 A 
ATOM     25  H   UNL     1       1.746   7.795  -3.456  1.00  0.00     0.167 HD
ATOM     26  C   UNL     1       4.544   6.368  -6.341  1.00  0.00     0.031 A 
ATOM     27  C   UNL     1      -0.314   9.529  -2.884  1.00  0.00     0.031 A 
ATOM     28  C   UNL     1       5.375   7.255  -5.572  1.00  0.00     0.049 A 
ATOM     29  C   UNL     1       0.837  10.063  -3.649  1.00  0.00     0.074 A 
ATOM     30  C   UNL     1       6.354   7.097  -4.612  1.00  0.00     0.029 A 
ATOM     31  N   UNL     1       4.991   8.574  -5.507  1.00  0.00    -0.354 N 
ATOM     32  N   UNL     1       1.935  10.494  -3.097  1.00  0.00    -0.248 NA
ATOM     33  C   UNL     1       0.925   9.780  -5.072  1.00  0.00     0.031 C 
ATOM     34  C   UNL     1       6.164   8.184  -3.710  1.00  0.00     0.029 A 
ATOM     35  C   UNL     1       5.116   8.966  -4.200  1.00  0.00     0.049 A 
ATOM     36  H   UNL     1       4.684   9.131  -6.258  1.00  0.00     0.167 HD
ATOM     37  C   UNL     1       2.941  10.134  -3.979  1.00  0.00     0.074 A 
ATOM     38  C   UNL     1       2.251   9.803  -5.223  1.00  0.00     0.031 C 
ATOM     39  C   UNL     1       4.209   9.879  -3.539  1.00  0.00     0.031 A 
BRANCH  26  40
ATOM     40  C   UNL     1       4.304   6.602  -7.814  1.00  0.00    -0.014 A 
ATOM     41  C   UNL     1       5.245   7.359  -8.545  1.00  0.00     0.010 A 
ATOM     42  C   UNL     1       3.063   6.352  -8.433  1.00  0.00     0.010 A 
ATOM     43  C   UNL     1       4.930   7.901  -9.799  1.00  0.00     0.020 A 
ATOM     44  C   UNL     1       2.757   6.848  -9.703  1.00  0.00     0.020 A 
ATOM     45  C   UNL     1       3.679   7.652 -10.362  1.00  0.00     0.054 A 
BRANCH  45  46
ATOM     46  S   UNL     1       3.240   8.448 -11.927  1.00  0.00     0.124 S 
ATOM     47  O   UNL     1       3.164   9.852 -11.538  1.00  0.00    -0.237 OA
ATOM     48  O   UNL     1       4.365   8.086 -12.785  1.00  0.00    -0.237 OA
ATOM     49  O   UNL     1       1.967   7.824 -12.282  1.00  0.00    -0.744 OA
ENDBRANCH  45  46
ENDBRANCH  26  40
BRANCH  27  50
ATOM     50  C   UNL     1      -1.671  10.121  -2.994  1.00  0.00    -0.014 A 
ATOM     51  C   UNL     1      -1.845  11.469  -3.367  1.00  0.00     0.010 A 
ATOM     52  C   UNL     1      -2.801   9.281  -3.027  1.00  0.00     0.010 A 
ATOM     53  C   UNL     1      -3.086  11.938  -3.828  1.00  0.00     0.020 A 
ATOM     54  C   UNL     1      -4.044   9.745  -3.477  1.00  0.00     0.020 A 
ATOM     55  C   UNL     1      -4.173  11.065  -3.904  1.00  0.00     0.054 A 
BRANCH  55  56
ATOM     56  S   UNL     1      -5.715  11.620  -4.691  1.00  0.00     0.124 S 
ATOM     57  O   UNL     1      -6.254  12.548  -3.700  1.00  0.00    -0.237 OA
ATOM     58  O   UNL     1      -5.239  12.226  -5.931  1.00  0.00    -0.237 OA
ATOM     59  O   UNL     1      -6.478  10.385  -4.863  1.00  0.00    -0.744 OA
ENDBRANCH  55  56
ENDBRANCH  27  50
BRANCH  39  60
ATOM     60  C   UNL     1       4.613  10.357  -2.165  1.00  0.00    -0.014 A 
ATOM     61  C   UNL     1       3.941  10.010  -0.977  1.00  0.00     0.010 A 
ATOM     62  C   UNL     1       5.806  11.096  -2.067  1.00  0.00     0.010 A 
ATOM     63  C   UNL     1       4.431  10.426   0.270  1.00  0.00     0.020 A 
ATOM     64  C   UNL     1       6.311  11.494  -0.828  1.00  0.00     0.020 A 
ATOM     65  C   UNL     1       5.613  11.169   0.335  1.00  0.00     0.054 A 
BRANCH  65  66
ATOM     66  S   UNL     1       6.261  11.677   1.952  1.00  0.00     0.124 S 
ATOM     67  O   UNL     1       5.287  12.676   2.383  1.00  0.00    -0.237 OA
ATOM     68  O   UNL     1       6.259  10.428   2.709  1.00  0.00    -0.237 OA
ATOM     69  O   UNL     1       7.591  12.202   1.645  1.00  0.00    -0.744 OA
ENDBRANCH  65  66
ENDBRANCH  39  60
ENDBRANCH  13  14
ENDBRANCH   6   8
ENDBRANCH   3   4
ENDBRANCH   2   3
ENDBRANCH   1   2
BRANCH   1  70
ATOM     70  C   UNL     1       4.752  -1.030   4.010  1.00  0.00     0.002 C 
BRANCH  70  71
ATOM     71  C   UNL     1       6.258  -1.293   4.054  1.00  0.00     0.021 C 
BRANCH  71  72
ATOM     72  C   UNL     1       7.053  -0.347   4.946  1.00  0.00     0.116 C 
BRANCH  72  73
ATOM     73  N   UNL     1       6.856  -0.599   6.362  1.00  0.00    -0.351 N 
ATOM     74  C   UNL     1       7.810  -0.669   7.354  1.00  0.00     0.274 C 
ATOM     75  H   UNL     1       5.925  -0.737   6.650  1.00  0.00     0.163 HD
ATOM     76  O   UNL     1       7.464  -0.964   8.498  1.00  0.00    -0.267 OA
BRANCH  74  77
ATOM     77  C   UNL     1       9.196  -0.386   7.016  1.00  0.00     0.178 A 
ATOM     78  N   UNL     1      10.188  -1.332   7.120  1.00  0.00    -0.124 NA
ATOM     79  C   UNL     1       9.728   0.779   6.480  1.00  0.00     0.108 A 
ATOM     80  N   UNL     1      11.300  -0.828   6.599  1.00  0.00    -0.061 NA
ATOM     81  N   UNL     1      11.076   0.475   6.330  1.00  0.00    -0.212 N 
BRANCH  79  82
ATOM     82  C   UNL     1       9.079   1.985   5.962  1.00  0.00     0.006 A 
ATOM     83  C   UNL     1       8.290   2.790   6.779  1.00  0.00     0.030 A 
ATOM     84  C   UNL     1       9.219   2.322   4.608  1.00  0.00     0.030 A 
ATOM     85  C   UNL     1       7.678   3.893   6.207  1.00  0.00     0.111 A 
ATOM     86  C   UNL     1       8.565   3.441   4.130  1.00  0.00     0.111 A 
ATOM     87  N   UNL     1       7.791   4.223   4.903  1.00  0.00    -0.265 NA
ENDBRANCH  79  82
BRANCH  81  88
ATOM     88  C   UNL     1      12.091   1.340   5.866  1.00  0.00     0.071 A 
ATOM     89  C   UNL     1      12.977   0.907   4.879  1.00  0.00     0.029 A 
ATOM     90  C   UNL     1      12.098   2.672   6.310  1.00  0.00     0.075 A 
ATOM     91  C   UNL     1      13.799   1.849   4.262  1.00  0.00     0.006 A 
ATOM     92  C   UNL     1      12.935   3.606   5.711  1.00  0.00     0.131 A 
ATOM     93  C   UNL     1      13.767   3.189   4.668  1.00  0.00     0.047 A 
BRANCH  92  94
ATOM     94  O   UNL     1      13.009   4.932   6.027  1.00  0.00    -0.406 OA
BRANCH  94  95
ATOM     95  C   UNL     1      12.226   5.394   7.120  1.00  0.00     0.573 C 
ATOM     96  F   UNL     1      10.909   5.207   6.897  1.00  0.00    -0.132 F 
ATOM     97  F   UNL     1      12.575   4.753   8.260  1.00  0.00    -0.132 F 
ATOM     98  F   UNL     1      12.451   6.712   7.300  1.00  0.00    -0.132 F 
ENDBRANCH  94  95
ENDBRANCH  92  94
ENDBRANCH  81  88
ENDBRANCH  74  77
ENDBRANCH  72  73
ENDBRANCH  71  72
ENDBRANCH  70  71
ENDBRANCH   1  70
TORSDOF 20
