REMARK SMILES O=C(NCCCCCCNC(=O)c1ccc(-c2c3nc(c(-c4ccc(S(=O)(=O)[O-])cc4)c4ccc([nH]4)c(-c4ccc(S(=O)(=O)[O-])cc4)c4nc(c(-c5ccc(S(=O)(=O)[O-])cc5)c5ccc2[nH]5)C=C4)C=C3)cc1)c1ccc(/[NH+]=C2/N=C[NH+]=C3N=NC=C32)cc1
REMARK SMILES IDX 7 1 6 2 5 3 4 4 3 5 1 6 2 7 73 9 74 10 88 11 75 12 87 13
REMARK SMILES IDX 76 14 77 15 78 16 79 18 86 19 80 20 82 21 85 22 81 23 83 24
REMARK SMILES IDX 84 25 8 27 9 28 10 29 11 30 12 32 13 33 14 34 72 35 15 36
REMARK SMILES IDX 71 37 16 38 17 39 18 40 65 41 19 42 70 43 64 44 66 45 20 46
REMARK SMILES IDX 69 47 63 48 62 49 21 51 51 52 32 53 50 54 33 55 36 56 49 57
REMARK SMILES IDX 67 58 34 59 35 60 48 62 68 63 37 64 22 65 23 66 31 67 24 68
REMARK SMILES IDX 30 69 25 70 26 71 27 72 28 73 29 74 52 75 53 76 61 77 54 78
REMARK SMILES IDX 60 79 55 80 56 81 57 82 58 83 59 84 38 85 39 86 47 87 40 88
REMARK SMILES IDX 46 89 41 90 42 91 43 92 44 93 45 94
REMARK H PARENT 3 8 77 17 81 26 10 31 66 50 36 61
REMARK Flexibility Score: inf
ROOT
ATOM      1  C   UNL     1       4.837   2.708  -3.464  1.00  0.00     0.002 C 
ENDROOT
BRANCH   1   2
ATOM      2  C   UNL     1       4.300   1.294  -3.697  1.00  0.00     0.002 C 
BRANCH   2   3
ATOM      3  C   UNL     1       4.782   0.234  -2.707  1.00  0.00     0.021 C 
BRANCH   3   4
ATOM      4  C   UNL     1       4.586   0.573  -1.234  1.00  0.00     0.116 C 
BRANCH   4   5
ATOM      5  N   UNL     1       3.193   0.774  -0.870  1.00  0.00    -0.352 N 
ATOM      6  O   UNL     1       1.276   0.509   0.277  1.00  0.00    -0.269 OA
ATOM      7  C   UNL     1       2.485   0.300   0.206  1.00  0.00     0.251 C 
ATOM      8  H   UNL     1       2.679   1.337  -1.492  1.00  0.00     0.163 HD
BRANCH   7   9
ATOM      9  C   UNL     1       3.146  -0.526   1.245  1.00  0.00     0.040 A 
ATOM     10  C   UNL     1       4.433  -0.261   1.713  1.00  0.00     0.018 A 
ATOM     11  C   UNL     1       2.441  -1.610   1.771  1.00  0.00     0.018 A 
ATOM     12  C   UNL     1       5.080  -1.195   2.524  1.00  0.00     0.052 A 
ATOM     13  C   UNL     1       3.067  -2.485   2.663  1.00  0.00     0.052 A 
ATOM     14  C   UNL     1       4.427  -2.354   2.955  1.00  0.00     0.124 A 
BRANCH  14  15
ATOM     15  N   UNL     1       5.168  -3.248   3.731  1.00  0.00    -0.244 N 
ATOM     16  C   UNL     1       5.046  -4.528   3.733  1.00  0.00     0.305 C 
ATOM     17  H   UNL     1       5.847  -2.862   4.330  1.00  0.00     0.311 HD
ATOM     18  N   UNL     1       5.848  -5.182   4.636  1.00  0.00    -0.069 NA
ATOM     19  C   UNL     1       4.166  -5.429   3.006  1.00  0.00     0.159 C 
ATOM     20  C   UNL     1       5.603  -6.391   5.030  1.00  0.00     0.372 C 
ATOM     21  C   UNL     1       3.937  -6.726   3.592  1.00  0.00     0.302 C 
ATOM     22  C   UNL     1       3.420  -5.544   1.917  1.00  0.00     0.177 C 
ATOM     23  N   UNL     1       4.583  -7.197   4.596  1.00  0.00    -0.245 N 
ATOM     24  N   UNL     1       2.955  -7.389   2.898  1.00  0.00     0.010 NA
ATOM     25  N   UNL     1       2.689  -6.700   1.875  1.00  0.00    -0.081 NA
ATOM     26  H   UNL     1       4.365  -8.061   5.016  1.00  0.00     0.266 HD
ENDBRANCH  14  15
ENDBRANCH   7   9
ENDBRANCH   4   5
ENDBRANCH   3   4
ENDBRANCH   2   3
ENDBRANCH   1   2
BRANCH   1  27
ATOM     27  C   UNL     1       6.359   2.832  -3.379  1.00  0.00     0.021 C 
BRANCH  27  28
ATOM     28  C   UNL     1       7.123   2.263  -4.570  1.00  0.00     0.116 C 
BRANCH  28  29
ATOM     29  N   UNL     1       6.781   2.928  -5.815  1.00  0.00    -0.352 N 
ATOM     30  C   UNL     1       7.607   3.511  -6.746  1.00  0.00     0.251 C 
ATOM     31  H   UNL     1       5.819   2.967  -6.022  1.00  0.00     0.163 HD
ATOM     32  O   UNL     1       7.130   4.186  -7.650  1.00  0.00    -0.269 OA
BRANCH  30  33
ATOM     33  C   UNL     1       9.073   3.338  -6.637  1.00  0.00     0.039 A 
ATOM     34  C   UNL     1       9.897   4.452  -6.813  1.00  0.00     0.014 A 
ATOM     35  C   UNL     1       9.632   2.087  -6.364  1.00  0.00     0.014 A 
ATOM     36  C   UNL     1      11.278   4.322  -6.655  1.00  0.00     0.010 A 
ATOM     37  C   UNL     1      11.000   1.975  -6.130  1.00  0.00     0.010 A 
ATOM     38  C   UNL     1      11.839   3.090  -6.277  1.00  0.00    -0.014 A 
BRANCH  38  39
ATOM     39  C   UNL     1      13.299   2.953  -6.030  1.00  0.00     0.031 A 
ATOM     40  C   UNL     1      14.130   2.037  -6.887  1.00  0.00     0.074 A 
ATOM     41  C   UNL     1      13.866   3.614  -5.000  1.00  0.00     0.049 A 
ATOM     42  N   UNL     1      15.402   1.746  -6.788  1.00  0.00    -0.248 NA
ATOM     43  C   UNL     1      13.440   1.340  -7.985  1.00  0.00     0.031 C 
ATOM     44  C   UNL     1      13.160   4.500  -4.071  1.00  0.00     0.029 A 
ATOM     45  N   UNL     1      15.165   3.637  -4.556  1.00  0.00    -0.354 N 
ATOM     46  C   UNL     1      15.662   0.832  -7.803  1.00  0.00     0.074 A 
ATOM     47  C   UNL     1      14.404   0.570  -8.467  1.00  0.00     0.031 C 
ATOM     48  C   UNL     1      14.037   4.996  -3.183  1.00  0.00     0.029 A 
ATOM     49  C   UNL     1      15.356   4.430  -3.449  1.00  0.00     0.049 A 
ATOM     50  H   UNL     1      15.891   3.132  -4.990  1.00  0.00     0.167 HD
ATOM     51  C   UNL     1      16.844   0.280  -8.167  1.00  0.00     0.031 A 
ATOM     52  C   UNL     1      16.464   4.666  -2.719  1.00  0.00     0.031 A 
ATOM     53  C   UNL     1      18.094   0.541  -7.503  1.00  0.00     0.049 A 
ATOM     54  C   UNL     1      17.760   4.019  -3.125  1.00  0.00     0.074 A 
ATOM     55  C   UNL     1      19.352   0.057  -7.817  1.00  0.00     0.029 A 
ATOM     56  N   UNL     1      18.247   1.357  -6.392  1.00  0.00    -0.354 N 
ATOM     57  N   UNL     1      17.995   3.202  -4.124  1.00  0.00    -0.248 NA
ATOM     58  C   UNL     1      18.944   4.335  -2.313  1.00  0.00     0.031 C 
ATOM     59  C   UNL     1      20.255   0.534  -6.862  1.00  0.00     0.029 A 
ATOM     60  C   UNL     1      19.573   1.372  -5.995  1.00  0.00     0.049 A 
ATOM     61  H   UNL     1      17.519   1.852  -5.950  1.00  0.00     0.167 HD
ATOM     62  C   UNL     1      19.359   2.930  -4.078  1.00  0.00     0.074 A 
ATOM     63  C   UNL     1      19.898   3.684  -2.965  1.00  0.00     0.031 C 
ATOM     64  C   UNL     1      20.097   2.128  -4.885  1.00  0.00     0.031 A 
BRANCH  51  65
ATOM     65  C   UNL     1      16.842  -0.664  -9.342  1.00  0.00    -0.014 A 
ATOM     66  C   UNL     1      16.602  -0.194 -10.647  1.00  0.00     0.010 A 
ATOM     67  C   UNL     1      17.132  -2.027  -9.151  1.00  0.00     0.010 A 
ATOM     68  C   UNL     1      16.615  -1.074 -11.732  1.00  0.00     0.020 A 
ATOM     69  C   UNL     1      17.177  -2.906 -10.238  1.00  0.00     0.020 A 
ATOM     70  C   UNL     1      16.903  -2.426 -11.520  1.00  0.00     0.054 A 
BRANCH  70  71
ATOM     71  S   UNL     1      16.943  -3.537 -12.953  1.00  0.00     0.124 S 
ATOM     72  O   UNL     1      15.529  -3.617 -13.312  1.00  0.00    -0.237 OA
ATOM     73  O   UNL     1      17.790  -2.812 -13.896  1.00  0.00    -0.237 OA
ATOM     74  O   UNL     1      17.520  -4.769 -12.421  1.00  0.00    -0.744 OA
ENDBRANCH  70  71
ENDBRANCH  51  65
BRANCH  52  75
ATOM     75  C   UNL     1      16.393   5.553  -1.523  1.00  0.00    -0.014 A 
ATOM     76  C   UNL     1      17.035   6.803  -1.512  1.00  0.00     0.010 A 
ATOM     77  C   UNL     1      15.676   5.145  -0.383  1.00  0.00     0.010 A 
ATOM     78  C   UNL     1      16.984   7.617  -0.376  1.00  0.00     0.020 A 
ATOM     79  C   UNL     1      15.594   5.969   0.743  1.00  0.00     0.020 A 
ATOM     80  C   UNL     1      16.262   7.194   0.744  1.00  0.00     0.054 A 
BRANCH  80  81
ATOM     81  S   UNL     1      16.177   8.282   2.194  1.00  0.00     0.124 S 
ATOM     82  O   UNL     1      17.529   8.174   2.734  1.00  0.00    -0.237 OA
ATOM     83  O   UNL     1      15.833   9.571   1.599  1.00  0.00    -0.237 OA
ATOM     84  O   UNL     1      15.126   7.681   3.011  1.00  0.00    -0.744 OA
ENDBRANCH  80  81
ENDBRANCH  52  75
BRANCH  64  85
ATOM     85  C   UNL     1      21.579   2.052  -4.622  1.00  0.00    -0.014 A 
ATOM     86  C   UNL     1      22.090   1.395  -3.488  1.00  0.00     0.010 A 
ATOM     87  C   UNL     1      22.476   2.600  -5.557  1.00  0.00     0.010 A 
ATOM     88  C   UNL     1      23.469   1.318  -3.279  1.00  0.00     0.020 A 
ATOM     89  C   UNL     1      23.856   2.497  -5.368  1.00  0.00     0.020 A 
ATOM     90  C   UNL     1      24.344   1.868  -4.221  1.00  0.00     0.054 A 
BRANCH  90  91
ATOM     91  S   UNL     1      26.130   1.714  -3.947  1.00  0.00     0.124 S 
ATOM     92  O   UNL     1      26.350   2.644  -2.843  1.00  0.00    -0.237 OA
ATOM     93  O   UNL     1      26.281   0.299  -3.617  1.00  0.00    -0.237 OA
ATOM     94  O   UNL     1      26.714   2.115  -5.225  1.00  0.00    -0.744 OA
ENDBRANCH  90  91
ENDBRANCH  64  85
ENDBRANCH  38  39
ENDBRANCH  30  33
ENDBRANCH  28  29
ENDBRANCH  27  28
ENDBRANCH   1  27
TORSDOF 17
