REMARK SMILES C[C@H](C(=O)NCCCCCCNC(=O)c1ccc(-c2c3nc(c(-c4ccc(S(=O)(=O)[O-])cc4)c4ccc([nH]4)c(-c4ccc(S(=O)(=O)[O-])cc4)c4nc(c(-c5ccc(S(=O)(=O)[O-])cc5)c5ccc2[nH]5)C=C4)C=C3)cc1)c1ccc2ncccc2c1
REMARK SMILES IDX 9 1 8 2 7 3 6 4 5 5 3 6 4 7 2 9 1 10 75 11 76 12 84 13 77 14
REMARK SMILES IDX 83 15 78 16 82 17 79 18 81 19 80 20 10 21 11 22 12 23 13 24
REMARK SMILES IDX 14 26 15 27 16 28 74 29 17 30 73 31 18 32 19 33 20 34 67 35
REMARK SMILES IDX 21 36 72 37 66 38 68 39 22 40 71 41 65 42 64 43 23 45 53 46
REMARK SMILES IDX 34 47 52 48 35 49 38 50 51 51 69 52 36 53 37 54 50 56 70 57
REMARK SMILES IDX 39 58 24 59 25 60 33 61 26 62 32 63 27 64 28 65 29 66 30 67
REMARK SMILES IDX 31 68 54 69 55 70 63 71 56 72 62 73 57 74 58 75 59 76 60 77
REMARK SMILES IDX 61 78 40 79 41 80 49 81 42 82 48 83 43 84 44 85 45 86 46 87
REMARK SMILES IDX 47 88
REMARK H PARENT 5 8 12 25 68 44 38 55
REMARK Flexibility Score: inf
ROOT
ATOM      1  C   UNL     1       2.167   3.187   3.645  1.00  0.00     0.002 C 
ENDROOT
BRANCH   1   2
ATOM      2  C   UNL     1       2.647   1.736   3.551  1.00  0.00     0.002 C 
BRANCH   2   3
ATOM      3  C   UNL     1       1.543   0.674   3.501  1.00  0.00     0.021 C 
BRANCH   3   4
ATOM      4  C   UNL     1       0.540   0.847   2.363  1.00  0.00     0.116 C 
BRANCH   4   5
ATOM      5  N   UNL     1       1.179   0.823   1.061  1.00  0.00    -0.356 N 
ATOM      6  C   UNL     1       1.185  -0.133   0.091  1.00  0.00     0.227 C 
ATOM      7  O   UNL     1       1.777   0.133  -0.960  1.00  0.00    -0.274 OA
ATOM      8  H   UNL     1       1.695   1.632   0.842  1.00  0.00     0.163 HD
BRANCH   6   9
ATOM      9  C   UNL     1       0.502  -1.490   0.278  1.00  0.00     0.105 C 
ATOM     10  C   UNL     1       1.097  -2.252   1.468  1.00  0.00     0.023 C 
BRANCH   9  11
ATOM     11  C   UNL     1      -1.023  -1.493   0.255  1.00  0.00    -0.035 A 
ATOM     12  C   UNL     1      -1.793  -0.330   0.138  1.00  0.00     0.007 A 
ATOM     13  C   UNL     1      -1.710  -2.717   0.328  1.00  0.00     0.015 A 
ATOM     14  C   UNL     1      -3.192  -0.388   0.159  1.00  0.00     0.029 A 
ATOM     15  C   UNL     1      -3.116  -2.773   0.332  1.00  0.00     0.000 A 
ATOM     16  C   UNL     1      -3.874  -1.589   0.260  1.00  0.00     0.070 A 
ATOM     17  C   UNL     1      -3.807  -3.990   0.410  1.00  0.00     0.012 A 
ATOM     18  N   UNL     1      -5.219  -1.591   0.277  1.00  0.00    -0.256 NA
ATOM     19  C   UNL     1      -5.196  -3.997   0.430  1.00  0.00     0.021 A 
ATOM     20  C   UNL     1      -5.850  -2.781   0.369  1.00  0.00     0.112 A 
ENDBRANCH   9  11
ENDBRANCH   6   9
ENDBRANCH   4   5
ENDBRANCH   3   4
ENDBRANCH   2   3
ENDBRANCH   1   2
BRANCH   1  21
ATOM     21  C   UNL     1       1.208   3.488   4.798  1.00  0.00     0.021 C 
BRANCH  21  22
ATOM     22  C   UNL     1       1.723   3.111   6.183  1.00  0.00     0.116 C 
BRANCH  22  23
ATOM     23  N   UNL     1       2.914   3.856   6.559  1.00  0.00    -0.352 N 
ATOM     24  C   UNL     1       3.161   4.562   7.711  1.00  0.00     0.251 C 
ATOM     25  H   UNL     1       3.642   3.855   5.897  1.00  0.00     0.163 HD
ATOM     26  O   UNL     1       4.163   5.266   7.803  1.00  0.00    -0.269 OA
BRANCH  24  27
ATOM     27  C   UNL     1       2.198   4.491   8.830  1.00  0.00     0.039 A 
ATOM     28  C   UNL     1       1.763   5.675   9.431  1.00  0.00     0.014 A 
ATOM     29  C   UNL     1       1.709   3.257   9.269  1.00  0.00     0.014 A 
ATOM     30  C   UNL     1       0.785   5.628  10.427  1.00  0.00     0.010 A 
ATOM     31  C   UNL     1       0.687   3.217  10.213  1.00  0.00     0.010 A 
ATOM     32  C   UNL     1       0.214   4.401  10.801  1.00  0.00    -0.014 A 
BRANCH  32  33
ATOM     33  C   UNL     1      -0.884   4.323  11.799  1.00  0.00     0.031 A 
ATOM     34  C   UNL     1      -0.673   3.587  13.092  1.00  0.00     0.074 A 
ATOM     35  C   UNL     1      -2.098   4.824  11.498  1.00  0.00     0.049 A 
ATOM     36  N   UNL     1      -1.538   3.305  14.033  1.00  0.00    -0.248 NA
ATOM     37  C   UNL     1       0.682   3.071  13.345  1.00  0.00     0.031 C 
ATOM     38  C   UNL     1      -2.444   5.519  10.257  1.00  0.00     0.029 A 
ATOM     39  N   UNL     1      -3.275   4.800  12.205  1.00  0.00    -0.354 N 
ATOM     40  C   UNL     1      -0.842   2.555  14.973  1.00  0.00     0.074 A 
ATOM     41  C   UNL     1       0.505   2.391  14.468  1.00  0.00     0.031 C 
ATOM     42  C   UNL     1      -3.744   5.856  10.290  1.00  0.00     0.029 A 
ATOM     43  C   UNL     1      -4.332   5.367  11.533  1.00  0.00     0.049 A 
ATOM     44  H   UNL     1      -3.355   4.414  13.107  1.00  0.00     0.167 HD
ATOM     45  C   UNL     1      -1.279   2.058  16.155  1.00  0.00     0.031 A 
ATOM     46  C   UNL     1      -5.635   5.465  11.866  1.00  0.00     0.031 A 
ATOM     47  C   UNL     1      -2.616   2.232  16.655  1.00  0.00     0.049 A 
ATOM     48  C   UNL     1      -6.102   4.915  13.184  1.00  0.00     0.074 A 
ATOM     49  C   UNL     1      -3.138   1.829  17.872  1.00  0.00     0.029 A 
ATOM     50  N   UNL     1      -3.646   2.852  15.963  1.00  0.00    -0.354 N 
ATOM     51  N   UNL     1      -5.410   4.279  14.099  1.00  0.00    -0.248 NA
ATOM     52  C   UNL     1      -7.518   5.107  13.524  1.00  0.00     0.031 C 
ATOM     53  C   UNL     1      -4.498   2.158  17.893  1.00  0.00     0.029 A 
ATOM     54  C   UNL     1      -4.808   2.819  16.714  1.00  0.00     0.049 A 
ATOM     55  H   UNL     1      -3.563   3.256  15.069  1.00  0.00     0.167 HD
ATOM     56  C   UNL     1      -6.301   4.013  15.132  1.00  0.00     0.074 A 
ATOM     57  C   UNL     1      -7.580   4.565  14.734  1.00  0.00     0.031 C 
ATOM     58  C   UNL     1      -6.076   3.373  16.306  1.00  0.00     0.031 A 
BRANCH  45  59
ATOM     59  C   UNL     1      -0.299   1.256  16.971  1.00  0.00    -0.014 A 
ATOM     60  C   UNL     1       0.819   1.862  17.574  1.00  0.00     0.010 A 
ATOM     61  C   UNL     1      -0.497  -0.127  17.135  1.00  0.00     0.010 A 
ATOM     62  C   UNL     1       1.755   1.090  18.267  1.00  0.00     0.020 A 
ATOM     63  C   UNL     1       0.420  -0.898  17.854  1.00  0.00     0.020 A 
ATOM     64  C   UNL     1       1.555  -0.288  18.392  1.00  0.00     0.054 A 
BRANCH  64  65
ATOM     65  S   UNL     1       2.797  -1.272  19.275  1.00  0.00     0.124 S 
ATOM     66  O   UNL     1       3.882  -1.330  18.298  1.00  0.00    -0.237 OA
ATOM     67  O   UNL     1       3.064  -0.464  20.462  1.00  0.00    -0.237 OA
ATOM     68  O   UNL     1       2.118  -2.541  19.528  1.00  0.00    -0.744 OA
ENDBRANCH  64  65
ENDBRANCH  45  59
BRANCH  46  69
ATOM     69  C   UNL     1      -6.580   6.117  10.920  1.00  0.00    -0.014 A 
ATOM     70  C   UNL     1      -7.074   7.407  11.178  1.00  0.00     0.010 A 
ATOM     71  C   UNL     1      -6.938   5.474   9.720  1.00  0.00     0.010 A 
ATOM     72  C   UNL     1      -7.906   8.044  10.252  1.00  0.00     0.020 A 
ATOM     73  C   UNL     1      -7.749   6.118   8.781  1.00  0.00     0.020 A 
ATOM     74  C   UNL     1      -8.231   7.399   9.055  1.00  0.00     0.054 A 
BRANCH  74  75
ATOM     75  S   UNL     1      -9.232   8.284   7.827  1.00  0.00     0.124 S 
ATOM     76  O   UNL     1     -10.561   8.238   8.428  1.00  0.00    -0.237 OA
ATOM     77  O   UNL     1      -8.597   9.599   7.791  1.00  0.00    -0.237 OA
ATOM     78  O   UNL     1      -9.064   7.488   6.612  1.00  0.00    -0.744 OA
ENDBRANCH  74  75
ENDBRANCH  46  69
BRANCH  58  79
ATOM     79  C   UNL     1      -7.225   3.253  17.271  1.00  0.00    -0.014 A 
ATOM     80  C   UNL     1      -8.271   2.340  17.049  1.00  0.00     0.010 A 
ATOM     81  C   UNL     1      -7.205   3.998  18.465  1.00  0.00     0.010 A 
ATOM     82  C   UNL     1      -9.281   2.181  18.002  1.00  0.00     0.020 A 
ATOM     83  C   UNL     1      -8.200   3.824  19.430  1.00  0.00     0.020 A 
ATOM     84  C   UNL     1      -9.236   2.919  19.189  1.00  0.00     0.054 A 
BRANCH  84  85
ATOM     85  S   UNL     1     -10.514   2.634  20.445  1.00  0.00     0.124 S 
ATOM     86  O   UNL     1     -11.676   3.289  19.851  1.00  0.00    -0.237 OA
ATOM     87  O   UNL     1     -10.579   1.176  20.511  1.00  0.00    -0.237 OA
ATOM     88  O   UNL     1      -9.976   3.281  21.640  1.00  0.00    -0.744 OA
ENDBRANCH  84  85
ENDBRANCH  58  79
ENDBRANCH  32  33
ENDBRANCH  24  27
ENDBRANCH  22  23
ENDBRANCH  21  22
ENDBRANCH   1  21
TORSDOF 17
