REMARK SMILES CCC(=O)N1CCC[C@](C[C@H]2CC(c3ccc(C)cc3)=NO2)(C(=O)NCCCCCCNC(=O)c2ccc(-c3c4nc(c(-c5ccc(S(=O)(=O)[O-])cc5)c5ccc([nH]5)c(-c5ccc(S(=O)(=O)[O-])cc5)c5nc(c(-c6ccc(S(=O)(=O)[O-])cc6)c6ccc3[nH]6)C=C5)C=C4)cc2)C1
REMARK SMILES IDX 28 1 27 2 26 3 25 4 23 5 24 6 9 8 5 9 6 10 95 11 7 12 8 13
REMARK SMILES IDX 3 14 4 15 2 16 1 17 10 18 11 19 12 20 22 21 13 22 21 23
REMARK SMILES IDX 14 24 15 25 20 26 16 27 19 28 17 29 18 30 29 31 30 32 31 33
REMARK SMILES IDX 32 34 33 35 34 37 35 38 36 39 94 40 37 41 93 42 38 43 39 44
REMARK SMILES IDX 40 45 87 46 41 47 92 48 86 49 88 50 42 51 91 52 85 53 84 54
REMARK SMILES IDX 43 56 73 57 54 58 72 59 55 60 58 61 71 62 89 63 56 64 57 65
REMARK SMILES IDX 70 67 90 68 59 69 44 70 45 71 53 72 46 73 52 74 47 75 48 76
REMARK SMILES IDX 49 77 50 78 51 79 74 80 75 81 83 82 76 83 82 84 77 85 78 86
REMARK SMILES IDX 79 87 80 88 81 89 60 90 61 91 69 92 62 93 68 94 63 95 64 96
REMARK SMILES IDX 65 97 66 98 67 99
REMARK H PARENT 25 7 32 36 88 55 58 66
REMARK Flexibility Score: inf
ROOT
ATOM      1  C   UNL     1       4.461  -2.029  -7.189  1.00  0.00     0.002 C 
ENDROOT
BRANCH   1   2
ATOM      2  C   UNL     1       5.232  -1.440  -6.002  1.00  0.00     0.021 C 
BRANCH   2   3
ATOM      3  C   UNL     1       4.704  -0.101  -5.484  1.00  0.00     0.116 C 
BRANCH   3   4
ATOM      4  N   UNL     1       3.469  -0.265  -4.735  1.00  0.00    -0.356 N 
ATOM      5  C   UNL     1       3.070   0.113  -3.488  1.00  0.00     0.228 C 
ATOM      6  O   UNL     1       1.957  -0.294  -3.141  1.00  0.00    -0.274 OA
ATOM      7  H   UNL     1       2.774  -0.751  -5.234  1.00  0.00     0.163 HD
BRANCH   5   8
ATOM      8  C   UNL     1       3.953   0.979  -2.545  1.00  0.00     0.070 C 
ATOM      9  N   UNL     1       2.021   2.276  -1.499  1.00  0.00    -0.342 N 
ATOM     10  C   UNL     1       2.395   3.499  -2.197  1.00  0.00     0.119 C 
ATOM     11  C   UNL     1       3.114   1.319  -1.262  1.00  0.00     0.136 C 
ATOM     12  C   UNL     1       3.087   3.191  -3.511  1.00  0.00     0.023 C 
ATOM     13  C   UNL     1       4.303   2.304  -3.252  1.00  0.00     0.021 C 
BRANCH   9  14
ATOM     14  C   UNL     1       0.709   2.154  -1.068  1.00  0.00     0.222 C 
ATOM     15  O   UNL     1      -0.188   2.870  -1.532  1.00  0.00    -0.275 OA
BRANCH  14  16
ATOM     16  C   UNL     1       0.381   1.280   0.135  1.00  0.00     0.097 C 
ATOM     17  C   UNL     1       0.495  -0.224  -0.005  1.00  0.00     0.014 C 
ENDBRANCH  14  16
ENDBRANCH   9  14
BRANCH   8  18
ATOM     18  C   UNL     1       5.179   0.088  -2.138  1.00  0.00     0.067 C 
BRANCH  18  19
ATOM     19  C   UNL     1       6.379   0.616  -1.326  1.00  0.00     0.211 C 
ATOM     20  C   UNL     1       7.185   1.768  -1.890  1.00  0.00     0.108 C 
ATOM     21  O   UNL     1       5.990   1.001  -0.005  1.00  0.00    -0.392 OA
ATOM     22  C   UNL     1       6.801   2.818  -0.910  1.00  0.00     0.091 C 
ATOM     23  N   UNL     1       6.186   2.391   0.145  1.00  0.00    -0.090 NA
BRANCH  22  24
ATOM     24  C   UNL     1       7.112   4.246  -1.111  1.00  0.00    -0.001 A 
ATOM     25  C   UNL     1       6.902   4.868  -2.344  1.00  0.00     0.010 A 
ATOM     26  C   UNL     1       7.528   4.999  -0.011  1.00  0.00     0.010 A 
ATOM     27  C   UNL     1       7.073   6.250  -2.465  1.00  0.00     0.004 A 
ATOM     28  C   UNL     1       7.732   6.374  -0.144  1.00  0.00     0.004 A 
ATOM     29  C   UNL     1       7.480   7.014  -1.364  1.00  0.00    -0.051 A 
ATOM     30  C   UNL     1       7.682   8.494  -1.493  1.00  0.00     0.044 C 
ENDBRANCH  22  24
ENDBRANCH  18  19
ENDBRANCH   8  18
ENDBRANCH   5   8
ENDBRANCH   3   4
ENDBRANCH   2   3
ENDBRANCH   1   2
BRANCH   1  31
ATOM     31  C   UNL     1       4.300  -1.125  -8.422  1.00  0.00     0.002 C 
BRANCH  31  32
ATOM     32  C   UNL     1       5.554  -0.394  -8.905  1.00  0.00     0.021 C 
BRANCH  32  33
ATOM     33  C   UNL     1       6.670  -1.315  -9.379  1.00  0.00     0.116 C 
BRANCH  33  34
ATOM     34  N   UNL     1       6.927  -1.218 -10.808  1.00  0.00    -0.352 N 
ATOM     35  C   UNL     1       8.159  -1.505 -11.400  1.00  0.00     0.251 C 
ATOM     36  H   UNL     1       6.188  -0.933 -11.393  1.00  0.00     0.163 HD
ATOM     37  O   UNL     1       8.665  -0.868 -12.280  1.00  0.00    -0.269 OA
BRANCH  35  38
ATOM     38  C   UNL     1       8.780  -2.756 -10.905  1.00  0.00     0.039 A 
ATOM     39  C   UNL     1       8.536  -3.933 -11.621  1.00  0.00     0.014 A 
ATOM     40  C   UNL     1       9.284  -2.777  -9.609  1.00  0.00     0.014 A 
ATOM     41  C   UNL     1       8.625  -5.154 -10.963  1.00  0.00     0.010 A 
ATOM     42  C   UNL     1       9.282  -3.978  -8.935  1.00  0.00     0.010 A 
ATOM     43  C   UNL     1       8.902  -5.154  -9.600  1.00  0.00    -0.014 A 
BRANCH  43  44
ATOM     44  C   UNL     1       8.775  -6.318  -8.740  1.00  0.00     0.031 A 
ATOM     45  C   UNL     1       9.995  -6.972  -8.236  1.00  0.00     0.074 A 
ATOM     46  C   UNL     1       7.557  -6.676  -8.280  1.00  0.00     0.049 A 
ATOM     47  N   UNL     1      10.000  -8.086  -7.591  1.00  0.00    -0.248 NA
ATOM     48  C   UNL     1      11.338  -6.448  -8.485  1.00  0.00     0.031 C 
ATOM     49  C   UNL     1       7.244  -7.502  -7.117  1.00  0.00     0.029 A 
ATOM     50  N   UNL     1       6.340  -6.542  -8.934  1.00  0.00    -0.354 N 
ATOM     51  C   UNL     1      11.254  -8.238  -7.056  1.00  0.00     0.074 A 
ATOM     52  C   UNL     1      12.080  -7.287  -7.758  1.00  0.00     0.031 C 
ATOM     53  C   UNL     1       5.997  -7.982  -7.247  1.00  0.00     0.029 A 
ATOM     54  C   UNL     1       5.540  -7.640  -8.583  1.00  0.00     0.049 A 
ATOM     55  H   UNL     1       6.084  -5.806  -9.536  1.00  0.00     0.167 HD
ATOM     56  C   UNL     1      11.400  -9.040  -5.966  1.00  0.00     0.031 A 
ATOM     57  C   UNL     1       5.201  -8.563  -9.537  1.00  0.00     0.031 A 
ATOM     58  C   UNL     1      10.222  -9.892  -5.773  1.00  0.00     0.049 A 
ATOM     59  C   UNL     1       5.814  -9.942  -9.321  1.00  0.00     0.074 A 
ATOM     60  C   UNL     1       9.204  -9.968  -4.838  1.00  0.00     0.029 A 
ATOM     61  N   UNL     1       9.818 -10.689  -6.838  1.00  0.00    -0.354 N 
ATOM     62  N   UNL     1       6.646 -10.248  -8.361  1.00  0.00    -0.248 NA
ATOM     63  C   UNL     1       5.579 -11.074 -10.215  1.00  0.00     0.031 C 
ATOM     64  C   UNL     1       8.159 -10.778  -5.386  1.00  0.00     0.029 A 
ATOM     65  C   UNL     1       8.563 -11.228  -6.630  1.00  0.00     0.049 A 
ATOM     66  H   UNL     1      10.360 -10.851  -7.643  1.00  0.00     0.167 HD
ATOM     67  C   UNL     1       7.083 -11.541  -8.503  1.00  0.00     0.074 A 
ATOM     68  C   UNL     1       6.383 -12.015  -9.686  1.00  0.00     0.031 C 
ATOM     69  C   UNL     1       8.006 -12.102  -7.660  1.00  0.00     0.031 A 
BRANCH  56  70
ATOM     70  C   UNL     1      12.530  -8.895  -4.966  1.00  0.00    -0.014 A 
ATOM     71  C   UNL     1      12.540  -9.681  -3.796  1.00  0.00     0.010 A 
ATOM     72  C   UNL     1      13.543  -7.915  -5.053  1.00  0.00     0.010 A 
ATOM     73  C   UNL     1      13.480  -9.474  -2.768  1.00  0.00     0.020 A 
ATOM     74  C   UNL     1      14.501  -7.715  -4.052  1.00  0.00     0.020 A 
ATOM     75  C   UNL     1      14.452  -8.483  -2.900  1.00  0.00     0.054 A 
BRANCH  75  76
ATOM     76  S   UNL     1      15.622  -8.173  -1.553  1.00  0.00     0.124 S 
ATOM     77  O   UNL     1      14.746  -7.693  -0.487  1.00  0.00    -0.237 OA
ATOM     78  O   UNL     1      16.219  -9.488  -1.340  1.00  0.00    -0.237 OA
ATOM     79  O   UNL     1      16.527  -7.166  -2.105  1.00  0.00    -0.744 OA
ENDBRANCH  75  76
ENDBRANCH  56  70
BRANCH  57  80
ATOM     80  C   UNL     1       4.891  -7.922 -10.857  1.00  0.00    -0.014 A 
ATOM     81  C   UNL     1       3.751  -7.086 -10.905  1.00  0.00     0.010 A 
ATOM     82  C   UNL     1       5.896  -7.741 -11.823  1.00  0.00     0.010 A 
ATOM     83  C   UNL     1       3.720  -5.965 -11.742  1.00  0.00     0.020 A 
ATOM     84  C   UNL     1       5.855  -6.628 -12.681  1.00  0.00     0.020 A 
ATOM     85  C   UNL     1       4.812  -5.703 -12.567  1.00  0.00     0.054 A 
BRANCH  85  86
ATOM     86  S   UNL     1       4.938  -4.052 -13.326  1.00  0.00     0.124 S 
ATOM     87  O   UNL     1       3.682  -3.947 -14.061  1.00  0.00    -0.237 OA
ATOM     88  O   UNL     1       5.060  -3.176 -12.157  1.00  0.00    -0.237 OA
ATOM     89  O   UNL     1       6.140  -4.147 -14.148  1.00  0.00    -0.744 OA
ENDBRANCH  85  86
ENDBRANCH  57  80
BRANCH  69  90
ATOM     90  C   UNL     1       8.549 -13.519  -7.747  1.00  0.00    -0.014 A 
ATOM     91  C   UNL     1       7.861 -14.603  -8.312  1.00  0.00     0.010 A 
ATOM     92  C   UNL     1       9.800 -13.818  -7.147  1.00  0.00     0.010 A 
ATOM     93  C   UNL     1       8.434 -15.886  -8.367  1.00  0.00     0.020 A 
ATOM     94  C   UNL     1      10.373 -15.091  -7.176  1.00  0.00     0.020 A 
ATOM     95  C   UNL     1       9.694 -16.117  -7.811  1.00  0.00     0.054 A 
BRANCH  95  96
ATOM     96  S   UNL     1      10.412 -17.776  -7.897  1.00  0.00     0.124 S 
ATOM     97  O   UNL     1       9.364 -18.602  -7.304  1.00  0.00    -0.237 OA
ATOM     98  O   UNL     1      10.609 -17.948  -9.335  1.00  0.00    -0.237 OA
ATOM     99  O   UNL     1      11.638 -17.670  -7.110  1.00  0.00    -0.744 OA
ENDBRANCH  95  96
ENDBRANCH  69  90
ENDBRANCH  43  44
ENDBRANCH  35  38
ENDBRANCH  33  34
ENDBRANCH  32  33
ENDBRANCH  31  32
ENDBRANCH   1  31
TORSDOF 21
