REMARK SMILES CCc1ccc(C(=O)NCCCCCCNC(=O)c2ccc(-c3c4nc(c(-c5ccc(S(=O)(=O)[O-])cc5)c5ccc([nH]5)c(-c5ccc(S(=O)(=O)[O-])cc5)c5nc(c(-c6ccc(S(=O)(=O)[O-])cc6)c6ccc3[nH]6)C=C5)C=C4)cc2)cc1S(=O)(=O)Nc1ccc(F)c(F)c1F
REMARK SMILES IDX 12 1 11 2 10 3 9 4 7 5 8 6 6 8 3 9 4 10 80 11 5 12 79 13
REMARK SMILES IDX 2 14 1 15 81 16 82 17 83 18 84 19 85 21 86 22 92 23 87 24
REMARK SMILES IDX 90 25 93 26 88 27 91 28 89 29 13 30 14 31 15 32 16 33 17 34
REMARK SMILES IDX 18 36 19 37 20 38 78 39 21 40 77 41 22 42 23 43 24 44 71 45
REMARK SMILES IDX 25 46 76 47 70 48 72 49 26 50 75 51 69 52 68 53 27 55 57 56
REMARK SMILES IDX 38 57 56 58 39 59 42 60 55 61 73 62 40 63 41 64 54 66 74 67
REMARK SMILES IDX 43 68 28 69 29 70 37 71 30 72 36 73 31 74 32 75 33 76 34 77
REMARK SMILES IDX 35 78 58 79 59 80 67 81 60 82 66 83 61 84 62 85 63 86 64 87
REMARK SMILES IDX 65 88 44 89 45 90 53 91 46 92 52 93 47 94 48 95 49 96 50 97
REMARK SMILES IDX 51 98
REMARK H PARENT 9 7 84 20 16 35 72 54 42 65
REMARK Flexibility Score: inf
ROOT
ATOM      1  C   UNL     1       1.923   8.526  -4.714  1.00  0.00     0.002 C 
ENDROOT
BRANCH   1   2
ATOM      2  C   UNL     1       1.548   7.512  -3.622  1.00  0.00     0.021 C 
BRANCH   2   3
ATOM      3  C   UNL     1       0.922   6.239  -4.192  1.00  0.00     0.116 C 
BRANCH   3   4
ATOM      4  N   UNL     1       1.958   5.475  -4.867  1.00  0.00    -0.352 N 
ATOM      5  C   UNL     1       2.654   4.351  -4.512  1.00  0.00     0.251 C 
ATOM      6  O   UNL     1       3.612   4.007  -5.202  1.00  0.00    -0.269 OA
ATOM      7  H   UNL     1       2.208   5.835  -5.749  1.00  0.00     0.163 HD
BRANCH   5   8
ATOM      8  C   UNL     1       2.172   3.451  -3.439  1.00  0.00     0.041 A 
ATOM      9  C   UNL     1       0.741   1.632  -1.808  1.00  0.00    -0.028 A 
ATOM     10  C   UNL     1       1.448   1.209  -2.957  1.00  0.00     0.006 A 
ATOM     11  C   UNL     1       0.913   2.973  -1.397  1.00  0.00     0.091 A 
ATOM     12  C   UNL     1       2.147   2.100  -3.761  1.00  0.00     0.014 A 
ATOM     13  C   UNL     1       1.659   3.863  -2.212  1.00  0.00     0.036 A 
BRANCH   9  14
ATOM     14  C   UNL     1      -0.265   0.635  -1.280  1.00  0.00     0.033 C 
ATOM     15  C   UNL     1       0.270  -0.786  -1.096  1.00  0.00     0.009 C 
ENDBRANCH   9  14
BRANCH  11  16
ATOM     16  S   UNL     1       0.191   3.812   0.017  1.00  0.00     0.262 S 
ATOM     17  O   UNL     1       1.237   4.550   0.679  1.00  0.00    -0.201 OA
ATOM     18  O   UNL     1      -0.962   4.513  -0.525  1.00  0.00    -0.201 OA
BRANCH  16  19
ATOM     19  N   UNL     1      -0.460   2.736   1.101  1.00  0.00    -0.277 N 
ATOM     20  H   UNL     1      -1.423   2.831   1.282  1.00  0.00     0.180 HD
BRANCH  19  21
ATOM     21  C   UNL     1       0.211   1.694   1.800  1.00  0.00     0.088 A 
ATOM     22  C   UNL     1      -0.636   0.748   2.406  1.00  0.00     0.033 A 
ATOM     23  C   UNL     1       1.588   1.451   1.778  1.00  0.00     0.185 A 
ATOM     24  C   UNL     1      -0.126  -0.455   2.894  1.00  0.00     0.045 A 
ATOM     25  C   UNL     1       2.096   0.261   2.288  1.00  0.00     0.196 A 
ATOM     26  F   UNL     1       2.439   2.307   1.199  1.00  0.00    -0.201 F 
ATOM     27  C   UNL     1       1.240  -0.695   2.817  1.00  0.00     0.162 A 
ATOM     28  F   UNL     1       3.410   0.006   2.209  1.00  0.00    -0.200 F 
ATOM     29  F   UNL     1       1.718  -1.878   3.226  1.00  0.00    -0.204 F 
ENDBRANCH  19  21
ENDBRANCH  16  19
ENDBRANCH  11  16
ENDBRANCH   5   8
ENDBRANCH   3   4
ENDBRANCH   2   3
ENDBRANCH   1   2
BRANCH   1  30
ATOM     30  C   UNL     1       0.727   9.103  -5.481  1.00  0.00     0.002 C 
BRANCH  30  31
ATOM     31  C   UNL     1      -0.324   9.787  -4.603  1.00  0.00     0.021 C 
BRANCH  31  32
ATOM     32  C   UNL     1       0.217  10.933  -3.754  1.00  0.00     0.116 C 
BRANCH  32  33
ATOM     33  N   UNL     1       0.725  12.017  -4.579  1.00  0.00    -0.352 N 
ATOM     34  C   UNL     1       0.443  13.357  -4.513  1.00  0.00     0.251 C 
ATOM     35  H   UNL     1       1.360  11.752  -5.284  1.00  0.00     0.163 HD
ATOM     36  O   UNL     1       0.784  14.101  -5.427  1.00  0.00    -0.269 OA
BRANCH  34  37
ATOM     37  C   UNL     1      -0.283  13.897  -3.344  1.00  0.00     0.039 A 
ATOM     38  C   UNL     1      -1.313  14.815  -3.556  1.00  0.00     0.014 A 
ATOM     39  C   UNL     1       0.067  13.517  -2.043  1.00  0.00     0.014 A 
ATOM     40  C   UNL     1      -2.019  15.324  -2.465  1.00  0.00     0.010 A 
ATOM     41  C   UNL     1      -0.680  13.976  -0.962  1.00  0.00     0.010 A 
ATOM     42  C   UNL     1      -1.722  14.894  -1.161  1.00  0.00    -0.014 A 
BRANCH  42  43
ATOM     43  C   UNL     1      -2.495  15.403  -0.002  1.00  0.00     0.031 A 
ATOM     44  C   UNL     1      -1.831  16.265   1.037  1.00  0.00     0.074 A 
ATOM     45  C   UNL     1      -3.789  15.055   0.134  1.00  0.00     0.049 A 
ATOM     46  N   UNL     1      -2.349  16.810   2.108  1.00  0.00    -0.248 NA
ATOM     47  C   UNL     1      -0.393  16.531   0.864  1.00  0.00     0.031 C 
ATOM     48  C   UNL     1      -4.530  14.178  -0.775  1.00  0.00     0.029 A 
ATOM     49  N   UNL     1      -4.712  15.398   1.090  1.00  0.00    -0.354 N 
ATOM     50  C   UNL     1      -1.302  17.469   2.743  1.00  0.00     0.074 A 
ATOM     51  C   UNL     1      -0.110  17.216   1.962  1.00  0.00     0.031 C 
ATOM     52  C   UNL     1      -5.800  14.076  -0.350  1.00  0.00     0.029 A 
ATOM     53  C   UNL     1      -5.957  14.856   0.873  1.00  0.00     0.049 A 
ATOM     54  H   UNL     1      -4.503  15.977   1.858  1.00  0.00     0.167 HD
ATOM     55  C   UNL     1      -1.332  18.231   3.862  1.00  0.00     0.031 A 
ATOM     56  C   UNL     1      -7.099  14.979   1.576  1.00  0.00     0.031 A 
ATOM     57  C   UNL     1      -2.522  18.489   4.630  1.00  0.00     0.049 A 
ATOM     58  C   UNL     1      -7.115  15.853   2.798  1.00  0.00     0.074 A 
ATOM     59  C   UNL     1      -2.671  19.299   5.742  1.00  0.00     0.029 A 
ATOM     60  N   UNL     1      -3.768  17.941   4.365  1.00  0.00    -0.354 N 
ATOM     61  N   UNL     1      -6.131  16.532   3.339  1.00  0.00    -0.248 NA
ATOM     62  C   UNL     1      -8.402  15.993   3.493  1.00  0.00     0.031 C 
ATOM     63  C   UNL     1      -3.998  19.205   6.177  1.00  0.00     0.029 A 
ATOM     64  C   UNL     1      -4.687  18.378   5.305  1.00  0.00     0.049 A 
ATOM     65  H   UNL     1      -3.969  17.331   3.619  1.00  0.00     0.167 HD
ATOM     66  C   UNL     1      -6.684  17.195   4.428  1.00  0.00     0.074 A 
ATOM     67  C   UNL     1      -8.092  16.853   4.454  1.00  0.00     0.031 C 
ATOM     68  C   UNL     1      -6.082  18.015   5.325  1.00  0.00     0.031 A 
BRANCH  55  69
ATOM     69  C   UNL     1      -0.032  18.836   4.325  1.00  0.00    -0.014 A 
ATOM     70  C   UNL     1       0.583  19.875   3.603  1.00  0.00     0.010 A 
ATOM     71  C   UNL     1       0.571  18.378   5.511  1.00  0.00     0.010 A 
ATOM     72  C   UNL     1       1.798  20.414   4.034  1.00  0.00     0.020 A 
ATOM     73  C   UNL     1       1.773  18.933   5.959  1.00  0.00     0.020 A 
ATOM     74  C   UNL     1       2.389  19.935   5.207  1.00  0.00     0.054 A 
BRANCH  74  75
ATOM     75  S   UNL     1       3.959  20.662   5.752  1.00  0.00     0.124 S 
ATOM     76  O   UNL     1       4.908  20.065   4.815  1.00  0.00    -0.237 OA
ATOM     77  O   UNL     1       3.727  22.094   5.582  1.00  0.00    -0.237 OA
ATOM     78  O   UNL     1       4.086  20.215   7.136  1.00  0.00    -0.744 OA
ENDBRANCH  74  75
ENDBRANCH  55  69
BRANCH  56  79
ATOM     79  C   UNL     1      -8.327  14.277   1.116  1.00  0.00    -0.014 A 
ATOM     80  C   UNL     1      -9.386  14.997   0.536  1.00  0.00     0.010 A 
ATOM     81  C   UNL     1      -8.431  12.879   1.232  1.00  0.00     0.010 A 
ATOM     82  C   UNL     1     -10.533  14.334   0.092  1.00  0.00     0.020 A 
ATOM     83  C   UNL     1      -9.566  12.210   0.766  1.00  0.00     0.020 A 
ATOM     84  C   UNL     1     -10.615  12.943   0.208  1.00  0.00     0.054 A 
BRANCH  84  85
ATOM     85  S   UNL     1     -12.086  12.094  -0.432  1.00  0.00     0.124 S 
ATOM     86  O   UNL     1     -13.079  12.390   0.595  1.00  0.00    -0.237 OA
ATOM     87  O   UNL     1     -12.294  12.748  -1.722  1.00  0.00    -0.237 OA
ATOM     88  O   UNL     1     -11.664  10.697  -0.513  1.00  0.00    -0.744 OA
ENDBRANCH  84  85
ENDBRANCH  56  79
BRANCH  68  89
ATOM     89  C   UNL     1      -6.952  18.609   6.400  1.00  0.00    -0.014 A 
ATOM     90  C   UNL     1      -7.445  17.820   7.454  1.00  0.00     0.010 A 
ATOM     91  C   UNL     1      -7.262  19.980   6.364  1.00  0.00     0.010 A 
ATOM     92  C   UNL     1      -8.273  18.383   8.429  1.00  0.00     0.020 A 
ATOM     93  C   UNL     1      -8.068  20.552   7.351  1.00  0.00     0.020 A 
ATOM     94  C   UNL     1      -8.585  19.745   8.366  1.00  0.00     0.054 A 
BRANCH  94  95
ATOM     95  S   UNL     1      -9.652  20.458   9.648  1.00  0.00     0.124 S 
ATOM     96  O   UNL     1     -10.974  19.994   9.235  1.00  0.00    -0.237 OA
ATOM     97  O   UNL     1      -9.131  19.858  10.874  1.00  0.00    -0.237 OA
ATOM     98  O   UNL     1      -9.428  21.897   9.523  1.00  0.00    -0.744 OA
ENDBRANCH  94  95
ENDBRANCH  68  89
ENDBRANCH  42  43
ENDBRANCH  34  37
ENDBRANCH  32  33
ENDBRANCH  31  32
ENDBRANCH  30  31
ENDBRANCH   1  30
TORSDOF 20
