REMARK SMILES O=C(NCCCCCCNC(=O)[C@H]1CC[C@H](CNC(=O)c2ccccc2O)O1)c1ccc(-c2c3nc(c(-c4ccc(S(=O)(=O)[O-])cc4)c4ccc([nH]4)c(-c4ccc(S(=O)(=O)[O-])cc4)c4nc(c(-c5ccc(S(=O)(=O)[O-])cc5)c5ccc2[nH]5)C=C4)C=C3)cc1
REMARK SMILES IDX 7 1 6 2 5 3 4 4 3 5 1 6 2 7 29 9 30 10 88 11 31 12 87 13
REMARK SMILES IDX 32 14 33 15 34 16 81 17 35 18 86 19 80 20 82 21 36 22 85 23
REMARK SMILES IDX 79 24 78 25 37 27 67 28 48 29 66 30 49 31 52 32 65 33 83 34
REMARK SMILES IDX 50 35 51 36 64 38 84 39 53 40 38 41 39 42 47 43 40 44 46 45
REMARK SMILES IDX 41 46 42 47 43 48 44 49 45 50 68 51 69 52 77 53 70 54 76 55
REMARK SMILES IDX 71 56 72 57 73 58 74 59 75 60 54 61 55 62 63 63 56 64 62 65
REMARK SMILES IDX 57 66 58 67 59 68 60 69 61 70 8 71 9 72 10 73 11 74 12 76
REMARK SMILES IDX 13 77 14 78 28 79 15 80 16 81 17 82 18 83 19 84 20 86 21 87
REMARK SMILES IDX 22 88 26 89 23 90 25 91 24 92 27 93
REMARK H PARENT 3 8 82 26 52 37 10 75 18 85 27 94
REMARK Flexibility Score: inf
ROOT
ATOM      1  C   UNL     1       6.068  -4.284  -2.502  1.00  0.00     0.002 C 
ENDROOT
BRANCH   1   2
ATOM      2  C   UNL     1       5.173  -3.110  -2.096  1.00  0.00     0.002 C 
BRANCH   2   3
ATOM      3  C   UNL     1       3.761  -3.116  -2.684  1.00  0.00     0.021 C 
BRANCH   3   4
ATOM      4  C   UNL     1       2.950  -4.377  -2.415  1.00  0.00     0.116 C 
BRANCH   4   5
ATOM      5  N   UNL     1       2.651  -4.564  -1.005  1.00  0.00    -0.352 N 
ATOM      6  O   UNL     1       1.348  -4.790   0.821  1.00  0.00    -0.269 OA
ATOM      7  C   UNL     1       1.440  -4.806  -0.403  1.00  0.00     0.251 C 
ATOM      8  H   UNL     1       3.424  -4.509  -0.397  1.00  0.00     0.163 HD
BRANCH   7   9
ATOM      9  C   UNL     1       0.242  -5.061  -1.235  1.00  0.00     0.039 A 
ATOM     10  C   UNL     1       0.300  -5.935  -2.324  1.00  0.00     0.014 A 
ATOM     11  C   UNL     1      -0.958  -4.417  -0.918  1.00  0.00     0.014 A 
ATOM     12  C   UNL     1      -0.797  -6.061  -3.169  1.00  0.00     0.010 A 
ATOM     13  C   UNL     1      -2.084  -4.606  -1.725  1.00  0.00     0.010 A 
ATOM     14  C   UNL     1      -2.005  -5.407  -2.874  1.00  0.00    -0.014 A 
BRANCH  14  15
ATOM     15  C   UNL     1      -3.184  -5.629  -3.750  1.00  0.00     0.031 A 
ATOM     16  C   UNL     1      -3.772  -4.512  -4.569  1.00  0.00     0.074 A 
ATOM     17  C   UNL     1      -3.706  -6.869  -3.828  1.00  0.00     0.049 A 
ATOM     18  N   UNL     1      -4.768  -4.553  -5.417  1.00  0.00    -0.248 NA
ATOM     19  C   UNL     1      -3.170  -3.178  -4.416  1.00  0.00     0.031 C 
ATOM     20  C   UNL     1      -3.227  -8.033  -3.075  1.00  0.00     0.029 A 
ATOM     21  N   UNL     1      -4.732  -7.367  -4.589  1.00  0.00    -0.354 N 
ATOM     22  C   UNL     1      -4.928  -3.253  -5.884  1.00  0.00     0.074 A 
ATOM     23  C   UNL     1      -3.937  -2.441  -5.209  1.00  0.00     0.031 C 
ATOM     24  C   UNL     1      -3.921  -9.116  -3.452  1.00  0.00     0.029 A 
ATOM     25  C   UNL     1      -4.930  -8.717  -4.427  1.00  0.00     0.049 A 
ATOM     26  H   UNL     1      -5.274  -6.810  -5.194  1.00  0.00     0.167 HD
ATOM     27  C   UNL     1      -5.815  -2.781  -6.794  1.00  0.00     0.031 A 
ATOM     28  C   UNL     1      -5.827  -9.546  -4.991  1.00  0.00     0.031 A 
ATOM     29  C   UNL     1      -6.800  -3.592  -7.463  1.00  0.00     0.049 A 
ATOM     30  C   UNL     1      -6.810  -8.994  -5.981  1.00  0.00     0.074 A 
ATOM     31  C   UNL     1      -7.725  -3.210  -8.419  1.00  0.00     0.029 A 
ATOM     32  N   UNL     1      -6.993  -4.948  -7.243  1.00  0.00    -0.354 N 
ATOM     33  N   UNL     1      -6.923  -7.767  -6.430  1.00  0.00    -0.248 NA
ATOM     34  C   UNL     1      -7.785  -9.938  -6.541  1.00  0.00     0.031 C 
ATOM     35  C   UNL     1      -8.505  -4.325  -8.746  1.00  0.00     0.029 A 
ATOM     36  C   UNL     1      -8.034  -5.413  -8.029  1.00  0.00     0.049 A 
ATOM     37  H   UNL     1      -6.467  -5.499  -6.619  1.00  0.00     0.167 HD
ATOM     38  C   UNL     1      -7.976  -7.794  -7.336  1.00  0.00     0.074 A 
ATOM     39  C   UNL     1      -8.451  -9.162  -7.386  1.00  0.00     0.031 C 
ATOM     40  C   UNL     1      -8.502  -6.776  -8.059  1.00  0.00     0.031 A 
BRANCH  27  41
ATOM     41  C   UNL     1      -5.778  -1.307  -7.103  1.00  0.00    -0.014 A 
ATOM     42  C   UNL     1      -4.740  -0.750  -7.870  1.00  0.00     0.010 A 
ATOM     43  C   UNL     1      -6.819  -0.474  -6.653  1.00  0.00     0.010 A 
ATOM     44  C   UNL     1      -4.722   0.620  -8.147  1.00  0.00     0.020 A 
ATOM     45  C   UNL     1      -6.816   0.893  -6.947  1.00  0.00     0.020 A 
ATOM     46  C   UNL     1      -5.757   1.435  -7.677  1.00  0.00     0.054 A 
BRANCH  46  47
ATOM     47  S   UNL     1      -5.713   3.208  -8.058  1.00  0.00     0.124 S 
ATOM     48  O   UNL     1      -4.685   3.687  -7.137  1.00  0.00    -0.237 OA
ATOM     49  O   UNL     1      -5.346   3.226  -9.472  1.00  0.00    -0.237 OA
ATOM     50  O   UNL     1      -7.071   3.659  -7.765  1.00  0.00    -0.744 OA
ENDBRANCH  46  47
ENDBRANCH  27  41
BRANCH  28  51
ATOM     51  C   UNL     1      -5.829 -10.987  -4.623  1.00  0.00    -0.014 A 
ATOM     52  C   UNL     1      -5.387 -11.957  -5.538  1.00  0.00     0.010 A 
ATOM     53  C   UNL     1      -6.238 -11.389  -3.338  1.00  0.00     0.010 A 
ATOM     54  C   UNL     1      -5.360 -13.307  -5.176  1.00  0.00     0.020 A 
ATOM     55  C   UNL     1      -6.187 -12.734  -2.965  1.00  0.00     0.020 A 
ATOM     56  C   UNL     1      -5.758 -13.686  -3.890  1.00  0.00     0.054 A 
BRANCH  56  57
ATOM     57  S   UNL     1      -5.650 -15.434  -3.417  1.00  0.00     0.124 S 
ATOM     58  O   UNL     1      -6.824 -15.998  -4.074  1.00  0.00    -0.237 OA
ATOM     59  O   UNL     1      -4.359 -15.835  -3.973  1.00  0.00    -0.237 OA
ATOM     60  O   UNL     1      -5.704 -15.395  -1.958  1.00  0.00    -0.744 OA
ENDBRANCH  56  57
ENDBRANCH  28  51
BRANCH  40  61
ATOM     61  C   UNL     1      -9.640  -7.113  -8.983  1.00  0.00    -0.014 A 
ATOM     62  C   UNL     1     -10.927  -7.379  -8.482  1.00  0.00     0.010 A 
ATOM     63  C   UNL     1      -9.424  -7.138 -10.372  1.00  0.00     0.010 A 
ATOM     64  C   UNL     1     -11.970  -7.700  -9.353  1.00  0.00     0.020 A 
ATOM     65  C   UNL     1     -10.470  -7.436 -11.248  1.00  0.00     0.020 A 
ATOM     66  C   UNL     1     -11.734  -7.731 -10.731  1.00  0.00     0.054 A 
BRANCH  66  67
ATOM     67  S   UNL     1     -13.109  -8.123 -11.848  1.00  0.00     0.124 S 
ATOM     68  O   UNL     1     -13.214  -9.572 -11.702  1.00  0.00    -0.237 OA
ATOM     69  O   UNL     1     -14.214  -7.352 -11.282  1.00  0.00    -0.237 OA
ATOM     70  O   UNL     1     -12.637  -7.659 -13.151  1.00  0.00    -0.744 OA
ENDBRANCH  66  67
ENDBRANCH  40  61
ENDBRANCH  14  15
ENDBRANCH   7   9
ENDBRANCH   4   5
ENDBRANCH   3   4
ENDBRANCH   2   3
ENDBRANCH   1   2
BRANCH   1  71
ATOM     71  C   UNL     1       6.204  -4.537  -4.008  1.00  0.00     0.021 C 
BRANCH  71  72
ATOM     72  C   UNL     1       6.657  -3.338  -4.838  1.00  0.00     0.116 C 
BRANCH  72  73
ATOM     73  N   UNL     1       7.952  -2.837  -4.420  1.00  0.00    -0.354 N 
ATOM     74  C   UNL     1       9.062  -2.548  -5.159  1.00  0.00     0.249 C 
ATOM     75  H   UNL     1       8.045  -2.681  -3.452  1.00  0.00     0.163 HD
ATOM     76  O   UNL     1      10.040  -2.079  -4.570  1.00  0.00    -0.272 OA
BRANCH  74  77
ATOM     77  C   UNL     1       9.076  -2.827  -6.671  1.00  0.00     0.207 C 
ATOM     78  C   UNL     1       9.823  -1.746  -7.438  1.00  0.00     0.045 C 
ATOM     79  O   UNL     1       9.747  -4.073  -6.924  1.00  0.00    -0.363 OA
ATOM     80  C   UNL     1      11.196  -2.341  -7.623  1.00  0.00     0.037 C 
ATOM     81  C   UNL     1      10.907  -3.827  -7.747  1.00  0.00     0.138 C 
BRANCH  81  82
ATOM     82  C   UNL     1      10.576  -4.294  -9.174  1.00  0.00     0.148 C 
BRANCH  82  83
ATOM     83  N   UNL     1      11.682  -4.157 -10.107  1.00  0.00    -0.349 N 
ATOM     84  C   UNL     1      12.268  -5.111 -10.899  1.00  0.00     0.255 C 
ATOM     85  H   UNL     1      12.064  -3.253 -10.180  1.00  0.00     0.163 HD
ATOM     86  O   UNL     1      13.248  -4.818 -11.582  1.00  0.00    -0.269 OA
BRANCH  84  87
ATOM     87  C   UNL     1      11.794  -6.511 -10.880  1.00  0.00     0.081 A 
ATOM     88  C   UNL     1      12.738  -7.496 -10.561  1.00  0.00     0.018 A 
ATOM     89  C   UNL     1      10.486  -6.884 -11.209  1.00  0.00     0.128 A 
ATOM     90  C   UNL     1      12.363  -8.839 -10.521  1.00  0.00     0.001 A 
ATOM     91  C   UNL     1      10.109  -8.228 -11.160  1.00  0.00     0.047 A 
ATOM     92  C   UNL     1      11.048  -9.202 -10.810  1.00  0.00     0.004 A 
BRANCH  89  93
ATOM     93  O   UNL     1       9.568  -5.943 -11.585  1.00  0.00    -0.507 OA
ATOM     94  H   UNL     1       9.812  -5.039 -11.620  1.00  0.00     0.293 HD
ENDBRANCH  89  93
ENDBRANCH  84  87
ENDBRANCH  82  83
ENDBRANCH  81  82
ENDBRANCH  74  77
ENDBRANCH  72  73
ENDBRANCH  71  72
ENDBRANCH   1  71
TORSDOF 20
