REMARK SMILES O=C(NCCCCCCNC(=O)[C@H]1CC[C@H](CN2C(=O)c3cccnc3C2=O)O1)c1ccc(-c2c3nc(c(-c4ccc(S(=O)(=O)[O-])cc4)c4ccc([nH]4)c(-c4ccc(S(=O)(=O)[O-])cc4)c4nc(c(-c5ccc(S(=O)(=O)[O-])cc5)c5ccc2[nH]5)C=C4)C=C3)cc1
REMARK SMILES IDX 6 1 5 2 4 3 3 4 1 5 2 6 30 8 31 9 89 10 32 11 88 12 33 13
REMARK SMILES IDX 34 14 35 15 82 16 36 17 87 18 81 19 83 20 37 21 86 22 80 23
REMARK SMILES IDX 79 24 38 26 68 27 49 28 67 29 50 30 53 31 66 32 84 33 51 34
REMARK SMILES IDX 52 35 65 37 85 38 54 39 39 40 40 41 48 42 41 43 47 44 42 45
REMARK SMILES IDX 43 46 44 47 45 48 46 49 69 50 70 51 78 52 71 53 77 54 72 55
REMARK SMILES IDX 73 56 74 57 75 58 76 59 55 60 56 61 64 62 57 63 63 64 58 65
REMARK SMILES IDX 59 66 60 67 61 68 62 69 7 70 8 71 9 72 10 73 11 74 12 76
REMARK SMILES IDX 13 77 14 78 29 79 15 80 16 81 17 82 18 83 19 84 27 85 20 86
REMARK SMILES IDX 21 87 26 88 28 89 22 90 25 91 23 92 24 93
REMARK H PARENT 3 7 83 25 53 36 10 75
REMARK Flexibility Score: inf
ROOT
ATOM      1  C   UNL     1       9.169  11.339   1.585  1.00  0.00     0.002 C 
ENDROOT
BRANCH   1   2
ATOM      2  C   UNL     1       8.877  12.605   0.780  1.00  0.00     0.021 C 
BRANCH   2   3
ATOM      3  C   UNL     1       7.606  13.334   1.189  1.00  0.00     0.116 C 
BRANCH   3   4
ATOM      4  N   UNL     1       7.669  13.836   2.552  1.00  0.00    -0.352 N 
ATOM      5  O   UNL     1       7.753  15.410   4.167  1.00  0.00    -0.269 OA
ATOM      6  C   UNL     1       7.492  15.121   3.004  1.00  0.00     0.251 C 
ATOM      7  H   UNL     1       7.863  13.164   3.244  1.00  0.00     0.163 HD
BRANCH   6   8
ATOM      8  C   UNL     1       7.008  16.155   2.065  1.00  0.00     0.039 A 
ATOM      9  C   UNL     1       5.943  15.879   1.204  1.00  0.00     0.014 A 
ATOM     10  C   UNL     1       7.634  17.403   2.034  1.00  0.00     0.014 A 
ATOM     11  C   UNL     1       5.603  16.792   0.215  1.00  0.00     0.010 A 
ATOM     12  C   UNL     1       7.220  18.361   1.105  1.00  0.00     0.010 A 
ATOM     13  C   UNL     1       6.216  18.055   0.172  1.00  0.00    -0.014 A 
BRANCH  13  14
ATOM     14  C   UNL     1       5.720  19.065  -0.797  1.00  0.00     0.031 A 
ATOM     15  C   UNL     1       6.603  19.614  -1.882  1.00  0.00     0.074 A 
ATOM     16  C   UNL     1       4.439  19.471  -0.692  1.00  0.00     0.049 A 
ATOM     17  N   UNL     1       6.309  20.488  -2.812  1.00  0.00    -0.248 NA
ATOM     18  C   UNL     1       7.991  19.130  -1.933  1.00  0.00     0.031 C 
ATOM     19  C   UNL     1       3.490  19.009   0.328  1.00  0.00     0.029 A 
ATOM     20  N   UNL     1       3.705  20.342  -1.453  1.00  0.00    -0.354 N 
ATOM     21  C   UNL     1       7.475  20.674  -3.546  1.00  0.00     0.074 A 
ATOM     22  C   UNL     1       8.490  19.840  -2.937  1.00  0.00     0.031 C 
ATOM     23  C   UNL     1       2.291  19.560   0.097  1.00  0.00     0.029 A 
ATOM     24  C   UNL     1       2.402  20.474  -1.032  1.00  0.00     0.049 A 
ATOM     25  H   UNL     1       4.074  20.827  -2.226  1.00  0.00     0.167 HD
ATOM     26  C   UNL     1       7.677  21.465  -4.628  1.00  0.00     0.031 A 
ATOM     27  C   UNL     1       1.409  21.262  -1.483  1.00  0.00     0.031 A 
ATOM     28  C   UNL     1       6.660  22.301  -5.216  1.00  0.00     0.049 A 
ATOM     29  C   UNL     1       1.676  22.165  -2.651  1.00  0.00     0.074 A 
ATOM     30  C   UNL     1       6.757  23.116  -6.331  1.00  0.00     0.029 A 
ATOM     31  N   UNL     1       5.366  22.439  -4.735  1.00  0.00    -0.354 N 
ATOM     32  N   UNL     1       2.774  22.294  -3.356  1.00  0.00    -0.248 NA
ATOM     33  C   UNL     1       0.570  23.026  -3.086  1.00  0.00     0.031 C 
ATOM     34  C   UNL     1       5.545  23.798  -6.483  1.00  0.00     0.029 A 
ATOM     35  C   UNL     1       4.666  23.351  -5.510  1.00  0.00     0.049 A 
ATOM     36  H   UNL     1       4.999  21.960  -3.957  1.00  0.00     0.167 HD
ATOM     37  C   UNL     1       2.484  23.236  -4.335  1.00  0.00     0.074 A 
ATOM     38  C   UNL     1       1.101  23.625  -4.143  1.00  0.00     0.031 C 
ATOM     39  C   UNL     1       3.291  23.734  -5.305  1.00  0.00     0.031 A 
BRANCH  26  40
ATOM     40  C   UNL     1       9.059  21.493  -5.233  1.00  0.00    -0.014 A 
ATOM     41  C   UNL     1       9.579  20.383  -5.923  1.00  0.00     0.010 A 
ATOM     42  C   UNL     1       9.825  22.672  -5.165  1.00  0.00     0.010 A 
ATOM     43  C   UNL     1      10.853  20.438  -6.497  1.00  0.00     0.020 A 
ATOM     44  C   UNL     1      11.087  22.742  -5.764  1.00  0.00     0.020 A 
ATOM     45  C   UNL     1      11.599  21.618  -6.413  1.00  0.00     0.054 A 
BRANCH  45  46
ATOM     46  S   UNL     1      13.238  21.665  -7.190  1.00  0.00     0.124 S 
ATOM     47  O   UNL     1      14.011  20.785  -6.316  1.00  0.00    -0.237 OA
ATOM     48  O   UNL     1      12.973  21.144  -8.528  1.00  0.00    -0.237 OA
ATOM     49  O   UNL     1      13.610  23.077  -7.135  1.00  0.00    -0.744 OA
ENDBRANCH  45  46
ENDBRANCH  26  40
BRANCH  27  50
ATOM     50  C   UNL     1       0.084  21.241  -0.806  1.00  0.00    -0.014 A 
ATOM     51  C   UNL     1      -1.052  20.739  -1.464  1.00  0.00     0.010 A 
ATOM     52  C   UNL     1      -0.041  21.705   0.518  1.00  0.00     0.010 A 
ATOM     53  C   UNL     1      -2.291  20.721  -0.818  1.00  0.00     0.020 A 
ATOM     54  C   UNL     1      -1.270  21.654   1.179  1.00  0.00     0.020 A 
ATOM     55  C   UNL     1      -2.391  21.175   0.501  1.00  0.00     0.054 A 
BRANCH  55  56
ATOM     56  S   UNL     1      -4.001  21.100   1.331  1.00  0.00     0.124 S 
ATOM     57  O   UNL     1      -4.743  22.155   0.650  1.00  0.00    -0.237 OA
ATOM     58  O   UNL     1      -4.436  19.735   1.049  1.00  0.00    -0.237 OA
ATOM     59  O   UNL     1      -3.677  21.366   2.731  1.00  0.00    -0.744 OA
ENDBRANCH  55  56
ENDBRANCH  27  50
BRANCH  39  60
ATOM     60  C   UNL     1       2.685  24.729  -6.259  1.00  0.00    -0.014 A 
ATOM     61  C   UNL     1       2.344  26.029  -5.845  1.00  0.00     0.010 A 
ATOM     62  C   UNL     1       2.492  24.367  -7.605  1.00  0.00     0.010 A 
ATOM     63  C   UNL     1       1.787  26.936  -6.751  1.00  0.00     0.020 A 
ATOM     64  C   UNL     1       1.968  25.281  -8.521  1.00  0.00     0.020 A 
ATOM     65  C   UNL     1       1.605  26.556  -8.084  1.00  0.00     0.054 A 
BRANCH  65  66
ATOM     66  S   UNL     1       0.921  27.766  -9.249  1.00  0.00     0.124 S 
ATOM     67  O   UNL     1      -0.474  27.843  -8.823  1.00  0.00    -0.237 OA
ATOM     68  O   UNL     1       1.726  28.955  -8.984  1.00  0.00    -0.237 OA
ATOM     69  O   UNL     1       1.139  27.151 -10.556  1.00  0.00    -0.744 OA
ENDBRANCH  65  66
ENDBRANCH  39  60
ENDBRANCH  13  14
ENDBRANCH   6   8
ENDBRANCH   3   4
ENDBRANCH   2   3
ENDBRANCH   1   2
BRANCH   1  70
ATOM     70  C   UNL     1       8.030  10.316   1.621  1.00  0.00     0.002 C 
BRANCH  70  71
ATOM     71  C   UNL     1       7.488   9.888   0.253  1.00  0.00     0.021 C 
BRANCH  71  72
ATOM     72  C   UNL     1       8.543   9.354  -0.707  1.00  0.00     0.116 C 
BRANCH  72  73
ATOM     73  N   UNL     1       9.191   8.164  -0.193  1.00  0.00    -0.354 N 
ATOM     74  C   UNL     1       9.430   6.979  -0.829  1.00  0.00     0.249 C 
ATOM     75  H   UNL     1       9.501   8.217   0.741  1.00  0.00     0.163 HD
ATOM     76  O   UNL     1      10.015   6.093  -0.206  1.00  0.00    -0.272 OA
BRANCH  74  77
ATOM     77  C   UNL     1       8.962   6.817  -2.291  1.00  0.00     0.207 C 
ATOM     78  C   UNL     1       9.764   7.707  -3.228  1.00  0.00     0.045 C 
ATOM     79  O   UNL     1       9.143   5.479  -2.778  1.00  0.00    -0.363 OA
ATOM     80  C   UNL     1      10.937   6.824  -3.561  1.00  0.00     0.037 C 
ATOM     81  C   UNL     1      10.297   5.444  -3.643  1.00  0.00     0.139 C 
BRANCH  81  82
ATOM     82  C   UNL     1       9.818   5.059  -5.054  1.00  0.00     0.161 C 
BRANCH  82  83
ATOM     83  N   UNL     1      10.856   5.177  -6.060  1.00  0.00    -0.270 N 
ATOM     84  C   UNL     1      10.852   6.110  -7.060  1.00  0.00     0.263 C 
ATOM     85  C   UNL     1      11.994   4.412  -6.079  1.00  0.00     0.280 C 
ATOM     86  O   UNL     1      10.021   6.956  -7.321  1.00  0.00    -0.269 OA
ATOM     87  C   UNL     1      12.101   5.944  -7.789  1.00  0.00     0.071 A 
ATOM     88  C   UNL     1      12.800   4.920  -7.197  1.00  0.00     0.141 A 
ATOM     89  O   UNL     1      12.302   3.514  -5.318  1.00  0.00    -0.267 OA
ATOM     90  C   UNL     1      12.646   6.628  -8.854  1.00  0.00     0.018 A 
ATOM     91  N   UNL     1      14.025   4.494  -7.553  1.00  0.00    -0.250 NA
ATOM     92  C   UNL     1      13.918   6.225  -9.268  1.00  0.00     0.021 A 
ATOM     93  C   UNL     1      14.559   5.174  -8.597  1.00  0.00     0.112 A 
ENDBRANCH  82  83
ENDBRANCH  81  82
ENDBRANCH  74  77
ENDBRANCH  72  73
ENDBRANCH  71  72
ENDBRANCH  70  71
ENDBRANCH   1  70
TORSDOF 18
