REMARK SMILES CC(C)[C@@H]1C(=O)Nc2ccccc2N1C(=O)N[C@H](Cc1ccccc1)C(=O)NCCCCCCNC(=O)c1ccc(-c2c3nc(c(-c4ccc(S(=O)(=O)[O-])cc4)c4ccc([nH]4)c(-c4ccc(S(=O)(=O)[O-])cc4)c4nc(c(-c5ccc(S(=O)(=O)[O-])cc5)c5ccc2[nH]5)C=C4)C=C3)cc1
REMARK SMILES IDX 31 1 30 2 29 3 28 4 26 5 27 6 18 8 17 9 15 10 16 11 14 13
REMARK SMILES IDX 4 14 5 15 6 16 7 17 13 18 8 19 12 21 9 22 11 23 10 24 2 25
REMARK SMILES IDX 1 26 3 27 19 28 20 29 21 30 25 31 22 32 24 33 23 34 32 35
REMARK SMILES IDX 33 36 34 37 35 38 36 39 37 41 38 42 39 43 97 44 40 45 96 46
REMARK SMILES IDX 41 47 42 48 43 49 90 50 44 51 95 52 89 53 91 54 45 55 94 56
REMARK SMILES IDX 88 57 87 58 46 60 76 61 57 62 75 63 58 64 61 65 74 66 92 67
REMARK SMILES IDX 59 68 60 69 73 71 93 72 62 73 47 74 48 75 56 76 49 77 55 78
REMARK SMILES IDX 50 79 51 80 52 81 53 82 54 83 77 84 78 85 86 86 79 87 85 88
REMARK SMILES IDX 80 89 81 90 82 91 83 92 84 93 63 94 64 95 72 96 65 97 71 98
REMARK SMILES IDX 66 99 67 100 68 101 69 102 70 103
REMARK H PARENT 28 7 17 12 7 20 35 40 91 59 61 70
REMARK Flexibility Score: inf
ROOT
ATOM      1  C   UNL     1       5.234   3.444   0.856  1.00  0.00     0.002 C 
ENDROOT
BRANCH   1   2
ATOM      2  C   UNL     1       5.502   2.072   0.205  1.00  0.00     0.021 C 
BRANCH   2   3
ATOM      3  C   UNL     1       4.774   0.765   0.703  1.00  0.00     0.116 C 
BRANCH   3   4
ATOM      4  N   UNL     1       3.397   0.491   0.211  1.00  0.00    -0.354 N 
ATOM      5  C   UNL     1       2.857  -0.783  -0.010  1.00  0.00     0.242 C 
ATOM      6  O   UNL     1       3.345  -1.718   0.651  1.00  0.00    -0.273 OA
ATOM      7  H   UNL     1       2.819   1.266   0.026  1.00  0.00     0.163 HD
BRANCH   5   8
ATOM      8  C   UNL     1       1.830  -1.213  -1.292  1.00  0.00     0.177 C 
BRANCH   8   9
ATOM      9  N   UNL     1       2.919  -1.516  -2.171  1.00  0.00    -0.326 N 
ATOM     10  C   UNL     1       3.511  -0.586  -2.941  1.00  0.00     0.323 C 
ATOM     11  O   UNL     1       4.090  -1.058  -3.926  1.00  0.00    -0.248 OA
ATOM     12  H   UNL     1       3.247  -2.443  -2.214  1.00  0.00     0.166 HD
BRANCH  10  13
ATOM     13  N   UNL     1       3.583   0.746  -2.554  1.00  0.00    -0.280 N 
ATOM     14  C   UNL     1       2.647   1.934  -2.008  1.00  0.00     0.184 C 
ATOM     15  C   UNL     1       2.575   2.932  -3.205  1.00  0.00     0.247 C 
ATOM     16  O   UNL     1       1.568   3.570  -3.508  1.00  0.00    -0.272 OA
ATOM     17  N   UNL     1       3.781   3.264  -3.777  1.00  0.00    -0.322 N 
ATOM     18  C   UNL     1       4.874   1.275  -2.967  1.00  0.00     0.070 A 
ATOM     19  C   UNL     1       4.950   2.530  -3.564  1.00  0.00     0.065 A 
ATOM     20  H   UNL     1       3.821   4.054  -4.363  1.00  0.00     0.170 HD
ATOM     21  C   UNL     1       6.056   0.528  -2.768  1.00  0.00     0.028 A 
ATOM     22  C   UNL     1       6.185   3.027  -3.982  1.00  0.00     0.028 A 
ATOM     23  C   UNL     1       7.292   1.042  -3.143  1.00  0.00     0.002 A 
ATOM     24  C   UNL     1       7.354   2.292  -3.751  1.00  0.00     0.002 A 
BRANCH  14  25
ATOM     25  C   UNL     1       1.197   2.068  -1.171  1.00  0.00     0.015 C 
ATOM     26  C   UNL     1       0.547   1.211  -0.036  1.00  0.00     0.010 C 
ATOM     27  C   UNL     1       1.165   3.471  -0.487  1.00  0.00     0.010 C 
ENDBRANCH  14  25
ENDBRANCH  10  13
ENDBRANCH   8   9
BRANCH   8  28
ATOM     28  C   UNL     1       0.806  -0.670  -2.396  1.00  0.00     0.070 C 
BRANCH  28  29
ATOM     29  C   UNL     1      -0.711  -0.674  -2.451  1.00  0.00    -0.045 A 
ATOM     30  C   UNL     1      -1.377   0.458  -2.978  1.00  0.00     0.004 A 
ATOM     31  C   UNL     1      -1.450  -1.849  -2.310  1.00  0.00     0.004 A 
ATOM     32  C   UNL     1      -2.740   0.448  -3.272  1.00  0.00     0.000 A 
ATOM     33  C   UNL     1      -2.812  -1.873  -2.648  1.00  0.00     0.000 A 
ATOM     34  C   UNL     1      -3.459  -0.725  -3.110  1.00  0.00     0.000 A 
ENDBRANCH  28  29
ENDBRANCH   8  28
ENDBRANCH   5   8
ENDBRANCH   3   4
ENDBRANCH   2   3
ENDBRANCH   1   2
BRANCH   1  35
ATOM     35  C   UNL     1       6.188   4.593   0.367  1.00  0.00     0.002 C 
BRANCH  35  36
ATOM     36  C   UNL     1       6.102   4.971  -1.127  1.00  0.00     0.021 C 
BRANCH  36  37
ATOM     37  C   UNL     1       5.958   6.469  -1.454  1.00  0.00     0.116 C 
BRANCH  37  38
ATOM     38  N   UNL     1       7.112   7.278  -1.101  1.00  0.00    -0.352 N 
ATOM     39  C   UNL     1       8.201   7.745  -1.796  1.00  0.00     0.251 C 
ATOM     40  H   UNL     1       7.114   7.551  -0.156  1.00  0.00     0.163 HD
ATOM     41  O   UNL     1       9.082   8.309  -1.142  1.00  0.00    -0.269 OA
BRANCH  39  42
ATOM     42  C   UNL     1       8.392   7.614  -3.268  1.00  0.00     0.039 A 
ATOM     43  C   UNL     1       9.711   7.508  -3.741  1.00  0.00     0.014 A 
ATOM     44  C   UNL     1       7.364   7.749  -4.203  1.00  0.00     0.014 A 
ATOM     45  C   UNL     1       9.995   7.531  -5.116  1.00  0.00     0.010 A 
ATOM     46  C   UNL     1       7.642   7.703  -5.582  1.00  0.00     0.010 A 
ATOM     47  C   UNL     1       8.962   7.622  -6.059  1.00  0.00    -0.014 A 
BRANCH  47  48
ATOM     48  C   UNL     1       9.254   7.704  -7.525  1.00  0.00     0.031 A 
ATOM     49  C   UNL     1       8.857   8.931  -8.317  1.00  0.00     0.074 A 
ATOM     50  C   UNL     1       9.850   6.678  -8.168  1.00  0.00     0.049 A 
ATOM     51  N   UNL     1       8.943   9.152  -9.607  1.00  0.00    -0.248 NA
ATOM     52  C   UNL     1       8.264  10.047  -7.562  1.00  0.00     0.031 C 
ATOM     53  C   UNL     1      10.285   5.426  -7.547  1.00  0.00     0.029 A 
ATOM     54  N   UNL     1      10.190   6.522  -9.493  1.00  0.00    -0.354 N 
ATOM     55  C   UNL     1       8.381  10.408  -9.820  1.00  0.00     0.074 A 
ATOM     56  C   UNL     1       7.926  10.885  -8.532  1.00  0.00     0.031 C 
ATOM     57  C   UNL     1      10.849   4.642  -8.481  1.00  0.00     0.029 A 
ATOM     58  C   UNL     1      10.779   5.311  -9.777  1.00  0.00     0.049 A 
ATOM     59  H   UNL     1      10.026   7.213 -10.174  1.00  0.00     0.167 HD
ATOM     60  C   UNL     1       8.265  11.111 -10.974  1.00  0.00     0.031 A 
ATOM     61  C   UNL     1      11.206   4.786 -10.944  1.00  0.00     0.031 A 
ATOM     62  C   UNL     1       8.754  10.662 -12.252  1.00  0.00     0.049 A 
ATOM     63  C   UNL     1      11.074   5.586 -12.213  1.00  0.00     0.074 A 
ATOM     64  C   UNL     1       8.736  11.334 -13.464  1.00  0.00     0.029 A 
ATOM     65  N   UNL     1       9.355   9.436 -12.486  1.00  0.00    -0.354 N 
ATOM     66  N   UNL     1      10.571   6.786 -12.382  1.00  0.00    -0.248 NA
ATOM     67  C   UNL     1      11.575   4.964 -13.448  1.00  0.00     0.031 C 
ATOM     68  C   UNL     1       9.286  10.496 -14.439  1.00  0.00     0.029 A 
ATOM     69  C   UNL     1       9.696   9.324 -13.825  1.00  0.00     0.049 A 
ATOM     70  H   UNL     1       9.517   8.746 -11.803  1.00  0.00     0.167 HD
ATOM     71  C   UNL     1      10.719   7.071 -13.736  1.00  0.00     0.074 A 
ATOM     72  C   UNL     1      11.370   5.926 -14.338  1.00  0.00     0.031 C 
ATOM     73  C   UNL     1      10.348   8.183 -14.416  1.00  0.00     0.031 A 
BRANCH  60  74
ATOM     74  C   UNL     1       7.567  12.448 -10.914  1.00  0.00    -0.014 A 
ATOM     75  C   UNL     1       8.161  13.555 -10.281  1.00  0.00     0.010 A 
ATOM     76  C   UNL     1       6.318  12.611 -11.541  1.00  0.00     0.010 A 
ATOM     77  C   UNL     1       7.497  14.784 -10.232  1.00  0.00     0.020 A 
ATOM     78  C   UNL     1       5.663  13.847 -11.520  1.00  0.00     0.020 A 
ATOM     79  C   UNL     1       6.249  14.921 -10.847  1.00  0.00     0.054 A 
BRANCH  79  80
ATOM     80  S   UNL     1       5.415  16.531 -10.777  1.00  0.00     0.124 S 
ATOM     81  O   UNL     1       4.963  16.574  -9.389  1.00  0.00    -0.237 OA
ATOM     82  O   UNL     1       6.487  17.463 -11.117  1.00  0.00    -0.237 OA
ATOM     83  O   UNL     1       4.354  16.416 -11.774  1.00  0.00    -0.744 OA
ENDBRANCH  79  80
ENDBRANCH  60  74
BRANCH  61  84
ATOM     84  C   UNL     1      11.809   3.424 -10.968  1.00  0.00    -0.014 A 
ATOM     85  C   UNL     1      13.186   3.256 -11.195  1.00  0.00     0.010 A 
ATOM     86  C   UNL     1      11.009   2.286 -10.750  1.00  0.00     0.010 A 
ATOM     87  C   UNL     1      13.752   1.977 -11.213  1.00  0.00     0.020 A 
ATOM     88  C   UNL     1      11.576   1.008 -10.740  1.00  0.00     0.020 A 
ATOM     89  C   UNL     1      12.943   0.861 -10.981  1.00  0.00     0.054 A 
BRANCH  89  90
ATOM     90  S   UNL     1      13.712  -0.783 -10.956  1.00  0.00     0.124 S 
ATOM     91  O   UNL     1      13.964  -1.030 -12.354  1.00  0.00    -0.237 OA
ATOM     92  O   UNL     1      14.896  -0.560 -10.116  1.00  0.00    -0.237 OA
ATOM     93  O   UNL     1      12.682  -1.627 -10.332  1.00  0.00    -0.744 OA
ENDBRANCH  89  90
ENDBRANCH  61  84
BRANCH  73  94
ATOM     94  C   UNL     1      10.666   8.242 -15.887  1.00  0.00    -0.014 A 
ATOM     95  C   UNL     1       9.945   7.477 -16.821  1.00  0.00     0.010 A 
ATOM     96  C   UNL     1      11.659   9.127 -16.348  1.00  0.00     0.010 A 
ATOM     97  C   UNL     1      10.228   7.577 -18.186  1.00  0.00     0.020 A 
ATOM     98  C   UNL     1      11.927   9.249 -17.714  1.00  0.00     0.020 A 
ATOM     99  C   UNL     1      11.218   8.464 -18.624  1.00  0.00     0.054 A 
BRANCH  99 100
ATOM    100  S   UNL     1      11.530   8.615 -20.405  1.00  0.00     0.124 S 
ATOM    101  O   UNL     1      12.248   7.376 -20.694  1.00  0.00    -0.237 OA
ATOM    102  O   UNL     1      10.182   8.706 -20.962  1.00  0.00    -0.237 OA
ATOM    103  O   UNL     1      12.326   9.836 -20.515  1.00  0.00    -0.744 OA
ENDBRANCH  99 100
ENDBRANCH  73  94
ENDBRANCH  47  48
ENDBRANCH  39  42
ENDBRANCH  37  38
ENDBRANCH  36  37
ENDBRANCH  35  36
ENDBRANCH   1  35
TORSDOF 21
