REMARK SMILES CCn1nc(C)c(NS(=O)(=O)c2cc(C(=O)NCCCCCCNC(=O)c3ccc(-c4c5nc(c(-c6ccc(S(=O)(=O)[O-])cc6)c6ccc([nH]6)c(-c6ccc(S(=O)(=O)[O-])cc6)c6nc(c(-c7ccc(S(=O)(=O)[O-])cc7)c7ccc4[nH]7)C=C6)C=C5)cc3)cc(F)c2C)c1C
REMARK SMILES IDX 20 1 19 2 18 3 17 4 15 5 16 6 14 8 12 9 13 10 90 11 88 12
REMARK SMILES IDX 91 13 87 14 89 15 9 16 10 17 11 18 8 19 7 21 3 22 4 23 92 24
REMARK SMILES IDX 5 25 93 26 6 27 2 28 1 29 21 30 22 31 23 32 24 33 25 34
REMARK SMILES IDX 26 36 27 37 28 38 86 39 29 40 85 41 30 42 31 43 32 44 79 45
REMARK SMILES IDX 33 46 84 47 78 48 80 49 34 50 83 51 77 52 76 53 35 55 65 56
REMARK SMILES IDX 46 57 64 58 47 59 50 60 63 61 81 62 48 63 49 64 62 66 82 67
REMARK SMILES IDX 51 68 36 69 37 70 45 71 38 72 44 73 39 74 40 75 41 76 42 77
REMARK SMILES IDX 43 78 66 79 67 80 75 81 68 82 74 83 69 84 70 85 71 86 72 87
REMARK SMILES IDX 73 88 52 89 53 90 61 91 54 92 60 93 55 94 56 95 57 96 58 97
REMARK SMILES IDX 59 98
REMARK H PARENT 17 7 8 20 24 35 80 54 50 65
REMARK Flexibility Score: inf
ROOT
ATOM      1  C   UNL     1       4.177 -10.139  -8.192  1.00  0.00     0.002 C 
ENDROOT
BRANCH   1   2
ATOM      2  C   UNL     1       3.426  -9.112  -7.331  1.00  0.00     0.021 C 
BRANCH   2   3
ATOM      3  C   UNL     1       4.341  -8.040  -6.733  1.00  0.00     0.116 C 
BRANCH   3   4
ATOM      4  N   UNL     1       4.647  -7.009  -7.710  1.00  0.00    -0.352 N 
ATOM      5  C   UNL     1       4.120  -5.779  -8.014  1.00  0.00     0.251 C 
ATOM      6  O   UNL     1       4.668  -5.159  -8.928  1.00  0.00    -0.269 OA
ATOM      7  H   UNL     1       5.409  -7.247  -8.287  1.00  0.00     0.163 HD
BRANCH   5   8
ATOM      8  C   UNL     1       2.988  -5.127  -7.288  1.00  0.00     0.044 A 
ATOM      9  C   UNL     1       1.303  -5.012  -5.513  1.00  0.00     0.094 A 
ATOM     10  C   UNL     1       2.213  -5.736  -6.311  1.00  0.00     0.036 A 
ATOM     11  C   UNL     1       0.958  -3.706  -5.858  1.00  0.00     0.005 A 
ATOM     12  C   UNL     1       1.699  -3.111  -6.890  1.00  0.00     0.128 A 
ATOM     13  C   UNL     1      -0.147  -2.904  -5.245  1.00  0.00     0.049 C 
ATOM     14  C   UNL     1       2.719  -3.785  -7.567  1.00  0.00     0.053 A 
ATOM     15  F   UNL     1       1.467  -1.829  -7.212  1.00  0.00    -0.207 F 
BRANCH   9  16
ATOM     16  S   UNL     1       0.864  -5.873  -4.017  1.00  0.00     0.262 S 
ATOM     17  O   UNL     1       1.998  -6.701  -3.662  1.00  0.00    -0.201 OA
ATOM     18  O   UNL     1      -0.434  -6.472  -4.257  1.00  0.00    -0.201 OA
BRANCH  16  19
ATOM     19  N   UNL     1       0.644  -4.818  -2.750  1.00  0.00    -0.276 N 
ATOM     20  H   UNL     1      -0.030  -5.109  -2.094  1.00  0.00     0.180 HD
BRANCH  19  21
ATOM     21  C   UNL     1       1.242  -3.595  -2.451  1.00  0.00     0.093 A 
ATOM     22  N   UNL     1       1.325  -1.516  -1.769  1.00  0.00    -0.268 N 
ATOM     23  N   UNL     1       2.482  -1.680  -2.431  1.00  0.00    -0.176 NA
ATOM     24  C   UNL     1       0.630  -2.683  -1.609  1.00  0.00     0.060 A 
ATOM     25  C   UNL     1       2.455  -2.960  -2.839  1.00  0.00     0.084 A 
ATOM     26  C   UNL     1      -0.562  -2.840  -0.735  1.00  0.00     0.069 C 
ATOM     27  C   UNL     1       3.622  -3.465  -3.603  1.00  0.00     0.071 C 
BRANCH  22  28
ATOM     28  C   UNL     1       0.889  -0.177  -1.417  1.00  0.00     0.141 C 
ATOM     29  C   UNL     1       1.230   0.194   0.012  1.00  0.00     0.029 C 
ENDBRANCH  22  28
ENDBRANCH  19  21
ENDBRANCH  16  19
ENDBRANCH   9  16
ENDBRANCH   5   8
ENDBRANCH   3   4
ENDBRANCH   2   3
ENDBRANCH   1   2
BRANCH   1  30
ATOM     30  C   UNL     1       5.353 -10.857  -7.502  1.00  0.00     0.002 C 
BRANCH  30  31
ATOM     31  C   UNL     1       5.063 -11.486  -6.129  1.00  0.00     0.021 C 
BRANCH  31  32
ATOM     32  C   UNL     1       4.152 -12.698  -6.206  1.00  0.00     0.116 C 
BRANCH  32  33
ATOM     33  N   UNL     1       4.791 -13.839  -6.883  1.00  0.00    -0.352 N 
ATOM     34  C   UNL     1       4.260 -15.085  -7.179  1.00  0.00     0.251 C 
ATOM     35  H   UNL     1       5.723 -13.698  -7.164  1.00  0.00     0.163 HD
ATOM     36  O   UNL     1       4.990 -16.045  -7.405  1.00  0.00    -0.269 OA
BRANCH  34  37
ATOM     37  C   UNL     1       2.796 -15.221  -7.236  1.00  0.00     0.039 A 
ATOM     38  C   UNL     1       2.096 -16.361  -6.829  1.00  0.00     0.014 A 
ATOM     39  C   UNL     1       2.115 -14.105  -7.691  1.00  0.00     0.014 A 
ATOM     40  C   UNL     1       0.702 -16.327  -6.870  1.00  0.00     0.010 A 
ATOM     41  C   UNL     1       0.802 -13.959  -7.385  1.00  0.00     0.010 A 
ATOM     42  C   UNL     1       0.073 -15.110  -7.163  1.00  0.00    -0.014 A 
BRANCH  42  43
ATOM     43  C   UNL     1      -1.362 -14.933  -7.269  1.00  0.00     0.031 A 
ATOM     44  C   UNL     1      -2.093 -15.102  -5.995  1.00  0.00     0.074 A 
ATOM     45  C   UNL     1      -1.911 -14.340  -8.354  1.00  0.00     0.049 A 
ATOM     46  N   UNL     1      -2.873 -16.073  -5.664  1.00  0.00    -0.248 NA
ATOM     47  C   UNL     1      -1.793 -14.174  -4.892  1.00  0.00     0.031 C 
ATOM     48  C   UNL     1      -1.243 -13.753  -9.530  1.00  0.00     0.029 A 
ATOM     49  N   UNL     1      -3.204 -13.996  -8.564  1.00  0.00    -0.354 N 
ATOM     50  C   UNL     1      -3.349 -15.761  -4.397  1.00  0.00     0.074 A 
ATOM     51  C   UNL     1      -2.485 -14.723  -3.892  1.00  0.00     0.031 C 
ATOM     52  C   UNL     1      -2.096 -12.921 -10.169  1.00  0.00     0.029 A 
ATOM     53  C   UNL     1      -3.407 -13.047  -9.559  1.00  0.00     0.049 A 
ATOM     54  H   UNL     1      -3.945 -14.389  -8.049  1.00  0.00     0.167 HD
ATOM     55  C   UNL     1      -4.569 -16.192  -3.970  1.00  0.00     0.031 A 
ATOM     56  C   UNL     1      -4.562 -12.377  -9.811  1.00  0.00     0.031 A 
ATOM     57  C   UNL     1      -5.137 -17.149  -4.888  1.00  0.00     0.049 A 
ATOM     58  C   UNL     1      -5.652 -13.168  -9.175  1.00  0.00     0.074 A 
ATOM     59  C   UNL     1      -4.743 -18.384  -5.365  1.00  0.00     0.029 A 
ATOM     60  N   UNL     1      -6.060 -16.670  -5.792  1.00  0.00    -0.354 N 
ATOM     61  N   UNL     1      -5.962 -14.382  -9.546  1.00  0.00    -0.248 NA
ATOM     62  C   UNL     1      -6.030 -12.825  -7.811  1.00  0.00     0.031 C 
ATOM     63  C   UNL     1      -5.057 -18.351  -6.756  1.00  0.00     0.029 A 
ATOM     64  C   UNL     1      -5.706 -17.144  -7.031  1.00  0.00     0.049 A 
ATOM     65  H   UNL     1      -6.832 -16.095  -5.587  1.00  0.00     0.167 HD
ATOM     66  C   UNL     1      -6.164 -15.082  -8.363  1.00  0.00     0.074 A 
ATOM     67  C   UNL     1      -6.275 -14.049  -7.330  1.00  0.00     0.031 C 
ATOM     68  C   UNL     1      -5.925 -16.427  -8.274  1.00  0.00     0.031 A 
BRANCH  55  69
ATOM     69  C   UNL     1      -5.421 -15.471  -2.958  1.00  0.00    -0.014 A 
ATOM     70  C   UNL     1      -6.630 -16.071  -2.551  1.00  0.00     0.010 A 
ATOM     71  C   UNL     1      -5.219 -14.125  -2.590  1.00  0.00     0.010 A 
ATOM     72  C   UNL     1      -7.618 -15.337  -1.884  1.00  0.00     0.020 A 
ATOM     73  C   UNL     1      -6.179 -13.396  -1.885  1.00  0.00     0.020 A 
ATOM     74  C   UNL     1      -7.390 -13.998  -1.571  1.00  0.00     0.054 A 
BRANCH  74  75
ATOM     75  S   UNL     1      -8.718 -13.027  -0.820  1.00  0.00     0.124 S 
ATOM     76  O   UNL     1      -9.711 -13.000  -1.889  1.00  0.00    -0.237 OA
ATOM     77  O   UNL     1      -9.065 -13.831   0.349  1.00  0.00    -0.237 OA
ATOM     78  O   UNL     1      -8.081 -11.746  -0.523  1.00  0.00    -0.744 OA
ENDBRANCH  74  75
ENDBRANCH  55  69
BRANCH  56  79
ATOM     79  C   UNL     1      -4.702 -10.947 -10.207  1.00  0.00    -0.014 A 
ATOM     80  C   UNL     1      -5.922 -10.418 -10.670  1.00  0.00     0.010 A 
ATOM     81  C   UNL     1      -3.684 -10.027  -9.873  1.00  0.00     0.010 A 
ATOM     82  C   UNL     1      -6.130  -9.024 -10.746  1.00  0.00     0.020 A 
ATOM     83  C   UNL     1      -3.881  -8.642  -9.949  1.00  0.00     0.020 A 
ATOM     84  C   UNL     1      -5.112  -8.144 -10.365  1.00  0.00     0.054 A 
BRANCH  84  85
ATOM     85  S   UNL     1      -5.436  -6.354 -10.298  1.00  0.00     0.124 S 
ATOM     86  O   UNL     1      -5.554  -6.005 -11.711  1.00  0.00    -0.237 OA
ATOM     87  O   UNL     1      -6.673  -6.282  -9.524  1.00  0.00    -0.237 OA
ATOM     88  O   UNL     1      -4.257  -5.814  -9.623  1.00  0.00    -0.744 OA
ENDBRANCH  84  85
ENDBRANCH  56  79
BRANCH  68  89
ATOM     89  C   UNL     1      -5.640 -17.204  -9.544  1.00  0.00    -0.014 A 
ATOM     90  C   UNL     1      -4.534 -16.963 -10.385  1.00  0.00     0.010 A 
ATOM     91  C   UNL     1      -6.426 -18.343  -9.793  1.00  0.00     0.010 A 
ATOM     92  C   UNL     1      -4.241 -17.823 -11.457  1.00  0.00     0.020 A 
ATOM     93  C   UNL     1      -6.130 -19.213 -10.846  1.00  0.00     0.020 A 
ATOM     94  C   UNL     1      -5.045 -18.945 -11.680  1.00  0.00     0.054 A 
BRANCH  94  95
ATOM     95  S   UNL     1      -4.649 -20.077 -13.044  1.00  0.00     0.124 S 
ATOM     96  O   UNL     1      -4.931 -19.264 -14.223  1.00  0.00    -0.237 OA
ATOM     97  O   UNL     1      -3.239 -20.384 -12.814  1.00  0.00    -0.237 OA
ATOM     98  O   UNL     1      -5.560 -21.203 -12.837  1.00  0.00    -0.744 OA
ENDBRANCH  94  95
ENDBRANCH  68  89
ENDBRANCH  42  43
ENDBRANCH  34  37
ENDBRANCH  32  33
ENDBRANCH  31  32
ENDBRANCH  30  31
ENDBRANCH   1  30
TORSDOF 20
