REMARK SMILES C[C@@H]1C[N@H+]2CCC[C@@H]2CN1C(=O)N1CC(C(=O)NCCCCCCNC(=O)c2ccc(-c3c4nc(c(-c5ccc(S(=O)(=O)[O-])cc5)c5ccc([nH]5)c(-c5ccc(S(=O)(=O)[O-])cc5)c5nc(c(-c6ccc(S(=O)(=O)[O-])cc6)c6ccc3[nH]6)C=C5)C=C4)cc2)C1
REMARK SMILES IDX 22 1 21 2 20 3 19 4 18 5 16 6 17 7 15 9 11 10 12 11 13 12
REMARK SMILES IDX 14 13 88 14 10 15 1 16 2 17 3 18 4 19 9 20 5 21 8 22 6 24
REMARK SMILES IDX 7 25 23 26 24 27 25 28 26 29 27 31 28 32 29 33 87 34 30 35
REMARK SMILES IDX 86 36 31 37 32 38 33 39 80 40 34 41 85 42 79 43 81 44 35 45
REMARK SMILES IDX 84 46 78 47 77 48 36 50 66 51 47 52 65 53 48 54 51 55 64 56
REMARK SMILES IDX 82 57 49 58 50 59 63 61 83 62 52 63 37 64 38 65 46 66 39 67
REMARK SMILES IDX 45 68 40 69 41 70 42 71 43 72 44 73 67 74 68 75 76 76 69 77
REMARK SMILES IDX 75 78 70 79 71 80 72 81 73 82 74 83 53 84 54 85 62 86 55 87
REMARK SMILES IDX 61 88 56 89 57 90 58 91 59 92 60 93
REMARK H PARENT 18 8 4 23 25 30 81 49 51 60
REMARK Flexibility Score: inf
ROOT
ATOM      1  C   UNL     1       4.327  -3.074  -3.996  1.00  0.00     0.002 C 
ENDROOT
BRANCH   1   2
ATOM      2  C   UNL     1       4.198  -3.586  -2.557  1.00  0.00     0.002 C 
BRANCH   2   3
ATOM      3  C   UNL     1       3.244  -2.784  -1.663  1.00  0.00     0.021 C 
BRANCH   3   4
ATOM      4  C   UNL     1       1.815  -2.694  -2.199  1.00  0.00     0.116 C 
BRANCH   4   5
ATOM      5  N   UNL     1       1.165  -3.990  -2.152  1.00  0.00    -0.356 N 
ATOM      6  C   UNL     1       0.064  -4.425  -1.459  1.00  0.00     0.226 C 
ATOM      7  O   UNL     1      -0.202  -5.631  -1.577  1.00  0.00    -0.275 OA
ATOM      8  H   UNL     1       1.588  -4.677  -2.716  1.00  0.00     0.163 HD
BRANCH   6   9
ATOM      9  C   UNL     1      -0.806  -3.485  -0.621  1.00  0.00     0.117 C 
ATOM     10  C   UNL     1      -1.663  -0.469   0.447  1.00  0.00     0.320 C 
ATOM     11  O   UNL     1      -2.854  -0.301   0.183  1.00  0.00    -0.248 OA
ATOM     12  N   UNL     1      -0.951  -1.464  -0.168  1.00  0.00    -0.323 N 
ATOM     13  C   UNL     1      -1.428  -2.265  -1.292  1.00  0.00     0.136 C 
ATOM     14  C   UNL     1      -0.220  -2.567   0.453  1.00  0.00     0.136 C 
BRANCH  10  15
ATOM     15  N   UNL     1      -0.981   0.346   1.328  1.00  0.00    -0.310 N 
ATOM     16  C   UNL     1       0.930  -0.221   2.807  1.00  0.00     0.037 C 
ATOM     17  C   UNL     1       0.498   0.420   1.483  1.00  0.00     0.139 C 
ATOM     18  C   UNL     1       1.028   1.887   1.336  1.00  0.00     0.287 C 
ATOM     19  N   UNL     1       0.248   2.833   2.137  1.00  0.00    -0.329 N 
ATOM     20  C   UNL     1      -1.742   1.386   2.050  1.00  0.00     0.186 C 
ATOM     21  C   UNL     1       0.631   4.236   1.997  1.00  0.00     0.262 C 
ATOM     22  C   UNL     1      -1.167   2.765   1.728  1.00  0.00     0.204 C 
ATOM     23  H   UNL     1       0.420   2.551   3.102  1.00  0.00     0.348 HD
ATOM     24  C   UNL     1      -0.660   5.007   2.298  1.00  0.00     0.068 C 
ATOM     25  C   UNL     1      -1.734   3.938   2.500  1.00  0.00     0.073 C 
ENDBRANCH  10  15
ENDBRANCH   6   9
ENDBRANCH   4   5
ENDBRANCH   3   4
ENDBRANCH   2   3
ENDBRANCH   1   2
BRANCH   1  26
ATOM     26  C   UNL     1       4.699  -1.595  -4.128  1.00  0.00     0.021 C 
BRANCH  26  27
ATOM     27  C   UNL     1       6.008  -1.206  -3.450  1.00  0.00     0.116 C 
BRANCH  27  28
ATOM     28  N   UNL     1       7.153  -1.874  -4.047  1.00  0.00    -0.352 N 
ATOM     29  C   UNL     1       8.309  -1.330  -4.547  1.00  0.00     0.251 C 
ATOM     30  H   UNL     1       7.090  -2.855  -4.101  1.00  0.00     0.163 HD
ATOM     31  O   UNL     1       9.085  -2.031  -5.196  1.00  0.00    -0.269 OA
BRANCH  29  32
ATOM     32  C   UNL     1       8.613   0.100  -4.322  1.00  0.00     0.039 A 
ATOM     33  C   UNL     1       9.111   0.862  -5.381  1.00  0.00     0.014 A 
ATOM     34  C   UNL     1       8.416   0.686  -3.068  1.00  0.00     0.014 A 
ATOM     35  C   UNL     1       9.366   2.222  -5.195  1.00  0.00     0.010 A 
ATOM     36  C   UNL     1       8.594   2.057  -2.907  1.00  0.00     0.010 A 
ATOM     37  C   UNL     1       9.084   2.838  -3.964  1.00  0.00    -0.014 A 
BRANCH  37  38
ATOM     38  C   UNL     1       9.313   4.293  -3.762  1.00  0.00     0.031 A 
ATOM     39  C   UNL     1      10.322   4.765  -2.748  1.00  0.00     0.074 A 
ATOM     40  C   UNL     1       8.582   5.189  -4.454  1.00  0.00     0.049 A 
ATOM     41  N   UNL     1      10.636   5.989  -2.406  1.00  0.00    -0.248 NA
ATOM     42  C   UNL     1      11.055   3.728  -2.003  1.00  0.00     0.031 C 
ATOM     43  C   UNL     1       7.548   4.861  -5.438  1.00  0.00     0.029 A 
ATOM     44  N   UNL     1       8.596   6.562  -4.435  1.00  0.00    -0.354 N 
ATOM     45  C   UNL     1      11.590   5.868  -1.401  1.00  0.00     0.074 A 
ATOM     46  C   UNL     1      11.758   4.454  -1.147  1.00  0.00     0.031 C 
ATOM     47  C   UNL     1       7.053   5.998  -5.952  1.00  0.00     0.029 A 
ATOM     48  C   UNL     1       7.700   7.136  -5.306  1.00  0.00     0.049 A 
ATOM     49  H   UNL     1       9.192   7.086  -3.853  1.00  0.00     0.167 HD
ATOM     50  C   UNL     1      12.281   6.843  -0.763  1.00  0.00     0.031 A 
ATOM     51  C   UNL     1       7.426   8.431  -5.556  1.00  0.00     0.031 A 
ATOM     52  C   UNL     1      12.116   8.248  -1.023  1.00  0.00     0.049 A 
ATOM     53  C   UNL     1       8.192   9.497  -4.821  1.00  0.00     0.074 A 
ATOM     54  C   UNL     1      12.803   9.312  -0.466  1.00  0.00     0.029 A 
ATOM     55  N   UNL     1      11.197   8.787  -1.911  1.00  0.00    -0.354 N 
ATOM     56  N   UNL     1       9.136   9.361  -3.920  1.00  0.00    -0.248 NA
ATOM     57  C   UNL     1       7.865  10.892  -5.147  1.00  0.00     0.031 C 
ATOM     58  C   UNL     1      12.258  10.497  -0.972  1.00  0.00     0.029 A 
ATOM     59  C   UNL     1      11.280  10.169  -1.897  1.00  0.00     0.049 A 
ATOM     60  H   UNL     1      10.577   8.264  -2.469  1.00  0.00     0.167 HD
ATOM     61  C   UNL     1       9.538  10.652  -3.595  1.00  0.00     0.074 A 
ATOM     62  C   UNL     1       8.744  11.553  -4.406  1.00  0.00     0.031 C 
ATOM     63  C   UNL     1      10.481  11.055  -2.708  1.00  0.00     0.031 A 
BRANCH  50  64
ATOM     64  C   UNL     1      13.274   6.417   0.289  1.00  0.00    -0.014 A 
ATOM     65  C   UNL     1      14.449   5.723  -0.055  1.00  0.00     0.010 A 
ATOM     66  C   UNL     1      13.044   6.740   1.639  1.00  0.00     0.010 A 
ATOM     67  C   UNL     1      15.348   5.317   0.934  1.00  0.00     0.020 A 
ATOM     68  C   UNL     1      13.958   6.365   2.628  1.00  0.00     0.020 A 
ATOM     69  C   UNL     1      15.095   5.638   2.271  1.00  0.00     0.054 A 
BRANCH  69  70
ATOM     70  S   UNL     1      16.285   5.106   3.532  1.00  0.00     0.124 S 
ATOM     71  O   UNL     1      16.056   3.664   3.572  1.00  0.00    -0.237 OA
ATOM     72  O   UNL     1      17.563   5.524   2.961  1.00  0.00    -0.237 OA
ATOM     73  O   UNL     1      15.872   5.835   4.729  1.00  0.00    -0.744 OA
ENDBRANCH  69  70
ENDBRANCH  50  64
BRANCH  51  74
ATOM     74  C   UNL     1       6.390   8.790  -6.565  1.00  0.00    -0.014 A 
ATOM     75  C   UNL     1       6.756   9.382  -7.787  1.00  0.00     0.010 A 
ATOM     76  C   UNL     1       5.031   8.527  -6.314  1.00  0.00     0.010 A 
ATOM     77  C   UNL     1       5.782   9.720  -8.731  1.00  0.00     0.020 A 
ATOM     78  C   UNL     1       4.057   8.835  -7.268  1.00  0.00     0.020 A 
ATOM     79  C   UNL     1       4.439   9.440  -8.467  1.00  0.00     0.054 A 
BRANCH  79  80
ATOM     80  S   UNL     1       3.198   9.836  -9.731  1.00  0.00     0.124 S 
ATOM     81  O   UNL     1       3.157  11.294  -9.669  1.00  0.00    -0.237 OA
ATOM     82  O   UNL     1       3.790   9.269 -10.940  1.00  0.00    -0.237 OA
ATOM     83  O   UNL     1       1.997   9.154  -9.256  1.00  0.00    -0.744 OA
ENDBRANCH  79  80
ENDBRANCH  51  74
BRANCH  63  84
ATOM     84  C   UNL     1      10.740  12.535  -2.592  1.00  0.00    -0.014 A 
ATOM     85  C   UNL     1       9.803  13.400  -2.000  1.00  0.00     0.010 A 
ATOM     86  C   UNL     1      11.969  13.058  -3.037  1.00  0.00     0.010 A 
ATOM     87  C   UNL     1      10.076  14.766  -1.886  1.00  0.00     0.020 A 
ATOM     88  C   UNL     1      12.259  14.417  -2.896  1.00  0.00     0.020 A 
ATOM     89  C   UNL     1      11.303  15.266  -2.334  1.00  0.00     0.054 A 
BRANCH  89  90
ATOM     90  S   UNL     1      11.649  17.035  -2.137  1.00  0.00     0.124 S 
ATOM     91  O   UNL     1      10.775  17.630  -3.144  1.00  0.00    -0.237 OA
ATOM     92  O   UNL     1      11.268  17.282  -0.748  1.00  0.00    -0.237 OA
ATOM     93  O   UNL     1      13.080  17.142  -2.412  1.00  0.00    -0.744 OA
ENDBRANCH  89  90
ENDBRANCH  63  84
ENDBRANCH  37  38
ENDBRANCH  29  32
ENDBRANCH  27  28
ENDBRANCH  26  27
ENDBRANCH   1  26
TORSDOF 17
