REMARK SMILES Cc1ccc(-c2cc(Cl)ccc2Cl)c(C(=O)NCCCCCCNC(=O)c2ccc(-c3c4nc(c(-c5ccc(S(=O)(=O)[O-])cc5)c5ccc([nH]5)c(-c5ccc(S(=O)(=O)[O-])cc5)c5nc(c(-c6ccc(S(=O)(=O)[O-])cc6)c6ccc3[nH]6)C=C5)C=C4)cc2)c1
REMARK SMILES IDX 21 1 20 2 19 3 18 4 17 5 15 6 16 7 14 9 1 10 2 11 3 12 87 13
REMARK SMILES IDX 4 14 5 15 6 16 7 17 12 18 8 19 11 20 13 21 9 22 10 23 22 24
REMARK SMILES IDX 23 25 24 26 25 27 26 29 27 30 28 31 86 32 29 33 85 34 30 35
REMARK SMILES IDX 31 36 32 37 79 38 33 39 84 40 78 41 80 42 34 43 83 44 77 45
REMARK SMILES IDX 76 46 35 48 65 49 46 50 64 51 47 52 50 53 63 54 81 55 48 56
REMARK SMILES IDX 49 57 62 59 82 60 51 61 36 62 37 63 45 64 38 65 44 66 39 67
REMARK SMILES IDX 40 68 41 69 42 70 43 71 66 72 67 73 75 74 68 75 74 76 69 77
REMARK SMILES IDX 70 78 71 79 72 80 73 81 52 82 53 83 61 84 54 85 60 86 55 87
REMARK SMILES IDX 56 88 57 89 58 90 59 91
REMARK H PARENT 17 8 24 28 80 47 50 58
REMARK Flexibility Score: inf
ROOT
ATOM      1  C   UNL     1       0.548   7.047   0.170  1.00  0.00     0.002 C 
ENDROOT
BRANCH   1   2
ATOM      2  C   UNL     1       0.315   6.096  -1.015  1.00  0.00     0.002 C 
BRANCH   2   3
ATOM      3  C   UNL     1       0.747   4.635  -0.808  1.00  0.00     0.021 C 
BRANCH   3   4
ATOM      4  C   UNL     1       0.179   3.985   0.457  1.00  0.00     0.116 C 
BRANCH   4   5
ATOM      5  N   UNL     1      -1.189   3.558   0.251  1.00  0.00    -0.352 N 
ATOM      6  C   UNL     1      -1.825   2.368   0.019  1.00  0.00     0.251 C 
ATOM      7  O   UNL     1      -3.052   2.467  -0.029  1.00  0.00    -0.269 OA
ATOM      8  H   UNL     1      -1.820   4.313   0.286  1.00  0.00     0.163 HD
BRANCH   6   9
ATOM      9  C   UNL     1      -1.148   1.021  -0.120  1.00  0.00     0.047 A 
ATOM     10  C   UNL     1       2.407  -0.397  -0.322  1.00  0.00     0.044 C 
ATOM     11  C   UNL     1       0.908  -0.327  -0.246  1.00  0.00    -0.050 A 
ATOM     12  C   UNL     1       0.164  -1.493  -0.110  1.00  0.00     0.004 A 
ATOM     13  C   UNL     1       0.240   0.906  -0.310  1.00  0.00     0.018 A 
ATOM     14  C   UNL     1      -1.226  -1.422  -0.049  1.00  0.00     0.010 A 
ATOM     15  C   UNL     1      -1.908  -0.183  -0.048  1.00  0.00    -0.004 A 
BRANCH  15  16
ATOM     16  C   UNL     1      -3.388  -0.232  -0.031  1.00  0.00     0.003 A 
ATOM     17  C   UNL     1      -4.094   0.145  -1.195  1.00  0.00     0.030 A 
ATOM     18  C   UNL     1      -4.139  -0.631   1.092  1.00  0.00     0.049 A 
ATOM     19  C   UNL     1      -5.488   0.185  -1.209  1.00  0.00     0.041 A 
ATOM     20  C   UNL     1      -5.540  -0.620   1.059  1.00  0.00     0.023 A 
ATOM     21  Cl  UNL     1      -3.390  -1.143   2.567  1.00  0.00    -0.084 Cl
ATOM     22  Cl  UNL     1      -6.316   0.729  -2.616  1.00  0.00    -0.084 Cl
ATOM     23  C   UNL     1      -6.214  -0.199  -0.087  1.00  0.00     0.022 A 
ENDBRANCH  15  16
ENDBRANCH   6   9
ENDBRANCH   4   5
ENDBRANCH   3   4
ENDBRANCH   2   3
ENDBRANCH   1   2
BRANCH   1  24
ATOM     24  C   UNL     1       1.916   6.952   0.848  1.00  0.00     0.021 C 
BRANCH  24  25
ATOM     25  C   UNL     1       3.053   7.488  -0.011  1.00  0.00     0.116 C 
BRANCH  25  26
ATOM     26  N   UNL     1       3.728   8.616   0.616  1.00  0.00    -0.352 N 
ATOM     27  C   UNL     1       4.948   9.178   0.262  1.00  0.00     0.251 C 
ATOM     28  H   UNL     1       3.266   9.029   1.381  1.00  0.00     0.163 HD
ATOM     29  O   UNL     1       5.598   9.890   0.983  1.00  0.00    -0.269 OA
BRANCH  27  30
ATOM     30  C   UNL     1       5.339   8.975  -1.149  1.00  0.00     0.039 A 
ATOM     31  C   UNL     1       5.125  10.052  -2.018  1.00  0.00     0.014 A 
ATOM     32  C   UNL     1       5.570   7.686  -1.618  1.00  0.00     0.014 A 
ATOM     33  C   UNL     1       4.966   9.802  -3.374  1.00  0.00     0.010 A 
ATOM     34  C   UNL     1       5.321   7.429  -2.949  1.00  0.00     0.010 A 
ATOM     35  C   UNL     1       4.972   8.478  -3.811  1.00  0.00    -0.014 A 
BRANCH  35  36
ATOM     36  C   UNL     1       4.574   8.078  -5.151  1.00  0.00     0.031 A 
ATOM     37  C   UNL     1       5.623   7.746  -6.137  1.00  0.00     0.074 A 
ATOM     38  C   UNL     1       3.265   7.929  -5.457  1.00  0.00     0.049 A 
ATOM     39  N   UNL     1       5.457   7.796  -7.414  1.00  0.00    -0.248 NA
ATOM     40  C   UNL     1       6.979   7.359  -5.750  1.00  0.00     0.031 C 
ATOM     41  C   UNL     1       2.713   7.295  -6.652  1.00  0.00     0.029 A 
ATOM     42  N   UNL     1       2.148   8.505  -4.844  1.00  0.00    -0.354 N 
ATOM     43  C   UNL     1       6.530   7.157  -7.989  1.00  0.00     0.074 A 
ATOM     44  C   UNL     1       7.491   6.986  -6.926  1.00  0.00     0.031 C 
ATOM     45  C   UNL     1       1.471   7.764  -6.849  1.00  0.00     0.029 A 
ATOM     46  C   UNL     1       1.265   8.833  -5.887  1.00  0.00     0.049 A 
ATOM     47  H   UNL     1       2.009   8.652  -3.880  1.00  0.00     0.167 HD
ATOM     48  C   UNL     1       6.431   6.698  -9.268  1.00  0.00     0.031 A 
ATOM     49  C   UNL     1       0.918  10.117  -6.205  1.00  0.00     0.031 A 
ATOM     50  C   UNL     1       5.148   7.055  -9.871  1.00  0.00     0.049 A 
ATOM     51  C   UNL     1       1.283  10.508  -7.633  1.00  0.00     0.074 A 
ATOM     52  C   UNL     1       3.977   6.359 -10.124  1.00  0.00     0.029 A 
ATOM     53  N   UNL     1       4.833   8.398 -10.019  1.00  0.00    -0.354 N 
ATOM     54  N   UNL     1       1.981   9.769  -8.452  1.00  0.00    -0.248 NA
ATOM     55  C   UNL     1       0.960  11.807  -8.220  1.00  0.00     0.031 C 
ATOM     56  C   UNL     1       2.952   7.302 -10.418  1.00  0.00     0.029 A 
ATOM     57  C   UNL     1       3.506   8.567 -10.367  1.00  0.00     0.049 A 
ATOM     58  H   UNL     1       5.473   9.136  -9.893  1.00  0.00     0.167 HD
ATOM     59  C   UNL     1       2.239  10.454  -9.615  1.00  0.00     0.074 A 
ATOM     60  C   UNL     1       1.576  11.731  -9.415  1.00  0.00     0.031 C 
ATOM     61  C   UNL     1       3.008   9.917 -10.615  1.00  0.00     0.031 A 
BRANCH  48  62
ATOM     62  C   UNL     1       7.393   5.690  -9.852  1.00  0.00    -0.014 A 
ATOM     63  C   UNL     1       6.923   4.737 -10.778  1.00  0.00     0.010 A 
ATOM     64  C   UNL     1       8.754   5.601  -9.501  1.00  0.00     0.010 A 
ATOM     65  C   UNL     1       7.734   3.695 -11.250  1.00  0.00     0.020 A 
ATOM     66  C   UNL     1       9.568   4.542  -9.935  1.00  0.00     0.020 A 
ATOM     67  C   UNL     1       9.047   3.586 -10.802  1.00  0.00     0.054 A 
BRANCH  67  68
ATOM     68  S   UNL     1      10.053   2.187 -11.365  1.00  0.00     0.124 S 
ATOM     69  O   UNL     1       9.243   1.037 -10.971  1.00  0.00    -0.237 OA
ATOM     70  O   UNL     1      10.149   2.428 -12.802  1.00  0.00    -0.237 OA
ATOM     71  O   UNL     1      11.304   2.339 -10.624  1.00  0.00    -0.744 OA
ENDBRANCH  67  68
ENDBRANCH  48  62
BRANCH  49  72
ATOM     72  C   UNL     1       0.895  11.049  -5.038  1.00  0.00    -0.014 A 
ATOM     73  C   UNL     1      -0.101  10.849  -4.057  1.00  0.00     0.010 A 
ATOM     74  C   UNL     1       2.031  11.804  -4.701  1.00  0.00     0.010 A 
ATOM     75  C   UNL     1       0.111  11.242  -2.731  1.00  0.00     0.020 A 
ATOM     76  C   UNL     1       2.241  12.207  -3.373  1.00  0.00     0.020 A 
ATOM     77  C   UNL     1       1.311  11.863  -2.387  1.00  0.00     0.054 A 
BRANCH  77  78
ATOM     78  S   UNL     1       1.714  12.044  -0.621  1.00  0.00     0.124 S 
ATOM     79  O   UNL     1       0.659  12.935  -0.150  1.00  0.00    -0.237 OA
ATOM     80  O   UNL     1       1.635  10.665  -0.139  1.00  0.00    -0.237 OA
ATOM     81  O   UNL     1       3.058  12.611  -0.641  1.00  0.00    -0.744 OA
ENDBRANCH  77  78
ENDBRANCH  49  72
BRANCH  61  82
ATOM     82  C   UNL     1       3.428  10.581 -11.921  1.00  0.00    -0.014 A 
ATOM     83  C   UNL     1       2.806  11.693 -12.501  1.00  0.00     0.010 A 
ATOM     84  C   UNL     1       4.501  10.014 -12.662  1.00  0.00     0.010 A 
ATOM     85  C   UNL     1       3.284  12.261 -13.698  1.00  0.00     0.020 A 
ATOM     86  C   UNL     1       4.982  10.560 -13.855  1.00  0.00     0.020 A 
ATOM     87  C   UNL     1       4.377  11.698 -14.359  1.00  0.00     0.054 A 
BRANCH  87  88
ATOM     88  S   UNL     1       4.979  12.456 -15.887  1.00  0.00     0.124 S 
ATOM     89  O   UNL     1       3.814  12.353 -16.763  1.00  0.00    -0.237 OA
ATOM     90  O   UNL     1       5.316  13.808 -15.448  1.00  0.00    -0.237 OA
ATOM     91  O   UNL     1       6.118  11.626 -16.268  1.00  0.00    -0.744 OA
ENDBRANCH  87  88
ENDBRANCH  61  82
ENDBRANCH  35  36
ENDBRANCH  27  30
ENDBRANCH  25  26
ENDBRANCH  24  25
ENDBRANCH   1  24
TORSDOF 17
