REMARK SMILES C[C@H]1[NH2+]CC[C@H]1C(=O)N1CCC(C(=O)NCCCCCCNC(=O)c2ccc(-c3c4nc(c(-c5ccc(S(=O)(=O)[O-])cc5)c5ccc([nH]5)c(-c5ccc(S(=O)(=O)[O-])cc5)c5nc(c(-c6ccc(S(=O)(=O)[O-])cc6)c6ccc3[nH]6)C=C5)C=C4)cc2)CC1
REMARK SMILES IDX 19 1 18 2 17 3 16 4 15 5 13 6 14 7 12 9 7 10 8 11 9 12 10 13
REMARK SMILES IDX 86 14 11 15 85 16 6 17 1 18 2 19 3 20 4 21 5 24 20 25 21 26
REMARK SMILES IDX 22 27 23 28 24 30 25 31 26 32 84 33 27 34 83 35 28 36 29 37
REMARK SMILES IDX 30 38 77 39 31 40 82 41 76 42 78 43 32 44 81 45 75 46 74 47
REMARK SMILES IDX 33 49 63 50 44 51 62 52 45 53 48 54 61 55 79 56 46 57 47 58
REMARK SMILES IDX 60 60 80 61 49 62 34 63 35 64 43 65 36 66 42 67 37 68 38 69
REMARK SMILES IDX 39 70 40 71 41 72 64 73 65 74 73 75 66 76 72 77 67 78 68 79
REMARK SMILES IDX 69 80 70 81 71 82 50 83 51 84 59 85 52 86 58 87 53 88 54 89
REMARK SMILES IDX 55 90 56 91 57 92
REMARK H PARENT 15 8 3 22 3 23 22 29 78 48 48 59
REMARK Flexibility Score: inf
ROOT
ATOM      1  C   UNL     1       6.342   6.853  -1.530  1.00  0.00     0.002 C 
ENDROOT
BRANCH   1   2
ATOM      2  C   UNL     1       5.375   7.422  -0.486  1.00  0.00     0.002 C 
BRANCH   2   3
ATOM      3  C   UNL     1       4.157   6.538  -0.198  1.00  0.00     0.021 C 
BRANCH   3   4
ATOM      4  C   UNL     1       4.527   5.135   0.276  1.00  0.00     0.116 C 
BRANCH   4   5
ATOM      5  N   UNL     1       5.110   5.190   1.608  1.00  0.00    -0.356 N 
ATOM      6  C   UNL     1       4.639   4.744   2.802  1.00  0.00     0.223 C 
ATOM      7  O   UNL     1       5.284   5.017   3.818  1.00  0.00    -0.275 OA
ATOM      8  H   UNL     1       5.993   5.622   1.651  1.00  0.00     0.163 HD
BRANCH   6   9
ATOM      9  C   UNL     1       3.400   3.867   2.891  1.00  0.00     0.082 C 
ATOM     10  C   UNL     1       1.068   2.268   0.149  1.00  0.00     0.231 C 
ATOM     11  O   UNL     1       1.426   3.145  -0.639  1.00  0.00    -0.274 OA
ATOM     12  N   UNL     1       1.338   2.382   1.506  1.00  0.00    -0.342 N 
ATOM     13  C   UNL     1       0.951   3.598   2.209  1.00  0.00     0.120 C 
ATOM     14  C   UNL     1       2.445   1.666   2.105  1.00  0.00     0.120 C 
ATOM     15  C   UNL     1       2.110   4.566   2.440  1.00  0.00     0.035 C 
ATOM     16  C   UNL     1       3.685   2.531   2.202  1.00  0.00     0.035 C 
BRANCH  10  17
ATOM     17  C   UNL     1       0.139   1.126  -0.296  1.00  0.00     0.142 C 
ATOM     18  C   UNL     1       1.786  -0.898   0.108  1.00  0.00     0.076 C 
ATOM     19  C   UNL     1       0.652  -0.265  -0.682  1.00  0.00     0.192 C 
ATOM     20  N   UNL     1      -0.531  -1.147  -0.575  1.00  0.00    -0.343 N 
ATOM     21  C   UNL     1      -1.560  -0.484   0.220  1.00  0.00     0.261 C 
ATOM     22  H   UNL     1      -0.263  -2.021  -0.123  1.00  0.00     0.346 HD
ATOM     23  H   UNL     1      -0.895  -1.343  -1.507  1.00  0.00     0.346 HD
ATOM     24  C   UNL     1      -0.997   0.847   0.675  1.00  0.00     0.081 C 
ENDBRANCH  10  17
ENDBRANCH   6   9
ENDBRANCH   4   5
ENDBRANCH   3   4
ENDBRANCH   2   3
ENDBRANCH   1   2
BRANCH   1  25
ATOM     25  C   UNL     1       5.695   6.487  -2.867  1.00  0.00     0.021 C 
BRANCH  25  26
ATOM     26  C   UNL     1       4.959   7.638  -3.541  1.00  0.00     0.116 C 
BRANCH  26  27
ATOM     27  N   UNL     1       5.854   8.740  -3.858  1.00  0.00    -0.352 N 
ATOM     28  C   UNL     1       6.064   9.359  -5.064  1.00  0.00     0.251 C 
ATOM     29  H   UNL     1       6.382   9.090  -3.104  1.00  0.00     0.163 HD
ATOM     30  O   UNL     1       7.010  10.130  -5.208  1.00  0.00    -0.269 OA
BRANCH  28  31
ATOM     31  C   UNL     1       5.153   9.075  -6.190  1.00  0.00     0.039 A 
ATOM     32  C   UNL     1       5.692   8.795  -7.448  1.00  0.00     0.014 A 
ATOM     33  C   UNL     1       3.769   9.066  -5.995  1.00  0.00     0.014 A 
ATOM     34  C   UNL     1       4.841   8.449  -8.499  1.00  0.00     0.010 A 
ATOM     35  C   UNL     1       2.931   8.646  -7.022  1.00  0.00     0.010 A 
ATOM     36  C   UNL     1       3.457   8.338  -8.286  1.00  0.00    -0.014 A 
BRANCH  36  37
ATOM     37  C   UNL     1       2.539   7.903  -9.369  1.00  0.00     0.031 A 
ATOM     38  C   UNL     1       1.470   8.837  -9.869  1.00  0.00     0.074 A 
ATOM     39  C   UNL     1       2.622   6.647  -9.850  1.00  0.00     0.049 A 
ATOM     40  N   UNL     1       0.527   8.614 -10.748  1.00  0.00    -0.248 NA
ATOM     41  C   UNL     1       1.442  10.189  -9.287  1.00  0.00     0.031 C 
ATOM     42  C   UNL     1       3.593   5.636  -9.421  1.00  0.00     0.029 A 
ATOM     43  N   UNL     1       1.870   6.000 -10.799  1.00  0.00    -0.354 N 
ATOM     44  C   UNL     1      -0.216   9.787 -10.809  1.00  0.00     0.074 A 
ATOM     45  C   UNL     1       0.354  10.701  -9.845  1.00  0.00     0.031 C 
ATOM     46  C   UNL     1       3.391   4.508 -10.120  1.00  0.00     0.029 A 
ATOM     47  C   UNL     1       2.249   4.694 -11.009  1.00  0.00     0.049 A 
ATOM     48  H   UNL     1       1.129   6.430 -11.284  1.00  0.00     0.167 HD
ATOM     49  C   UNL     1      -1.268  10.082 -11.609  1.00  0.00     0.031 A 
ATOM     50  C   UNL     1       1.728   3.748 -11.815  1.00  0.00     0.031 A 
ATOM     51  C   UNL     1      -1.827   9.170 -12.572  1.00  0.00     0.049 A 
ATOM     52  C   UNL     1       0.544   4.093 -12.677  1.00  0.00     0.074 A 
ATOM     53  C   UNL     1      -2.856   9.393 -13.469  1.00  0.00     0.029 A 
ATOM     54  N   UNL     1      -1.409   7.861 -12.759  1.00  0.00    -0.354 N 
ATOM     55  N   UNL     1      -0.103   5.230 -12.772  1.00  0.00    -0.248 NA
ATOM     56  C   UNL     1       0.026   3.030 -13.550  1.00  0.00     0.031 C 
ATOM     57  C   UNL     1      -3.103   8.200 -14.154  1.00  0.00     0.029 A 
ATOM     58  C   UNL     1      -2.180   7.254 -13.736  1.00  0.00     0.049 A 
ATOM     59  H   UNL     1      -0.673   7.427 -12.269  1.00  0.00     0.167 HD
ATOM     60  C   UNL     1      -1.084   5.029 -13.737  1.00  0.00     0.074 A 
ATOM     61  C   UNL     1      -0.937   3.666 -14.204  1.00  0.00     0.031 C 
ATOM     62  C   UNL     1      -2.019   5.897 -14.196  1.00  0.00     0.031 A 
BRANCH  49  63
ATOM     63  C   UNL     1      -1.894  11.446 -11.468  1.00  0.00    -0.014 A 
ATOM     64  C   UNL     1      -1.208  12.609 -11.865  1.00  0.00     0.010 A 
ATOM     65  C   UNL     1      -3.207  11.563 -10.976  1.00  0.00     0.010 A 
ATOM     66  C   UNL     1      -1.807  13.864 -11.733  1.00  0.00     0.020 A 
ATOM     67  C   UNL     1      -3.822  12.814 -10.872  1.00  0.00     0.020 A 
ATOM     68  C   UNL     1      -3.111  13.959 -11.237  1.00  0.00     0.054 A 
BRANCH  68  69
ATOM     69  S   UNL     1      -3.871  15.600 -11.103  1.00  0.00     0.124 S 
ATOM     70  O   UNL     1      -3.126  16.188  -9.993  1.00  0.00    -0.237 OA
ATOM     71  O   UNL     1      -3.606  16.183 -12.416  1.00  0.00    -0.237 OA
ATOM     72  O   UNL     1      -5.276  15.311 -10.825  1.00  0.00    -0.744 OA
ENDBRANCH  68  69
ENDBRANCH  49  63
BRANCH  50  73
ATOM     73  C   UNL     1       2.327   2.385 -11.845  1.00  0.00    -0.014 A 
ATOM     74  C   UNL     1       3.018   1.931 -12.982  1.00  0.00     0.010 A 
ATOM     75  C   UNL     1       2.222   1.536 -10.728  1.00  0.00     0.010 A 
ATOM     76  C   UNL     1       3.575   0.649 -13.010  1.00  0.00     0.020 A 
ATOM     77  C   UNL     1       2.804   0.265 -10.739  1.00  0.00     0.020 A 
ATOM     78  C   UNL     1       3.467  -0.175 -11.886  1.00  0.00     0.054 A 
BRANCH  78  79
ATOM     79  S   UNL     1       4.242  -1.815 -11.927  1.00  0.00     0.124 S 
ATOM     80  O   UNL     1       3.369  -2.541 -12.843  1.00  0.00    -0.237 OA
ATOM     81  O   UNL     1       5.581  -1.518 -12.429  1.00  0.00    -0.237 OA
ATOM     82  O   UNL     1       4.191  -2.253 -10.534  1.00  0.00    -0.744 OA
ENDBRANCH  78  79
ENDBRANCH  50  73
BRANCH  62  83
ATOM     83  C   UNL     1      -2.937   5.421 -15.292  1.00  0.00    -0.014 A 
ATOM     84  C   UNL     1      -3.950   4.479 -15.044  1.00  0.00     0.010 A 
ATOM     85  C   UNL     1      -2.826   5.986 -16.576  1.00  0.00     0.010 A 
ATOM     86  C   UNL     1      -4.821   4.093 -16.067  1.00  0.00     0.020 A 
ATOM     87  C   UNL     1      -3.714   5.627 -17.593  1.00  0.00     0.020 A 
ATOM     88  C   UNL     1      -4.700   4.673 -17.334  1.00  0.00     0.054 A 
BRANCH  88  89
ATOM     89  S   UNL     1      -5.882   4.200 -18.626  1.00  0.00     0.124 S 
ATOM     90  O   UNL     1      -5.458   2.839 -18.942  1.00  0.00    -0.237 OA
ATOM     91  O   UNL     1      -7.167   4.316 -17.941  1.00  0.00    -0.237 OA
ATOM     92  O   UNL     1      -5.654   5.184 -19.682  1.00  0.00    -0.744 OA
ENDBRANCH  88  89
ENDBRANCH  62  83
ENDBRANCH  36  37
ENDBRANCH  28  31
ENDBRANCH  26  27
ENDBRANCH  25  26
ENDBRANCH   1  25
TORSDOF 17
