REMARK SMILES O=C(NCCCCCCNC(=O)c1ccc(-c2c3nc(c(-c4ccc(S(=O)(=O)[O-])cc4)c4ccc([nH]4)c(-c4ccc(S(=O)(=O)[O-])cc4)c4nc(c(-c5ccc(S(=O)(=O)[O-])cc5)c5ccc2[nH]5)C=C4)C=C3)cc1)C1=Cc2cc(Cl)cc(-c3ccc(CO)cc3)c2O[C@@H]1C(F)(F)F
REMARK SMILES IDX 6 1 5 2 4 3 3 4 1 5 2 6 73 8 74 9 91 10 75 11 90 12 76 13
REMARK SMILES IDX 89 14 77 15 80 16 78 17 79 18 92 19 93 20 94 21 95 22 81 23
REMARK SMILES IDX 82 24 88 25 83 26 87 27 84 28 85 29 86 30 7 32 8 33 9 34
REMARK SMILES IDX 10 35 11 36 12 38 13 39 14 40 72 41 15 42 71 43 16 44 17 45
REMARK SMILES IDX 18 46 65 47 19 48 70 49 64 50 66 51 20 52 69 53 63 54 62 55
REMARK SMILES IDX 21 57 51 58 32 59 50 60 33 61 36 62 49 63 67 64 34 65 35 66
REMARK SMILES IDX 48 68 68 69 37 70 22 71 23 72 31 73 24 74 30 75 25 76 26 77
REMARK SMILES IDX 27 78 28 79 29 80 52 81 53 82 61 83 54 84 60 85 55 86 56 87
REMARK SMILES IDX 57 88 58 89 59 90 38 91 39 92 47 93 40 94 46 95 41 96 42 97
REMARK SMILES IDX 43 98 44 99 45 100
REMARK H PARENT 3 7 86 31 10 37 66 56 36 67
REMARK Flexibility Score: inf
ROOT
ATOM      1  C   UNL     1       3.955   0.871  -4.584  1.00  0.00     0.002 C 
ENDROOT
BRANCH   1   2
ATOM      2  C   UNL     1       4.254  -0.325  -3.676  1.00  0.00     0.021 C 
BRANCH   2   3
ATOM      3  C   UNL     1       3.974  -0.164  -2.184  1.00  0.00     0.116 C 
BRANCH   3   4
ATOM      4  N   UNL     1       2.629  -0.482  -1.736  1.00  0.00    -0.352 N 
ATOM      5  O   UNL     1       0.952  -0.869  -0.301  1.00  0.00    -0.270 OA
ATOM      6  C   UNL     1       2.165  -0.736  -0.473  1.00  0.00     0.251 C 
ATOM      7  H   UNL     1       1.950  -0.522  -2.447  1.00  0.00     0.163 HD
BRANCH   6   8
ATOM      8  C   UNL     1       3.050  -0.798   0.738  1.00  0.00     0.067 C 
ATOM      9  C   UNL     1       4.332  -1.202   0.704  1.00  0.00     0.025 C 
ATOM     10  C   UNL     1       2.718   0.300   1.732  1.00  0.00     0.314 C 
ATOM     11  C   UNL     1       5.254  -0.029   0.686  1.00  0.00     0.019 A 
ATOM     12  O   UNL     1       3.490   1.493   1.416  1.00  0.00    -0.475 OA
ATOM     13  C   UNL     1       6.540  -0.229   0.176  1.00  0.00     0.032 A 
ATOM     14  C   UNL     1       4.746   1.277   0.888  1.00  0.00     0.135 A 
ATOM     15  C   UNL     1       7.280   0.871  -0.235  1.00  0.00     0.042 A 
ATOM     16  C   UNL     1       5.471   2.386   0.420  1.00  0.00     0.026 A 
ATOM     17  Cl  UNL     1       8.781   0.627  -1.039  1.00  0.00    -0.084 Cl
ATOM     18  C   UNL     1       6.750   2.157  -0.132  1.00  0.00     0.033 A 
BRANCH  10  19
ATOM     19  C   UNL     1       2.881  -0.148   3.198  1.00  0.00     0.429 C 
ATOM     20  F   UNL     1       2.460   0.805   4.063  1.00  0.00    -0.167 F 
ATOM     21  F   UNL     1       2.145  -1.259   3.454  1.00  0.00    -0.167 F 
ATOM     22  F   UNL     1       4.161  -0.445   3.525  1.00  0.00    -0.167 F 
ENDBRANCH  10  19
BRANCH  16  23
ATOM     23  C   UNL     1       4.888   3.728   0.239  1.00  0.00    -0.015 A 
ATOM     24  C   UNL     1       4.033   3.964  -0.849  1.00  0.00     0.009 A 
ATOM     25  C   UNL     1       5.302   4.830   0.991  1.00  0.00     0.009 A 
ATOM     26  C   UNL     1       3.705   5.258  -1.259  1.00  0.00     0.007 A 
ATOM     27  C   UNL     1       4.934   6.131   0.616  1.00  0.00     0.007 A 
ATOM     28  C   UNL     1       4.161   6.359  -0.531  1.00  0.00    -0.023 A 
BRANCH  28  29
ATOM     29  C   UNL     1       3.861   7.753  -1.010  1.00  0.00     0.191 C 
BRANCH  29  30
ATOM     30  O   UNL     1       4.758   8.132  -2.045  1.00  0.00    -0.392 OA
ATOM     31  H   UNL     1       5.667   8.114  -1.708  1.00  0.00     0.211 HD
ENDBRANCH  29  30
ENDBRANCH  28  29
ENDBRANCH  16  23
ENDBRANCH   6   8
ENDBRANCH   3   4
ENDBRANCH   2   3
ENDBRANCH   1   2
BRANCH   1  32
ATOM     32  C   UNL     1       4.577   2.217  -4.200  1.00  0.00     0.002 C 
BRANCH  32  33
ATOM     33  C   UNL     1       6.085   2.245  -3.950  1.00  0.00     0.021 C 
BRANCH  33  34
ATOM     34  C   UNL     1       6.949   1.948  -5.168  1.00  0.00     0.116 C 
BRANCH  34  35
ATOM     35  N   UNL     1       6.728   2.886  -6.258  1.00  0.00    -0.352 N 
ATOM     36  C   UNL     1       7.614   3.666  -6.964  1.00  0.00     0.251 C 
ATOM     37  H   UNL     1       5.788   2.978  -6.537  1.00  0.00     0.163 HD
ATOM     38  O   UNL     1       7.187   4.508  -7.743  1.00  0.00    -0.269 OA
BRANCH  36  39
ATOM     39  C   UNL     1       9.075   3.506  -6.774  1.00  0.00     0.039 A 
ATOM     40  C   UNL     1       9.889   4.643  -6.795  1.00  0.00     0.014 A 
ATOM     41  C   UNL     1       9.649   2.247  -6.595  1.00  0.00     0.014 A 
ATOM     42  C   UNL     1      11.264   4.518  -6.577  1.00  0.00     0.010 A 
ATOM     43  C   UNL     1      10.996   2.135  -6.269  1.00  0.00     0.010 A 
ATOM     44  C   UNL     1      11.825   3.266  -6.276  1.00  0.00    -0.014 A 
BRANCH  44  45
ATOM     45  C   UNL     1      13.277   3.110  -6.004  1.00  0.00     0.031 A 
ATOM     46  C   UNL     1      14.114   2.217  -6.885  1.00  0.00     0.074 A 
ATOM     47  C   UNL     1      13.832   3.722  -4.939  1.00  0.00     0.049 A 
ATOM     48  N   UNL     1      15.378   1.896  -6.772  1.00  0.00    -0.248 NA
ATOM     49  C   UNL     1      13.436   1.573  -8.024  1.00  0.00     0.031 C 
ATOM     50  C   UNL     1      13.117   4.571  -3.981  1.00  0.00     0.029 A 
ATOM     51  N   UNL     1      15.124   3.722  -4.478  1.00  0.00    -0.354 N 
ATOM     52  C   UNL     1      15.637   1.008  -7.810  1.00  0.00     0.074 A 
ATOM     53  C   UNL     1      14.386   0.784  -8.499  1.00  0.00     0.031 C 
ATOM     54  C   UNL     1      13.986   5.033  -3.068  1.00  0.00     0.029 A 
ATOM     55  C   UNL     1      15.307   4.479  -3.344  1.00  0.00     0.049 A 
ATOM     56  H   UNL     1      15.853   3.227  -4.917  1.00  0.00     0.167 HD
ATOM     57  C   UNL     1      16.815   0.454  -8.181  1.00  0.00     0.031 A 
ATOM     58  C   UNL     1      16.412   4.695  -2.602  1.00  0.00     0.031 A 
ATOM     59  C   UNL     1      18.061   0.693  -7.503  1.00  0.00     0.049 A 
ATOM     60  C   UNL     1      17.709   4.062  -3.028  1.00  0.00     0.074 A 
ATOM     61  C   UNL     1      19.319   0.216  -7.823  1.00  0.00     0.029 A 
ATOM     62  N   UNL     1      18.205   1.482  -6.372  1.00  0.00    -0.354 N 
ATOM     63  N   UNL     1      17.944   3.272  -4.050  1.00  0.00    -0.248 NA
ATOM     64  C   UNL     1      18.893   4.359  -2.211  1.00  0.00     0.031 C 
ATOM     65  C   UNL     1      20.217   0.673  -6.853  1.00  0.00     0.029 A 
ATOM     66  C   UNL     1      19.529   1.490  -5.969  1.00  0.00     0.049 A 
ATOM     67  H   UNL     1      17.475   1.964  -5.922  1.00  0.00     0.167 HD
ATOM     68  C   UNL     1      19.308   3.002  -4.014  1.00  0.00     0.074 A 
ATOM     69  C   UNL     1      19.847   3.728  -2.882  1.00  0.00     0.031 C 
ATOM     70  C   UNL     1      20.047   2.222  -4.841  1.00  0.00     0.031 A 
BRANCH  57  71
ATOM     71  C   UNL     1      16.811  -0.457  -9.383  1.00  0.00    -0.014 A 
ATOM     72  C   UNL     1      16.572   0.050 -10.674  1.00  0.00     0.010 A 
ATOM     73  C   UNL     1      17.090  -1.827  -9.229  1.00  0.00     0.010 A 
ATOM     74  C   UNL     1      16.573  -0.801 -11.782  1.00  0.00     0.020 A 
ATOM     75  C   UNL     1      17.124  -2.676 -10.339  1.00  0.00     0.020 A 
ATOM     76  C   UNL     1      16.850  -2.160 -11.607  1.00  0.00     0.054 A 
BRANCH  76  77
ATOM     77  S   UNL     1      16.877  -3.232 -13.069  1.00  0.00     0.124 S 
ATOM     78  O   UNL     1      15.460  -3.296 -13.422  1.00  0.00    -0.237 OA
ATOM     79  O   UNL     1      17.722  -2.486 -13.997  1.00  0.00    -0.237 OA
ATOM     80  O   UNL     1      17.451  -4.481 -12.574  1.00  0.00    -0.744 OA
ENDBRANCH  76  77
ENDBRANCH  57  71
BRANCH  58  81
ATOM     81  C   UNL     1      16.338   5.550  -1.384  1.00  0.00    -0.014 A 
ATOM     82  C   UNL     1      16.977   6.802  -1.341  1.00  0.00     0.010 A 
ATOM     83  C   UNL     1      15.619   5.113  -0.256  1.00  0.00     0.010 A 
ATOM     84  C   UNL     1      16.921   7.588  -0.185  1.00  0.00     0.020 A 
ATOM     85  C   UNL     1      15.534   5.910   0.890  1.00  0.00     0.020 A 
ATOM     86  C   UNL     1      16.198   7.136   0.923  1.00  0.00     0.054 A 
BRANCH  86  87
ATOM     87  S   UNL     1      16.106   8.189   2.398  1.00  0.00     0.124 S 
ATOM     88  O   UNL     1      17.455   8.070   2.941  1.00  0.00    -0.237 OA
ATOM     89  O   UNL     1      15.762   9.492   1.835  1.00  0.00    -0.237 OA
ATOM     90  O   UNL     1      15.052   7.567   3.197  1.00  0.00    -0.744 OA
ENDBRANCH  86  87
ENDBRANCH  58  81
BRANCH  70  91
ATOM     91  C   UNL     1      21.528   2.142  -4.579  1.00  0.00    -0.014 A 
ATOM     92  C   UNL     1      22.038   1.450  -3.466  1.00  0.00     0.010 A 
ATOM     93  C   UNL     1      22.424   2.719  -5.498  1.00  0.00     0.010 A 
ATOM     94  C   UNL     1      23.417   1.367  -3.260  1.00  0.00     0.020 A 
ATOM     95  C   UNL     1      23.804   2.609  -5.313  1.00  0.00     0.020 A 
ATOM     96  C   UNL     1      24.291   1.945  -4.186  1.00  0.00     0.054 A 
BRANCH  96  97
ATOM     97  S   UNL     1      26.077   1.782  -3.918  1.00  0.00     0.124 S 
ATOM     98  O   UNL     1      26.299   2.682  -2.790  1.00  0.00    -0.237 OA
ATOM     99  O   UNL     1      26.227   0.358  -3.626  1.00  0.00    -0.237 OA
ATOM    100  O   UNL     1      26.660   2.217  -5.185  1.00  0.00    -0.744 OA
ENDBRANCH  96  97
ENDBRANCH  70  91
ENDBRANCH  44  45
ENDBRANCH  36  39
ENDBRANCH  34  35
ENDBRANCH  33  34
ENDBRANCH  32  33
ENDBRANCH   1  32
TORSDOF 20
