REMARK SMILES O=CN1CCC[C@@H](C(=O)NCCCCCCNC(=O)c2ccc(-c3c4nc(c(-c5ccc(S(=O)(=O)[O-])cc5)c5ccc([nH]5)c(-c5ccc(S(=O)(=O)[O-])cc5)c5nc(c(-c6ccc(S(=O)(=O)[O-])cc6)c6ccc3[nH]6)C=C5)C=C4)cc2)C1
REMARK SMILES IDX 14 1 13 2 12 3 11 4 10 5 8 6 9 7 7 9 3 10 4 11 80 12 5 13
REMARK SMILES IDX 6 14 2 15 1 16 15 17 16 18 17 19 18 20 19 22 20 23 21 24
REMARK SMILES IDX 79 25 22 26 78 27 23 28 24 29 25 30 72 31 26 32 77 33 71 34
REMARK SMILES IDX 73 35 27 36 76 37 70 38 69 39 28 41 58 42 39 43 57 44 40 45
REMARK SMILES IDX 43 46 56 47 74 48 41 49 42 50 55 52 75 53 44 54 29 55 30 56
REMARK SMILES IDX 38 57 31 58 37 59 32 60 33 61 34 62 35 63 36 64 59 65 60 66
REMARK SMILES IDX 68 67 61 68 67 69 62 70 63 71 64 72 65 73 66 74 45 75 46 76
REMARK SMILES IDX 54 77 47 78 53 79 48 80 49 81 50 82 51 83 52 84
REMARK H PARENT 10 8 17 21 73 40 43 51
REMARK Flexibility Score: inf
ROOT
ATOM      1  C   UNL     1       2.166   8.135   2.023  1.00  0.00     0.002 C 
ENDROOT
BRANCH   1   2
ATOM      2  C   UNL     1       1.307   6.919   2.386  1.00  0.00     0.002 C 
BRANCH   2   3
ATOM      3  C   UNL     1       1.536   5.679   1.516  1.00  0.00     0.021 C 
BRANCH   3   4
ATOM      4  C   UNL     1       2.982   5.188   1.496  1.00  0.00     0.116 C 
BRANCH   4   5
ATOM      5  N   UNL     1       3.374   4.649   2.787  1.00  0.00    -0.356 N 
ATOM      6  C   UNL     1       3.865   3.431   3.140  1.00  0.00     0.224 C 
ATOM      7  O   UNL     1       4.092   3.230   4.336  1.00  0.00    -0.275 OA
ATOM      8  H   UNL     1       3.266   5.276   3.538  1.00  0.00     0.163 HD
BRANCH   6   9
ATOM      9  C   UNL     1       4.151   2.351   2.109  1.00  0.00     0.098 C 
ATOM     10  N   UNL     1       3.105   1.036   0.270  1.00  0.00    -0.344 N 
ATOM     11  C   UNL     1       4.064   1.540  -0.699  1.00  0.00     0.119 C 
ATOM     12  C   UNL     1       2.860   1.839   1.462  1.00  0.00     0.132 C 
ATOM     13  C   UNL     1       5.406   1.808  -0.033  1.00  0.00     0.022 C 
ATOM     14  C   UNL     1       5.255   2.782   1.131  1.00  0.00     0.017 C 
BRANCH  10  15
ATOM     15  C   UNL     1       2.299  -0.046  -0.015  1.00  0.00     0.339 C 
ATOM     16  O   UNL     1       1.387  -0.463   0.688  1.00  0.00    -0.279 OA
ENDBRANCH  10  15
ENDBRANCH   6   9
ENDBRANCH   4   5
ENDBRANCH   3   4
ENDBRANCH   2   3
ENDBRANCH   1   2
BRANCH   1  17
ATOM     17  C   UNL     1       2.081   8.575   0.559  1.00  0.00     0.021 C 
BRANCH  17  18
ATOM     18  C   UNL     1       0.674   8.909   0.076  1.00  0.00     0.116 C 
BRANCH  18  19
ATOM     19  N   UNL     1       0.099  10.033   0.799  1.00  0.00    -0.352 N 
ATOM     20  C   UNL     1      -0.422  11.204   0.306  1.00  0.00     0.251 C 
ATOM     21  H   UNL     1       0.081   9.941   1.779  1.00  0.00     0.163 HD
ATOM     22  O   UNL     1      -0.687  12.130   1.067  1.00  0.00    -0.269 OA
BRANCH  20  23
ATOM     23  C   UNL     1      -0.638  11.348  -1.149  1.00  0.00     0.039 A 
ATOM     24  C   UNL     1      -0.192  12.507  -1.789  1.00  0.00     0.014 A 
ATOM     25  C   UNL     1      -1.260  10.332  -1.879  1.00  0.00     0.014 A 
ATOM     26  C   UNL     1      -0.305  12.614  -3.177  1.00  0.00     0.010 A 
ATOM     27  C   UNL     1      -1.307  10.410  -3.268  1.00  0.00     0.010 A 
ATOM     28  C   UNL     1      -0.825  11.549  -3.932  1.00  0.00    -0.014 A 
BRANCH  28  29
ATOM     29  C   UNL     1      -0.853  11.593  -5.416  1.00  0.00     0.031 A 
ATOM     30  C   UNL     1      -2.166  11.558  -6.149  1.00  0.00     0.074 A 
ATOM     31  C   UNL     1       0.306  11.585  -6.104  1.00  0.00     0.049 A 
ATOM     32  N   UNL     1      -2.388  11.499  -7.437  1.00  0.00    -0.248 NA
ATOM     33  C   UNL     1      -3.388  11.566  -5.328  1.00  0.00     0.031 C 
ATOM     34  C   UNL     1       1.645  11.585  -5.509  1.00  0.00     0.029 A 
ATOM     35  N   UNL     1       0.547  11.561  -7.456  1.00  0.00    -0.354 N 
ATOM     36  C   UNL     1      -3.770  11.448  -7.581  1.00  0.00     0.074 A 
ATOM     37  C   UNL     1      -4.333  11.435  -6.248  1.00  0.00     0.031 C 
ATOM     38  C   UNL     1       2.563  11.585  -6.489  1.00  0.00     0.029 A 
ATOM     39  C   UNL     1       1.883  11.534  -7.779  1.00  0.00     0.049 A 
ATOM     40  H   UNL     1      -0.170  11.564  -8.130  1.00  0.00     0.167 HD
ATOM     41  C   UNL     1      -4.504  11.430  -8.719  1.00  0.00     0.031 A 
ATOM     42  C   UNL     1       2.496  11.458  -8.977  1.00  0.00     0.031 A 
ATOM     43  C   UNL     1      -3.938  11.448 -10.042  1.00  0.00     0.049 A 
ATOM     44  C   UNL     1       1.659  11.403 -10.226  1.00  0.00     0.074 A 
ATOM     45  C   UNL     1      -4.599  11.489 -11.258  1.00  0.00     0.029 A 
ATOM     46  N   UNL     1      -2.581  11.419 -10.326  1.00  0.00    -0.354 N 
ATOM     47  N   UNL     1       0.353  11.426 -10.343  1.00  0.00    -0.248 NA
ATOM     48  C   UNL     1       2.378  11.318 -11.505  1.00  0.00     0.031 C 
ATOM     49  C   UNL     1      -3.644  11.421 -12.276  1.00  0.00     0.029 A 
ATOM     50  C   UNL     1      -2.385  11.405 -11.696  1.00  0.00     0.049 A 
ATOM     51  H   UNL     1      -1.863  11.409  -9.652  1.00  0.00     0.167 HD
ATOM     52  C   UNL     1       0.094  11.381 -11.708  1.00  0.00     0.074 A 
ATOM     53  C   UNL     1       1.378  11.347 -12.377  1.00  0.00     0.031 C 
ATOM     54  C   UNL     1      -1.100  11.370 -12.349  1.00  0.00     0.031 A 
BRANCH  41  55
ATOM     55  C   UNL     1      -6.003  11.377  -8.583  1.00  0.00    -0.014 A 
ATOM     56  C   UNL     1      -6.729  12.477  -8.090  1.00  0.00     0.010 A 
ATOM     57  C   UNL     1      -6.702  10.229  -8.999  1.00  0.00     0.010 A 
ATOM     58  C   UNL     1      -8.120  12.414  -7.977  1.00  0.00     0.020 A 
ATOM     59  C   UNL     1      -8.097  10.173  -8.916  1.00  0.00     0.020 A 
ATOM     60  C   UNL     1      -8.795  11.261  -8.389  1.00  0.00     0.054 A 
BRANCH  60  61
ATOM     61  S   UNL     1     -10.603  11.218  -8.251  1.00  0.00     0.124 S 
ATOM     62  O   UNL     1     -10.792  11.117  -6.806  1.00  0.00    -0.237 OA
ATOM     63  O   UNL     1     -10.999  12.491  -8.848  1.00  0.00    -0.237 OA
ATOM     64  O   UNL     1     -10.982  10.030  -9.013  1.00  0.00    -0.744 OA
ENDBRANCH  60  61
ENDBRANCH  41  55
BRANCH  42  65
ATOM     65  C   UNL     1       3.983  11.425  -9.051  1.00  0.00    -0.014 A 
ATOM     66  C   UNL     1       4.698  12.517  -9.573  1.00  0.00     0.010 A 
ATOM     67  C   UNL     1       4.694  10.303  -8.586  1.00  0.00     0.010 A 
ATOM     68  C   UNL     1       6.094  12.481  -9.645  1.00  0.00     0.020 A 
ATOM     69  C   UNL     1       6.090  10.275  -8.627  1.00  0.00     0.020 A 
ATOM     70  C   UNL     1       6.782  11.361  -9.168  1.00  0.00     0.054 A 
BRANCH  70  71
ATOM     71  S   UNL     1       8.595  11.358  -9.222  1.00  0.00     0.124 S 
ATOM     72  O   UNL     1       8.856  11.193 -10.648  1.00  0.00    -0.237 OA
ATOM     73  O   UNL     1       8.928  12.667  -8.664  1.00  0.00    -0.237 OA
ATOM     74  O   UNL     1       8.960  10.220  -8.381  1.00  0.00    -0.744 OA
ENDBRANCH  70  71
ENDBRANCH  42  65
BRANCH  54  75
ATOM     75  C   UNL     1      -1.085  11.343 -13.855  1.00  0.00    -0.014 A 
ATOM     76  C   UNL     1      -0.725  10.180 -14.558  1.00  0.00     0.010 A 
ATOM     77  C   UNL     1      -1.515  12.474 -14.573  1.00  0.00     0.010 A 
ATOM     78  C   UNL     1      -0.780  10.155 -15.954  1.00  0.00     0.020 A 
ATOM     79  C   UNL     1      -1.599  12.443 -15.967  1.00  0.00     0.020 A 
ATOM     80  C   UNL     1      -1.223  11.284 -16.649  1.00  0.00     0.054 A 
BRANCH  80  81
ATOM     81  S   UNL     1      -1.353  11.199 -18.457  1.00  0.00     0.124 S 
ATOM     82  O   UNL     1       0.050  11.204 -18.863  1.00  0.00    -0.237 OA
ATOM     83  O   UNL     1      -2.063   9.939 -18.666  1.00  0.00    -0.237 OA
ATOM     84  O   UNL     1      -2.108  12.399 -18.808  1.00  0.00    -0.744 OA
ENDBRANCH  80  81
ENDBRANCH  54  75
ENDBRANCH  28  29
ENDBRANCH  20  23
ENDBRANCH  18  19
ENDBRANCH  17  18
ENDBRANCH   1  17
TORSDOF 17
