REMARK SMILES CCC([NH3+])(CC)C(=O)N(CCC(=O)NCCCCCCNC(=O)c1ccc(-c2c3nc(c(-c4ccc(S(=O)(=O)[O-])cc4)c4ccc([nH]4)c(-c4ccc(S(=O)(=O)[O-])cc4)c4nc(c(-c5ccc(S(=O)(=O)[O-])cc5)c5ccc2[nH]5)C=C4)C=C3)cc1)C(C)C
REMARK SMILES IDX 16 1 15 2 14 3 12 4 13 5 11 7 10 8 9 9 7 10 8 11 3 12 2 13
REMARK SMILES IDX 1 14 4 15 5 19 6 20 84 21 85 22 86 23 17 24 18 25 19 26
REMARK SMILES IDX 20 27 21 28 22 29 23 31 24 32 25 33 83 34 26 35 82 36 27 37
REMARK SMILES IDX 28 38 29 39 76 40 30 41 81 42 75 43 77 44 31 45 80 46 74 47
REMARK SMILES IDX 73 48 32 50 62 51 43 52 61 53 44 54 47 55 60 56 78 57 45 58
REMARK SMILES IDX 46 59 59 61 79 62 48 63 33 64 34 65 42 66 35 67 41 68 36 69
REMARK SMILES IDX 37 70 38 71 39 72 40 73 63 74 64 75 72 76 65 77 71 78 66 79
REMARK SMILES IDX 67 80 68 81 69 82 70 83 49 84 50 85 58 86 51 87 57 88 52 89
REMARK SMILES IDX 53 90 54 91 55 92 56 93
REMARK H PARENT 14 6 4 16 4 17 4 18 21 30 77 49 47 60
REMARK Flexibility Score: inf
ROOT
ATOM      1  C   UNL     1       7.322  -1.607  -3.927  1.00  0.00     0.021 C 
ENDROOT
BRANCH   1   2
ATOM      2  C   UNL     1       6.452  -1.290  -5.159  1.00  0.00     0.116 C 
BRANCH   2   3
ATOM      3  N   UNL     1       5.709  -2.486  -5.586  1.00  0.00    -0.356 N 
ATOM      4  C   UNL     1       4.393  -2.837  -5.625  1.00  0.00     0.221 C 
ATOM      5  O   UNL     1       4.126  -3.980  -6.009  1.00  0.00    -0.275 OA
ATOM      6  H   UNL     1       6.300  -3.198  -5.923  1.00  0.00     0.163 HD
BRANCH   4   7
ATOM      7  C   UNL     1       3.269  -1.895  -5.229  1.00  0.00     0.121 C 
BRANCH   7   8
ATOM      8  C   UNL     1       2.502  -2.403  -3.982  1.00  0.00     0.130 C 
BRANCH   8   9
ATOM      9  N   UNL     1       2.696  -1.553  -2.786  1.00  0.00    -0.334 N 
BRANCH   9  10
ATOM     10  C   UNL     1       1.769  -0.831  -2.034  1.00  0.00     0.284 C 
ATOM     11  O   UNL     1       2.187  -0.123  -1.107  1.00  0.00    -0.268 OA
BRANCH  10  12
ATOM     12  C   UNL     1       0.227  -0.857  -2.289  1.00  0.00     0.173 C 
BRANCH  12  13
ATOM     13  C   UNL     1      -0.482   0.101  -1.261  1.00  0.00     0.075 C 
ATOM     14  C   UNL     1      -0.372  -0.234   0.232  1.00  0.00     0.011 C 
ENDBRANCH  12  13
BRANCH  12  15
ATOM     15  N   UNL     1      -0.296  -2.228  -2.069  1.00  0.00    -0.345 N 
ATOM     16  H   UNL     1      -1.302  -2.238  -2.237  1.00  0.00     0.345 HD
ATOM     17  H   UNL     1      -0.109  -2.513  -1.108  1.00  0.00     0.345 HD
ATOM     18  H   UNL     1       0.162  -2.874  -2.711  1.00  0.00     0.345 HD
ENDBRANCH  12  15
BRANCH  12  19
ATOM     19  C   UNL     1      -0.158  -0.380  -3.714  1.00  0.00     0.075 C 
ATOM     20  C   UNL     1       0.481   0.937  -4.147  1.00  0.00     0.011 C 
ENDBRANCH  12  19
ENDBRANCH  10  12
ENDBRANCH   9  10
BRANCH   9  21
ATOM     21  C   UNL     1       4.096  -1.385  -2.391  1.00  0.00     0.079 C 
ATOM     22  C   UNL     1       4.530   0.072  -2.543  1.00  0.00     0.031 C 
ATOM     23  C   UNL     1       4.458  -1.980  -1.032  1.00  0.00     0.031 C 
ENDBRANCH   9  21
ENDBRANCH   8   9
ENDBRANCH   7   8
ENDBRANCH   4   7
ENDBRANCH   2   3
ENDBRANCH   1   2
BRANCH   1  24
ATOM     24  C   UNL     1       8.538  -0.717  -3.638  1.00  0.00     0.002 C 
BRANCH  24  25
ATOM     25  C   UNL     1       8.423   0.812  -3.607  1.00  0.00     0.002 C 
BRANCH  25  26
ATOM     26  C   UNL     1       7.748   1.557  -2.439  1.00  0.00     0.021 C 
BRANCH  26  27
ATOM     27  C   UNL     1       7.790   0.941  -1.040  1.00  0.00     0.116 C 
BRANCH  27  28
ATOM     28  N   UNL     1       9.133   0.893  -0.497  1.00  0.00    -0.352 N 
ATOM     29  C   UNL     1       9.771   1.661   0.446  1.00  0.00     0.251 C 
ATOM     30  H   UNL     1       9.693   0.176  -0.875  1.00  0.00     0.163 HD
ATOM     31  O   UNL     1      10.992   1.543   0.548  1.00  0.00    -0.269 OA
BRANCH  29  32
ATOM     32  C   UNL     1       9.064   2.623   1.334  1.00  0.00     0.039 A 
ATOM     33  C   UNL     1       9.729   3.812   1.660  1.00  0.00     0.014 A 
ATOM     34  C   UNL     1       7.843   2.341   1.954  1.00  0.00     0.014 A 
ATOM     35  C   UNL     1       9.169   4.718   2.570  1.00  0.00     0.010 A 
ATOM     36  C   UNL     1       7.258   3.274   2.828  1.00  0.00     0.010 A 
ATOM     37  C   UNL     1       7.917   4.469   3.155  1.00  0.00    -0.014 A 
BRANCH  37  38
ATOM     38  C   UNL     1       7.312   5.475   4.078  1.00  0.00     0.031 A 
ATOM     39  C   UNL     1       7.129   5.190   5.548  1.00  0.00     0.074 A 
ATOM     40  C   UNL     1       6.926   6.672   3.590  1.00  0.00     0.049 A 
ATOM     41  N   UNL     1       6.707   5.990   6.497  1.00  0.00    -0.248 NA
ATOM     42  C   UNL     1       7.444   3.830   6.010  1.00  0.00     0.031 C 
ATOM     43  C   UNL     1       7.005   7.074   2.184  1.00  0.00     0.029 A 
ATOM     44  N   UNL     1       6.405   7.776   4.221  1.00  0.00    -0.354 N 
ATOM     45  C   UNL     1       6.694   5.232   7.664  1.00  0.00     0.074 A 
ATOM     46  C   UNL     1       7.115   3.896   7.293  1.00  0.00     0.031 C 
ATOM     47  C   UNL     1       6.595   8.347   2.067  1.00  0.00     0.029 A 
ATOM     48  C   UNL     1       6.196   8.844   3.381  1.00  0.00     0.049 A 
ATOM     49  H   UNL     1       6.201   7.800   5.184  1.00  0.00     0.167 HD
ATOM     50  C   UNL     1       6.374   5.609   8.928  1.00  0.00     0.031 A 
ATOM     51  C   UNL     1       5.751  10.091   3.632  1.00  0.00     0.031 A 
ATOM     52  C   UNL     1       5.957   6.937   9.304  1.00  0.00     0.049 A 
ATOM     53  C   UNL     1       5.417  10.491   5.042  1.00  0.00     0.074 A 
ATOM     54  C   UNL     1       5.679   7.428  10.570  1.00  0.00     0.029 A 
ATOM     55  N   UNL     1       5.745   7.984   8.420  1.00  0.00    -0.354 N 
ATOM     56  N   UNL     1       5.492   9.780   6.141  1.00  0.00    -0.248 NA
ATOM     57  C   UNL     1       4.956  11.872   5.244  1.00  0.00     0.031 C 
ATOM     58  C   UNL     1       5.252   8.756  10.446  1.00  0.00     0.029 A 
ATOM     59  C   UNL     1       5.316   9.110   9.108  1.00  0.00     0.049 A 
ATOM     60  H   UNL     1       5.880   7.936   7.446  1.00  0.00     0.167 HD
ATOM     61  C   UNL     1       5.110  10.635   7.170  1.00  0.00     0.074 A 
ATOM     62  C   UNL     1       4.824  11.919   6.562  1.00  0.00     0.031 C 
ATOM     63  C   UNL     1       5.011  10.379   8.498  1.00  0.00     0.031 A 
BRANCH  50  64
ATOM     64  C   UNL     1       6.446   4.557  10.007  1.00  0.00    -0.014 A 
ATOM     65  C   UNL     1       7.681   4.053  10.454  1.00  0.00     0.010 A 
ATOM     66  C   UNL     1       5.263   4.091  10.609  1.00  0.00     0.010 A 
ATOM     67  C   UNL     1       7.729   3.066  11.443  1.00  0.00     0.020 A 
ATOM     68  C   UNL     1       5.307   3.123  11.617  1.00  0.00     0.020 A 
ATOM     69  C   UNL     1       6.540   2.600  12.013  1.00  0.00     0.054 A 
BRANCH  69  70
ATOM     70  S   UNL     1       6.628   1.319  13.294  1.00  0.00     0.124 S 
ATOM     71  O   UNL     1       6.927   0.126  12.505  1.00  0.00    -0.237 OA
ATOM     72  O   UNL     1       7.712   1.792  14.151  1.00  0.00    -0.237 OA
ATOM     73  O   UNL     1       5.300   1.345  13.903  1.00  0.00    -0.744 OA
ENDBRANCH  69  70
ENDBRANCH  50  64
BRANCH  51  74
ATOM     74  C   UNL     1       5.643  11.073   2.519  1.00  0.00    -0.014 A 
ATOM     75  C   UNL     1       6.560  12.134   2.418  1.00  0.00     0.010 A 
ATOM     76  C   UNL     1       4.638  10.941   1.545  1.00  0.00     0.010 A 
ATOM     77  C   UNL     1       6.469  13.051   1.367  1.00  0.00     0.020 A 
ATOM     78  C   UNL     1       4.559  11.840   0.478  1.00  0.00     0.020 A 
ATOM     79  C   UNL     1       5.471  12.895   0.401  1.00  0.00     0.054 A 
BRANCH  79  80
ATOM     80  S   UNL     1       5.416  14.054  -0.995  1.00  0.00     0.124 S 
ATOM     81  O   UNL     1       4.847  15.247  -0.377  1.00  0.00    -0.237 OA
ATOM     82  O   UNL     1       6.820  14.149  -1.384  1.00  0.00    -0.237 OA
ATOM     83  O   UNL     1       4.555  13.378  -1.964  1.00  0.00    -0.744 OA
ENDBRANCH  79  80
ENDBRANCH  51  74
BRANCH  63  84
ATOM     84  C   UNL     1       4.594  11.524   9.386  1.00  0.00    -0.014 A 
ATOM     85  C   UNL     1       3.279  12.024   9.363  1.00  0.00     0.010 A 
ATOM     86  C   UNL     1       5.534  12.112  10.251  1.00  0.00     0.010 A 
ATOM     87  C   UNL     1       2.929  13.129  10.146  1.00  0.00     0.020 A 
ATOM     88  C   UNL     1       5.181  13.199  11.055  1.00  0.00     0.020 A 
ATOM     89  C   UNL     1       3.886  13.717  10.978  1.00  0.00     0.054 A 
BRANCH  89  90
ATOM     90  S   UNL     1       3.415  15.156  11.979  1.00  0.00     0.124 S 
ATOM     91  O   UNL     1       3.434  16.231  10.991  1.00  0.00    -0.237 OA
ATOM     92  O   UNL     1       2.093  14.785  12.478  1.00  0.00    -0.237 OA
ATOM     93  O   UNL     1       4.461  15.225  12.997  1.00  0.00    -0.744 OA
ENDBRANCH  89  90
ENDBRANCH  63  84
ENDBRANCH  37  38
ENDBRANCH  29  32
ENDBRANCH  27  28
ENDBRANCH  26  27
ENDBRANCH  25  26
ENDBRANCH  24  25
ENDBRANCH   1  24
TORSDOF 24
