REMARK SMILES Cc1cc(N[C@@H]2C=C[C@@H](C(=O)NCCCCCCNC(=O)c3ccc(-c4c5nc(c(-c6ccc(S(=O)(=O)[O-])cc6)c6ccc([nH]6)c(-c6ccc(S(=O)(=O)[O-])cc6)c6nc(c(-c7ccc(S(=O)(=O)[O-])cc7)c7ccc4[nH]7)C=C6)C=C5)cc3)C2)nc(C)n1
REMARK SMILES IDX 16 1 15 2 14 3 13 4 12 5 10 6 11 7 9 9 6 10 7 11 82 12 8 13
REMARK SMILES IDX 5 14 4 16 1 17 2 18 3 19 86 20 84 21 83 22 85 23 17 24 18 25
REMARK SMILES IDX 19 26 20 27 21 29 22 30 23 31 81 32 24 33 80 34 25 35 26 36
REMARK SMILES IDX 27 37 74 38 28 39 79 40 73 41 75 42 29 43 78 44 72 45 71 46
REMARK SMILES IDX 30 48 60 49 41 50 59 51 42 52 45 53 58 54 76 55 43 56 44 57
REMARK SMILES IDX 57 59 77 60 46 61 31 62 32 63 40 64 33 65 39 66 34 67 35 68
REMARK SMILES IDX 36 69 37 70 38 71 61 72 62 73 70 74 63 75 69 76 64 77 65 78
REMARK SMILES IDX 66 79 67 80 68 81 47 82 48 83 56 84 49 85 55 86 50 87 51 88
REMARK SMILES IDX 52 89 53 90 54 91
REMARK H PARENT 12 8 5 15 19 28 75 47 45 58
REMARK Flexibility Score: inf
ROOT
ATOM      1  C   UNL     1       1.557  -0.244   1.345  1.00  0.00     0.002 C 
ENDROOT
BRANCH   1   2
ATOM      2  C   UNL     1       0.224   0.464   1.080  1.00  0.00     0.002 C 
BRANCH   2   3
ATOM      3  C   UNL     1      -0.094   0.688  -0.403  1.00  0.00     0.021 C 
BRANCH   3   4
ATOM      4  C   UNL     1      -0.073  -0.592  -1.228  1.00  0.00     0.116 C 
BRANCH   4   5
ATOM      5  N   UNL     1      -1.143  -1.469  -0.810  1.00  0.00    -0.356 N 
ATOM      6  C   UNL     1      -2.168  -2.000  -1.516  1.00  0.00     0.227 C 
ATOM      7  O   UNL     1      -3.015  -2.649  -0.894  1.00  0.00    -0.274 OA
ATOM      8  H   UNL     1      -1.123  -1.721   0.142  1.00  0.00     0.163 HD
BRANCH   6   9
ATOM      9  C   UNL     1      -2.278  -1.845  -3.027  1.00  0.00     0.103 C 
ATOM     10  C   UNL     1      -1.524  -0.266  -4.761  1.00  0.00     0.104 C 
ATOM     11  C   UNL     1      -0.672  -1.494  -4.711  1.00  0.00    -0.006 C 
ATOM     12  C   UNL     1      -2.488  -0.419  -3.569  1.00  0.00     0.046 C 
ATOM     13  C   UNL     1      -1.075  -2.353  -3.767  1.00  0.00    -0.016 C 
BRANCH  10  14
ATOM     14  N   UNL     1      -2.168  -0.118  -6.054  1.00  0.00    -0.364 N 
ATOM     15  H   UNL     1      -2.131   0.782  -6.451  1.00  0.00     0.162 HD
BRANCH  14  16
ATOM     16  C   UNL     1      -2.822  -1.073  -6.794  1.00  0.00     0.130 A 
ATOM     17  C   UNL     1      -4.597  -4.351  -6.511  1.00  0.00     0.067 C 
ATOM     18  C   UNL     1      -3.973  -3.117  -7.090  1.00  0.00     0.043 A 
ATOM     19  C   UNL     1      -3.485  -2.144  -6.249  1.00  0.00     0.070 A 
ATOM     20  N   UNL     1      -3.925  -2.990  -8.423  1.00  0.00    -0.238 NA
ATOM     21  C   UNL     1      -3.341  -1.869  -8.887  1.00  0.00     0.127 A 
ATOM     22  N   UNL     1      -2.776  -0.910  -8.123  1.00  0.00    -0.216 NA
ATOM     23  C   UNL     1      -3.332  -1.663 -10.368  1.00  0.00     0.090 C 
ENDBRANCH  14  16
ENDBRANCH  10  14
ENDBRANCH   6   9
ENDBRANCH   4   5
ENDBRANCH   3   4
ENDBRANCH   2   3
ENDBRANCH   1   2
BRANCH   1  24
ATOM     24  C   UNL     1       2.764   0.395   0.654  1.00  0.00     0.021 C 
BRANCH  24  25
ATOM     25  C   UNL     1       2.941   1.875   0.965  1.00  0.00     0.116 C 
BRANCH  25  26
ATOM     26  N   UNL     1       3.181   2.092   2.381  1.00  0.00    -0.352 N 
ATOM     27  C   UNL     1       4.284   2.643   2.978  1.00  0.00     0.251 C 
ATOM     28  H   UNL     1       2.460   1.807   2.989  1.00  0.00     0.163 HD
ATOM     29  O   UNL     1       4.457   2.542   4.188  1.00  0.00    -0.269 OA
BRANCH  27  30
ATOM     30  C   UNL     1       5.263   3.355   2.136  1.00  0.00     0.039 A 
ATOM     31  C   UNL     1       6.616   3.030   2.242  1.00  0.00     0.014 A 
ATOM     32  C   UNL     1       4.830   4.342   1.243  1.00  0.00     0.014 A 
ATOM     33  C   UNL     1       7.542   3.682   1.428  1.00  0.00     0.010 A 
ATOM     34  C   UNL     1       5.747   4.954   0.397  1.00  0.00     0.010 A 
ATOM     35  C   UNL     1       7.111   4.644   0.499  1.00  0.00    -0.014 A 
BRANCH  35  36
ATOM     36  C   UNL     1       8.084   5.404  -0.317  1.00  0.00     0.031 A 
ATOM     37  C   UNL     1       8.303   6.861  -0.020  1.00  0.00     0.074 A 
ATOM     38  C   UNL     1       8.736   4.805  -1.331  1.00  0.00     0.049 A 
ATOM     39  N   UNL     1       9.042   7.726  -0.661  1.00  0.00    -0.248 NA
ATOM     40  C   UNL     1       7.586   7.423   1.139  1.00  0.00     0.031 C 
ATOM     41  C   UNL     1       8.595   3.401  -1.720  1.00  0.00     0.029 A 
ATOM     42  N   UNL     1       9.644   5.310  -2.228  1.00  0.00    -0.354 N 
ATOM     43  C   UNL     1       8.878   8.930   0.013  1.00  0.00     0.074 A 
ATOM     44  C   UNL     1       7.939   8.699   1.086  1.00  0.00     0.031 C 
ATOM     45  C   UNL     1       9.389   3.157  -2.776  1.00  0.00     0.029 A 
ATOM     46  C   UNL     1      10.071   4.391  -3.157  1.00  0.00     0.049 A 
ATOM     47  H   UNL     1       9.959   6.242  -2.208  1.00  0.00     0.167 HD
ATOM     48  C   UNL     1       9.477  10.117  -0.230  1.00  0.00     0.031 A 
ATOM     49  C   UNL     1      10.905   4.533  -4.206  1.00  0.00     0.031 A 
ATOM     50  C   UNL     1      10.429  10.340  -1.282  1.00  0.00     0.049 A 
ATOM     51  C   UNL     1      11.537   5.872  -4.468  1.00  0.00     0.074 A 
ATOM     52  C   UNL     1      11.115  11.504  -1.580  1.00  0.00     0.029 A 
ATOM     53  N   UNL     1      10.835   9.386  -2.199  1.00  0.00    -0.354 N 
ATOM     54  N   UNL     1      11.389   6.994  -3.805  1.00  0.00    -0.248 NA
ATOM     55  C   UNL     1      12.452   5.966  -5.615  1.00  0.00     0.031 C 
ATOM     56  C   UNL     1      11.906  11.265  -2.705  1.00  0.00     0.029 A 
ATOM     57  C   UNL     1      11.749   9.939  -3.076  1.00  0.00     0.049 A 
ATOM     58  H   UNL     1      10.520   8.453  -2.222  1.00  0.00     0.167 HD
ATOM     59  C   UNL     1      12.198   7.924  -4.447  1.00  0.00     0.074 A 
ATOM     60  C   UNL     1      12.849   7.231  -5.540  1.00  0.00     0.031 C 
ATOM     61  C   UNL     1      12.383   9.235  -4.160  1.00  0.00     0.031 A 
BRANCH  48  62
ATOM     62  C   UNL     1       9.148  11.273   0.669  1.00  0.00    -0.014 A 
ATOM     63  C   UNL     1       9.720  11.364   1.950  1.00  0.00     0.010 A 
ATOM     64  C   UNL     1       8.366  12.336   0.183  1.00  0.00     0.010 A 
ATOM     65  C   UNL     1       9.527  12.508   2.726  1.00  0.00     0.020 A 
ATOM     66  C   UNL     1       8.185  13.489   0.950  1.00  0.00     0.020 A 
ATOM     67  C   UNL     1       8.775  13.570   2.214  1.00  0.00     0.054 A 
BRANCH  67  68
ATOM     68  S   UNL     1       8.620  15.076   3.212  1.00  0.00     0.124 S 
ATOM     69  O   UNL     1       7.984  14.574   4.428  1.00  0.00    -0.237 OA
ATOM     70  O   UNL     1      10.010  15.498   3.358  1.00  0.00    -0.237 OA
ATOM     71  O   UNL     1       7.784  15.952   2.395  1.00  0.00    -0.744 OA
ENDBRANCH  67  68
ENDBRANCH  48  62
BRANCH  49  72
ATOM     72  C   UNL     1      11.171   3.374  -5.099  1.00  0.00    -0.014 A 
ATOM     73  C   UNL     1      12.411   2.713  -5.072  1.00  0.00     0.010 A 
ATOM     74  C   UNL     1      10.168   2.913  -5.971  1.00  0.00     0.010 A 
ATOM     75  C   UNL     1      12.646   1.617  -5.907  1.00  0.00     0.020 A 
ATOM     76  C   UNL     1      10.390   1.803  -6.790  1.00  0.00     0.020 A 
ATOM     77  C   UNL     1      11.630   1.163  -6.754  1.00  0.00     0.054 A 
BRANCH  77  78
ATOM     78  S   UNL     1      11.948  -0.289  -7.795  1.00  0.00     0.124 S 
ATOM     79  O   UNL     1      13.064   0.162  -8.621  1.00  0.00    -0.237 OA
ATOM     80  O   UNL     1      12.267  -1.312  -6.803  1.00  0.00    -0.237 OA
ATOM     81  O   UNL     1      10.686  -0.487  -8.504  1.00  0.00    -0.744 OA
ENDBRANCH  77  78
ENDBRANCH  49  72
BRANCH  61  82
ATOM     82  C   UNL     1      13.329  10.018  -5.026  1.00  0.00    -0.014 A 
ATOM     83  C   UNL     1      12.947  10.434  -6.312  1.00  0.00     0.010 A 
ATOM     84  C   UNL     1      14.572  10.427  -4.508  1.00  0.00     0.010 A 
ATOM     85  C   UNL     1      13.799  11.237  -7.074  1.00  0.00     0.020 A 
ATOM     86  C   UNL     1      15.416  11.249  -5.258  1.00  0.00     0.020 A 
ATOM     87  C   UNL     1      15.025  11.645  -6.538  1.00  0.00     0.054 A 
BRANCH  87  88
ATOM     88  S   UNL     1      16.090  12.720  -7.538  1.00  0.00     0.124 S 
ATOM     89  O   UNL     1      16.357  11.887  -8.707  1.00  0.00    -0.237 OA
ATOM     90  O   UNL     1      15.233  13.879  -7.774  1.00  0.00    -0.237 OA
ATOM     91  O   UNL     1      17.244  12.967  -6.677  1.00  0.00    -0.744 OA
ENDBRANCH  87  88
ENDBRANCH  61  82
ENDBRANCH  35  36
ENDBRANCH  27  30
ENDBRANCH  25  26
ENDBRANCH  24  25
ENDBRANCH   1  24
TORSDOF 18
