REMARK SMILES COc1cccc2ccc(C[N@@H+]3CC4(CC[NH2+]CC4)C[C@@H]3C(=O)NCCCCCCNC(=O)c3ccc(-c4c5nc(c(-c6ccc(S(=O)(=O)[O-])cc6)c6ccc([nH]6)c(-c6ccc(S(=O)(=O)[O-])cc6)c6nc(c(-c7ccc(S(=O)(=O)[O-])cc7)c7ccc4[nH]7)C=C6)C=C5)cc3)nc12
REMARK SMILES IDX 27 1 26 2 25 3 24 4 22 5 23 6 21 8 12 9 13 10 14 12 20 13
REMARK SMILES IDX 15 14 19 15 16 16 18 17 17 18 11 21 10 22 3 23 4 24 95 25
REMARK SMILES IDX 5 26 7 27 94 28 6 29 8 30 9 31 2 32 1 33 28 34 29 35 30 36
REMARK SMILES IDX 31 37 32 38 33 40 34 41 35 42 93 43 36 44 92 45 37 46 38 47
REMARK SMILES IDX 39 48 86 49 40 50 91 51 85 52 87 53 41 54 90 55 84 56 83 57
REMARK SMILES IDX 42 59 72 60 53 61 71 62 54 63 57 64 70 65 88 66 55 67 56 68
REMARK SMILES IDX 69 70 89 71 58 72 43 73 44 74 52 75 45 76 51 77 46 78 47 79
REMARK SMILES IDX 48 80 49 81 50 82 73 83 74 84 82 85 75 86 81 87 76 88 77 89
REMARK SMILES IDX 78 90 79 91 80 92 59 93 60 94 68 95 61 96 67 97 62 98 63 99
REMARK SMILES IDX 64 100 65 101 66 102
REMARK H PARENT 24 7 12 11 17 19 17 20 31 39 87 58 57 69
REMARK Flexibility Score: inf
ROOT
ATOM      1  C   UNL     1      -3.716   1.970   2.013  1.00  0.00     0.002 C 
ENDROOT
BRANCH   1   2
ATOM      2  C   UNL     1      -4.239   0.649   2.575  1.00  0.00     0.021 C 
BRANCH   2   3
ATOM      3  C   UNL     1      -4.851  -0.310   1.548  1.00  0.00     0.116 C 
BRANCH   3   4
ATOM      4  N   UNL     1      -3.821  -0.910   0.728  1.00  0.00    -0.351 N 
ATOM      5  C   UNL     1      -3.420  -2.206   0.587  1.00  0.00     0.278 C 
ATOM      6  O   UNL     1      -2.551  -2.412  -0.272  1.00  0.00    -0.268 OA
ATOM      7  H   UNL     1      -3.320  -0.269   0.173  1.00  0.00     0.163 HD
BRANCH   5   8
ATOM      8  C   UNL     1      -4.160  -3.374   1.263  1.00  0.00     0.275 C 
ATOM      9  N   UNL     1      -4.360  -3.405   2.725  1.00  0.00    -0.319 N 
ATOM     10  C   UNL     1      -4.629  -4.796   3.066  1.00  0.00     0.270 C 
ATOM     11  H   UNL     1      -5.131  -2.754   2.876  1.00  0.00     0.349 HD
ATOM     12  C   UNL     1      -3.812  -5.679   2.103  1.00  0.00     0.036 C 
ATOM     13  C   UNL     1      -3.576  -4.755   0.893  1.00  0.00     0.089 C 
ATOM     14  C   UNL     1      -4.588  -6.969   1.767  1.00  0.00     0.074 C 
ATOM     15  C   UNL     1      -2.458  -6.170   2.651  1.00  0.00     0.074 C 
ATOM     16  C   UNL     1      -4.726  -7.863   3.011  1.00  0.00     0.261 C 
ATOM     17  C   UNL     1      -2.621  -7.027   3.903  1.00  0.00     0.261 C 
ATOM     18  N   UNL     1      -3.437  -8.210   3.622  1.00  0.00    -0.346 N 
ATOM     19  H   UNL     1      -2.924  -8.818   2.983  1.00  0.00     0.346 HD
ATOM     20  H   UNL     1      -3.626  -8.676   4.508  1.00  0.00     0.346 HD
BRANCH   9  21
ATOM     21  C   UNL     1      -3.518  -2.687   3.682  1.00  0.00     0.320 C 
BRANCH  21  22
ATOM     22  C   UNL     1      -2.025  -2.898   3.704  1.00  0.00     0.095 A 
ATOM     23  C   UNL     1       0.821  -1.934   1.636  1.00  0.00     0.145 A 
ATOM     24  C   UNL     1       2.147  -2.339   1.426  1.00  0.00     0.049 A 
ATOM     25  C   UNL     1       0.028  -2.550   2.624  1.00  0.00     0.113 A 
ATOM     26  C   UNL     1       2.713  -3.331   2.222  1.00  0.00     0.005 A 
ATOM     27  C   UNL     1       0.647  -3.489   3.477  1.00  0.00     0.004 A 
ATOM     28  N   UNL     1      -1.292  -2.278   2.750  1.00  0.00    -0.243 NA
ATOM     29  C   UNL     1       1.976  -3.885   3.261  1.00  0.00     0.010 A 
ATOM     30  C   UNL     1      -0.095  -4.021   4.538  1.00  0.00     0.012 A 
ATOM     31  C   UNL     1      -1.441  -3.705   4.669  1.00  0.00     0.030 A 
BRANCH  23  32
ATOM     32  O   UNL     1       0.214  -0.912   0.940  1.00  0.00    -0.494 OA
ATOM     33  C   UNL     1       0.920  -0.324  -0.140  1.00  0.00     0.278 C 
ENDBRANCH  23  32
ENDBRANCH  21  22
ENDBRANCH   9  21
ENDBRANCH   5   8
ENDBRANCH   3   4
ENDBRANCH   2   3
ENDBRANCH   1   2
BRANCH   1  34
ATOM     34  C   UNL     1      -4.785   2.956   1.552  1.00  0.00     0.002 C 
BRANCH  34  35
ATOM     35  C   UNL     1      -5.880   3.271   2.575  1.00  0.00     0.021 C 
BRANCH  35  36
ATOM     36  C   UNL     1      -5.396   3.638   3.976  1.00  0.00     0.116 C 
BRANCH  36  37
ATOM     37  N   UNL     1      -4.539   4.809   3.981  1.00  0.00    -0.352 N 
ATOM     38  C   UNL     1      -4.645   5.963   4.717  1.00  0.00     0.251 C 
ATOM     39  H   UNL     1      -3.769   4.770   3.368  1.00  0.00     0.163 HD
ATOM     40  O   UNL     1      -3.915   6.916   4.466  1.00  0.00    -0.269 OA
BRANCH  38  41
ATOM     41  C   UNL     1      -5.652   6.064   5.796  1.00  0.00     0.039 A 
ATOM     42  C   UNL     1      -6.425   7.224   5.880  1.00  0.00     0.014 A 
ATOM     43  C   UNL     1      -5.819   5.040   6.735  1.00  0.00     0.014 A 
ATOM     44  C   UNL     1      -7.390   7.342   6.882  1.00  0.00     0.010 A 
ATOM     45  C   UNL     1      -6.827   5.132   7.694  1.00  0.00     0.010 A 
ATOM     46  C   UNL     1      -7.613   6.290   7.786  1.00  0.00    -0.014 A 
BRANCH  46  47
ATOM     47  C   UNL     1      -8.659   6.410   8.835  1.00  0.00     0.031 A 
ATOM     48  C   UNL     1      -8.277   6.478  10.289  1.00  0.00     0.074 A 
ATOM     49  C   UNL     1      -9.957   6.452   8.476  1.00  0.00     0.049 A 
ATOM     50  N   UNL     1      -9.046   6.647  11.335  1.00  0.00    -0.248 NA
ATOM     51  C   UNL     1      -6.851   6.315  10.613  1.00  0.00     0.031 C 
ATOM     52  C   UNL     1     -10.459   6.352   7.104  1.00  0.00     0.029 A 
ATOM     53  N   UNL     1     -11.090   6.607   9.234  1.00  0.00    -0.354 N 
ATOM     54  C   UNL     1      -8.199   6.610  12.438  1.00  0.00     0.074 A 
ATOM     55  C   UNL     1      -6.869   6.341  11.937  1.00  0.00     0.031 C 
ATOM     56  C   UNL     1     -11.794   6.497   7.114  1.00  0.00     0.029 A 
ATOM     57  C   UNL     1     -12.245   6.673   8.491  1.00  0.00     0.049 A 
ATOM     58  H   UNL     1     -11.078   6.665  10.217  1.00  0.00     0.167 HD
ATOM     59  C   UNL     1      -8.495   6.805  13.746  1.00  0.00     0.031 A 
ATOM     60  C   UNL     1     -13.521   6.872   8.871  1.00  0.00     0.031 A 
ATOM     61  C   UNL     1      -9.820   7.069  14.243  1.00  0.00     0.049 A 
ATOM     62  C   UNL     1     -13.827   7.090  10.327  1.00  0.00     0.074 A 
ATOM     63  C   UNL     1     -10.220   7.315  15.545  1.00  0.00     0.029 A 
ATOM     64  N   UNL     1     -10.962   7.121  13.458  1.00  0.00    -0.354 N 
ATOM     65  N   UNL     1     -13.005   7.109  11.349  1.00  0.00    -0.248 NA
ATOM     66  C   UNL     1     -15.233   7.335  10.677  1.00  0.00     0.031 C 
ATOM     67  C   UNL     1     -11.611   7.476  15.552  1.00  0.00     0.029 A 
ATOM     68  C   UNL     1     -12.070   7.382  14.248  1.00  0.00     0.049 A 
ATOM     69  H   UNL     1     -10.983   6.991  12.482  1.00  0.00     0.167 HD
ATOM     70  C   UNL     1     -13.789   7.400  12.460  1.00  0.00     0.074 A 
ATOM     71  C   UNL     1     -15.148   7.560  11.981  1.00  0.00     0.031 C 
ATOM     72  C   UNL     1     -13.417   7.529  13.758  1.00  0.00     0.031 A 
BRANCH  59  73
ATOM     73  C   UNL     1      -7.354   6.732  14.728  1.00  0.00    -0.014 A 
ATOM     74  C   UNL     1      -6.355   7.724  14.753  1.00  0.00     0.010 A 
ATOM     75  C   UNL     1      -7.278   5.665  15.641  1.00  0.00     0.010 A 
ATOM     76  C   UNL     1      -5.274   7.620  15.631  1.00  0.00     0.020 A 
ATOM     77  C   UNL     1      -6.213   5.573  16.542  1.00  0.00     0.020 A 
ATOM     78  C   UNL     1      -5.205   6.539  16.515  1.00  0.00     0.054 A 
BRANCH  78  79
ATOM     79  S   UNL     1      -3.787   6.423  17.641  1.00  0.00     0.124 S 
ATOM     80  O   UNL     1      -2.724   5.986  16.740  1.00  0.00    -0.237 OA
ATOM     81  O   UNL     1      -3.661   7.789  18.144  1.00  0.00    -0.237 OA
ATOM     82  O   UNL     1      -4.210   5.435  18.630  1.00  0.00    -0.744 OA
ENDBRANCH  78  79
ENDBRANCH  59  73
BRANCH  60  83
ATOM     83  C   UNL     1     -14.597   6.931   7.846  1.00  0.00    -0.014 A 
ATOM     84  C   UNL     1     -15.200   8.159   7.519  1.00  0.00     0.010 A 
ATOM     85  C   UNL     1     -15.006   5.767   7.170  1.00  0.00     0.010 A 
ATOM     86  C   UNL     1     -16.199   8.221   6.544  1.00  0.00     0.020 A 
ATOM     87  C   UNL     1     -15.987   5.829   6.176  1.00  0.00     0.020 A 
ATOM     88  C   UNL     1     -16.584   7.055   5.876  1.00  0.00     0.054 A 
BRANCH  88  89
ATOM     89  S   UNL     1     -17.837   7.169   4.568  1.00  0.00     0.124 S 
ATOM     90  O   UNL     1     -19.065   7.343   5.338  1.00  0.00    -0.237 OA
ATOM     91  O   UNL     1     -17.396   8.335   3.808  1.00  0.00    -0.237 OA
ATOM     92  O   UNL     1     -17.713   5.894   3.866  1.00  0.00    -0.744 OA
ENDBRANCH  88  89
ENDBRANCH  60  83
BRANCH  72  93
ATOM     93  C   UNL     1     -14.493   7.896  14.746  1.00  0.00    -0.014 A 
ATOM     94  C   UNL     1     -15.486   6.974  15.123  1.00  0.00     0.010 A 
ATOM     95  C   UNL     1     -14.495   9.180  15.321  1.00  0.00     0.010 A 
ATOM     96  C   UNL     1     -16.490   7.346  16.021  1.00  0.00     0.020 A 
ATOM     97  C   UNL     1     -15.481   9.546  16.240  1.00  0.00     0.020 A 
ATOM     98  C   UNL     1     -16.485   8.633  16.568  1.00  0.00     0.054 A 
BRANCH  98  99
ATOM     99  S   UNL     1     -17.790   9.091  17.742  1.00  0.00     0.124 S 
ATOM    100  O   UNL     1     -18.930   9.310  16.857  1.00  0.00    -0.237 OA
ATOM    101  O   UNL     1     -17.879   7.913  18.601  1.00  0.00    -0.237 OA
ATOM    102  O   UNL     1     -17.265  10.290  18.392  1.00  0.00    -0.744 OA
ENDBRANCH  98  99
ENDBRANCH  72  93
ENDBRANCH  46  47
ENDBRANCH  38  41
ENDBRANCH  36  37
ENDBRANCH  35  36
ENDBRANCH  34  35
ENDBRANCH   1  34
TORSDOF 19
