REMARK SMILES CN1C(=O)C[C@H](C(=O)Nc2ccc(C(=O)NCCCCCCNC(=O)c3ccc(-c4c5nc(c(-c6ccc(S(=O)(=O)[O-])cc6)c6ccc([nH]6)c(-c6ccc(S(=O)(=O)[O-])cc6)c6nc(c(-c7ccc(S(=O)(=O)[O-])cc7)c7ccc4[nH]7)C=C6)C=C5)cc3)cc2)S/C1=[NH+]\c1cccc(C(F)(F)F)c1
REMARK SMILES IDX 19 1 18 2 17 3 16 4 14 5 15 6 13 8 10 9 11 10 87 11 12 12
REMARK SMILES IDX 86 13 9 14 7 15 8 16 6 18 1 19 2 20 3 21 89 22 4 23 5 24
REMARK SMILES IDX 88 25 90 26 91 28 92 29 100 30 93 31 95 32 94 33 96 34 97 35
REMARK SMILES IDX 98 36 99 37 20 38 21 39 22 40 23 41 24 42 25 44 26 45 27 46
REMARK SMILES IDX 85 47 28 48 84 49 29 50 30 51 31 52 78 53 32 54 83 55 77 56
REMARK SMILES IDX 79 57 33 58 82 59 76 60 75 61 34 63 64 64 45 65 63 66 46 67
REMARK SMILES IDX 49 68 62 69 80 70 47 71 48 72 61 74 81 75 50 76 35 77 36 78
REMARK SMILES IDX 44 79 37 80 43 81 38 82 39 83 40 84 41 85 42 86 65 87 66 88
REMARK SMILES IDX 74 89 67 90 73 91 68 92 69 93 70 94 71 95 72 96 51 97 52 98
REMARK SMILES IDX 60 99 53 100 59 101 54 102 55 103 56 104 57 105 58 106
REMARK H PARENT 16 7 9 17 90 27 23 43 79 62 49 73
REMARK Flexibility Score: inf
ROOT
ATOM      1  C   UNL     1      -6.966   2.380  -6.095  1.00  0.00     0.002 C 
ENDROOT
BRANCH   1   2
ATOM      2  C   UNL     1      -6.391   2.506  -4.679  1.00  0.00     0.021 C 
BRANCH   2   3
ATOM      3  C   UNL     1      -5.556   3.769  -4.439  1.00  0.00     0.116 C 
BRANCH   3   4
ATOM      4  N   UNL     1      -6.391   4.854  -3.933  1.00  0.00    -0.352 N 
ATOM      5  C   UNL     1      -6.366   5.620  -2.793  1.00  0.00     0.251 C 
ATOM      6  O   UNL     1      -7.157   6.561  -2.714  1.00  0.00    -0.269 OA
ATOM      7  H   UNL     1      -7.132   5.086  -4.539  1.00  0.00     0.163 HD
BRANCH   5   8
ATOM      8  C   UNL     1      -5.416   5.402  -1.669  1.00  0.00     0.039 A 
ATOM      9  C   UNL     1      -3.524   5.125   0.418  1.00  0.00     0.041 A 
ATOM     10  C   UNL     1      -4.125   6.357   0.188  1.00  0.00     0.027 A 
ATOM     11  C   UNL     1      -4.009   4.025  -0.279  1.00  0.00     0.027 A 
ATOM     12  C   UNL     1      -5.048   6.498  -0.865  1.00  0.00     0.016 A 
ATOM     13  C   UNL     1      -4.945   4.149  -1.308  1.00  0.00     0.016 A 
BRANCH   9  14
ATOM     14  N   UNL     1      -2.557   4.976   1.426  1.00  0.00    -0.325 N 
ATOM     15  C   UNL     1      -1.424   4.184   1.446  1.00  0.00     0.238 C 
ATOM     16  O   UNL     1      -0.942   3.877   2.539  1.00  0.00    -0.273 OA
ATOM     17  H   UNL     1      -2.708   5.515   2.236  1.00  0.00     0.169 HD
BRANCH  15  18
ATOM     18  C   UNL     1      -0.672   3.899   0.134  1.00  0.00     0.160 C 
ATOM     19  C   UNL     1       1.126  -0.085   0.856  1.00  0.00     0.301 C 
ATOM     20  N   UNL     1       0.551   1.226   0.598  1.00  0.00    -0.194 N 
ATOM     21  C   UNL     1       1.378   2.340   0.670  1.00  0.00     0.311 C 
ATOM     22  C   UNL     1      -0.809   1.262   0.351  1.00  0.00     0.319 C 
ATOM     23  O   UNL     1       2.569   2.257   0.990  1.00  0.00    -0.247 OA
ATOM     24  C   UNL     1       0.827   3.724   0.346  1.00  0.00     0.153 C 
ATOM     25  S   UNL     1      -1.269   2.490  -0.783  1.00  0.00    -0.024 SA
ATOM     26  N   UNL     1      -1.595   0.393   0.903  1.00  0.00    -0.235 N 
ATOM     27  H   UNL     1      -1.195  -0.360   1.396  1.00  0.00     0.313 HD
BRANCH  26  28
ATOM     28  C   UNL     1      -2.989   0.482   0.827  1.00  0.00     0.126 A 
ATOM     29  C   UNL     1      -3.693   0.838   1.985  1.00  0.00     0.052 A 
ATOM     30  C   UNL     1      -3.703   0.215  -0.343  1.00  0.00     0.064 A 
ATOM     31  C   UNL     1      -5.081   0.973   1.969  1.00  0.00     0.005 A 
ATOM     32  C   UNL     1      -5.098   0.383  -0.384  1.00  0.00     0.060 A 
ATOM     33  C   UNL     1      -5.781   0.756   0.785  1.00  0.00     0.013 A 
BRANCH  32  34
ATOM     34  C   UNL     1      -5.856   0.205  -1.672  1.00  0.00     0.416 C 
ATOM     35  F   UNL     1      -6.580  -0.941  -1.719  1.00  0.00    -0.166 F 
ATOM     36  F   UNL     1      -6.744   1.219  -1.883  1.00  0.00    -0.166 F 
ATOM     37  F   UNL     1      -5.053   0.197  -2.772  1.00  0.00    -0.166 F 
ENDBRANCH  32  34
ENDBRANCH  26  28
ENDBRANCH  15  18
ENDBRANCH   9  14
ENDBRANCH   5   8
ENDBRANCH   3   4
ENDBRANCH   2   3
ENDBRANCH   1   2
BRANCH   1  38
ATOM     38  C   UNL     1      -5.934   2.138  -7.204  1.00  0.00     0.002 C 
BRANCH  38  39
ATOM     39  C   UNL     1      -4.993   0.944  -7.002  1.00  0.00     0.021 C 
BRANCH  39  40
ATOM     40  C   UNL     1      -5.676  -0.405  -6.776  1.00  0.00     0.116 C 
BRANCH  40  41
ATOM     41  N   UNL     1      -6.516  -0.791  -7.898  1.00  0.00    -0.352 N 
ATOM     42  C   UNL     1      -6.418  -1.858  -8.757  1.00  0.00     0.251 C 
ATOM     43  H   UNL     1      -7.279  -0.192  -8.069  1.00  0.00     0.163 HD
ATOM     44  O   UNL     1      -7.114  -1.886  -9.767  1.00  0.00    -0.269 OA
BRANCH  42  45
ATOM     45  C   UNL     1      -5.474  -2.967  -8.484  1.00  0.00     0.039 A 
ATOM     46  C   UNL     1      -4.726  -3.489  -9.544  1.00  0.00     0.014 A 
ATOM     47  C   UNL     1      -5.359  -3.528  -7.209  1.00  0.00     0.014 A 
ATOM     48  C   UNL     1      -3.824  -4.532  -9.315  1.00  0.00     0.010 A 
ATOM     49  C   UNL     1      -4.415  -4.527  -6.969  1.00  0.00     0.010 A 
ATOM     50  C   UNL     1      -3.639  -5.041  -8.019  1.00  0.00    -0.014 A 
BRANCH  50  51
ATOM     51  C   UNL     1      -2.636  -6.105  -7.747  1.00  0.00     0.031 A 
ATOM     52  C   UNL     1      -3.077  -7.466  -7.278  1.00  0.00     0.074 A 
ATOM     53  C   UNL     1      -1.322  -5.829  -7.869  1.00  0.00     0.049 A 
ATOM     54  N   UNL     1      -2.346  -8.497  -6.937  1.00  0.00    -0.248 NA
ATOM     55  C   UNL     1      -4.526  -7.692  -7.155  1.00  0.00     0.031 C 
ATOM     56  C   UNL     1      -0.762  -4.540  -8.282  1.00  0.00     0.029 A 
ATOM     57  N   UNL     1      -0.217  -6.613  -7.648  1.00  0.00    -0.354 N 
ATOM     58  C   UNL     1      -3.242  -9.486  -6.545  1.00  0.00     0.074 A 
ATOM     59  C   UNL     1      -4.568  -8.917  -6.650  1.00  0.00     0.031 C 
ATOM     60  C   UNL     1       0.577  -4.628  -8.303  1.00  0.00     0.029 A 
ATOM     61  C   UNL     1       0.975  -5.964  -7.870  1.00  0.00     0.049 A 
ATOM     62  H   UNL     1      -0.273  -7.552  -7.358  1.00  0.00     0.167 HD
ATOM     63  C   UNL     1      -2.986 -10.756  -6.148  1.00  0.00     0.031 A 
ATOM     64  C   UNL     1       2.246  -6.389  -7.732  1.00  0.00     0.031 A 
ATOM     65  C   UNL     1      -1.667 -11.324  -6.056  1.00  0.00     0.049 A 
ATOM     66  C   UNL     1       2.504  -7.802  -7.284  1.00  0.00     0.074 A 
ATOM     67  C   UNL     1      -1.310 -12.618  -5.717  1.00  0.00     0.029 A 
ATOM     68  N   UNL     1      -0.488 -10.637  -6.302  1.00  0.00    -0.354 N 
ATOM     69  N   UNL     1       1.640  -8.739  -6.976  1.00  0.00    -0.248 NA
ATOM     70  C   UNL     1       3.910  -8.217  -7.175  1.00  0.00     0.031 C 
ATOM     71  C   UNL     1       0.087 -12.700  -5.710  1.00  0.00     0.029 A 
ATOM     72  C   UNL     1       0.598 -11.472  -6.101  1.00  0.00     0.049 A 
ATOM     73  H   UNL     1      -0.431  -9.694  -6.579  1.00  0.00     0.167 HD
ATOM     74  C   UNL     1       2.397  -9.863  -6.664  1.00  0.00     0.074 A 
ATOM     75  C   UNL     1       3.787  -9.493  -6.834  1.00  0.00     0.031 C 
ATOM     76  C   UNL     1       1.977 -11.092  -6.274  1.00  0.00     0.031 A 
BRANCH  63  77
ATOM     77  C   UNL     1      -4.161 -11.622  -5.776  1.00  0.00    -0.014 A 
ATOM     78  C   UNL     1      -5.053 -12.095  -6.756  1.00  0.00     0.010 A 
ATOM     79  C   UNL     1      -4.347 -12.012  -4.437  1.00  0.00     0.010 A 
ATOM     80  C   UNL     1      -6.131 -12.910  -6.398  1.00  0.00     0.020 A 
ATOM     81  C   UNL     1      -5.409 -12.848  -4.079  1.00  0.00     0.020 A 
ATOM     82  C   UNL     1      -6.304 -13.279  -5.060  1.00  0.00     0.054 A 
BRANCH  82  83
ATOM     83  S   UNL     1      -7.696 -14.359  -4.629  1.00  0.00     0.124 S 
ATOM     84  O   UNL     1      -8.831 -13.447  -4.746  1.00  0.00    -0.237 OA
ATOM     85  O   UNL     1      -7.621 -15.402  -5.649  1.00  0.00    -0.237 OA
ATOM     86  O   UNL     1      -7.388 -14.797  -3.270  1.00  0.00    -0.744 OA
ENDBRANCH  82  83
ENDBRANCH  63  77
BRANCH  64  87
ATOM     87  C   UNL     1       3.375  -5.467  -8.032  1.00  0.00    -0.014 A 
ATOM     88  C   UNL     1       4.177  -5.665  -9.169  1.00  0.00     0.010 A 
ATOM     89  C   UNL     1       3.649  -4.379  -7.182  1.00  0.00     0.010 A 
ATOM     90  C   UNL     1       5.245  -4.804  -9.441  1.00  0.00     0.020 A 
ATOM     91  C   UNL     1       4.699  -3.501  -7.466  1.00  0.00     0.020 A 
ATOM     92  C   UNL     1       5.498  -3.727  -8.588  1.00  0.00     0.054 A 
BRANCH  92  93
ATOM     93  S   UNL     1       6.859  -2.594  -8.986  1.00  0.00     0.124 S 
ATOM     94  O   UNL     1       8.029  -3.384  -8.619  1.00  0.00    -0.237 OA
ATOM     95  O   UNL     1       6.671  -2.365 -10.417  1.00  0.00    -0.237 OA
ATOM     96  O   UNL     1       6.594  -1.433  -8.139  1.00  0.00    -0.744 OA
ENDBRANCH  92  93
ENDBRANCH  64  87
BRANCH  76  97
ATOM     97  C   UNL     1       3.030 -12.141  -6.035  1.00  0.00    -0.014 A 
ATOM     98  C   UNL     1       3.864 -12.094  -4.904  1.00  0.00     0.010 A 
ATOM     99  C   UNL     1       3.148 -13.220  -6.930  1.00  0.00     0.010 A 
ATOM    100  C   UNL     1       4.819 -13.091  -4.690  1.00  0.00     0.020 A 
ATOM    101  C   UNL     1       4.083 -14.233  -6.705  1.00  0.00     0.020 A 
ATOM    102  C   UNL     1       4.923 -14.155  -5.592  1.00  0.00     0.054 A 
BRANCH 102 103
ATOM    103  S   UNL     1       6.139 -15.460  -5.268  1.00  0.00     0.124 S 
ATOM    104  O   UNL     1       7.394 -14.801  -5.620  1.00  0.00    -0.237 OA
ATOM    105  O   UNL     1       5.949 -15.731  -3.845  1.00  0.00    -0.237 OA
ATOM    106  O   UNL     1       5.732 -16.543  -6.162  1.00  0.00    -0.744 OA
ENDBRANCH 102 103
ENDBRANCH  76  97
ENDBRANCH  50  51
ENDBRANCH  42  45
ENDBRANCH  40  41
ENDBRANCH  39  40
ENDBRANCH  38  39
ENDBRANCH   1  38
TORSDOF 20
