REMARK SMILES CC1(C)[C@H](O)CC[C@]2(C)[C@@H]1CC[C@@]1(C)Oc3oc(C(=O)NCCCCCCNC(=O)c4ccc(-c5c6nc(c(-c7ccc(S(=O)(=O)[O-])cc7)c7ccc([nH]7)c(-c7ccc(S(=O)(=O)[O-])cc7)c7nc(c(-c8ccc(S(=O)(=O)[O-])cc8)c8ccc5[nH]8)C=C7)C=C6)cc4)cc(=O)c3C[C@H]21
REMARK SMILES IDX 25 1 24 2 23 3 22 4 21 5 19 6 20 7 18 9 1 10 2 11 3 12 4 13
REMARK SMILES IDX 10 14 6 15 8 16 11 17 7 18 9 19 96 20 12 21 13 22 95 23
REMARK SMILES IDX 14 24 15 25 94 26 16 27 92 28 17 29 91 30 93 31 5 32 26 34
REMARK SMILES IDX 27 35 28 36 29 37 30 39 31 40 32 41 90 42 33 43 89 44 34 45
REMARK SMILES IDX 35 46 36 47 83 48 37 49 88 50 82 51 84 52 38 53 87 54 81 55
REMARK SMILES IDX 80 56 39 58 69 59 50 60 68 61 51 62 54 63 67 64 85 65 52 66
REMARK SMILES IDX 53 67 66 69 86 70 55 71 40 72 41 73 49 74 42 75 48 76 43 77
REMARK SMILES IDX 44 78 45 79 46 80 47 81 70 82 71 83 79 84 72 85 78 86 73 87
REMARK SMILES IDX 74 88 75 89 76 90 77 91 56 92 57 93 65 94 58 95 64 96 59 97
REMARK SMILES IDX 60 98 61 99 62 100 63 101
REMARK H PARENT 21 8 5 33 28 38 84 57 54 68
REMARK Flexibility Score: inf
ROOT
ATOM      1  C   UNL     1       1.097   4.858  10.306  1.00  0.00     0.002 C 
ENDROOT
BRANCH   1   2
ATOM      2  C   UNL     1       2.173   5.624   9.534  1.00  0.00     0.002 C 
BRANCH   2   3
ATOM      3  C   UNL     1       2.200   5.375   8.026  1.00  0.00     0.021 C 
BRANCH   3   4
ATOM      4  C   UNL     1       0.995   5.922   7.223  1.00  0.00     0.116 C 
BRANCH   4   5
ATOM      5  N   UNL     1       1.171   7.312   6.739  1.00  0.00    -0.349 N 
ATOM      6  C   UNL     1       1.590   7.904   5.555  1.00  0.00     0.287 C 
ATOM      7  O   UNL     1       1.437   9.120   5.441  1.00  0.00    -0.266 OA
ATOM      8  H   UNL     1       0.932   7.978   7.423  1.00  0.00     0.163 HD
BRANCH   6   9
ATOM      9  C   UNL     1       2.200   7.119   4.421  1.00  0.00     0.199 A 
ATOM     10  C   UNL     1       1.923   0.649  -2.814  1.00  0.00     0.014 C 
ATOM     11  C   UNL     1       1.147   1.841  -2.176  1.00  0.00    -0.006 C 
ATOM     12  C   UNL     1      -0.235   1.848  -2.877  1.00  0.00     0.014 C 
ATOM     13  C   UNL     1       0.806   1.229  -0.618  1.00  0.00     0.120 C 
ATOM     14  C   UNL     1       2.208   3.325  -2.154  1.00  0.00     0.004 C 
ATOM     15  C   UNL     1       1.990   1.275   0.321  1.00  0.00     0.033 C 
ATOM     16  C   UNL     1       2.026   3.648  -0.703  1.00  0.00    -0.022 C 
ATOM     17  C   UNL     1       2.401   4.739  -2.842  1.00  0.00     0.009 C 
ATOM     18  C   UNL     1       2.832   2.371  -0.194  1.00  0.00     0.010 C 
ATOM     19  C   UNL     1       0.480   4.161  -0.897  1.00  0.00     0.012 C 
ATOM     20  C   UNL     1       2.442   4.788   0.184  1.00  0.00     0.044 C 
ATOM     21  C   UNL     1       2.673   6.100  -1.896  1.00  0.00     0.049 C 
ATOM     22  C   UNL     1       3.166   5.966  -0.369  1.00  0.00     0.113 C 
ATOM     23  C   UNL     1       2.951   4.332   1.513  1.00  0.00     0.055 C 
ATOM     24  C   UNL     1       4.697   5.860  -0.345  1.00  0.00     0.057 C 
ATOM     25  O   UNL     1       2.775   7.089   0.615  1.00  0.00    -0.458 OA
ATOM     26  C   UNL     1       2.940   5.459   2.413  1.00  0.00     0.081 A 
ATOM     27  C   UNL     1       2.719   6.721   2.043  1.00  0.00     0.292 A 
ATOM     28  C   UNL     1       3.025   4.972   3.783  1.00  0.00     0.192 A 
ATOM     29  O   UNL     1       2.284   7.626   3.072  1.00  0.00    -0.420 OA
ATOM     30  C   UNL     1       2.720   5.953   4.778  1.00  0.00     0.105 A 
ATOM     31  O   UNL     1       3.257   3.829   4.093  1.00  0.00    -0.289 OA
BRANCH  13  32
ATOM     32  O   UNL     1      -0.299   1.862   0.028  1.00  0.00    -0.393 OA
ATOM     33  H   UNL     1      -0.079   2.789   0.212  1.00  0.00     0.210 HD
ENDBRANCH  13  32
ENDBRANCH   6   9
ENDBRANCH   4   5
ENDBRANCH   3   4
ENDBRANCH   2   3
ENDBRANCH   1   2
BRANCH   1  34
ATOM     34  C   UNL     1       1.214   3.329  10.271  1.00  0.00     0.021 C 
BRANCH  34  35
ATOM     35  C   UNL     1       2.485   2.764  10.904  1.00  0.00     0.116 C 
BRANCH  35  36
ATOM     36  N   UNL     1       2.570   3.089  12.321  1.00  0.00    -0.352 N 
ATOM     37  C   UNL     1       2.532   2.244  13.403  1.00  0.00     0.251 C 
ATOM     38  H   UNL     1       2.669   4.045  12.533  1.00  0.00     0.163 HD
ATOM     39  O   UNL     1       2.357   2.685  14.534  1.00  0.00    -0.269 OA
BRANCH  37  40
ATOM     40  C   UNL     1       2.705   0.794  13.187  1.00  0.00     0.039 A 
ATOM     41  C   UNL     1       1.782  -0.098  13.738  1.00  0.00     0.014 A 
ATOM     42  C   UNL     1       3.789   0.328  12.436  1.00  0.00     0.014 A 
ATOM     43  C   UNL     1       1.919  -1.465  13.488  1.00  0.00     0.010 A 
ATOM     44  C   UNL     1       3.894  -1.028  12.148  1.00  0.00     0.010 A 
ATOM     45  C   UNL     1       2.964  -1.935  12.676  1.00  0.00    -0.014 A 
BRANCH  45  46
ATOM     46  C   UNL     1       3.123  -3.379  12.393  1.00  0.00     0.031 A 
ATOM     47  C   UNL     1       4.282  -4.128  12.986  1.00  0.00     0.074 A 
ATOM     48  C   UNL     1       2.256  -4.001  11.571  1.00  0.00     0.049 A 
ATOM     49  N   UNL     1       4.620  -5.380  12.822  1.00  0.00    -0.248 NA
ATOM     50  C   UNL     1       5.186  -3.370  13.868  1.00  0.00     0.031 C 
ATOM     51  C   UNL     1       1.103  -3.371  10.925  1.00  0.00     0.029 A 
ATOM     52  N   UNL     1       2.211  -5.302  11.138  1.00  0.00    -0.354 N 
ATOM     53  C   UNL     1       5.772  -5.559  13.576  1.00  0.00     0.074 A 
ATOM     54  C   UNL     1       6.104  -4.280  14.163  1.00  0.00     0.031 C 
ATOM     55  C   UNL     1       0.451  -4.293  10.196  1.00  0.00     0.029 A 
ATOM     56  C   UNL     1       1.158  -5.567  10.296  1.00  0.00     0.049 A 
ATOM     57  H   UNL     1       2.872  -5.982  11.405  1.00  0.00     0.167 HD
ATOM     58  C   UNL     1       6.478  -6.695  13.778  1.00  0.00     0.031 A 
ATOM     59  C   UNL     1       0.802  -6.707   9.671  1.00  0.00     0.031 A 
ATOM     60  C   UNL     1       6.141  -7.966  13.199  1.00  0.00     0.049 A 
ATOM     61  C   UNL     1       1.623  -7.948   9.882  1.00  0.00     0.074 A 
ATOM     62  C   UNL     1       6.777  -9.182  13.375  1.00  0.00     0.029 A 
ATOM     63  N   UNL     1       5.079  -8.186  12.336  1.00  0.00    -0.354 N 
ATOM     64  N   UNL     1       2.695  -8.106  10.622  1.00  0.00    -0.248 NA
ATOM     65  C   UNL     1       1.190  -9.165   9.181  1.00  0.00     0.031 C 
ATOM     66  C   UNL     1       6.128 -10.129  12.580  1.00  0.00     0.029 A 
ATOM     67  C   UNL     1       5.054  -9.515  11.954  1.00  0.00     0.049 A 
ATOM     68  H   UNL     1       4.439  -7.500  12.040  1.00  0.00     0.167 HD
ATOM     69  C   UNL     1       3.049  -9.444  10.496  1.00  0.00     0.074 A 
ATOM     70  C   UNL     1       2.079 -10.053   9.609  1.00  0.00     0.031 C 
ATOM     71  C   UNL     1       4.082 -10.106  11.070  1.00  0.00     0.031 A 
BRANCH  58  72
ATOM     72  C   UNL     1       7.686  -6.622  14.669  1.00  0.00    -0.014 A 
ATOM     73  C   UNL     1       7.544  -6.516  16.064  1.00  0.00     0.010 A 
ATOM     74  C   UNL     1       8.973  -6.748  14.115  1.00  0.00     0.010 A 
ATOM     75  C   UNL     1       8.670  -6.525  16.889  1.00  0.00     0.020 A 
ATOM     76  C   UNL     1      10.100  -6.779  14.939  1.00  0.00     0.020 A 
ATOM     77  C   UNL     1       9.941  -6.666  16.322  1.00  0.00     0.054 A 
BRANCH  77  78
ATOM     78  S   UNL     1      11.377  -6.718  17.427  1.00  0.00     0.124 S 
ATOM     79  O   UNL     1      11.290  -5.426  18.104  1.00  0.00    -0.237 OA
ATOM     80  O   UNL     1      11.090  -7.883  18.259  1.00  0.00    -0.237 OA
ATOM     81  O   UNL     1      12.511  -6.864  16.518  1.00  0.00    -0.744 OA
ENDBRANCH  77  78
ENDBRANCH  58  72
BRANCH  59  82
ATOM     82  C   UNL     1      -0.409  -6.720   8.809  1.00  0.00    -0.014 A 
ATOM     83  C   UNL     1      -1.596  -7.323   9.259  1.00  0.00     0.010 A 
ATOM     84  C   UNL     1      -0.399  -6.074   7.558  1.00  0.00     0.010 A 
ATOM     85  C   UNL     1      -2.754  -7.274   8.477  1.00  0.00     0.020 A 
ATOM     86  C   UNL     1      -1.560  -6.005   6.784  1.00  0.00     0.020 A 
ATOM     87  C   UNL     1      -2.732  -6.603   7.251  1.00  0.00     0.054 A 
BRANCH  87  88
ATOM     88  S   UNL     1      -4.269  -6.497   6.292  1.00  0.00     0.124 S 
ATOM     89  O   UNL     1      -4.586  -7.902   6.059  1.00  0.00    -0.237 OA
ATOM     90  O   UNL     1      -5.156  -5.791   7.213  1.00  0.00    -0.237 OA
ATOM     91  O   UNL     1      -3.881  -5.739   5.104  1.00  0.00    -0.744 OA
ENDBRANCH  87  88
ENDBRANCH  59  82
BRANCH  71  92
ATOM     92  C   UNL     1       4.223 -11.577  10.791  1.00  0.00    -0.014 A 
ATOM     93  C   UNL     1       4.753 -12.034   9.573  1.00  0.00     0.010 A 
ATOM     94  C   UNL     1       3.942 -12.503  11.813  1.00  0.00     0.010 A 
ATOM     95  C   UNL     1       4.999 -13.395   9.382  1.00  0.00     0.020 A 
ATOM     96  C   UNL     1       4.207 -13.862  11.633  1.00  0.00     0.020 A 
ATOM     97  C   UNL     1       4.737 -14.299  10.417  1.00  0.00     0.054 A 
BRANCH  97  98
ATOM     98  S   UNL     1       5.130 -16.050  10.159  1.00  0.00     0.124 S 
ATOM     99  O   UNL     1       4.285 -16.391   9.018  1.00  0.00    -0.237 OA
ATOM    100  O   UNL     1       6.565 -16.012   9.890  1.00  0.00    -0.237 OA
ATOM    101  O   UNL     1       4.752 -16.683  11.421  1.00  0.00    -0.744 OA
ENDBRANCH  97  98
ENDBRANCH  71  92
ENDBRANCH  45  46
ENDBRANCH  37  40
ENDBRANCH  35  36
ENDBRANCH  34  35
ENDBRANCH   1  34
TORSDOF 17
