REMARK SMILES Cc1ccc(C(=O)NCCCCCCNC(=O)c2ccc(-c3c4nc(c(-c5ccc(S(=O)(=O)[O-])cc5)c5ccc([nH]5)c(-c5ccc(S(=O)(=O)[O-])cc5)c5nc(c(-c6ccc(S(=O)(=O)[O-])cc6)c6ccc3[nH]6)C=C5)C=C4)cc2)cc1-c1ccc(/C=C2/SC(=O)N(Cc3ccccc3)C2=O)o1
REMARK SMILES IDX 11 1 10 2 9 3 8 4 6 5 7 6 5 8 1 9 2 10 3 11 79 12 4 13 78 14
REMARK SMILES IDX 80 15 81 16 99 17 82 18 83 19 84 20 85 21 86 22 97 23 87 24
REMARK SMILES IDX 89 25 98 26 88 27 90 28 91 29 92 30 96 31 93 32 95 33 94 34
REMARK SMILES IDX 12 35 13 36 14 37 15 38 16 39 17 41 18 42 19 43 77 44 20 45
REMARK SMILES IDX 76 46 21 47 22 48 23 49 70 50 24 51 75 52 69 53 71 54 25 55
REMARK SMILES IDX 74 56 68 57 67 58 26 60 56 61 37 62 55 63 38 64 41 65 54 66
REMARK SMILES IDX 72 67 39 68 40 69 53 71 73 72 42 73 27 74 28 75 36 76 29 77
REMARK SMILES IDX 35 78 30 79 31 80 32 81 33 82 34 83 57 84 58 85 66 86 59 87
REMARK SMILES IDX 65 88 60 89 61 90 62 91 63 92 64 93 43 94 44 95 52 96 45 97
REMARK SMILES IDX 51 98 46 99 47 100 48 101 49 102 50 103
REMARK H PARENT 8 7 15 40 71 59 41 70
REMARK Flexibility Score: inf
ROOT
ATOM      1  C   UNL     1      -5.454   3.614  -1.134  1.00  0.00     0.002 C 
ENDROOT
BRANCH   1   2
ATOM      2  C   UNL     1      -3.979   3.240  -0.911  1.00  0.00     0.021 C 
BRANCH   2   3
ATOM      3  C   UNL     1      -3.722   2.367   0.321  1.00  0.00     0.116 C 
BRANCH   3   4
ATOM      4  N   UNL     1      -3.923   0.961   0.024  1.00  0.00    -0.352 N 
ATOM      5  C   UNL     1      -3.077  -0.104  -0.139  1.00  0.00     0.251 C 
ATOM      6  O   UNL     1      -3.602  -1.211  -0.290  1.00  0.00    -0.269 OA
ATOM      7  H   UNL     1      -4.872   0.721  -0.085  1.00  0.00     0.163 HD
BRANCH   5   8
ATOM      8  C   UNL     1      -1.585  -0.026  -0.108  1.00  0.00     0.040 A 
ATOM      9  C   UNL     1       2.755  -0.217   0.039  1.00  0.00     0.045 C 
ATOM     10  C   UNL     1       1.255  -0.105  -0.006  1.00  0.00    -0.040 A 
ATOM     11  C   UNL     1       0.499  -1.275   0.142  1.00  0.00     0.005 A 
ATOM     12  C   UNL     1       0.581   1.108  -0.242  1.00  0.00     0.021 A 
ATOM     13  C   UNL     1      -0.898  -1.231   0.109  1.00  0.00     0.014 A 
ATOM     14  C   UNL     1      -0.828   1.126  -0.327  1.00  0.00     0.026 A 
BRANCH  12  15
ATOM     15  C   UNL     1       1.287   2.369  -0.389  1.00  0.00     0.135 A 
ATOM     16  C   UNL     1       2.090   2.918  -1.359  1.00  0.00     0.051 A 
ATOM     17  O   UNL     1       1.151   3.238   0.652  1.00  0.00    -0.457 OA
ATOM     18  C   UNL     1       2.456   4.199  -0.882  1.00  0.00     0.051 A 
ATOM     19  C   UNL     1       1.895   4.362   0.379  1.00  0.00     0.128 A 
BRANCH  19  20
ATOM     20  C   UNL     1       1.999   5.479   1.245  1.00  0.00     0.068 C 
ATOM     21  C   UNL     1       2.467   5.411   2.498  1.00  0.00     0.086 C 
ATOM     22  S   UNL     1       2.663   6.835   3.467  1.00  0.00    -0.022 SA
ATOM     23  C   UNL     1       2.979   4.226   3.255  1.00  0.00     0.268 C 
ATOM     24  C   UNL     1       3.468   5.963   4.755  1.00  0.00     0.293 C 
ATOM     25  N   UNL     1       3.421   4.617   4.500  1.00  0.00    -0.264 N 
ATOM     26  O   UNL     1       3.071   3.091   2.811  1.00  0.00    -0.268 OA
ATOM     27  O   UNL     1       3.993   6.520   5.697  1.00  0.00    -0.261 OA
BRANCH  25  28
ATOM     28  C   UNL     1       3.996   3.669   5.433  1.00  0.00     0.165 C 
BRANCH  28  29
ATOM     29  C   UNL     1       3.151   3.351   6.654  1.00  0.00    -0.028 A 
ATOM     30  C   UNL     1       3.640   2.396   7.564  1.00  0.00     0.005 A 
ATOM     31  C   UNL     1       1.931   3.978   6.946  1.00  0.00     0.005 A 
ATOM     32  C   UNL     1       2.939   2.088   8.732  1.00  0.00     0.000 A 
ATOM     33  C   UNL     1       1.233   3.673   8.119  1.00  0.00     0.000 A 
ATOM     34  C   UNL     1       1.738   2.732   9.012  1.00  0.00     0.000 A 
ENDBRANCH  28  29
ENDBRANCH  25  28
ENDBRANCH  19  20
ENDBRANCH  12  15
ENDBRANCH   5   8
ENDBRANCH   3   4
ENDBRANCH   2   3
ENDBRANCH   1   2
BRANCH   1  35
ATOM     35  C   UNL     1      -6.175   4.297   0.042  1.00  0.00     0.002 C 
BRANCH  35  36
ATOM     36  C   UNL     1      -5.417   5.438   0.723  1.00  0.00     0.021 C 
BRANCH  36  37
ATOM     37  C   UNL     1      -5.281   6.678  -0.152  1.00  0.00     0.116 C 
BRANCH  37  38
ATOM     38  N   UNL     1      -5.983   7.834   0.392  1.00  0.00    -0.352 N 
ATOM     39  C   UNL     1      -5.896   9.142  -0.041  1.00  0.00     0.251 C 
ATOM     40  H   UNL     1      -6.585   7.663   1.152  1.00  0.00     0.163 HD
ATOM     41  O   UNL     1      -6.280  10.096   0.624  1.00  0.00    -0.269 OA
BRANCH  39  42
ATOM     42  C   UNL     1      -5.449   9.336  -1.431  1.00  0.00     0.039 A 
ATOM     43  C   UNL     1      -6.433   9.655  -2.376  1.00  0.00     0.014 A 
ATOM     44  C   UNL     1      -4.181   8.910  -1.815  1.00  0.00     0.014 A 
ATOM     45  C   UNL     1      -6.195   9.394  -3.720  1.00  0.00     0.010 A 
ATOM     46  C   UNL     1      -3.980   8.569  -3.137  1.00  0.00     0.010 A 
ATOM     47  C   UNL     1      -4.999   8.773  -4.080  1.00  0.00    -0.014 A 
BRANCH  47  48
ATOM     48  C   UNL     1      -4.737   8.253  -5.414  1.00  0.00     0.031 A 
ATOM     49  C   UNL     1      -3.875   9.019  -6.338  1.00  0.00     0.074 A 
ATOM     50  C   UNL     1      -5.216   7.045  -5.784  1.00  0.00     0.049 A 
ATOM     51  N   UNL     1      -3.937   8.939  -7.625  1.00  0.00    -0.248 NA
ATOM     52  C   UNL     1      -2.883   9.982  -5.865  1.00  0.00     0.031 C 
ATOM     53  C   UNL     1      -4.822   6.270  -6.958  1.00  0.00     0.029 A 
ATOM     54  N   UNL     1      -6.329   6.362  -5.289  1.00  0.00    -0.354 N 
ATOM     55  C   UNL     1      -2.812   9.559  -8.118  1.00  0.00     0.074 A 
ATOM     56  C   UNL     1      -2.240  10.271  -6.999  1.00  0.00     0.031 C 
ATOM     57  C   UNL     1      -5.824   5.434  -7.274  1.00  0.00     0.029 A 
ATOM     58  C   UNL     1      -6.939   5.759  -6.401  1.00  0.00     0.049 A 
ATOM     59  H   UNL     1      -6.625   6.312  -4.351  1.00  0.00     0.167 HD
ATOM     60  C   UNL     1      -2.371   9.276  -9.375  1.00  0.00     0.031 A 
ATOM     61  C   UNL     1      -8.209   6.038  -6.818  1.00  0.00     0.031 A 
ATOM     62  C   UNL     1      -3.251   8.344 -10.069  1.00  0.00     0.049 A 
ATOM     63  C   UNL     1      -8.266   6.513  -8.257  1.00  0.00     0.074 A 
ATOM     64  C   UNL     1      -3.182   6.981 -10.309  1.00  0.00     0.029 A 
ATOM     65  N   UNL     1      -4.553   8.728 -10.366  1.00  0.00    -0.354 N 
ATOM     66  N   UNL     1      -7.233   6.945  -8.927  1.00  0.00    -0.248 NA
ATOM     67  C   UNL     1      -9.494   6.572  -9.043  1.00  0.00     0.031 C 
ATOM     68  C   UNL     1      -4.469   6.536 -10.704  1.00  0.00     0.029 A 
ATOM     69  C   UNL     1      -5.313   7.632 -10.725  1.00  0.00     0.049 A 
ATOM     70  H   UNL     1      -4.887   9.654 -10.326  1.00  0.00     0.167 HD
ATOM     71  C   UNL     1      -7.615   7.314 -10.193  1.00  0.00     0.074 A 
ATOM     72  C   UNL     1      -9.044   7.058 -10.214  1.00  0.00     0.031 C 
ATOM     73  C   UNL     1      -6.713   7.795 -11.102  1.00  0.00     0.031 A 
BRANCH  60  74
ATOM     74  C   UNL     1      -0.962   9.601  -9.807  1.00  0.00    -0.014 A 
ATOM     75  C   UNL     1      -0.238   8.673 -10.583  1.00  0.00     0.010 A 
ATOM     76  C   UNL     1      -0.279  10.772  -9.425  1.00  0.00     0.010 A 
ATOM     77  C   UNL     1       1.122   8.847 -10.868  1.00  0.00     0.020 A 
ATOM     78  C   UNL     1       1.093  10.941  -9.672  1.00  0.00     0.020 A 
ATOM     79  C   UNL     1       1.790   9.968 -10.383  1.00  0.00     0.054 A 
BRANCH  79  80
ATOM     80  S   UNL     1       3.573  10.116 -10.672  1.00  0.00     0.124 S 
ATOM     81  O   UNL     1       4.082   8.841 -10.170  1.00  0.00    -0.237 OA
ATOM     82  O   UNL     1       3.641  10.295 -12.119  1.00  0.00    -0.237 OA
ATOM     83  O   UNL     1       3.956  11.283  -9.880  1.00  0.00    -0.744 OA
ENDBRANCH  79  80
ENDBRANCH  60  74
BRANCH  61  84
ATOM     84  C   UNL     1      -9.131   6.477  -5.733  1.00  0.00    -0.014 A 
ATOM     85  C   UNL     1      -9.484   5.526  -4.751  1.00  0.00     0.010 A 
ATOM     86  C   UNL     1      -9.290   7.843  -5.442  1.00  0.00     0.010 A 
ATOM     87  C   UNL     1      -9.827   5.929  -3.457  1.00  0.00     0.020 A 
ATOM     88  C   UNL     1      -9.643   8.249  -4.145  1.00  0.00     0.020 A 
ATOM     89  C   UNL     1      -9.845   7.289  -3.148  1.00  0.00     0.054 A 
BRANCH  89  90
ATOM     90  S   UNL     1      -9.953   7.769  -1.396  1.00  0.00     0.124 S 
ATOM     91  O   UNL     1     -11.254   7.234  -1.007  1.00  0.00    -0.237 OA
ATOM     92  O   UNL     1      -8.795   7.089  -0.817  1.00  0.00    -0.237 OA
ATOM     93  O   UNL     1      -9.857   9.224  -1.441  1.00  0.00    -0.744 OA
ENDBRANCH  89  90
ENDBRANCH  61  84
BRANCH  73  94
ATOM     94  C   UNL     1      -6.997   8.396 -12.468  1.00  0.00    -0.014 A 
ATOM     95  C   UNL     1      -8.260   8.787 -12.934  1.00  0.00     0.010 A 
ATOM     96  C   UNL     1      -5.898   8.683 -13.322  1.00  0.00     0.010 A 
ATOM     97  C   UNL     1      -8.423   9.392 -14.192  1.00  0.00     0.020 A 
ATOM     98  C   UNL     1      -6.042   9.323 -14.556  1.00  0.00     0.020 A 
ATOM     99  C   UNL     1      -7.313   9.657 -14.995  1.00  0.00     0.054 A 
BRANCH  99 100
ATOM    100  S   UNL     1      -7.534  10.505 -16.579  1.00  0.00     0.124 S 
ATOM    101  O   UNL     1      -7.917   9.404 -17.459  1.00  0.00    -0.237 OA
ATOM    102  O   UNL     1      -8.592  11.469 -16.285  1.00  0.00    -0.237 OA
ATOM    103  O   UNL     1      -6.223  11.092 -16.842  1.00  0.00    -0.744 OA
ENDBRANCH  99 100
ENDBRANCH  73  94
ENDBRANCH  47  48
ENDBRANCH  39  42
ENDBRANCH  37  38
ENDBRANCH  36  37
ENDBRANCH  35  36
ENDBRANCH   1  35
TORSDOF 20
