REMARK SMILES C[C@H]1[C@H](C(=O)NCCCCCCNC(=O)c2ccc(-c3c4nc(c(-c5ccc(S(=O)(=O)[O-])cc5)c5ccc([nH]5)c(-c5ccc(S(=O)(=O)[O-])cc5)c5nc(c(-c6ccc(S(=O)(=O)[O-])cc6)c6ccc3[nH]6)C=C5)C=C4)cc2)CCN1C(=O)[C@H]1CC=CCC1
REMARK SMILES IDX 10 1 9 2 8 3 7 4 6 5 4 6 5 7 3 9 1 10 2 11 78 12 76 13 77 14
REMARK SMILES IDX 79 15 80 16 81 17 82 18 86 19 83 20 85 21 84 22 11 23 12 24
REMARK SMILES IDX 13 25 14 26 15 28 16 29 17 30 75 31 18 32 74 33 19 34 20 35
REMARK SMILES IDX 21 36 68 37 22 38 73 39 67 40 69 41 23 42 72 43 66 44 65 45
REMARK SMILES IDX 24 47 54 48 35 49 53 50 36 51 39 52 52 53 70 54 37 55 38 56
REMARK SMILES IDX 51 58 71 59 40 60 25 61 26 62 34 63 27 64 33 65 28 66 29 67
REMARK SMILES IDX 30 68 31 69 32 70 55 71 56 72 64 73 57 74 63 75 58 76 59 77
REMARK SMILES IDX 60 78 61 79 62 80 41 81 42 82 50 83 43 84 49 85 44 86 45 87
REMARK SMILES IDX 46 88 47 89 48 90
REMARK H PARENT 6 8 13 27 69 46 39 57
REMARK Flexibility Score: inf
ROOT
ATOM      1  C   UNL     1      -2.023   1.089   5.976  1.00  0.00     0.002 C 
ENDROOT
BRANCH   1   2
ATOM      2  C   UNL     1      -0.607   1.309   5.447  1.00  0.00     0.002 C 
BRANCH   2   3
ATOM      3  C   UNL     1      -0.217   0.463   4.237  1.00  0.00     0.021 C 
BRANCH   3   4
ATOM      4  C   UNL     1      -0.982   0.749   2.946  1.00  0.00     0.116 C 
BRANCH   4   5
ATOM      5  N   UNL     1      -0.528   1.980   2.326  1.00  0.00    -0.356 N 
ATOM      6  C   UNL     1      -0.238   2.286   1.037  1.00  0.00     0.225 C 
ATOM      7  O   UNL     1       0.165   3.434   0.817  1.00  0.00    -0.275 OA
ATOM      8  H   UNL     1      -0.410   2.728   2.954  1.00  0.00     0.163 HD
BRANCH   6   9
ATOM      9  C   UNL     1      -0.361   1.304  -0.121  1.00  0.00     0.102 C 
ATOM     10  C   UNL     1       1.485   0.260  -1.448  1.00  0.00     0.032 C 
ATOM     11  C   UNL     1       0.718   0.202  -0.122  1.00  0.00     0.094 C 
ATOM     12  N   UNL     1      -0.020  -1.053   0.019  1.00  0.00    -0.339 N 
ATOM     13  C   UNL     1      -1.710   0.600  -0.253  1.00  0.00     0.037 C 
ATOM     14  C   UNL     1      -1.383  -0.870  -0.458  1.00  0.00     0.120 C 
BRANCH  12  15
ATOM     15  C   UNL     1       0.361  -2.301   0.460  1.00  0.00     0.226 C 
ATOM     16  O   UNL     1      -0.465  -3.225   0.406  1.00  0.00    -0.275 OA
BRANCH  15  17
ATOM     17  C   UNL     1       1.733  -2.641   1.073  1.00  0.00     0.083 C 
ATOM     18  C   UNL     1       2.961  -2.507   0.172  1.00  0.00     0.040 C 
ATOM     19  C   UNL     1       1.955  -2.157   2.509  1.00  0.00     0.018 C 
ATOM     20  C   UNL     1       3.865  -1.352   0.486  1.00  0.00    -0.030 C 
ATOM     21  C   UNL     1       2.725  -0.847   2.646  1.00  0.00     0.028 C 
ATOM     22  C   UNL     1       3.761  -0.612   1.596  1.00  0.00    -0.031 C 
ENDBRANCH  15  17
ENDBRANCH  12  15
ENDBRANCH   6   9
ENDBRANCH   4   5
ENDBRANCH   3   4
ENDBRANCH   2   3
ENDBRANCH   1   2
BRANCH   1  23
ATOM     23  C   UNL     1      -2.410  -0.367   6.241  1.00  0.00     0.021 C 
BRANCH  23  24
ATOM     24  C   UNL     1      -1.433  -1.162   7.105  1.00  0.00     0.116 C 
BRANCH  24  25
ATOM     25  N   UNL     1      -1.260  -0.581   8.426  1.00  0.00    -0.352 N 
ATOM     26  C   UNL     1      -1.529  -1.123   9.657  1.00  0.00     0.251 C 
ATOM     27  H   UNL     1      -0.896   0.333   8.439  1.00  0.00     0.163 HD
ATOM     28  O   UNL     1      -1.492  -0.412  10.661  1.00  0.00    -0.269 OA
BRANCH  26  29
ATOM     29  C   UNL     1      -1.885  -2.552   9.774  1.00  0.00     0.039 A 
ATOM     30  C   UNL     1      -2.983  -2.913  10.557  1.00  0.00     0.014 A 
ATOM     31  C   UNL     1      -1.139  -3.534   9.114  1.00  0.00     0.014 A 
ATOM     32  C   UNL     1      -3.370  -4.253  10.629  1.00  0.00     0.010 A 
ATOM     33  C   UNL     1      -1.571  -4.858   9.127  1.00  0.00     0.010 A 
ATOM     34  C   UNL     1      -2.689  -5.233   9.887  1.00  0.00    -0.014 A 
BRANCH  34  35
ATOM     35  C   UNL     1      -3.138  -6.650   9.892  1.00  0.00     0.031 A 
ATOM     36  C   UNL     1      -2.245  -7.727  10.447  1.00  0.00     0.074 A 
ATOM     37  C   UNL     1      -4.328  -6.973   9.348  1.00  0.00     0.049 A 
ATOM     38  N   UNL     1      -2.449  -9.019  10.503  1.00  0.00    -0.248 NA
ATOM     39  C   UNL     1      -0.945  -7.301  10.991  1.00  0.00     0.031 C 
ATOM     40  C   UNL     1      -5.269  -6.027   8.744  1.00  0.00     0.029 A 
ATOM     41  N   UNL     1      -4.950  -8.190   9.212  1.00  0.00    -0.354 N 
ATOM     42  C   UNL     1      -1.303  -9.559  11.073  1.00  0.00     0.074 A 
ATOM     43  C   UNL     1      -0.386  -8.463  11.298  1.00  0.00     0.031 C 
ATOM     44  C   UNL     1      -6.359  -6.693   8.331  1.00  0.00     0.029 A 
ATOM     45  C   UNL     1      -6.178  -8.116   8.598  1.00  0.00     0.049 A 
ATOM     46  H   UNL     1      -4.554  -9.035   9.525  1.00  0.00     0.167 HD
ATOM     47  C   UNL     1      -1.043 -10.848  11.400  1.00  0.00     0.031 A 
ATOM     48  C   UNL     1      -7.059  -9.084   8.278  1.00  0.00     0.031 A 
ATOM     49  C   UNL     1      -1.958 -11.937  11.176  1.00  0.00     0.049 A 
ATOM     50  C   UNL     1      -6.738 -10.512   8.627  1.00  0.00     0.074 A 
ATOM     51  C   UNL     1      -1.810 -13.269  11.519  1.00  0.00     0.029 A 
ATOM     52  N   UNL     1      -3.189 -11.821  10.548  1.00  0.00    -0.354 N 
ATOM     53  N   UNL     1      -5.677 -10.994   9.231  1.00  0.00    -0.248 NA
ATOM     54  C   UNL     1      -7.737 -11.525   8.261  1.00  0.00     0.031 C 
ATOM     55  C   UNL     1      -2.923 -13.969  11.044  1.00  0.00     0.029 A 
ATOM     56  C   UNL     1      -3.797 -13.063  10.465  1.00  0.00     0.049 A 
ATOM     57  H   UNL     1      -3.574 -10.980  10.210  1.00  0.00     0.167 HD
ATOM     58  C   UNL     1      -5.894 -12.363   9.340  1.00  0.00     0.074 A 
ATOM     59  C   UNL     1      -7.193 -12.629   8.757  1.00  0.00     0.031 C 
ATOM     60  C   UNL     1      -5.089 -13.314   9.877  1.00  0.00     0.031 A 
BRANCH  47  61
ATOM     61  C   UNL     1       0.294 -11.153  12.027  1.00  0.00    -0.014 A 
ATOM     62  C   UNL     1       0.608 -10.708  13.325  1.00  0.00     0.010 A 
ATOM     63  C   UNL     1       1.238 -11.924  11.324  1.00  0.00     0.010 A 
ATOM     64  C   UNL     1       1.855 -10.989  13.888  1.00  0.00     0.020 A 
ATOM     65  C   UNL     1       2.475 -12.235  11.896  1.00  0.00     0.020 A 
ATOM     66  C   UNL     1       2.783 -11.748  13.168  1.00  0.00     0.054 A 
BRANCH  66  67
ATOM     67  S   UNL     1       4.388 -12.110  13.932  1.00  0.00     0.124 S 
ATOM     68  O   UNL     1       5.045 -10.806  13.884  1.00  0.00    -0.237 OA
ATOM     69  O   UNL     1       4.011 -12.573  15.265  1.00  0.00    -0.237 OA
ATOM     70  O   UNL     1       4.966 -13.130  13.061  1.00  0.00    -0.744 OA
ENDBRANCH  66  67
ENDBRANCH  47  61
BRANCH  48  71
ATOM     71  C   UNL     1      -8.337  -8.732   7.599  1.00  0.00    -0.014 A 
ATOM     72  C   UNL     1      -9.563  -8.846   8.279  1.00  0.00     0.010 A 
ATOM     73  C   UNL     1      -8.334  -8.266   6.271  1.00  0.00     0.010 A 
ATOM     74  C   UNL     1     -10.762  -8.516   7.640  1.00  0.00     0.020 A 
ATOM     75  C   UNL     1      -9.528  -7.907   5.639  1.00  0.00     0.020 A 
ATOM     76  C   UNL     1     -10.736  -8.044   6.324  1.00  0.00     0.054 A 
BRANCH  76  77
ATOM     77  S   UNL     1     -12.300  -7.571   5.535  1.00  0.00     0.124 S 
ATOM     78  O   UNL     1     -12.928  -8.868   5.302  1.00  0.00    -0.237 OA
ATOM     79  O   UNL     1     -12.928  -6.737   6.557  1.00  0.00    -0.237 OA
ATOM     80  O   UNL     1     -11.874  -6.856   4.334  1.00  0.00    -0.744 OA
ENDBRANCH  76  77
ENDBRANCH  48  71
BRANCH  60  81
ATOM     81  C   UNL     1      -5.601 -14.731   9.886  1.00  0.00    -0.014 A 
ATOM     82  C   UNL     1      -5.700 -15.481   8.700  1.00  0.00     0.010 A 
ATOM     83  C   UNL     1      -5.935 -15.340  11.110  1.00  0.00     0.010 A 
ATOM     84  C   UNL     1      -6.154 -16.802   8.735  1.00  0.00     0.020 A 
ATOM     85  C   UNL     1      -6.359 -16.670  11.153  1.00  0.00     0.020 A 
ATOM     86  C   UNL     1      -6.479 -17.389   9.962  1.00  0.00     0.054 A 
BRANCH  86  87
ATOM     87  S   UNL     1      -7.022 -19.119   9.985  1.00  0.00     0.124 S 
ATOM     88  O   UNL     1      -8.363 -19.025   9.415  1.00  0.00    -0.237 OA
ATOM     89  O   UNL     1      -6.026 -19.778   9.142  1.00  0.00    -0.237 OA
ATOM     90  O   UNL     1      -6.970 -19.482  11.399  1.00  0.00    -0.744 OA
ENDBRANCH  86  87
ENDBRANCH  60  81
ENDBRANCH  34  35
ENDBRANCH  26  29
ENDBRANCH  24  25
ENDBRANCH  23  24
ENDBRANCH   1  23
TORSDOF 18
