REMARK SMILES O=C(NCCCCCCNC(=O)c1ccc(N2C(=O)C[C@H]([NH+]3CCN(c4ccc(F)cc4)CC3)C2=O)cc1)c1ccc(-c2c3nc(c(-c4ccc(S(=O)(=O)[O-])cc4)c4ccc([nH]4)c(-c4ccc(S(=O)(=O)[O-])cc4)c4nc(c(-c5ccc(S(=O)(=O)[O-])cc5)c5ccc2[nH]5)C=C4)C=C3)cc1
REMARK SMILES IDX 6 1 5 2 4 3 3 4 1 5 2 6 39 8 40 9 98 10 41 11 97 12 42 13
REMARK SMILES IDX 43 14 44 15 91 16 45 17 96 18 90 19 92 20 46 21 95 22 89 23
REMARK SMILES IDX 88 24 47 26 77 27 58 28 76 29 59 30 62 31 75 32 93 33 60 34
REMARK SMILES IDX 61 35 74 37 94 38 63 39 48 40 49 41 57 42 50 43 56 44 51 45
REMARK SMILES IDX 52 46 53 47 54 48 55 49 78 50 79 51 87 52 80 53 86 54 81 55
REMARK SMILES IDX 82 56 83 57 84 58 85 59 64 60 65 61 73 62 66 63 72 64 67 65
REMARK SMILES IDX 68 66 69 67 70 68 71 69 7 70 8 71 9 72 10 73 11 74 12 76
REMARK SMILES IDX 13 77 14 78 38 79 15 80 37 81 16 82 17 83 18 84 35 85 19 86
REMARK SMILES IDX 20 87 21 88 36 89 22 90 23 91 34 92 24 94 33 95 25 96 26 97
REMARK SMILES IDX 27 98 32 99 28 100 31 101 29 102 30 103
REMARK H PARENT 3 7 92 25 62 36 10 75 22 93
REMARK Flexibility Score: inf
ROOT
ATOM      1  C   UNL     1       4.191   2.097  -3.478  1.00  0.00     0.002 C 
ENDROOT
BRANCH   1   2
ATOM      2  C   UNL     1       4.644   0.794  -2.821  1.00  0.00     0.021 C 
BRANCH   2   3
ATOM      3  C   UNL     1       4.438   0.723  -1.314  1.00  0.00     0.116 C 
BRANCH   3   4
ATOM      4  N   UNL     1       3.037   0.723  -0.930  1.00  0.00    -0.352 N 
ATOM      5  O   UNL     1       1.171  -0.054   0.076  1.00  0.00    -0.269 OA
ATOM      6  C   UNL     1       2.392  -0.101  -0.037  1.00  0.00     0.251 C 
ATOM      7  H   UNL     1       2.474   1.402  -1.367  1.00  0.00     0.163 HD
BRANCH   6   8
ATOM      8  C   UNL     1       3.179  -1.066   0.765  1.00  0.00     0.039 A 
ATOM      9  C   UNL     1       4.366  -0.671   1.384  1.00  0.00     0.014 A 
ATOM     10  C   UNL     1       2.731  -2.385   0.888  1.00  0.00     0.014 A 
ATOM     11  C   UNL     1       5.173  -1.620   1.997  1.00  0.00     0.010 A 
ATOM     12  C   UNL     1       3.503  -3.322   1.585  1.00  0.00     0.010 A 
ATOM     13  C   UNL     1       4.745  -2.954   2.121  1.00  0.00    -0.014 A 
BRANCH  13  14
ATOM     14  C   UNL     1       5.593  -3.904   2.888  1.00  0.00     0.031 A 
ATOM     15  C   UNL     1       6.256  -5.082   2.229  1.00  0.00     0.074 A 
ATOM     16  C   UNL     1       5.815  -3.645   4.192  1.00  0.00     0.049 A 
ATOM     17  N   UNL     1       7.096  -5.943   2.747  1.00  0.00    -0.248 NA
ATOM     18  C   UNL     1       5.936  -5.335   0.815  1.00  0.00     0.031 C 
ATOM     19  C   UNL     1       5.207  -2.543   4.946  1.00  0.00     0.029 A 
ATOM     20  N   UNL     1       6.635  -4.256   5.105  1.00  0.00    -0.354 N 
ATOM     21  C   UNL     1       7.399  -6.843   1.732  1.00  0.00     0.074 A 
ATOM     22  C   UNL     1       6.632  -6.439   0.572  1.00  0.00     0.031 C 
ATOM     23  C   UNL     1       5.725  -2.517   6.182  1.00  0.00     0.029 A 
ATOM     24  C   UNL     1       6.654  -3.631   6.329  1.00  0.00     0.049 A 
ATOM     25  H   UNL     1       7.159  -5.064   4.903  1.00  0.00     0.167 HD
ATOM     26  C   UNL     1       8.243  -7.904   1.763  1.00  0.00     0.031 A 
ATOM     27  C   UNL     1       7.336  -3.920   7.452  1.00  0.00     0.031 A 
ATOM     28  C   UNL     1       9.000  -8.305   2.921  1.00  0.00     0.049 A 
ATOM     29  C   UNL     1       8.268  -5.095   7.454  1.00  0.00     0.074 A 
ATOM     30  C   UNL     1       9.884  -9.364   3.049  1.00  0.00     0.029 A 
ATOM     31  N   UNL     1       8.970  -7.664   4.151  1.00  0.00    -0.354 N 
ATOM     32  N   UNL     1       8.548  -5.922   6.476  1.00  0.00    -0.248 NA
ATOM     33  C   UNL     1       8.975  -5.374   8.710  1.00  0.00     0.031 C 
ATOM     34  C   UNL     1      10.359  -9.385   4.366  1.00  0.00     0.029 A 
ATOM     35  C   UNL     1       9.808  -8.311   5.045  1.00  0.00     0.049 A 
ATOM     36  H   UNL     1       8.431  -6.866   4.358  1.00  0.00     0.167 HD
ATOM     37  C   UNL     1       9.463  -6.825   7.000  1.00  0.00     0.074 A 
ATOM     38  C   UNL     1       9.718  -6.417   8.367  1.00  0.00     0.031 C 
ATOM     39  C   UNL     1      10.033  -7.903   6.407  1.00  0.00     0.031 A 
BRANCH  26  40
ATOM     40  C   UNL     1       8.390  -8.721   0.506  1.00  0.00    -0.014 A 
ATOM     41  C   UNL     1       9.125  -8.235  -0.590  1.00  0.00     0.010 A 
ATOM     42  C   UNL     1       7.848 -10.018   0.444  1.00  0.00     0.010 A 
ATOM     43  C   UNL     1       9.296  -9.021  -1.733  1.00  0.00     0.020 A 
ATOM     44  C   UNL     1       8.035 -10.816  -0.690  1.00  0.00     0.020 A 
ATOM     45  C   UNL     1       8.748 -10.306  -1.777  1.00  0.00     0.054 A 
BRANCH  45  46
ATOM     46  S   UNL     1       9.019 -11.319  -3.258  1.00  0.00     0.124 S 
ATOM     47  O   UNL     1       8.116 -10.692  -4.220  1.00  0.00    -0.237 OA
ATOM     48  O   UNL     1      10.443 -11.131  -3.521  1.00  0.00    -0.237 OA
ATOM     49  O   UNL     1       8.640 -12.664  -2.833  1.00  0.00    -0.744 OA
ENDBRANCH  45  46
ENDBRANCH  26  40
BRANCH  27  50
ATOM     50  C   UNL     1       7.139  -3.089   8.669  1.00  0.00    -0.014 A 
ATOM     51  C   UNL     1       8.155  -2.239   9.136  1.00  0.00     0.010 A 
ATOM     52  C   UNL     1       5.911  -3.132   9.355  1.00  0.00     0.010 A 
ATOM     53  C   UNL     1       7.954  -1.460  10.279  1.00  0.00     0.020 A 
ATOM     54  C   UNL     1       5.696  -2.334  10.480  1.00  0.00     0.020 A 
ATOM     55  C   UNL     1       6.726  -1.514  10.944  1.00  0.00     0.054 A 
BRANCH  55  56
ATOM     56  S   UNL     1       6.460  -0.460  12.397  1.00  0.00     0.124 S 
ATOM     57  O   UNL     1       7.137  -1.216  13.445  1.00  0.00    -0.237 OA
ATOM     58  O   UNL     1       7.101   0.793  12.005  1.00  0.00    -0.237 OA
ATOM     59  O   UNL     1       5.004  -0.397  12.507  1.00  0.00    -0.744 OA
ENDBRANCH  55  56
ENDBRANCH  27  50
BRANCH  39  60
ATOM     60  C   UNL     1      10.985  -8.709   7.246  1.00  0.00    -0.014 A 
ATOM     61  C   UNL     1      10.513  -9.534   8.282  1.00  0.00     0.010 A 
ATOM     62  C   UNL     1      12.367  -8.639   6.997  1.00  0.00     0.010 A 
ATOM     63  C   UNL     1      11.410 -10.239   9.088  1.00  0.00     0.020 A 
ATOM     64  C   UNL     1      13.266  -9.362   7.785  1.00  0.00     0.020 A 
ATOM     65  C   UNL     1      12.782 -10.140   8.840  1.00  0.00     0.054 A 
BRANCH  65  66
ATOM     66  S   UNL     1      13.931 -11.065   9.895  1.00  0.00     0.124 S 
ATOM     67  O   UNL     1      13.971 -10.237  11.097  1.00  0.00    -0.237 OA
ATOM     68  O   UNL     1      13.267 -12.358  10.043  1.00  0.00    -0.237 OA
ATOM     69  O   UNL     1      15.167 -11.094   9.115  1.00  0.00    -0.744 OA
ENDBRANCH  65  66
ENDBRANCH  39  60
ENDBRANCH  13  14
ENDBRANCH   6   8
ENDBRANCH   3   4
ENDBRANCH   2   3
ENDBRANCH   1   2
BRANCH   1  70
ATOM     70  C   UNL     1       4.797   3.378  -2.898  1.00  0.00     0.002 C 
BRANCH  70  71
ATOM     71  C   UNL     1       6.328   3.412  -2.807  1.00  0.00     0.021 C 
BRANCH  71  72
ATOM     72  C   UNL     1       7.065   3.109  -4.110  1.00  0.00     0.116 C 
BRANCH  72  73
ATOM     73  N   UNL     1       6.729   4.064  -5.152  1.00  0.00    -0.352 N 
ATOM     74  C   UNL     1       7.567   4.875  -5.868  1.00  0.00     0.251 C 
ATOM     75  H   UNL     1       5.772   4.137  -5.372  1.00  0.00     0.163 HD
ATOM     76  O   UNL     1       7.128   5.750  -6.606  1.00  0.00    -0.269 OA
BRANCH  74  77
ATOM     77  C   UNL     1       9.021   4.684  -5.745  1.00  0.00     0.039 A 
ATOM     78  C   UNL     1       9.803   5.707  -5.214  1.00  0.00     0.016 A 
ATOM     79  C   UNL     1       9.609   3.499  -6.185  1.00  0.00     0.016 A 
ATOM     80  C   UNL     1      11.185   5.527  -5.092  1.00  0.00     0.027 A 
ATOM     81  C   UNL     1      10.993   3.338  -6.086  1.00  0.00     0.027 A 
ATOM     82  C   UNL     1      11.805   4.347  -5.539  1.00  0.00     0.052 A 
BRANCH  82  83
ATOM     83  N   UNL     1      13.216   4.186  -5.468  1.00  0.00    -0.245 N 
ATOM     84  C   UNL     1      13.945   3.439  -6.364  1.00  0.00     0.240 C 
ATOM     85  C   UNL     1      14.027   4.777  -4.519  1.00  0.00     0.292 C 
ATOM     86  O   UNL     1      13.552   2.775  -7.314  1.00  0.00    -0.274 OA
ATOM     87  C   UNL     1      15.402   3.641  -6.100  1.00  0.00     0.176 C 
ATOM     88  C   UNL     1      15.452   4.261  -4.720  1.00  0.00     0.284 C 
ATOM     89  O   UNL     1      13.703   5.541  -3.617  1.00  0.00    -0.267 OA
BRANCH  88  90
ATOM     90  N   UNL     1      15.896   3.439  -3.581  1.00  0.00    -0.321 N 
ATOM     91  C   UNL     1      15.135   2.215  -3.268  1.00  0.00     0.284 C 
ATOM     92  C   UNL     1      17.344   3.151  -3.560  1.00  0.00     0.284 C 
ATOM     93  H   UNL     1      15.670   4.086  -2.825  1.00  0.00     0.348 HD
ATOM     94  C   UNL     1      15.517   0.939  -4.054  1.00  0.00     0.178 C 
ATOM     95  C   UNL     1      17.819   1.901  -4.337  1.00  0.00     0.178 C 
ATOM     96  N   UNL     1      16.969   0.739  -4.051  1.00  0.00    -0.360 N 
BRANCH  96  97
ATOM     97  C   UNL     1      17.490  -0.531  -4.241  1.00  0.00     0.037 A 
ATOM     98  C   UNL     1      16.880  -1.478  -5.079  1.00  0.00     0.029 A 
ATOM     99  C   UNL     1      18.644  -0.926  -3.545  1.00  0.00     0.029 A 
ATOM    100  C   UNL     1      17.400  -2.770  -5.213  1.00  0.00     0.041 A 
ATOM    101  C   UNL     1      19.163  -2.218  -3.665  1.00  0.00     0.041 A 
ATOM    102  C   UNL     1      18.534  -3.129  -4.500  1.00  0.00     0.123 A 
ATOM    103  F   UNL     1      19.027  -4.368  -4.616  1.00  0.00    -0.207 F 
ENDBRANCH  96  97
ENDBRANCH  88  90
ENDBRANCH  82  83
ENDBRANCH  74  77
ENDBRANCH  72  73
ENDBRANCH  71  72
ENDBRANCH  70  71
ENDBRANCH   1  70
TORSDOF 19
