REMARK SMILES CCN(CC(C)C)C(=O)N[C@](C)(CC)C(=O)NCCCCCCNC(=O)c1ccc(-c2c3nc(c(-c4ccc(S(=O)(=O)[O-])cc4)c4ccc([nH]4)c(-c4ccc(S(=O)(=O)[O-])cc4)c4nc(c(-c5ccc(S(=O)(=O)[O-])cc5)c5ccc2[nH]5)C=C4)C=C3)cc1
REMARK SMILES IDX 20 1 19 2 18 3 17 4 15 5 16 6 11 8 12 9 10 10 8 11 9 12 3 14
REMARK SMILES IDX 2 15 1 16 4 17 5 18 6 19 7 20 13 21 14 22 21 23 22 24 23 25
REMARK SMILES IDX 24 26 25 27 26 29 27 30 28 31 86 32 29 33 85 34 30 35 31 36
REMARK SMILES IDX 32 37 79 38 33 39 84 40 78 41 80 42 34 43 83 44 77 45 76 46
REMARK SMILES IDX 35 48 65 49 46 50 64 51 47 52 50 53 63 54 81 55 48 56 49 57
REMARK SMILES IDX 62 59 82 60 51 61 36 62 37 63 45 64 38 65 44 66 39 67 40 68
REMARK SMILES IDX 41 69 42 70 43 71 66 72 67 73 75 74 68 75 74 76 69 77 70 78
REMARK SMILES IDX 71 79 72 80 73 81 52 82 53 83 61 84 54 85 60 86 55 87 56 88
REMARK SMILES IDX 57 89 58 90 59 91
REMARK H PARENT 17 7 10 13 24 28 80 47 50 58
REMARK Flexibility Score: inf
ROOT
ATOM      1  C   UNL     1      -2.665  -5.192   4.712  1.00  0.00     0.002 C 
ENDROOT
BRANCH   1   2
ATOM      2  C   UNL     1      -1.203  -5.560   5.007  1.00  0.00     0.021 C 
BRANCH   2   3
ATOM      3  C   UNL     1      -0.439  -6.067   3.782  1.00  0.00     0.116 C 
BRANCH   3   4
ATOM      4  N   UNL     1      -0.331  -5.003   2.806  1.00  0.00    -0.354 N 
ATOM      5  C   UNL     1       0.486  -3.909   2.780  1.00  0.00     0.245 C 
ATOM      6  O   UNL     1       0.008  -2.903   2.243  1.00  0.00    -0.272 OA
ATOM      7  H   UNL     1      -0.944  -5.080   2.040  1.00  0.00     0.163 HD
BRANCH   5   8
ATOM      8  C   UNL     1       1.972  -3.950   3.287  1.00  0.00     0.117 C 
ATOM      9  C   UNL     1       2.561  -2.566   3.061  1.00  0.00     0.045 C 
BRANCH   8  10
ATOM     10  N   UNL     1       2.539  -5.050   2.450  1.00  0.00    -0.324 N 
ATOM     11  C   UNL     1       3.563  -5.446   1.697  1.00  0.00     0.318 C 
ATOM     12  O   UNL     1       3.573  -6.670   1.504  1.00  0.00    -0.249 OA
ATOM     13  H   UNL     1       1.885  -5.785   2.457  1.00  0.00     0.166 HD
BRANCH  11  14
ATOM     14  N   UNL     1       4.543  -4.659   1.171  1.00  0.00    -0.325 N 
BRANCH  14  15
ATOM     15  C   UNL     1       5.790  -5.366   0.834  1.00  0.00     0.118 C 
ATOM     16  C   UNL     1       6.464  -5.971   2.065  1.00  0.00     0.027 C 
ENDBRANCH  14  15
BRANCH  14  17
ATOM     17  C   UNL     1       4.449  -3.278   0.682  1.00  0.00     0.124 C 
BRANCH  17  18
ATOM     18  C   UNL     1       3.508  -2.960  -0.509  1.00  0.00     0.002 C 
ATOM     19  C   UNL     1       2.243  -3.801  -0.643  1.00  0.00     0.009 C 
ATOM     20  C   UNL     1       3.131  -1.467  -0.505  1.00  0.00     0.009 C 
ENDBRANCH  17  18
ENDBRANCH  14  17
ENDBRANCH  11  14
ENDBRANCH   8  10
BRANCH   8  21
ATOM     21  C   UNL     1       2.163  -4.286   4.789  1.00  0.00     0.035 C 
ATOM     22  C   UNL     1       1.711  -3.190   5.755  1.00  0.00     0.007 C 
ENDBRANCH   8  21
ENDBRANCH   5   8
ENDBRANCH   3   4
ENDBRANCH   2   3
ENDBRANCH   1   2
BRANCH   1  23
ATOM     23  C   UNL     1      -3.531  -6.348   4.207  1.00  0.00     0.002 C 
BRANCH  23  24
ATOM     24  C   UNL     1      -3.483  -7.611   5.069  1.00  0.00     0.021 C 
BRANCH  24  25
ATOM     25  C   UNL     1      -3.825  -7.392   6.539  1.00  0.00     0.116 C 
BRANCH  25  26
ATOM     26  N   UNL     1      -5.195  -6.948   6.722  1.00  0.00    -0.352 N 
ATOM     27  C   UNL     1      -6.146  -7.432   7.579  1.00  0.00     0.251 C 
ATOM     28  H   UNL     1      -5.479  -6.197   6.152  1.00  0.00     0.163 HD
ATOM     29  O   UNL     1      -7.317  -7.059   7.466  1.00  0.00    -0.269 OA
BRANCH  27  30
ATOM     30  C   UNL     1      -5.780  -8.411   8.624  1.00  0.00     0.039 A 
ATOM     31  C   UNL     1      -6.622  -9.503   8.845  1.00  0.00     0.014 A 
ATOM     32  C   UNL     1      -4.627  -8.247   9.401  1.00  0.00     0.014 A 
ATOM     33  C   UNL     1      -6.294 -10.444   9.822  1.00  0.00     0.010 A 
ATOM     34  C   UNL     1      -4.265  -9.225  10.326  1.00  0.00     0.010 A 
ATOM     35  C   UNL     1      -5.104 -10.323  10.560  1.00  0.00    -0.014 A 
BRANCH  35  36
ATOM     36  C   UNL     1      -4.753 -11.336  11.587  1.00  0.00     0.031 A 
ATOM     37  C   UNL     1      -4.718 -10.965  13.046  1.00  0.00     0.074 A 
ATOM     38  C   UNL     1      -4.457 -12.593  11.204  1.00  0.00     0.049 A 
ATOM     39  N   UNL     1      -4.520 -11.734  14.086  1.00  0.00    -0.248 NA
ATOM     40  C   UNL     1      -4.906  -9.544  13.380  1.00  0.00     0.031 C 
ATOM     41  C   UNL     1      -4.404 -13.064   9.817  1.00  0.00     0.029 A 
ATOM     42  N   UNL     1      -4.164 -13.710  11.945  1.00  0.00    -0.354 N 
ATOM     43  C   UNL     1      -4.546 -10.892  15.192  1.00  0.00     0.074 A 
ATOM     44  C   UNL     1      -4.727  -9.547  14.693  1.00  0.00     0.031 C 
ATOM     45  C   UNL     1      -4.150 -14.382   9.811  1.00  0.00     0.029 A 
ATOM     46  C   UNL     1      -3.999 -14.845  11.187  1.00  0.00     0.049 A 
ATOM     47  H   UNL     1      -4.080 -13.700  12.925  1.00  0.00     0.167 HD
ATOM     48  C   UNL     1      -4.449 -11.210  16.505  1.00  0.00     0.031 A 
ATOM     49  C   UNL     1      -3.776 -16.121  11.558  1.00  0.00     0.031 A 
ATOM     50  C   UNL     1      -4.283 -12.551  16.998  1.00  0.00     0.049 A 
ATOM     51  C   UNL     1      -3.703 -16.456  13.021  1.00  0.00     0.074 A 
ATOM     52  C   UNL     1      -4.246 -12.989  18.311  1.00  0.00     0.029 A 
ATOM     53  N   UNL     1      -4.123 -13.673  16.198  1.00  0.00    -0.354 N 
ATOM     54  N   UNL     1      -3.820 -15.659  14.056  1.00  0.00    -0.248 NA
ATOM     55  C   UNL     1      -3.488 -17.868  13.366  1.00  0.00     0.031 C 
ATOM     56  C   UNL     1      -4.016 -14.370  18.304  1.00  0.00     0.029 A 
ATOM     57  C   UNL     1      -3.964 -14.799  16.988  1.00  0.00     0.049 A 
ATOM     58  H   UNL     1      -4.122 -13.669  15.214  1.00  0.00     0.167 HD
ATOM     59  C   UNL     1      -3.727 -16.477  15.176  1.00  0.00     0.074 A 
ATOM     60  C   UNL     1      -3.553 -17.832  14.690  1.00  0.00     0.031 C 
ATOM     61  C   UNL     1      -3.788 -16.139  16.488  1.00  0.00     0.031 A 
BRANCH  48  62
ATOM     62  C   UNL     1      -4.507 -10.079  17.499  1.00  0.00    -0.014 A 
ATOM     63  C   UNL     1      -5.699  -9.365  17.724  1.00  0.00     0.010 A 
ATOM     64  C   UNL     1      -3.357  -9.736  18.233  1.00  0.00     0.010 A 
ATOM     65  C   UNL     1      -5.725  -8.295  18.624  1.00  0.00     0.020 A 
ATOM     66  C   UNL     1      -3.387  -8.685  19.155  1.00  0.00     0.020 A 
ATOM     67  C   UNL     1      -4.566  -7.957  19.328  1.00  0.00     0.054 A 
BRANCH  67  68
ATOM     68  S   UNL     1      -4.625  -6.565  20.489  1.00  0.00     0.124 S 
ATOM     69  O   UNL     1      -4.624  -5.419  19.584  1.00  0.00    -0.237 OA
ATOM     70  O   UNL     1      -5.877  -6.797  21.207  1.00  0.00    -0.237 OA
ATOM     71  O   UNL     1      -3.413  -6.728  21.288  1.00  0.00    -0.744 OA
ENDBRANCH  67  68
ENDBRANCH  48  62
BRANCH  49  72
ATOM     72  C   UNL     1      -3.675 -17.184  10.522  1.00  0.00    -0.014 A 
ATOM     73  C   UNL     1      -4.721 -18.108  10.351  1.00  0.00     0.010 A 
ATOM     74  C   UNL     1      -2.549 -17.262   9.684  1.00  0.00     0.010 A 
ATOM     75  C   UNL     1      -4.638 -19.098   9.367  1.00  0.00     0.020 A 
ATOM     76  C   UNL     1      -2.473 -18.235   8.683  1.00  0.00     0.020 A 
ATOM     77  C   UNL     1      -3.515 -19.153   8.537  1.00  0.00     0.054 A 
BRANCH  77  78
ATOM     78  S   UNL     1      -3.458 -20.406   7.225  1.00  0.00     0.124 S 
ATOM     79  O   UNL     1      -3.174 -21.622   7.979  1.00  0.00    -0.237 OA
ATOM     80  O   UNL     1      -4.796 -20.317   6.645  1.00  0.00    -0.237 OA
ATOM     81  O   UNL     1      -2.380 -19.939   6.356  1.00  0.00    -0.744 OA
ENDBRANCH  77  78
ENDBRANCH  49  72
BRANCH  61  82
ATOM     82  C   UNL     1      -3.702 -17.258  17.492  1.00  0.00    -0.014 A 
ATOM     83  C   UNL     1      -2.493 -17.933  17.735  1.00  0.00     0.010 A 
ATOM     84  C   UNL     1      -4.847 -17.615  18.227  1.00  0.00     0.010 A 
ATOM     85  C   UNL     1      -2.441 -18.974  18.666  1.00  0.00     0.020 A 
ATOM     86  C   UNL     1      -4.792 -18.636  19.178  1.00  0.00     0.020 A 
ATOM     87  C   UNL     1      -3.593 -19.322  19.378  1.00  0.00     0.054 A 
BRANCH  87  88
ATOM     88  S   UNL     1      -3.497 -20.660  20.599  1.00  0.00     0.124 S 
ATOM     89  O   UNL     1      -3.485 -21.846  19.748  1.00  0.00    -0.237 OA
ATOM     90  O   UNL     1      -2.244 -20.373  21.294  1.00  0.00    -0.237 OA
ATOM     91  O   UNL     1      -4.703 -20.480  21.404  1.00  0.00    -0.744 OA
ENDBRANCH  87  88
ENDBRANCH  61  82
ENDBRANCH  35  36
ENDBRANCH  27  30
ENDBRANCH  25  26
ENDBRANCH  24  25
ENDBRANCH  23  24
ENDBRANCH   1  23
TORSDOF 22
