REMARK SMILES [NH3+][C@@H](CCS[C@@H]1CCO[C@@]2(CCOC2)C1)C(=O)NCCCCCCNC(=O)c1ccc(-c2c3nc(c(-c4ccc(S(=O)(=O)[O-])cc4)c4ccc([nH]4)c(-c4ccc(S(=O)(=O)[O-])cc4)c4nc(c(-c5ccc(S(=O)(=O)[O-])cc5)c5ccc2[nH]5)C=C4)C=C3)cc1
REMARK SMILES IDX 21 1 20 2 19 3 18 4 16 5 17 6 2 8 1 9 3 13 4 14 5 15 6 16
REMARK SMILES IDX 7 17 15 18 8 19 10 20 9 21 11 22 14 23 12 24 13 25 22 26
REMARK SMILES IDX 23 27 24 28 25 29 26 30 27 32 28 33 29 34 87 35 30 36 86 37
REMARK SMILES IDX 31 38 32 39 33 40 80 41 34 42 85 43 79 44 81 45 35 46 84 47
REMARK SMILES IDX 78 48 77 49 36 51 66 52 47 53 65 54 48 55 51 56 64 57 82 58
REMARK SMILES IDX 49 59 50 60 63 62 83 63 52 64 37 65 38 66 46 67 39 68 45 69
REMARK SMILES IDX 40 70 41 71 42 72 43 73 44 74 67 75 68 76 76 77 69 78 75 79
REMARK SMILES IDX 70 80 71 81 72 82 73 83 74 84 53 85 54 86 62 87 55 88 61 89
REMARK SMILES IDX 56 90 57 91 58 92 59 93 60 94
REMARK H PARENT 18 7 1 10 1 11 1 12 25 31 81 50 51 61
REMARK Flexibility Score: inf
ROOT
ATOM      1  C   UNL     1      -2.349  -3.340   1.299  1.00  0.00     0.002 C 
ENDROOT
BRANCH   1   2
ATOM      2  C   UNL     1      -0.813  -3.432   1.509  1.00  0.00     0.021 C 
BRANCH   2   3
ATOM      3  C   UNL     1       0.104  -3.256   0.271  1.00  0.00     0.116 C 
BRANCH   3   4
ATOM      4  N   UNL     1      -0.038  -1.909  -0.278  1.00  0.00    -0.351 N 
ATOM      5  C   UNL     1       0.603  -1.040  -1.127  1.00  0.00     0.278 C 
ATOM      6  O   UNL     1       0.297   0.145  -1.223  1.00  0.00    -0.268 OA
ATOM      7  H   UNL     1      -0.855  -1.489   0.075  1.00  0.00     0.163 HD
BRANCH   5   8
ATOM      8  C   UNL     1       1.495  -1.534  -2.183  1.00  0.00     0.271 C 
BRANCH   8   9
ATOM      9  N   UNL     1       2.845  -1.715  -1.642  1.00  0.00    -0.347 N 
ATOM     10  H   UNL     1       3.462  -2.058  -2.378  1.00  0.00     0.345 HD
ATOM     11  H   UNL     1       2.818  -2.391  -0.879  1.00  0.00     0.345 HD
ATOM     12  H   UNL     1       3.195  -0.823  -1.294  1.00  0.00     0.345 HD
ENDBRANCH   8   9
BRANCH   8  13
ATOM     13  C   UNL     1       0.684  -2.650  -2.791  1.00  0.00     0.086 C 
BRANCH  13  14
ATOM     14  C   UNL     1      -0.910  -2.483  -2.788  1.00  0.00     0.076 C 
BRANCH  14  15
ATOM     15  S   UNL     1      -2.402  -1.367  -1.996  1.00  0.00    -0.158 SA
BRANCH  15  16
ATOM     16  C   UNL     1      -2.217   0.027  -0.491  1.00  0.00     0.052 C 
ATOM     17  C   UNL     1      -2.152   1.449  -1.027  1.00  0.00     0.043 C 
ATOM     18  C   UNL     1      -1.741   0.017   1.023  1.00  0.00     0.052 C 
ATOM     19  C   UNL     1      -1.234   2.406  -0.247  1.00  0.00     0.162 C 
ATOM     20  C   UNL     1      -0.461   0.802   1.453  1.00  0.00     0.095 C 
ATOM     21  O   UNL     1      -0.186   1.877   0.551  1.00  0.00    -0.372 OA
ATOM     22  C   UNL     1      -0.583   1.363   2.888  1.00  0.00     0.066 C 
ATOM     23  C   UNL     1       0.864  -0.015   1.618  1.00  0.00     0.195 C 
ATOM     24  C   UNL     1       0.380   0.552   3.736  1.00  0.00     0.163 C 
ATOM     25  O   UNL     1       1.479   0.322   2.871  1.00  0.00    -0.378 OA
ENDBRANCH  15  16
ENDBRANCH  14  15
ENDBRANCH  13  14
ENDBRANCH   8  13
ENDBRANCH   5   8
ENDBRANCH   3   4
ENDBRANCH   2   3
ENDBRANCH   1   2
BRANCH   1  26
ATOM     26  C   UNL     1      -3.084  -4.591   0.836  1.00  0.00     0.002 C 
BRANCH  26  27
ATOM     27  C   UNL     1      -2.761  -5.839   1.640  1.00  0.00     0.021 C 
BRANCH  27  28
ATOM     28  C   UNL     1      -2.878  -5.664   3.150  1.00  0.00     0.116 C 
BRANCH  28  29
ATOM     29  N   UNL     1      -4.255  -5.540   3.600  1.00  0.00    -0.352 N 
ATOM     30  C   UNL     1      -4.891  -6.298   4.553  1.00  0.00     0.251 C 
ATOM     31  H   UNL     1      -4.793  -4.834   3.173  1.00  0.00     0.163 HD
ATOM     32  O   UNL     1      -6.104  -6.206   4.731  1.00  0.00    -0.269 OA
BRANCH  30  33
ATOM     33  C   UNL     1      -4.085  -7.254   5.339  1.00  0.00     0.039 A 
ATOM     34  C   UNL     1      -4.445  -8.601   5.346  1.00  0.00     0.014 A 
ATOM     35  C   UNL     1      -2.916  -6.822   5.976  1.00  0.00     0.014 A 
ATOM     36  C   UNL     1      -3.594  -9.530   5.945  1.00  0.00     0.010 A 
ATOM     37  C   UNL     1      -2.030  -7.761   6.493  1.00  0.00     0.010 A 
ATOM     38  C   UNL     1      -2.362  -9.123   6.490  1.00  0.00    -0.014 A 
BRANCH  38  39
ATOM     39  C   UNL     1      -1.415 -10.123   7.045  1.00  0.00     0.031 A 
ATOM     40  C   UNL     1      -1.052 -10.099   8.505  1.00  0.00     0.074 A 
ATOM     41  C   UNL     1      -0.858 -11.036   6.224  1.00  0.00     0.049 A 
ATOM     42  N   UNL     1      -0.288 -10.923   9.176  1.00  0.00    -0.248 NA
ATOM     43  C   UNL     1      -1.596  -8.994   9.311  1.00  0.00     0.031 C 
ATOM     44  C   UNL     1      -1.085 -11.126   4.779  1.00  0.00     0.029 A 
ATOM     45  N   UNL     1       0.003 -12.072   6.488  1.00  0.00    -0.354 N 
ATOM     46  C   UNL     1      -0.253 -10.431  10.476  1.00  0.00     0.074 A 
ATOM     47  C   UNL     1      -1.020  -9.205  10.485  1.00  0.00     0.031 C 
ATOM     48  C   UNL     1      -0.429 -12.194   4.296  1.00  0.00     0.029 A 
ATOM     49  C   UNL     1       0.297 -12.839   5.385  1.00  0.00     0.049 A 
ATOM     50  H   UNL     1       0.375 -12.249   7.382  1.00  0.00     0.167 HD
ATOM     51  C   UNL     1       0.345 -10.962  11.570  1.00  0.00     0.031 A 
ATOM     52  C   UNL     1       1.055 -13.946   5.264  1.00  0.00     0.031 A 
ATOM     53  C   UNL     1       1.109 -12.182  11.553  1.00  0.00     0.049 A 
ATOM     54  C   UNL     1       1.715 -14.515   6.490  1.00  0.00     0.074 A 
ATOM     55  C   UNL     1       1.699 -12.842  12.616  1.00  0.00     0.029 A 
ATOM     56  N   UNL     1       1.401 -12.918  10.414  1.00  0.00    -0.354 N 
ATOM     57  N   UNL     1       1.659 -14.088   7.730  1.00  0.00    -0.248 NA
ATOM     58  C   UNL     1       2.529 -15.722   6.301  1.00  0.00     0.031 C 
ATOM     59  C   UNL     1       2.406 -13.939  12.110  1.00  0.00     0.029 A 
ATOM     60  C   UNL     1       2.197 -14.003  10.741  1.00  0.00     0.049 A 
ATOM     61  H   UNL     1       1.089 -12.700   9.506  1.00  0.00     0.167 HD
ATOM     62  C   UNL     1       2.415 -14.988   8.473  1.00  0.00     0.074 A 
ATOM     63  C   UNL     1       2.894 -15.994   7.546  1.00  0.00     0.031 C 
ATOM     64  C   UNL     1       2.687 -14.982   9.803  1.00  0.00     0.031 A 
BRANCH  51  65
ATOM     65  C   UNL     1       0.211 -10.209  12.869  1.00  0.00    -0.014 A 
ATOM     66  C   UNL     1      -1.032 -10.082  13.519  1.00  0.00     0.010 A 
ATOM     67  C   UNL     1       1.349  -9.630  13.459  1.00  0.00     0.010 A 
ATOM     68  C   UNL     1      -1.142  -9.345  14.702  1.00  0.00     0.020 A 
ATOM     69  C   UNL     1       1.249  -8.921  14.660  1.00  0.00     0.020 A 
ATOM     70  C   UNL     1      -0.001  -8.764  15.262  1.00  0.00     0.054 A 
BRANCH  70  71
ATOM     71  S   UNL     1      -0.173  -7.815  16.797  1.00  0.00     0.124 S 
ATOM     72  O   UNL     1      -0.863  -6.614  16.332  1.00  0.00    -0.237 OA
ATOM     73  O   UNL     1      -0.967  -8.708  17.638  1.00  0.00    -0.237 OA
ATOM     74  O   UNL     1       1.205  -7.611  17.237  1.00  0.00    -0.744 OA
ENDBRANCH  70  71
ENDBRANCH  51  65
BRANCH  52  75
ATOM     75  C   UNL     1       1.196 -14.608   3.938  1.00  0.00    -0.014 A 
ATOM     76  C   UNL     1       0.596 -15.857   3.696  1.00  0.00     0.010 A 
ATOM     77  C   UNL     1       1.909 -13.981   2.899  1.00  0.00     0.010 A 
ATOM     78  C   UNL     1       0.711 -16.469   2.444  1.00  0.00     0.020 A 
ATOM     79  C   UNL     1       2.001 -14.576   1.637  1.00  0.00     0.020 A 
ATOM     80  C   UNL     1       1.407 -15.820   1.420  1.00  0.00     0.054 A 
BRANCH  80  81
ATOM     81  S   UNL     1       1.482 -16.601  -0.216  1.00  0.00     0.124 S 
ATOM     82  O   UNL     1       2.387 -17.721   0.021  1.00  0.00    -0.237 OA
ATOM     83  O   UNL     1       0.086 -16.954  -0.459  1.00  0.00    -0.237 OA
ATOM     84  O   UNL     1       2.006 -15.542  -1.076  1.00  0.00    -0.744 OA
ENDBRANCH  80  81
ENDBRANCH  52  75
BRANCH  64  85
ATOM     85  C   UNL     1       3.536 -16.109  10.333  1.00  0.00    -0.014 A 
ATOM     86  C   UNL     1       4.900 -16.212  10.006  1.00  0.00     0.010 A 
ATOM     87  C   UNL     1       2.964 -17.067  11.190  1.00  0.00     0.010 A 
ATOM     88  C   UNL     1       5.663 -17.281  10.484  1.00  0.00     0.020 A 
ATOM     89  C   UNL     1       3.732 -18.118  11.698  1.00  0.00     0.020 A 
ATOM     90  C   UNL     1       5.072 -18.229  11.324  1.00  0.00     0.054 A 
BRANCH  90  91
ATOM     91  S   UNL     1       6.087 -19.599  11.941  1.00  0.00     0.124 S 
ATOM     92  O   UNL     1       6.243 -20.424  10.746  1.00  0.00    -0.237 OA
ATOM     93  O   UNL     1       7.297 -18.921  12.399  1.00  0.00    -0.237 OA
ATOM     94  O   UNL     1       5.270 -20.186  13.001  1.00  0.00    -0.744 OA
ENDBRANCH  90  91
ENDBRANCH  64  85
ENDBRANCH  38  39
ENDBRANCH  30  33
ENDBRANCH  28  29
ENDBRANCH  27  28
ENDBRANCH  26  27
ENDBRANCH   1  26
TORSDOF 21
