REMARK SMILES CC(C)c1ccc([C@]2(C(=O)NCCCCCCNC(=O)c3ccc(-c4c5nc(c(-c6ccc(S(=O)(=O)[O-])cc6)c6ccc([nH]6)c(-c6ccc(S(=O)(=O)[O-])cc6)c6nc(c(-c7ccc(S(=O)(=O)[O-])cc7)c7ccc4[nH]7)C=C6)C=C5)cc3)CCC[C@@H]2C)cc1
REMARK SMILES IDX 15 1 14 2 13 3 12 4 11 5 9 6 10 7 8 9 81 10 84 11 82 12
REMARK SMILES IDX 83 13 85 14 7 15 4 16 5 17 87 18 6 19 86 20 2 21 1 22 3 23
REMARK SMILES IDX 16 24 17 25 18 26 19 27 20 29 21 30 22 31 80 32 23 33 79 34
REMARK SMILES IDX 24 35 25 36 26 37 73 38 27 39 78 40 72 41 74 42 28 43 77 44
REMARK SMILES IDX 71 45 70 46 29 48 59 49 40 50 58 51 41 52 44 53 57 54 75 55
REMARK SMILES IDX 42 56 43 57 56 59 76 60 45 61 30 62 31 63 39 64 32 65 38 66
REMARK SMILES IDX 33 67 34 68 35 69 36 70 37 71 60 72 61 73 69 74 62 75 68 76
REMARK SMILES IDX 63 77 64 78 65 79 66 80 67 81 46 82 47 83 55 84 48 85 54 86
REMARK SMILES IDX 49 87 50 88 51 89 52 90 53 91
REMARK H PARENT 11 8 18 28 74 47 44 58
REMARK Flexibility Score: inf
ROOT
ATOM      1  C   UNL     1     -10.908  -2.410   1.412  1.00  0.00     0.002 C 
ENDROOT
BRANCH   1   2
ATOM      2  C   UNL     1      -9.929  -3.426   0.810  1.00  0.00     0.002 C 
BRANCH   2   3
ATOM      3  C   UNL     1      -9.089  -2.924  -0.360  1.00  0.00     0.021 C 
BRANCH   3   4
ATOM      4  C   UNL     1      -8.344  -1.624  -0.108  1.00  0.00     0.116 C 
BRANCH   4   5
ATOM      5  N   UNL     1      -7.038  -1.766   0.477  1.00  0.00    -0.355 N 
ATOM      6  C   UNL     1      -5.841  -1.190   0.184  1.00  0.00     0.230 C 
ATOM      7  O   UNL     1      -5.055  -1.216   1.146  1.00  0.00    -0.274 OA
ATOM      8  H   UNL     1      -7.005  -2.399   1.231  1.00  0.00     0.163 HD
BRANCH   6   9
ATOM      9  C   UNL     1      -5.396  -0.566  -1.224  1.00  0.00     0.077 C 
ATOM     10  C   UNL     1      -5.982  -1.340  -2.436  1.00  0.00     0.022 C 
ATOM     11  C   UNL     1      -5.928   0.902  -1.476  1.00  0.00     0.006 C 
ATOM     12  C   UNL     1      -7.124  -0.508  -3.038  1.00  0.00     0.002 C 
ATOM     13  C   UNL     1      -7.286   0.737  -2.169  1.00  0.00     0.005 C 
ATOM     14  C   UNL     1      -5.141   1.826  -2.437  1.00  0.00     0.009 C 
BRANCH   9  15
ATOM     15  C   UNL     1      -3.840  -0.671  -1.203  1.00  0.00    -0.032 A 
ATOM     16  C   UNL     1      -0.978  -0.859  -1.130  1.00  0.00    -0.045 A 
ATOM     17  C   UNL     1      -1.648   0.308  -0.743  1.00  0.00     0.004 A 
ATOM     18  C   UNL     1      -1.774  -1.952  -1.501  1.00  0.00     0.004 A 
ATOM     19  C   UNL     1      -3.044   0.373  -0.715  1.00  0.00     0.005 A 
ATOM     20  C   UNL     1      -3.176  -1.861  -1.539  1.00  0.00     0.005 A 
BRANCH  16  21
ATOM     21  C   UNL     1       0.547  -0.881  -1.183  1.00  0.00     0.013 C 
ATOM     22  C   UNL     1       1.200  -0.149   0.002  1.00  0.00     0.012 C 
ATOM     23  C   UNL     1       1.169  -2.281  -1.278  1.00  0.00     0.012 C 
ENDBRANCH  16  21
ENDBRANCH   9  15
ENDBRANCH   6   9
ENDBRANCH   4   5
ENDBRANCH   3   4
ENDBRANCH   2   3
ENDBRANCH   1   2
BRANCH   1  24
ATOM     24  C   UNL     1     -11.829  -1.691   0.419  1.00  0.00     0.021 C 
BRANCH  24  25
ATOM     25  C   UNL     1     -12.694  -2.606  -0.444  1.00  0.00     0.116 C 
BRANCH  25  26
ATOM     26  N   UNL     1     -13.516  -3.495   0.361  1.00  0.00    -0.352 N 
ATOM     27  C   UNL     1     -14.883  -3.605   0.430  1.00  0.00     0.251 C 
ATOM     28  H   UNL     1     -13.018  -4.111   0.946  1.00  0.00     0.163 HD
ATOM     29  O   UNL     1     -15.400  -4.250   1.335  1.00  0.00    -0.269 OA
BRANCH  27  30
ATOM     30  C   UNL     1     -15.726  -2.936  -0.582  1.00  0.00     0.039 A 
ATOM     31  C   UNL     1     -16.846  -2.214  -0.160  1.00  0.00     0.014 A 
ATOM     32  C   UNL     1     -15.418  -3.027  -1.942  1.00  0.00     0.014 A 
ATOM     33  C   UNL     1     -17.614  -1.521  -1.098  1.00  0.00     0.010 A 
ATOM     34  C   UNL     1     -16.146  -2.284  -2.868  1.00  0.00     0.010 A 
ATOM     35  C   UNL     1     -17.244  -1.515  -2.454  1.00  0.00    -0.014 A 
BRANCH  35  36
ATOM     36  C   UNL     1     -17.960  -0.671  -3.444  1.00  0.00     0.031 A 
ATOM     37  C   UNL     1     -18.701  -1.304  -4.591  1.00  0.00     0.074 A 
ATOM     38  C   UNL     1     -17.862   0.671  -3.356  1.00  0.00     0.049 A 
ATOM     39  N   UNL     1     -19.304  -0.725  -5.597  1.00  0.00    -0.248 NA
ATOM     40  C   UNL     1     -18.752  -2.775  -4.627  1.00  0.00     0.031 C 
ATOM     41  C   UNL     1     -17.134   1.400  -2.313  1.00  0.00     0.029 A 
ATOM     42  N   UNL     1     -18.359   1.664  -4.164  1.00  0.00    -0.354 N 
ATOM     43  C   UNL     1     -19.783  -1.756  -6.397  1.00  0.00     0.074 A 
ATOM     44  C   UNL     1     -19.378  -2.998  -5.775  1.00  0.00     0.031 C 
ATOM     45  C   UNL     1     -17.239   2.719  -2.540  1.00  0.00     0.029 A 
ATOM     46  C   UNL     1     -17.998   2.932  -3.768  1.00  0.00     0.049 A 
ATOM     47  H   UNL     1     -18.920   1.486  -4.953  1.00  0.00     0.167 HD
ATOM     48  C   UNL     1     -20.501  -1.672  -7.541  1.00  0.00     0.031 A 
ATOM     49  C   UNL     1     -18.226   4.130  -4.341  1.00  0.00     0.031 A 
ATOM     50  C   UNL     1     -20.918  -0.432  -8.141  1.00  0.00     0.049 A 
ATOM     51  C   UNL     1     -19.013   4.189  -5.623  1.00  0.00     0.074 A 
ATOM     52  C   UNL     1     -21.729  -0.247  -9.248  1.00  0.00     0.029 A 
ATOM     53  N   UNL     1     -20.547   0.829  -7.702  1.00  0.00    -0.354 N 
ATOM     54  N   UNL     1     -19.553   3.205  -6.302  1.00  0.00    -0.248 NA
ATOM     55  C   UNL     1     -19.222   5.517  -6.216  1.00  0.00     0.031 C 
ATOM     56  C   UNL     1     -21.787   1.122  -9.521  1.00  0.00     0.029 A 
ATOM     57  C   UNL     1     -21.069   1.794  -8.545  1.00  0.00     0.049 A 
ATOM     58  H   UNL     1     -19.994   1.011  -6.907  1.00  0.00     0.167 HD
ATOM     59  C   UNL     1     -20.181   3.799  -7.391  1.00  0.00     0.074 A 
ATOM     60  C   UNL     1     -19.977   5.226  -7.268  1.00  0.00     0.031 C 
ATOM     61  C   UNL     1     -20.859   3.213  -8.408  1.00  0.00     0.031 A 
BRANCH  48  62
ATOM     62  C   UNL     1     -20.879  -2.949  -8.244  1.00  0.00    -0.014 A 
ATOM     63  C   UNL     1     -21.861  -3.808  -7.721  1.00  0.00     0.010 A 
ATOM     64  C   UNL     1     -20.315  -3.238  -9.501  1.00  0.00     0.010 A 
ATOM     65  C   UNL     1     -22.261  -4.941  -8.436  1.00  0.00     0.020 A 
ATOM     66  C   UNL     1     -20.730  -4.356 -10.230  1.00  0.00     0.020 A 
ATOM     67  C   UNL     1     -21.697  -5.204  -9.689  1.00  0.00     0.054 A 
BRANCH  67  68
ATOM     68  S   UNL     1     -22.287  -6.644 -10.622  1.00  0.00     0.124 S 
ATOM     69  O   UNL     1     -21.737  -7.752  -9.845  1.00  0.00    -0.237 OA
ATOM     70  O   UNL     1     -23.738  -6.492 -10.558  1.00  0.00    -0.237 OA
ATOM     71  O   UNL     1     -21.701  -6.464 -11.948  1.00  0.00    -0.744 OA
ENDBRANCH  67  68
ENDBRANCH  48  62
BRANCH  49  72
ATOM     72  C   UNL     1     -17.671   5.372  -3.733  1.00  0.00    -0.014 A 
ATOM     73  C   UNL     1     -18.522   6.354  -3.196  1.00  0.00     0.010 A 
ATOM     74  C   UNL     1     -16.281   5.590  -3.713  1.00  0.00     0.010 A 
ATOM     75  C   UNL     1     -17.997   7.545  -2.686  1.00  0.00     0.020 A 
ATOM     76  C   UNL     1     -15.749   6.763  -3.172  1.00  0.00     0.020 A 
ATOM     77  C   UNL     1     -16.613   7.743  -2.680  1.00  0.00     0.054 A 
BRANCH  77  78
ATOM     78  S   UNL     1     -15.951   9.290  -2.002  1.00  0.00     0.124 S 
ATOM     79  O   UNL     1     -16.302  10.251  -3.043  1.00  0.00    -0.237 OA
ATOM     80  O   UNL     1     -16.682   9.422  -0.745  1.00  0.00    -0.237 OA
ATOM     81  O   UNL     1     -14.523   9.015  -1.858  1.00  0.00    -0.744 OA
ENDBRANCH  77  78
ENDBRANCH  49  72
BRANCH  61  82
ATOM     82  C   UNL     1     -21.447   4.110  -9.464  1.00  0.00    -0.014 A 
ATOM     83  C   UNL     1     -20.625   4.754 -10.405  1.00  0.00     0.010 A 
ATOM     84  C   UNL     1     -22.844   4.245  -9.566  1.00  0.00     0.010 A 
ATOM     85  C   UNL     1     -21.189   5.530 -11.421  1.00  0.00     0.020 A 
ATOM     86  C   UNL     1     -23.413   4.994 -10.598  1.00  0.00     0.020 A 
ATOM     87  C   UNL     1     -22.581   5.639 -11.515  1.00  0.00     0.054 A 
BRANCH  87  88
ATOM     88  S   UNL     1     -23.287   6.591 -12.887  1.00  0.00     0.124 S 
ATOM     89  O   UNL     1     -22.957   7.962 -12.508  1.00  0.00    -0.237 OA
ATOM     90  O   UNL     1     -22.565   6.067 -14.044  1.00  0.00    -0.237 OA
ATOM     91  O   UNL     1     -24.709   6.259 -12.845  1.00  0.00    -0.744 OA
ENDBRANCH  87  88
ENDBRANCH  61  82
ENDBRANCH  35  36
ENDBRANCH  27  30
ENDBRANCH  25  26
ENDBRANCH  24  25
ENDBRANCH   1  24
TORSDOF 18
