REMARK SMILES CC(C)C[C@@H](C[NH3+])C(=O)N1CCC(CC(=O)NCCCCCCNC(=O)c2ccc(-c3c4nc(c(-c5ccc(S(=O)(=O)[O-])cc5)c5ccc([nH]5)c(-c5ccc(S(=O)(=O)[O-])cc5)c5nc(c(-c6ccc(S(=O)(=O)[O-])cc6)c6ccc3[nH]6)C=C5)C=C4)cc2)CC1
REMARK SMILES IDX 20 1 19 2 18 3 17 4 15 5 16 6 14 8 13 9 8 10 9 11 10 12
REMARK SMILES IDX 11 13 88 14 12 15 87 16 5 17 4 18 2 19 1 20 3 21 6 22 7 23
REMARK SMILES IDX 21 27 22 28 23 29 24 30 25 31 26 33 27 34 28 35 86 36 29 37
REMARK SMILES IDX 85 38 30 39 31 40 32 41 79 42 33 43 84 44 78 45 80 46 34 47
REMARK SMILES IDX 83 48 77 49 76 50 35 52 65 53 46 54 64 55 47 56 50 57 63 58
REMARK SMILES IDX 81 59 48 60 49 61 62 63 82 64 51 65 36 66 37 67 45 68 38 69
REMARK SMILES IDX 44 70 39 71 40 72 41 73 42 74 43 75 66 76 67 77 75 78 68 79
REMARK SMILES IDX 74 80 69 81 70 82 71 83 72 84 73 85 52 86 53 87 61 88 54 89
REMARK SMILES IDX 60 90 55 91 56 92 57 93 58 94 59 95
REMARK H PARENT 17 7 7 24 7 25 7 26 24 32 80 51 50 62
REMARK Flexibility Score: inf
ROOT
ATOM      1  C   UNL     1      -9.855   3.700  -1.478  1.00  0.00     0.002 C 
ENDROOT
BRANCH   1   2
ATOM      2  C   UNL     1      -8.668   2.776  -1.741  1.00  0.00     0.021 C 
BRANCH   2   3
ATOM      3  C   UNL     1      -9.042   1.309  -1.981  1.00  0.00     0.116 C 
BRANCH   3   4
ATOM      4  N   UNL     1      -9.181   1.040  -3.405  1.00  0.00    -0.356 N 
ATOM      5  C   UNL     1      -8.383   0.335  -4.256  1.00  0.00     0.220 C 
ATOM      6  O   UNL     1      -8.655   0.347  -5.458  1.00  0.00    -0.275 OA
ATOM      7  H   UNL     1      -9.983   1.430  -3.821  1.00  0.00     0.163 HD
BRANCH   5   8
ATOM      8  C   UNL     1      -7.197  -0.460  -3.738  1.00  0.00     0.103 C 
BRANCH   8   9
ATOM      9  C   UNL     1      -5.851   0.288  -3.804  1.00  0.00     0.002 C 
ATOM     10  C   UNL     1      -2.950   1.142  -1.046  1.00  0.00     0.231 C 
ATOM     11  O   UNL     1      -3.661   1.394  -0.067  1.00  0.00    -0.274 OA
ATOM     12  N   UNL     1      -3.487   1.102  -2.317  1.00  0.00    -0.342 N 
ATOM     13  C   UNL     1      -4.465   2.105  -2.671  1.00  0.00     0.120 C 
ATOM     14  C   UNL     1      -3.354   0.006  -3.261  1.00  0.00     0.120 C 
ATOM     15  C   UNL     1      -5.830   1.477  -2.839  1.00  0.00     0.026 C 
ATOM     16  C   UNL     1      -4.701  -0.687  -3.490  1.00  0.00     0.026 C 
BRANCH  10  17
ATOM     17  C   UNL     1      -1.422   1.172  -0.901  1.00  0.00     0.133 C 
BRANCH  17  18
ATOM     18  C   UNL     1      -0.666   0.017  -1.566  1.00  0.00     0.022 C 
BRANCH  18  19
ATOM     19  C   UNL     1       0.848  -0.061  -1.292  1.00  0.00    -0.016 C 
ATOM     20  C   UNL     1       1.186  -0.174   0.193  1.00  0.00     0.007 C 
ATOM     21  C   UNL     1       1.424  -1.264  -2.048  1.00  0.00     0.007 C 
ENDBRANCH  18  19
ENDBRANCH  17  18
BRANCH  17  22
ATOM     22  C   UNL     1      -0.925   2.582  -1.286  1.00  0.00     0.272 C 
BRANCH  22  23
ATOM     23  N   UNL     1      -0.885   2.856  -2.725  1.00  0.00    -0.357 N 
ATOM     24  H   UNL     1      -0.222   2.223  -3.174  1.00  0.00     0.344 HD
ATOM     25  H   UNL     1      -0.593   3.820  -2.880  1.00  0.00     0.344 HD
ATOM     26  H   UNL     1      -1.813   2.714  -3.124  1.00  0.00     0.344 HD
ENDBRANCH  22  23
ENDBRANCH  17  22
ENDBRANCH  10  17
ENDBRANCH   8   9
ENDBRANCH   5   8
ENDBRANCH   3   4
ENDBRANCH   2   3
ENDBRANCH   1   2
BRANCH   1  27
ATOM     27  C   UNL     1     -10.533   3.504  -0.122  1.00  0.00     0.002 C 
BRANCH  27  28
ATOM     28  C   UNL     1      -9.616   3.619   1.100  1.00  0.00     0.021 C 
BRANCH  28  29
ATOM     29  C   UNL     1      -8.784   4.899   1.175  1.00  0.00     0.116 C 
BRANCH  29  30
ATOM     30  N   UNL     1      -9.618   6.090   1.193  1.00  0.00    -0.352 N 
ATOM     31  C   UNL     1      -9.780   7.032   2.178  1.00  0.00     0.251 C 
ATOM     32  H   UNL     1     -10.145   6.245   0.375  1.00  0.00     0.163 HD
ATOM     33  O   UNL     1     -10.699   7.842   2.105  1.00  0.00    -0.269 OA
BRANCH  31  34
ATOM     34  C   UNL     1      -8.854   7.064   3.330  1.00  0.00     0.039 A 
ATOM     35  C   UNL     1      -9.378   7.207   4.618  1.00  0.00     0.014 A 
ATOM     36  C   UNL     1      -7.471   6.985   3.140  1.00  0.00     0.014 A 
ATOM     37  C   UNL     1      -8.519   7.216   5.719  1.00  0.00     0.010 A 
ATOM     38  C   UNL     1      -6.621   6.932   4.242  1.00  0.00     0.010 A 
ATOM     39  C   UNL     1      -7.135   7.052   5.542  1.00  0.00    -0.014 A 
BRANCH  39  40
ATOM     40  C   UNL     1      -6.211   7.003   6.704  1.00  0.00     0.031 A 
ATOM     41  C   UNL     1      -5.177   8.080   6.896  1.00  0.00     0.074 A 
ATOM     42  C   UNL     1      -6.258   5.952   7.547  1.00  0.00     0.049 A 
ATOM     43  N   UNL     1      -4.247   8.176   7.812  1.00  0.00    -0.248 NA
ATOM     44  C   UNL     1      -5.169   9.180   5.917  1.00  0.00     0.031 C 
ATOM     45  C   UNL     1      -7.181   4.819   7.439  1.00  0.00     0.029 A 
ATOM     46  N   UNL     1      -5.501   5.658   8.654  1.00  0.00    -0.354 N 
ATOM     47  C   UNL     1      -3.530   9.327   7.506  1.00  0.00     0.074 A 
ATOM     48  C   UNL     1      -4.109   9.877   6.300  1.00  0.00     0.031 C 
ATOM     49  C   UNL     1      -6.944   3.961   8.444  1.00  0.00     0.029 A 
ATOM     50  C   UNL     1      -5.833   4.462   9.247  1.00  0.00     0.049 A 
ATOM     51  H   UNL     1      -4.788   6.247   8.991  1.00  0.00     0.167 HD
ATOM     52  C   UNL     1      -2.492   9.882   8.176  1.00  0.00     0.031 A 
ATOM     53  C   UNL     1      -5.296   3.832  10.311  1.00  0.00     0.031 A 
ATOM     54  C   UNL     1      -1.934   9.344   9.388  1.00  0.00     0.049 A 
ATOM     55  C   UNL     1      -4.157   4.481  11.050  1.00  0.00     0.074 A 
ATOM     56  C   UNL     1      -0.936   9.876  10.185  1.00  0.00     0.029 A 
ATOM     57  N   UNL     1      -2.322   8.150   9.977  1.00  0.00    -0.354 N 
ATOM     58  N   UNL     1      -3.550   5.615  10.794  1.00  0.00    -0.248 NA
ATOM     59  C   UNL     1      -3.640   3.772  12.228  1.00  0.00     0.031 C 
ATOM     60  C   UNL     1      -0.685   8.980  11.228  1.00  0.00     0.029 A 
ATOM     61  C   UNL     1      -1.566   7.916  11.113  1.00  0.00     0.049 A 
ATOM     62  H   UNL     1      -3.031   7.557   9.638  1.00  0.00     0.167 HD
ATOM     63  C   UNL     1      -2.597   5.767  11.794  1.00  0.00     0.074 A 
ATOM     64  C   UNL     1      -2.719   4.618  12.668  1.00  0.00     0.031 C 
ATOM     65  C   UNL     1      -1.701   6.769  11.973  1.00  0.00     0.031 A 
BRANCH  52  66
ATOM     66  C   UNL     1      -1.881  11.137   7.609  1.00  0.00    -0.014 A 
ATOM     67  C   UNL     1      -2.567  12.364   7.651  1.00  0.00     0.010 A 
ATOM     68  C   UNL     1      -0.578  11.099   7.080  1.00  0.00     0.010 A 
ATOM     69  C   UNL     1      -1.974  13.523   7.142  1.00  0.00     0.020 A 
ATOM     70  C   UNL     1       0.028  12.261   6.594  1.00  0.00     0.020 A 
ATOM     71  C   UNL     1      -0.680  13.464   6.615  1.00  0.00     0.054 A 
BRANCH  71  72
ATOM     72  S   UNL     1       0.078  14.990   5.994  1.00  0.00     0.124 S 
ATOM     73  O   UNL     1      -0.646  15.197   4.742  1.00  0.00    -0.237 OA
ATOM     74  O   UNL     1      -0.216  15.950   7.055  1.00  0.00    -0.237 OA
ATOM     75  O   UNL     1       1.489  14.642   5.846  1.00  0.00    -0.744 OA
ENDBRANCH  71  72
ENDBRANCH  52  66
BRANCH  53  76
ATOM     76  C   UNL     1      -5.834   2.514  10.744  1.00  0.00    -0.014 A 
ATOM     77  C   UNL     1      -6.569   2.397  11.937  1.00  0.00     0.010 A 
ATOM     78  C   UNL     1      -5.617   1.366   9.960  1.00  0.00     0.010 A 
ATOM     79  C   UNL     1      -7.055   1.153  12.351  1.00  0.00     0.020 A 
ATOM     80  C   UNL     1      -6.124   0.126  10.357  1.00  0.00     0.020 A 
ATOM     81  C   UNL     1      -6.828   0.024  11.558  1.00  0.00     0.054 A 
BRANCH  81  82
ATOM     82  S   UNL     1      -7.502  -1.574  12.093  1.00  0.00     0.124 S 
ATOM     83  O   UNL     1      -6.589  -1.943  13.169  1.00  0.00    -0.237 OA
ATOM     84  O   UNL     1      -8.859  -1.223  12.505  1.00  0.00    -0.237 OA
ATOM     85  O   UNL     1      -7.420  -2.398  10.889  1.00  0.00    -0.744 OA
ENDBRANCH  81  82
ENDBRANCH  53  76
BRANCH  65  86
ATOM     86  C   UNL     1      -0.802   6.688  13.178  1.00  0.00    -0.014 A 
ATOM     87  C   UNL     1       0.258   5.766  13.235  1.00  0.00     0.010 A 
ATOM     88  C   UNL     1      -0.988   7.587  14.243  1.00  0.00     0.010 A 
ATOM     89  C   UNL     1       1.099   5.726  14.350  1.00  0.00     0.020 A 
ATOM     90  C   UNL     1      -0.133   7.568  15.348  1.00  0.00     0.020 A 
ATOM     91  C   UNL     1       0.897   6.627  15.400  1.00  0.00     0.054 A 
BRANCH  91  92
ATOM     92  S   UNL     1       2.029   6.586  16.817  1.00  0.00     0.124 S 
ATOM     93  O   UNL     1       1.583   5.391  17.527  1.00  0.00    -0.237 OA
ATOM     94  O   UNL     1       3.340   6.487  16.179  1.00  0.00    -0.237 OA
ATOM     95  O   UNL     1       1.772   7.851  17.502  1.00  0.00    -0.744 OA
ENDBRANCH  91  92
ENDBRANCH  65  86
ENDBRANCH  39  40
ENDBRANCH  31  34
ENDBRANCH  29  30
ENDBRANCH  28  29
ENDBRANCH  27  28
ENDBRANCH   1  27
TORSDOF 22
