REMARK SMILES Cc1ccc(C)c(N2C(=O)C[C@@H](SCC(=O)NCCCCCCNC(=O)c3ccc(-c4c5nc(c(-c6ccc(S(=O)(=O)[O-])cc6)c6ccc([nH]6)c(-c6ccc(S(=O)(=O)[O-])cc6)c6nc(c(-c7ccc(S(=O)(=O)[O-])cc7)c7ccc4[nH]7)C=C6)C=C5)cc3)C2=O)c1
REMARK SMILES IDX 20 1 19 2 18 3 17 4 15 5 16 6 14 8 13 9 12 10 8 11 9 12
REMARK SMILES IDX 87 13 10 14 11 15 88 16 7 17 1 18 2 19 3 20 89 21 4 22 5 23
REMARK SMILES IDX 6 24 21 25 22 26 23 27 24 28 25 29 26 31 27 32 28 33 86 34
REMARK SMILES IDX 29 35 85 36 30 37 31 38 32 39 79 40 33 41 84 42 78 43 80 44
REMARK SMILES IDX 34 45 83 46 77 47 76 48 35 50 65 51 46 52 64 53 47 54 50 55
REMARK SMILES IDX 63 56 81 57 48 58 49 59 62 61 82 62 51 63 36 64 37 65 45 66
REMARK SMILES IDX 38 67 44 68 39 69 40 70 41 71 42 72 43 73 66 74 67 75 75 76
REMARK SMILES IDX 68 77 74 78 69 79 70 80 71 81 72 82 73 83 52 84 53 85 61 86
REMARK SMILES IDX 54 87 60 88 55 89 56 90 57 91 58 92 59 93
REMARK H PARENT 17 7 24 30 80 49 50 60
REMARK Flexibility Score: inf
ROOT
ATOM      1  C   UNL     1      -5.882   5.917   4.642  1.00  0.00     0.002 C 
ENDROOT
BRANCH   1   2
ATOM      2  C   UNL     1      -5.916   4.894   3.496  1.00  0.00     0.021 C 
BRANCH   2   3
ATOM      3  C   UNL     1      -6.602   5.404   2.227  1.00  0.00     0.116 C 
BRANCH   3   4
ATOM      4  N   UNL     1      -5.869   6.522   1.660  1.00  0.00    -0.355 N 
ATOM      5  C   UNL     1      -5.362   6.693   0.410  1.00  0.00     0.230 C 
ATOM      6  O   UNL     1      -4.632   7.667   0.208  1.00  0.00    -0.274 OA
ATOM      7  H   UNL     1      -5.715   7.274   2.277  1.00  0.00     0.163 HD
BRANCH   5   8
ATOM      8  C   UNL     1      -5.718   5.746  -0.713  1.00  0.00     0.170 C 
BRANCH   8   9
ATOM      9  S   UNL     1      -5.014   4.099  -0.580  1.00  0.00    -0.138 SA
BRANCH   9  10
ATOM     10  C   UNL     1      -3.337   4.480   0.057  1.00  0.00     0.146 C 
ATOM     11  N   UNL     1      -1.801   2.807  -0.459  1.00  0.00    -0.249 N 
ATOM     12  C   UNL     1      -1.409   3.887  -1.206  1.00  0.00     0.235 C 
ATOM     13  C   UNL     1      -2.767   3.155   0.449  1.00  0.00     0.247 C 
ATOM     14  O   UNL     1      -0.437   4.043  -1.932  1.00  0.00    -0.274 OA
ATOM     15  C   UNL     1      -2.365   5.018  -0.960  1.00  0.00     0.125 C 
ATOM     16  O   UNL     1      -3.161   2.609   1.474  1.00  0.00    -0.273 OA
BRANCH  11  17
ATOM     17  C   UNL     1      -1.133   1.560  -0.479  1.00  0.00     0.055 A 
ATOM     18  C   UNL     1       3.068   0.009  -0.855  1.00  0.00     0.044 C 
ATOM     19  C   UNL     1       1.590   0.007  -0.575  1.00  0.00    -0.049 A 
ATOM     20  C   UNL     1       0.723  -1.547  -0.237  1.00  0.00     0.004 A 
ATOM     21  C   UNL     1       0.659   1.563  -0.628  1.00  0.00     0.030 A 
ATOM     22  C   UNL     1      -1.073  -1.563  -0.029  1.00  0.00     0.006 A 
ATOM     23  C   UNL     1      -2.018  -0.045  -0.249  1.00  0.00    -0.027 A 
ATOM     24  C   UNL     1      -3.522  -0.154  -0.230  1.00  0.00     0.046 C 
ENDBRANCH  11  17
ENDBRANCH   9  10
ENDBRANCH   8   9
ENDBRANCH   5   8
ENDBRANCH   3   4
ENDBRANCH   2   3
ENDBRANCH   1   2
BRANCH   1  25
ATOM     25  C   UNL     1      -7.229   6.575   5.000  1.00  0.00     0.002 C 
BRANCH  25  26
ATOM     26  C   UNL     1      -8.404   5.635   5.312  1.00  0.00     0.021 C 
BRANCH  26  27
ATOM     27  C   UNL     1      -8.143   4.749   6.510  1.00  0.00     0.116 C 
BRANCH  27  28
ATOM     28  N   UNL     1      -8.032   5.475   7.788  1.00  0.00    -0.352 N 
ATOM     29  C   UNL     1      -7.698   5.008   9.056  1.00  0.00     0.251 C 
ATOM     30  H   UNL     1      -8.224   6.439   7.737  1.00  0.00     0.163 HD
ATOM     31  O   UNL     1      -7.967   5.666  10.055  1.00  0.00    -0.269 OA
BRANCH  29  32
ATOM     32  C   UNL     1      -6.930   3.749   9.178  1.00  0.00     0.039 A 
ATOM     33  C   UNL     1      -6.265   3.334  10.338  1.00  0.00     0.014 A 
ATOM     34  C   UNL     1      -6.441   3.237   7.996  1.00  0.00     0.014 A 
ATOM     35  C   UNL     1      -5.090   2.575  10.156  1.00  0.00     0.010 A 
ATOM     36  C   UNL     1      -5.866   2.029   8.029  1.00  0.00     0.010 A 
ATOM     37  C   UNL     1      -4.794   2.142   8.858  1.00  0.00    -0.014 A 
BRANCH  37  38
ATOM     38  C   UNL     1      -3.635   1.423   8.378  1.00  0.00     0.031 A 
ATOM     39  C   UNL     1      -3.774  -0.001   8.760  1.00  0.00     0.074 A 
ATOM     40  C   UNL     1      -2.717   1.889   7.494  1.00  0.00     0.049 A 
ATOM     41  N   UNL     1      -3.333  -0.488   9.870  1.00  0.00    -0.248 NA
ATOM     42  C   UNL     1      -4.782  -0.862   8.098  1.00  0.00     0.031 C 
ATOM     43  C   UNL     1      -2.603   3.170   6.784  1.00  0.00     0.029 A 
ATOM     44  N   UNL     1      -1.633   1.218   7.014  1.00  0.00    -0.354 N 
ATOM     45  C   UNL     1      -3.744  -1.806   9.867  1.00  0.00     0.074 A 
ATOM     46  C   UNL     1      -4.866  -1.869   8.973  1.00  0.00     0.031 C 
ATOM     47  C   UNL     1      -1.630   3.088   5.832  1.00  0.00     0.029 A 
ATOM     48  C   UNL     1      -0.954   1.802   5.942  1.00  0.00     0.049 A 
ATOM     49  H   UNL     1      -1.341   0.363   7.405  1.00  0.00     0.167 HD
ATOM     50  C   UNL     1      -2.903  -2.783  10.299  1.00  0.00     0.031 A 
ATOM     51  C   UNL     1       0.045   1.218   5.202  1.00  0.00     0.031 A 
ATOM     52  C   UNL     1      -1.729  -2.207  10.915  1.00  0.00     0.049 A 
ATOM     53  C   UNL     1       0.576   0.078   5.968  1.00  0.00     0.074 A 
ATOM     54  C   UNL     1      -1.509  -1.359  11.985  1.00  0.00     0.029 A 
ATOM     55  N   UNL     1      -0.623  -2.090  10.103  1.00  0.00    -0.354 N 
ATOM     56  N   UNL     1       1.314   0.261   7.016  1.00  0.00    -0.248 NA
ATOM     57  C   UNL     1      -0.161  -1.179   5.899  1.00  0.00     0.031 C 
ATOM     58  C   UNL     1      -0.527  -0.430  11.530  1.00  0.00     0.029 A 
ATOM     59  C   UNL     1      -0.105  -0.828  10.266  1.00  0.00     0.049 A 
ATOM     60  H   UNL     1      -0.267  -2.789   9.508  1.00  0.00     0.167 HD
ATOM     61  C   UNL     1       0.731  -0.561   7.953  1.00  0.00     0.074 A 
ATOM     62  C   UNL     1      -0.120  -1.495   7.198  1.00  0.00     0.031 C 
ATOM     63  C   UNL     1       0.678  -0.172   9.257  1.00  0.00     0.031 A 
BRANCH  50  64
ATOM     64  C   UNL     1      -2.910  -4.185   9.760  1.00  0.00    -0.014 A 
ATOM     65  C   UNL     1      -2.058  -5.122  10.371  1.00  0.00     0.010 A 
ATOM     66  C   UNL     1      -3.521  -4.563   8.545  1.00  0.00     0.010 A 
ATOM     67  C   UNL     1      -1.796  -6.357   9.774  1.00  0.00     0.020 A 
ATOM     68  C   UNL     1      -3.295  -5.809   7.959  1.00  0.00     0.020 A 
ATOM     69  C   UNL     1      -2.416  -6.691   8.570  1.00  0.00     0.054 A 
BRANCH  69  70
ATOM     70  S   UNL     1      -2.033  -8.281   7.802  1.00  0.00     0.124 S 
ATOM     71  O   UNL     1      -0.612  -8.138   7.502  1.00  0.00    -0.237 OA
ATOM     72  O   UNL     1      -2.367  -9.221   8.869  1.00  0.00    -0.237 OA
ATOM     73  O   UNL     1      -2.919  -8.322   6.640  1.00  0.00    -0.744 OA
ENDBRANCH  69  70
ENDBRANCH  50  64
BRANCH  51  74
ATOM     74  C   UNL     1       0.157   1.124   3.730  1.00  0.00    -0.014 A 
ATOM     75  C   UNL     1       1.210   0.518   3.043  1.00  0.00     0.010 A 
ATOM     76  C   UNL     1      -1.023   1.156   3.050  1.00  0.00     0.010 A 
ATOM     77  C   UNL     1       1.086   0.040   1.675  1.00  0.00     0.020 A 
ATOM     78  C   UNL     1      -1.147   0.645   1.739  1.00  0.00     0.020 A 
ATOM     79  C   UNL     1      -0.117   0.148   0.711  1.00  0.00     0.054 A 
BRANCH  79  80
ATOM     80  S   UNL     1      -0.350  -0.201  -1.809  1.00  0.00     0.124 S 
ATOM     81  O   UNL     1       0.778   0.367  -2.613  1.00  0.00    -0.237 OA
ATOM     82  O   UNL     1      -0.463  -1.641  -2.205  1.00  0.00    -0.237 OA
ATOM     83  O   UNL     1      -1.565   0.471  -2.386  1.00  0.00    -0.744 OA
ENDBRANCH  79  80
ENDBRANCH  51  74
BRANCH  63  84
ATOM     84  C   UNL     1       1.364   1.130   9.613  1.00  0.00    -0.014 A 
ATOM     85  C   UNL     1       0.950   2.412   9.175  1.00  0.00     0.010 A 
ATOM     86  C   UNL     1       2.436   1.050  10.505  1.00  0.00     0.010 A 
ATOM     87  C   UNL     1       1.615   3.574   9.600  1.00  0.00     0.020 A 
ATOM     88  C   UNL     1       3.091   2.200  10.944  1.00  0.00     0.020 A 
ATOM     89  C   UNL     1       2.689   3.455  10.483  1.00  0.00     0.054 A 
BRANCH  89  90
ATOM     90  S   UNL     1       3.544   4.946  11.066  1.00  0.00     0.124 S 
ATOM     91  O   UNL     1       4.216   5.420   9.859  1.00  0.00    -0.237 OA
ATOM     92  O   UNL     1       2.446   5.783  11.544  1.00  0.00    -0.237 OA
ATOM     93  O   UNL     1       4.433   4.446  12.114  1.00  0.00    -0.744 OA
ENDBRANCH  89  90
ENDBRANCH  63  84
ENDBRANCH  37  38
ENDBRANCH  29  32
ENDBRANCH  27  28
ENDBRANCH  26  27
ENDBRANCH  25  26
ENDBRANCH   1  25
TORSDOF 19
