REMARK SMILES CCCCN(c1ccccc1C(=O)NCCCCCCNC(=O)c1ccc(-c2c3nc(c(-c4ccc(S(=O)(=O)[O-])cc4)c4ccc([nH]4)c(-c4ccc(S(=O)(=O)[O-])cc4)c4nc(c(-c5ccc(S(=O)(=O)[O-])cc5)c5ccc2[nH]5)C=C4)C=C3)cc1)S(=O)(=O)c1ccc2c(c1)oc(=O)n2C
REMARK SMILES IDX 17 1 16 2 15 3 14 4 12 5 13 6 11 8 6 9 7 10 8 11 10 12 9 13
REMARK SMILES IDX 5 14 4 15 3 16 2 17 1 18 84 19 85 20 86 21 87 22 88 23 92 24
REMARK SMILES IDX 89 25 91 26 90 27 93 28 96 29 94 30 97 31 95 32 18 33 19 34
REMARK SMILES IDX 20 35 21 36 22 37 23 39 24 40 25 41 83 42 26 43 82 44 27 45
REMARK SMILES IDX 28 46 29 47 76 48 30 49 81 50 75 51 77 52 31 53 80 54 74 55
REMARK SMILES IDX 73 56 32 58 62 59 43 60 61 61 44 62 47 63 60 64 78 65 45 66
REMARK SMILES IDX 46 67 59 69 79 70 48 71 33 72 34 73 42 74 35 75 41 76 36 77
REMARK SMILES IDX 37 78 38 79 39 80 40 81 63 82 64 83 72 84 65 85 71 86 66 87
REMARK SMILES IDX 67 88 68 89 69 90 70 91 49 92 50 93 58 94 51 95 57 96 52 97
REMARK SMILES IDX 53 98 54 99 55 100 56 101
REMARK H PARENT 14 7 21 38 77 57 47 68
REMARK Flexibility Score: inf
ROOT
ATOM      1  C   UNL     1       2.008  -2.748  -1.914  1.00  0.00     0.002 C 
ENDROOT
BRANCH   1   2
ATOM      2  C   UNL     1       0.475  -2.611  -2.020  1.00  0.00     0.021 C 
BRANCH   2   3
ATOM      3  C   UNL     1      -0.085  -1.367  -2.712  1.00  0.00     0.116 C 
BRANCH   3   4
ATOM      4  N   UNL     1       0.364  -1.158  -4.068  1.00  0.00    -0.352 N 
ATOM      5  C   UNL     1      -0.115  -0.359  -5.075  1.00  0.00     0.253 C 
ATOM      6  O   UNL     1       0.518  -0.388  -6.137  1.00  0.00    -0.269 OA
ATOM      7  H   UNL     1       1.159  -1.684  -4.315  1.00  0.00     0.163 HD
BRANCH   5   8
ATOM      8  C   UNL     1      -1.341   0.506  -5.033  1.00  0.00     0.064 A 
ATOM      9  C   UNL     1      -1.774   1.370  -4.005  1.00  0.00     0.065 A 
ATOM     10  C   UNL     1      -2.766   2.329  -4.295  1.00  0.00     0.028 A 
ATOM     11  C   UNL     1      -3.440   2.347  -5.515  1.00  0.00     0.002 A 
ATOM     12  C   UNL     1      -2.030   0.555  -6.270  1.00  0.00     0.016 A 
ATOM     13  C   UNL     1      -3.083   1.443  -6.501  1.00  0.00     0.001 A 
BRANCH   9  14
ATOM     14  N   UNL     1      -1.151   1.436  -2.707  1.00  0.00    -0.266 N 
BRANCH  14  15
ATOM     15  C   UNL     1       0.207   2.092  -2.688  1.00  0.00     0.136 C 
BRANCH  15  16
ATOM     16  C   UNL     1       0.574   3.123  -1.616  1.00  0.00     0.022 C 
BRANCH  16  17
ATOM     17  C   UNL     1       0.635   2.752  -0.131  1.00  0.00    -0.002 C 
ATOM     18  C   UNL     1       1.320   1.443   0.192  1.00  0.00     0.004 C 
ENDBRANCH  16  17
ENDBRANCH  15  16
ENDBRANCH  14  15
BRANCH  14  19
ATOM     19  S   UNL     1      -2.146   1.420  -1.319  1.00  0.00     0.264 S 
ATOM     20  O   UNL     1      -1.558   0.501  -0.366  1.00  0.00    -0.201 OA
ATOM     21  O   UNL     1      -2.421   2.799  -0.964  1.00  0.00    -0.201 OA
BRANCH  19  22
ATOM     22  C   UNL     1      -3.740   0.704  -1.736  1.00  0.00     0.091 A 
ATOM     23  C   UNL     1      -4.851   1.579  -1.849  1.00  0.00     0.025 A 
ATOM     24  C   UNL     1      -3.926  -0.684  -1.736  1.00  0.00     0.071 A 
ATOM     25  C   UNL     1      -6.146   1.087  -2.023  1.00  0.00     0.032 A 
ATOM     26  C   UNL     1      -5.222  -1.141  -1.901  1.00  0.00     0.157 A 
ATOM     27  C   UNL     1      -6.295  -0.280  -2.044  1.00  0.00     0.090 A 
ATOM     28  O   UNL     1      -5.611  -2.474  -1.912  1.00  0.00    -0.408 OA
ATOM     29  N   UNL     1      -7.410  -1.073  -2.161  1.00  0.00    -0.277 N 
ATOM     30  C   UNL     1      -7.003  -2.390  -2.080  1.00  0.00     0.419 A 
ATOM     31  C   UNL     1      -8.762  -0.638  -2.354  1.00  0.00     0.157 C 
ATOM     32  O   UNL     1      -7.730  -3.371  -2.157  1.00  0.00    -0.223 OA
ENDBRANCH  19  22
ENDBRANCH  14  19
ENDBRANCH   9  14
ENDBRANCH   5   8
ENDBRANCH   3   4
ENDBRANCH   2   3
ENDBRANCH   1   2
BRANCH   1  33
ATOM     33  C   UNL     1       2.803  -1.544  -1.396  1.00  0.00     0.002 C 
BRANCH  33  34
ATOM     34  C   UNL     1       3.189  -1.486   0.092  1.00  0.00     0.021 C 
BRANCH  34  35
ATOM     35  C   UNL     1       2.247  -2.100   1.128  1.00  0.00     0.116 C 
BRANCH  35  36
ATOM     36  N   UNL     1       2.946  -3.176   1.816  1.00  0.00    -0.352 N 
ATOM     37  C   UNL     1       3.560  -3.132   3.043  1.00  0.00     0.251 C 
ATOM     38  H   UNL     1       2.983  -4.039   1.344  1.00  0.00     0.163 HD
ATOM     39  O   UNL     1       4.564  -3.815   3.232  1.00  0.00    -0.269 OA
BRANCH  37  40
ATOM     40  C   UNL     1       2.994  -2.323   4.152  1.00  0.00     0.039 A 
ATOM     41  C   UNL     1       3.859  -1.841   5.141  1.00  0.00     0.014 A 
ATOM     42  C   UNL     1       1.613  -2.162   4.306  1.00  0.00     0.014 A 
ATOM     43  C   UNL     1       3.342  -1.224   6.284  1.00  0.00     0.010 A 
ATOM     44  C   UNL     1       1.102  -1.491   5.421  1.00  0.00     0.010 A 
ATOM     45  C   UNL     1       1.957  -1.048   6.441  1.00  0.00    -0.014 A 
BRANCH  45  46
ATOM     46  C   UNL     1       1.412  -0.438   7.685  1.00  0.00     0.031 A 
ATOM     47  C   UNL     1       0.565  -1.249   8.634  1.00  0.00     0.074 A 
ATOM     48  C   UNL     1       1.680   0.853   7.965  1.00  0.00     0.049 A 
ATOM     49  N   UNL     1       0.055  -0.900   9.790  1.00  0.00    -0.248 NA
ATOM     50  C   UNL     1       0.231  -2.623   8.227  1.00  0.00     0.031 C 
ATOM     51  C   UNL     1       2.450   1.759   7.109  1.00  0.00     0.029 A 
ATOM     52  N   UNL     1       1.345   1.625   9.050  1.00  0.00    -0.354 N 
ATOM     53  C   UNL     1      -0.666  -2.002  10.239  1.00  0.00     0.074 A 
ATOM     54  C   UNL     1      -0.570  -3.013   9.209  1.00  0.00     0.031 C 
ATOM     55  C   UNL     1       2.558   2.951   7.717  1.00  0.00     0.029 A 
ATOM     56  C   UNL     1       1.839   2.907   8.987  1.00  0.00     0.049 A 
ATOM     57  H   UNL     1       0.803   1.292   9.801  1.00  0.00     0.167 HD
ATOM     58  C   UNL     1      -1.333  -2.166  11.408  1.00  0.00     0.031 A 
ATOM     59  C   UNL     1       1.730   3.934   9.852  1.00  0.00     0.031 A 
ATOM     60  C   UNL     1      -1.427  -1.157  12.433  1.00  0.00     0.049 A 
ATOM     61  C   UNL     1       0.992   3.726  11.147  1.00  0.00     0.074 A 
ATOM     62  C   UNL     1      -2.028  -1.246  13.677  1.00  0.00     0.029 A 
ATOM     63  N   UNL     1      -0.912   0.127  12.330  1.00  0.00    -0.354 N 
ATOM     64  N   UNL     1       0.385   2.650  11.587  1.00  0.00    -0.248 NA
ATOM     65  C   UNL     1       0.944   4.867  12.070  1.00  0.00     0.031 C 
ATOM     66  C   UNL     1      -1.933   0.004  14.300  1.00  0.00     0.029 A 
ATOM     67  C   UNL     1      -1.209   0.850  13.475  1.00  0.00     0.049 A 
ATOM     68  H   UNL     1      -0.410   0.474  11.558  1.00  0.00     0.167 HD
ATOM     69  C   UNL     1      -0.097   2.977  12.850  1.00  0.00     0.074 A 
ATOM     70  C   UNL     1       0.312   4.342  13.111  1.00  0.00     0.031 C 
ATOM     71  C   UNL     1      -0.813   2.216  13.716  1.00  0.00     0.031 A 
BRANCH  58  72
ATOM     72  C   UNL     1      -2.034  -3.484  11.637  1.00  0.00    -0.014 A 
ATOM     73  C   UNL     1      -1.311  -4.676  11.826  1.00  0.00     0.010 A 
ATOM     74  C   UNL     1      -3.440  -3.524  11.708  1.00  0.00     0.010 A 
ATOM     75  C   UNL     1      -1.979  -5.888  12.033  1.00  0.00     0.020 A 
ATOM     76  C   UNL     1      -4.111  -4.728  11.947  1.00  0.00     0.020 A 
ATOM     77  C   UNL     1      -3.375  -5.906  12.090  1.00  0.00     0.054 A 
BRANCH  77  78
ATOM     78  S   UNL     1      -4.214  -7.489  12.379  1.00  0.00     0.124 S 
ATOM     79  O   UNL     1      -4.004  -8.178  11.109  1.00  0.00    -0.237 OA
ATOM     80  O   UNL     1      -3.481  -8.035  13.518  1.00  0.00    -0.237 OA
ATOM     81  O   UNL     1      -5.596  -7.104  12.657  1.00  0.00    -0.744 OA
ENDBRANCH  77  78
ENDBRANCH  58  72
BRANCH  59  82
ATOM     82  C   UNL     1       2.352   5.247   9.523  1.00  0.00    -0.014 A 
ATOM     83  C   UNL     1       3.470   5.715  10.236  1.00  0.00     0.010 A 
ATOM     84  C   UNL     1       1.837   6.028   8.472  1.00  0.00     0.010 A 
ATOM     85  C   UNL     1       4.051   6.946   9.915  1.00  0.00     0.020 A 
ATOM     86  C   UNL     1       2.435   7.243   8.127  1.00  0.00     0.020 A 
ATOM     87  C   UNL     1       3.532   7.700   8.858  1.00  0.00     0.054 A 
BRANCH  87  88
ATOM     88  S   UNL     1       4.339   9.265   8.420  1.00  0.00     0.124 S 
ATOM     89  O   UNL     1       3.947  10.130   9.528  1.00  0.00    -0.237 OA
ATOM     90  O   UNL     1       5.750   8.890   8.377  1.00  0.00    -0.237 OA
ATOM     91  O   UNL     1       3.752   9.601   7.125  1.00  0.00    -0.744 OA
ENDBRANCH  87  88
ENDBRANCH  59  82
BRANCH  71  92
ATOM     92  C   UNL     1      -1.176   2.839  15.040  1.00  0.00    -0.014 A 
ATOM     93  C   UNL     1      -2.102   3.894  15.127  1.00  0.00     0.010 A 
ATOM     94  C   UNL     1      -0.588   2.348  16.221  1.00  0.00     0.010 A 
ATOM     95  C   UNL     1      -2.387   4.486  16.360  1.00  0.00     0.020 A 
ATOM     96  C   UNL     1      -0.898   2.914  17.461  1.00  0.00     0.020 A 
ATOM     97  C   UNL     1      -1.778   3.996  17.519  1.00  0.00     0.054 A 
BRANCH  97  98
ATOM     98  S   UNL     1      -2.164   4.781  19.108  1.00  0.00     0.124 S 
ATOM     99  O   UNL     1      -1.441   6.045  19.005  1.00  0.00    -0.237 OA
ATOM    100  O   UNL     1      -3.620   4.884  19.069  1.00  0.00    -0.237 OA
ATOM    101  O   UNL     1      -1.638   3.841  20.096  1.00  0.00    -0.744 OA
ENDBRANCH  97  98
ENDBRANCH  71  92
ENDBRANCH  45  46
ENDBRANCH  37  40
ENDBRANCH  35  36
ENDBRANCH  34  35
ENDBRANCH  33  34
ENDBRANCH   1  33
TORSDOF 22
