REMARK SMILES C[C@]12CC[C@H]3[C@@H](CCC4=CC(=O)C=C[C@@]43C)[C@@H]1CC[C@H]2O[C@@H]1O[C@H](C(=O)NCCCCCCNC(=O)c2ccc(-c3c4nc(c(-c5ccc(S(=O)(=O)[O-])cc5)c5ccc([nH]5)c(-c5ccc(S(=O)(=O)[O-])cc5)c5nc(c(-c6ccc(S(=O)(=O)[O-])cc6)c6ccc3[nH]6)C=C5)C=C4)cc2)[C@@H](O)[C@H](O)[C@H]1O
REMARK SMILES IDX 31 1 30 2 29 3 28 4 27 5 25 6 26 7 24 9 22 10 23 11 101 12
REMARK SMILES IDX 99 13 97 14 21 15 20 16 1 17 2 18 3 19 17 20 4 21 6 22 18 23
REMARK SMILES IDX 19 24 5 25 7 26 15 27 8 28 9 29 14 30 16 31 10 32 13 33
REMARK SMILES IDX 11 34 12 35 102 36 100 38 98 40 32 42 33 43 34 44 35 45
REMARK SMILES IDX 36 47 37 48 38 49 96 50 39 51 95 52 40 53 41 54 42 55 89 56
REMARK SMILES IDX 43 57 94 58 88 59 90 60 44 61 93 62 87 63 86 64 45 66 75 67
REMARK SMILES IDX 56 68 74 69 57 70 60 71 73 72 91 73 58 74 59 75 72 77 92 78
REMARK SMILES IDX 61 79 46 80 47 81 55 82 48 83 54 84 49 85 50 86 51 87 52 88
REMARK SMILES IDX 53 89 76 90 77 91 85 92 78 93 84 94 79 95 80 96 81 97 82 98
REMARK SMILES IDX 83 99 62 100 63 101 71 102 64 103 70 104 65 105 66 106
REMARK SMILES IDX 67 107 68 108 69 109
REMARK H PARENT 27 8 102 37 100 39 98 41 34 46 90 65 60 76
REMARK Flexibility Score: inf
ROOT
ATOM      1  C   UNL     1       0.920  -8.078  -4.618  1.00  0.00     0.002 C 
ENDROOT
BRANCH   1   2
ATOM      2  C   UNL     1       1.944  -6.984  -4.907  1.00  0.00     0.002 C 
BRANCH   2   3
ATOM      3  C   UNL     1       2.072  -5.488  -4.175  1.00  0.00     0.021 C 
BRANCH   3   4
ATOM      4  C   UNL     1       2.723  -4.428  -2.471  1.00  0.00     0.116 C 
BRANCH   4   5
ATOM      5  N   UNL     1       4.040  -4.106  -1.765  1.00  0.00    -0.354 N 
ATOM      6  C   UNL     1       4.603  -2.965  -1.241  1.00  0.00     0.252 C 
ATOM      7  O   UNL     1       5.719  -3.105  -0.720  1.00  0.00    -0.272 OA
ATOM      8  H   UNL     1       4.617  -4.896  -1.661  1.00  0.00     0.163 HD
BRANCH   6   9
ATOM      9  C   UNL     1       3.950  -1.548  -1.254  1.00  0.00     0.241 C 
ATOM     10  C   UNL     1       3.167   0.320  -2.603  1.00  0.00     0.282 C 
ATOM     11  O   UNL     1       3.748  -0.990  -2.550  1.00  0.00    -0.334 OA
ATOM     12  C   UNL     1       1.946   0.529  -1.663  1.00  0.00     0.202 C 
ATOM     13  C   UNL     1       2.159  -0.103  -0.287  1.00  0.00     0.180 C 
ATOM     14  C   UNL     1       2.675  -1.536  -0.407  1.00  0.00     0.184 C 
BRANCH  10  15
ATOM     15  O   UNL     1       2.945   0.779  -3.956  1.00  0.00    -0.346 OA
BRANCH  15  16
ATOM     16  C   UNL     1       2.033   0.233  -4.929  1.00  0.00     0.127 C 
ATOM     17  C   UNL     1       1.527  -1.513  -6.729  1.00  0.00     0.014 C 
ATOM     18  C   UNL     1       2.263  -1.237  -5.374  1.00  0.00    -0.003 C 
ATOM     19  C   UNL     1       3.742  -1.651  -5.625  1.00  0.00     0.010 C 
ATOM     20  C   UNL     1       1.516  -1.907  -4.195  1.00  0.00     0.001 C 
ATOM     21  C   UNL     1       4.010  -3.184  -5.698  1.00  0.00     0.006 C 
ATOM     22  C   UNL     1       1.642  -3.399  -4.207  1.00  0.00    -0.003 C 
ATOM     23  C   UNL     1       0.164  -1.207  -4.140  1.00  0.00     0.007 C 
ATOM     24  C   UNL     1       0.527   0.250  -4.537  1.00  0.00     0.033 C 
ATOM     25  C   UNL     1       3.561  -3.793  -4.373  1.00  0.00     0.006 C 
ATOM     26  C   UNL     1       0.606  -4.369  -2.865  1.00  0.00     0.009 C 
ATOM     27  C   UNL     1       4.239  -5.547  -3.836  1.00  0.00     0.010 C 
ATOM     28  C   UNL     1       1.319  -6.095  -2.269  1.00  0.00     0.032 C 
ATOM     29  C   UNL     1       3.150  -6.569  -2.631  1.00  0.00    -0.056 C 
ATOM     30  C   UNL     1       5.652  -5.546  -3.203  1.00  0.00    -0.012 C 
ATOM     31  C   UNL     1       4.729  -6.354  -5.112  1.00  0.00     0.021 C 
ATOM     32  C   UNL     1       3.765  -7.416  -1.789  1.00  0.00     0.052 C 
ATOM     33  C   UNL     1       6.088  -6.478  -2.336  1.00  0.00     0.048 C 
ATOM     34  C   UNL     1       5.243  -7.549  -1.738  1.00  0.00     0.178 C 
ATOM     35  O   UNL     1       5.760  -8.463  -1.103  1.00  0.00    -0.290 OA
ENDBRANCH  15  16
ENDBRANCH  10  15
BRANCH  12  36
ATOM     36  O   UNL     1       1.597   1.913  -1.514  1.00  0.00    -0.385 OA
ATOM     37  H   UNL     1       2.325   2.385  -1.081  1.00  0.00     0.211 HD
ENDBRANCH  12  36
BRANCH  13  38
ATOM     38  O   UNL     1       0.941  -0.156   0.483  1.00  0.00    -0.387 OA
ATOM     39  H   UNL     1       0.296  -0.722   0.030  1.00  0.00     0.211 HD
ENDBRANCH  13  38
BRANCH  14  40
ATOM     40  O   UNL     1       2.900  -2.034   0.916  1.00  0.00    -0.387 OA
ATOM     41  H   UNL     1       3.542  -1.467   1.370  1.00  0.00     0.211 HD
ENDBRANCH  14  40
ENDBRANCH   6   9
ENDBRANCH   4   5
ENDBRANCH   3   4
ENDBRANCH   2   3
ENDBRANCH   1   2
BRANCH   1  42
ATOM     42  C   UNL     1      -0.483  -7.782  -5.143  1.00  0.00     0.021 C 
BRANCH  42  43
ATOM     43  C   UNL     1      -0.561  -7.542  -6.655  1.00  0.00     0.116 C 
BRANCH  43  44
ATOM     44  N   UNL     1       0.194  -8.532  -7.423  1.00  0.00    -0.352 N 
ATOM     45  C   UNL     1      -0.205  -9.179  -8.562  1.00  0.00     0.251 C 
ATOM     46  H   UNL     1       1.089  -8.759  -7.082  1.00  0.00     0.163 HD
ATOM     47  O   UNL     1       0.419 -10.118  -9.043  1.00  0.00    -0.269 OA
BRANCH  45  48
ATOM     48  C   UNL     1      -1.409  -8.649  -9.202  1.00  0.00     0.039 A 
ATOM     49  C   UNL     1      -2.604  -9.363  -9.136  1.00  0.00     0.014 A 
ATOM     50  C   UNL     1      -1.354  -7.329  -9.660  1.00  0.00     0.014 A 
ATOM     51  C   UNL     1      -3.779  -8.726  -9.521  1.00  0.00     0.010 A 
ATOM     52  C   UNL     1      -2.534  -6.678  -9.966  1.00  0.00     0.010 A 
ATOM     53  C   UNL     1      -3.749  -7.379  -9.922  1.00  0.00    -0.014 A 
BRANCH  53  54
ATOM     54  C   UNL     1      -4.978  -6.693 -10.370  1.00  0.00     0.031 A 
ATOM     55  C   UNL     1      -5.078  -6.261 -11.805  1.00  0.00     0.074 A 
ATOM     56  C   UNL     1      -5.957  -6.422  -9.486  1.00  0.00     0.049 A 
ATOM     57  N   UNL     1      -6.043  -5.619 -12.406  1.00  0.00    -0.248 NA
ATOM     58  C   UNL     1      -3.922  -6.558 -12.672  1.00  0.00     0.031 C 
ATOM     59  C   UNL     1      -5.928  -6.750  -8.058  1.00  0.00     0.029 A 
ATOM     60  N   UNL     1      -7.169  -5.809  -9.661  1.00  0.00    -0.354 N 
ATOM     61  C   UNL     1      -5.602  -5.421 -13.709  1.00  0.00     0.074 A 
ATOM     62  C   UNL     1      -4.258  -5.942 -13.793  1.00  0.00     0.031 C 
ATOM     63  C   UNL     1      -7.088  -6.369  -7.497  1.00  0.00     0.029 A 
ATOM     64  C   UNL     1      -7.926  -5.745  -8.515  1.00  0.00     0.049 A 
ATOM     65  H   UNL     1      -7.471  -5.449 -10.527  1.00  0.00     0.167 HD
ATOM     66  C   UNL     1      -6.273  -4.885 -14.753  1.00  0.00     0.031 A 
ATOM     67  C   UNL     1      -9.161  -5.244  -8.319  1.00  0.00     0.031 A 
ATOM     68  C   UNL     1      -7.620  -4.400 -14.658  1.00  0.00     0.049 A 
ATOM     69  C   UNL     1      -9.895  -4.666  -9.499  1.00  0.00     0.074 A 
ATOM     70  C   UNL     1      -8.426  -3.893 -15.659  1.00  0.00     0.029 A 
ATOM     71  N   UNL     1      -8.361  -4.368 -13.485  1.00  0.00    -0.354 N 
ATOM     72  N   UNL     1      -9.494  -4.556 -10.745  1.00  0.00    -0.248 NA
ATOM     73  C   UNL     1     -11.251  -4.161  -9.254  1.00  0.00     0.031 C 
ATOM     74  C   UNL     1      -9.640  -3.509 -15.082  1.00  0.00     0.029 A 
ATOM     75  C   UNL     1      -9.610  -3.830 -13.732  1.00  0.00     0.049 A 
ATOM     76  H   UNL     1      -8.045  -4.683 -12.608  1.00  0.00     0.167 HD
ATOM     77  C   UNL     1     -10.557  -3.989 -11.437  1.00  0.00     0.074 A 
ATOM     78  C   UNL     1     -11.625  -3.798 -10.474  1.00  0.00     0.031 C 
ATOM     79  C   UNL     1     -10.648  -3.654 -12.748  1.00  0.00     0.031 A 
BRANCH  66  80
ATOM     80  C   UNL     1      -5.554  -4.808 -16.073  1.00  0.00    -0.014 A 
ATOM     81  C   UNL     1      -5.233  -5.973 -16.795  1.00  0.00     0.010 A 
ATOM     82  C   UNL     1      -5.203  -3.555 -16.606  1.00  0.00     0.010 A 
ATOM     83  C   UNL     1      -4.533  -5.890 -18.001  1.00  0.00     0.020 A 
ATOM     84  C   UNL     1      -4.531  -3.466 -17.829  1.00  0.00     0.020 A 
ATOM     85  C   UNL     1      -4.185  -4.635 -18.509  1.00  0.00     0.054 A 
BRANCH  85  86
ATOM     86  S   UNL     1      -3.300  -4.556 -20.090  1.00  0.00     0.124 S 
ATOM     87  O   UNL     1      -1.968  -5.023 -19.712  1.00  0.00    -0.237 OA
ATOM     88  O   UNL     1      -4.069  -5.467 -20.933  1.00  0.00    -0.237 OA
ATOM     89  O   UNL     1      -3.383  -3.146 -20.463  1.00  0.00    -0.744 OA
ENDBRANCH  85  86
ENDBRANCH  66  80
BRANCH  67  90
ATOM     90  C   UNL     1      -9.784  -5.296  -6.969  1.00  0.00    -0.014 A 
ATOM     91  C   UNL     1     -10.867  -6.155  -6.712  1.00  0.00     0.010 A 
ATOM     92  C   UNL     1      -9.287  -4.496  -5.923  1.00  0.00     0.010 A 
ATOM     93  C   UNL     1     -11.454  -6.200  -5.443  1.00  0.00     0.020 A 
ATOM     94  C   UNL     1      -9.853  -4.558  -4.646  1.00  0.00     0.020 A 
ATOM     95  C   UNL     1     -10.941  -5.401  -4.417  1.00  0.00     0.054 A 
BRANCH  95  96
ATOM     96  S   UNL     1     -11.686  -5.511  -2.766  1.00  0.00     0.124 S 
ATOM     97  O   UNL     1     -12.953  -4.814  -2.958  1.00  0.00    -0.237 OA
ATOM     98  O   UNL     1     -11.779  -6.953  -2.557  1.00  0.00    -0.237 OA
ATOM     99  O   UNL     1     -10.717  -4.828  -1.910  1.00  0.00    -0.744 OA
ENDBRANCH  95  96
ENDBRANCH  67  90
BRANCH  79 100
ATOM    100  C   UNL     1     -11.950  -3.069 -13.220  1.00  0.00    -0.014 A 
ATOM    101  C   UNL     1     -12.320  -1.757 -12.880  1.00  0.00     0.010 A 
ATOM    102  C   UNL     1     -12.776  -3.821 -14.076  1.00  0.00     0.010 A 
ATOM    103  C   UNL     1     -13.512  -1.215 -13.365  1.00  0.00     0.020 A 
ATOM    104  C   UNL     1     -13.953  -3.271 -14.587  1.00  0.00     0.020 A 
ATOM    105  C   UNL     1     -14.319  -1.976 -14.217  1.00  0.00     0.054 A 
BRANCH 105 106
ATOM    106  S   UNL     1     -15.835  -1.229 -14.875  1.00  0.00     0.124 S 
ATOM    107  O   UNL     1     -16.708  -1.237 -13.705  1.00  0.00    -0.237 OA
ATOM    108  O   UNL     1     -15.379   0.089 -15.310  1.00  0.00    -0.237 OA
ATOM    109  O   UNL     1     -16.227  -2.134 -15.953  1.00  0.00    -0.744 OA
ENDBRANCH 105 106
ENDBRANCH  79 100
ENDBRANCH  53  54
ENDBRANCH  45  48
ENDBRANCH  43  44
ENDBRANCH  42  43
ENDBRANCH   1  42
TORSDOF 21
