REMARK SMILES CC(=O)c1ccc(N2/C(=[NH+]/C(=O)CCC(=O)NCCCCCCNC(=O)c3ccc(-c4c5nc(c(-c6ccc(S(=O)(=O)[O-])cc6)c6ccc([nH]6)c(-c6ccc(S(=O)(=O)[O-])cc6)c6nc(c(-c7ccc(S(=O)(=O)[O-])cc7)c7ccc4[nH]7)C=C6)C=C5)cc3)S[C@H]3CS(=O)(=O)C[C@@H]32)cc1
REMARK SMILES IDX 20 1 19 2 18 3 17 4 15 5 16 6 14 8 13 9 11 10 8 11 9 12
REMARK SMILES IDX 94 13 10 14 87 15 88 16 93 17 89 19 90 20 12 21 91 22 92 23
REMARK SMILES IDX 7 24 4 25 5 26 96 27 6 28 95 29 2 30 1 31 3 32 21 33 22 34
REMARK SMILES IDX 23 35 24 36 25 37 26 39 27 40 28 41 86 42 29 43 85 44 30 45
REMARK SMILES IDX 31 46 32 47 79 48 33 49 84 50 78 51 80 52 34 53 83 54 77 55
REMARK SMILES IDX 76 56 35 58 65 59 46 60 64 61 47 62 50 63 63 64 81 65 48 66
REMARK SMILES IDX 49 67 62 69 82 70 51 71 36 72 37 73 45 74 38 75 44 76 39 77
REMARK SMILES IDX 40 78 41 79 42 80 43 81 66 82 67 83 75 84 68 85 74 86 69 87
REMARK SMILES IDX 70 88 71 89 72 90 73 91 52 92 53 93 61 94 54 95 60 96 55 97
REMARK SMILES IDX 56 98 57 99 58 100 59 101
REMARK H PARENT 17 7 10 18 24 38 80 57 50 68
REMARK Flexibility Score: inf
ROOT
ATOM      1  C   UNL     1       4.791  -1.345   5.650  1.00  0.00     0.002 C 
ENDROOT
BRANCH   1   2
ATOM      2  C   UNL     1       5.958  -1.343   6.610  1.00  0.00     0.021 C 
BRANCH   2   3
ATOM      3  C   UNL     1       7.032  -0.387   6.064  1.00  0.00     0.116 C 
BRANCH   3   4
ATOM      4  N   UNL     1       6.503   0.917   5.670  1.00  0.00    -0.356 N 
ATOM      5  C   UNL     1       6.042   1.942   6.436  1.00  0.00     0.220 C 
ATOM      6  O   UNL     1       5.577   2.938   5.881  1.00  0.00    -0.275 OA
ATOM      7  H   UNL     1       6.478   1.079   4.699  1.00  0.00     0.163 HD
BRANCH   5   8
ATOM      8  C   UNL     1       6.157   1.853   7.938  1.00  0.00     0.112 C 
BRANCH   8   9
ATOM      9  C   UNL     1       4.816   2.114   8.625  1.00  0.00     0.138 C 
BRANCH   9  10
ATOM     10  C   UNL     1       3.956   0.863   8.681  1.00  0.00     0.308 C 
ATOM     11  N   UNL     1       1.928  -0.981   6.270  1.00  0.00    -0.217 N 
ATOM     12  C   UNL     1       2.340  -0.379   7.508  1.00  0.00     0.319 C 
ATOM     13  C   UNL     1       1.669  -2.422   6.396  1.00  0.00     0.212 C 
ATOM     14  N   UNL     1       3.100   0.676   7.606  1.00  0.00    -0.204 N 
ATOM     15  S   UNL     1       1.975  -1.498   8.965  1.00  0.00    -0.029 SA
ATOM     16  C   UNL     1       2.687  -2.866   8.027  1.00  0.00     0.120 C 
ATOM     17  C   UNL     1       1.665  -3.947   5.073  1.00  0.00     0.188 C 
ATOM     18  H   UNL     1       3.065   1.359   6.897  1.00  0.00     0.316 HD
ATOM     19  C   UNL     1       3.013  -4.813   8.221  1.00  0.00     0.156 C 
ATOM     20  S   UNL     1       2.505  -5.849   6.192  1.00  0.00     0.155 S 
ATOM     21  O   UNL     1       4.238   0.034   9.547  1.00  0.00    -0.247 OA
ATOM     22  O   UNL     1       3.746  -6.330   5.598  1.00  0.00    -0.229 OA
ATOM     23  O   UNL     1       1.488  -6.864   6.329  1.00  0.00    -0.229 OA
BRANCH  11  24
ATOM     24  C   UNL     1       1.368  -0.367   5.135  1.00  0.00     0.128 A 
ATOM     25  C   UNL     1       0.261   0.307   2.601  1.00  0.00     0.018 A 
ATOM     26  C   UNL     1      -0.544   0.276   3.750  1.00  0.00     0.016 A 
ATOM     27  C   UNL     1       1.613   0.040   2.731  1.00  0.00     0.016 A 
ATOM     28  C   UNL     1       0.002  -0.079   5.005  1.00  0.00     0.052 A 
ATOM     29  C   UNL     1       2.146  -0.243   3.981  1.00  0.00     0.052 A 
BRANCH  25  30
ATOM     30  C   UNL     1      -0.300   0.641   1.261  1.00  0.00     0.159 C 
ATOM     31  C   UNL     1       0.467   0.208   0.028  1.00  0.00     0.093 C 
ATOM     32  O   UNL     1      -1.371   1.234   1.178  1.00  0.00    -0.295 OA
ENDBRANCH  25  30
ENDBRANCH  11  24
ENDBRANCH   9  10
ENDBRANCH   8   9
ENDBRANCH   5   8
ENDBRANCH   3   4
ENDBRANCH   2   3
ENDBRANCH   1   2
BRANCH   1  33
ATOM     33  C   UNL     1       4.025  -2.616   5.346  1.00  0.00     0.002 C 
BRANCH  33  34
ATOM     34  C   UNL     1       3.250  -3.754   6.316  1.00  0.00     0.021 C 
BRANCH  34  35
ATOM     35  C   UNL     1       1.304  -4.234   7.138  1.00  0.00     0.116 C 
BRANCH  35  36
ATOM     36  N   UNL     1      -0.146  -4.264   6.484  1.00  0.00    -0.352 N 
ATOM     37  C   UNL     1      -1.180  -5.179   6.527  1.00  0.00     0.251 C 
ATOM     38  H   UNL     1      -0.347  -3.470   5.937  1.00  0.00     0.163 HD
ATOM     39  O   UNL     1      -2.160  -5.013   5.811  1.00  0.00    -0.269 OA
BRANCH  37  40
ATOM     40  C   UNL     1      -1.088  -6.319   7.436  1.00  0.00     0.039 A 
ATOM     41  C   UNL     1      -1.185  -7.621   6.934  1.00  0.00     0.014 A 
ATOM     42  C   UNL     1      -0.720  -6.060   8.755  1.00  0.00     0.014 A 
ATOM     43  C   UNL     1      -0.814  -8.680   7.755  1.00  0.00     0.010 A 
ATOM     44  C   UNL     1      -0.242  -7.099   9.522  1.00  0.00     0.010 A 
ATOM     45  C   UNL     1      -0.327  -8.416   9.043  1.00  0.00    -0.014 A 
BRANCH  45  46
ATOM     46  C   UNL     1      -0.070  -9.505  10.001  1.00  0.00     0.031 A 
ATOM     47  C   UNL     1      -0.980  -9.594  11.194  1.00  0.00     0.074 A 
ATOM     48  C   UNL     1       0.972 -10.339   9.838  1.00  0.00     0.049 A 
ATOM     49  N   UNL     1      -0.930 -10.407  12.212  1.00  0.00    -0.248 NA
ATOM     50  C   UNL     1      -2.057  -8.587  11.283  1.00  0.00     0.031 C 
ATOM     51  C   UNL     1       1.940 -10.296   8.739  1.00  0.00     0.029 A 
ATOM     52  N   UNL     1       1.385 -11.395  10.607  1.00  0.00    -0.354 N 
ATOM     53  C   UNL     1      -1.950  -9.992  13.058  1.00  0.00     0.074 A 
ATOM     54  C   UNL     1      -2.516  -8.788  12.504  1.00  0.00     0.031 C 
ATOM     55  C   UNL     1       2.810 -11.312   8.886  1.00  0.00     0.029 A 
ATOM     56  C   UNL     1       2.475 -12.057  10.096  1.00  0.00     0.049 A 
ATOM     57  H   UNL     1       0.942 -11.654  11.447  1.00  0.00     0.167 HD
ATOM     58  C   UNL     1      -2.420 -10.597  14.170  1.00  0.00     0.031 A 
ATOM     59  C   UNL     1       3.107 -13.154  10.556  1.00  0.00     0.031 A 
ATOM     60  C   UNL     1      -1.868 -11.815  14.682  1.00  0.00     0.049 A 
ATOM     61  C   UNL     1       2.572 -13.815  11.803  1.00  0.00     0.074 A 
ATOM     62  C   UNL     1      -2.284 -12.561  15.766  1.00  0.00     0.029 A 
ATOM     63  N   UNL     1      -0.777 -12.471  14.128  1.00  0.00    -0.354 N 
ATOM     64  N   UNL     1       1.555 -13.462  12.555  1.00  0.00    -0.248 NA
ATOM     65  C   UNL     1       3.254 -15.037  12.248  1.00  0.00     0.031 C 
ATOM     66  C   UNL     1      -1.404 -13.638  15.905  1.00  0.00     0.029 A 
ATOM     67  C   UNL     1      -0.489 -13.603  14.862  1.00  0.00     0.049 A 
ATOM     68  H   UNL     1      -0.283 -12.172  13.330  1.00  0.00     0.167 HD
ATOM     69  C   UNL     1       1.449 -14.440  13.538  1.00  0.00     0.074 A 
ATOM     70  C   UNL     1       2.501 -15.403  13.276  1.00  0.00     0.031 C 
ATOM     71  C   UNL     1       0.563 -14.543  14.561  1.00  0.00     0.031 A 
BRANCH  58  72
ATOM     72  C   UNL     1      -3.580  -9.943  14.871  1.00  0.00    -0.014 A 
ATOM     73  C   UNL     1      -4.839  -9.830  14.247  1.00  0.00     0.010 A 
ATOM     74  C   UNL     1      -3.408  -9.412  16.160  1.00  0.00     0.010 A 
ATOM     75  C   UNL     1      -5.883  -9.147  14.873  1.00  0.00     0.020 A 
ATOM     76  C   UNL     1      -4.463  -8.764  16.808  1.00  0.00     0.020 A 
ATOM     77  C   UNL     1      -5.687  -8.618  16.151  1.00  0.00     0.054 A 
BRANCH  77  78
ATOM     78  S   UNL     1      -7.066  -7.755  16.950  1.00  0.00     0.124 S 
ATOM     79  O   UNL     1      -7.149  -6.527  16.163  1.00  0.00    -0.237 OA
ATOM     80  O   UNL     1      -8.173  -8.691  16.771  1.00  0.00    -0.237 OA
ATOM     81  O   UNL     1      -6.615  -7.581  18.328  1.00  0.00    -0.744 OA
ENDBRANCH  77  78
ENDBRANCH  58  72
BRANCH  59  82
ATOM     82  C   UNL     1       4.264 -13.725   9.811  1.00  0.00    -0.014 A 
ATOM     83  C   UNL     1       4.149 -14.964   9.154  1.00  0.00     0.010 A 
ATOM     84  C   UNL     1       5.487 -13.034   9.746  1.00  0.00     0.010 A 
ATOM     85  C   UNL     1       5.240 -15.512   8.470  1.00  0.00     0.020 A 
ATOM     86  C   UNL     1       6.571 -13.563   9.038  1.00  0.00     0.020 A 
ATOM     87  C   UNL     1       6.444 -14.806   8.414  1.00  0.00     0.054 A 
BRANCH  87  88
ATOM     88  S   UNL     1       7.832 -15.518   7.486  1.00  0.00     0.124 S 
ATOM     89  O   UNL     1       8.204 -16.657   8.319  1.00  0.00    -0.237 OA
ATOM     90  O   UNL     1       7.216 -15.847   6.203  1.00  0.00    -0.237 OA
ATOM     91  O   UNL     1       8.808 -14.432   7.441  1.00  0.00    -0.744 OA
ENDBRANCH  87  88
ENDBRANCH  59  82
BRANCH  71  92
ATOM     92  C   UNL     1       0.656 -15.759  15.443  1.00  0.00    -0.014 A 
ATOM     93  C   UNL     1       1.720 -15.932  16.343  1.00  0.00     0.010 A 
ATOM     94  C   UNL     1      -0.393 -16.698  15.425  1.00  0.00     0.010 A 
ATOM     95  C   UNL     1       1.750 -17.043  17.189  1.00  0.00     0.020 A 
ATOM     96  C   UNL     1      -0.385 -17.788  16.295  1.00  0.00     0.020 A 
ATOM     97  C   UNL     1       0.694 -17.960  17.163  1.00  0.00     0.054 A 
BRANCH  97  98
ATOM     98  S   UNL     1       0.732 -19.362  18.310  1.00  0.00     0.124 S 
ATOM     99  O   UNL     1       1.802 -20.184  17.750  1.00  0.00    -0.237 OA
ATOM    100  O   UNL     1       1.035 -18.721  19.587  1.00  0.00    -0.237 OA
ATOM    101  O   UNL     1      -0.610 -19.932  18.208  1.00  0.00    -0.744 OA
ENDBRANCH  97  98
ENDBRANCH  71  92
ENDBRANCH  45  46
ENDBRANCH  37  40
ENDBRANCH  35  36
ENDBRANCH  34  35
ENDBRANCH  33  34
ENDBRANCH   1  33
TORSDOF 20
