REMARK SMILES O=C(/C=C/c1cccs1)NCC(=O)NCCCCCCNC(=O)c1ccc(-c2c3nc(c(-c4ccc(S(=O)(=O)[O-])cc4)c4ccc([nH]4)c(-c4ccc(S(=O)(=O)[O-])cc4)c4nc(c(-c5ccc(S(=O)(=O)[O-])cc5)c5ccc2[nH]5)C=C4)C=C3)cc1
REMARK SMILES IDX 17 1 16 2 15 3 14 4 12 5 13 6 11 8 10 9 1 10 2 11 3 13 4 14
REMARK SMILES IDX 5 15 6 16 9 17 7 18 8 19 18 20 19 21 20 22 21 23 22 24 23 26
REMARK SMILES IDX 24 27 25 28 83 29 26 30 82 31 27 32 28 33 29 34 76 35 30 36
REMARK SMILES IDX 81 37 75 38 77 39 31 40 80 41 74 42 73 43 32 45 62 46 43 47
REMARK SMILES IDX 61 48 44 49 47 50 60 51 78 52 45 53 46 54 59 56 79 57 48 58
REMARK SMILES IDX 33 59 34 60 42 61 35 62 41 63 36 64 37 65 38 66 39 67 40 68
REMARK SMILES IDX 63 69 64 70 72 71 65 72 71 73 66 74 67 75 68 76 69 77 70 78
REMARK SMILES IDX 49 79 50 80 58 81 51 82 57 83 52 84 53 85 54 86 55 87 56 88
REMARK H PARENT 14 7 10 12 21 25 77 44 47 55
REMARK Flexibility Score: inf
ROOT
ATOM      1  C   UNL     1       3.035  -1.745  -4.717  1.00  0.00     0.002 C 
ENDROOT
BRANCH   1   2
ATOM      2  C   UNL     1       2.714  -1.109  -3.357  1.00  0.00     0.021 C 
BRANCH   2   3
ATOM      3  C   UNL     1       1.710  -1.911  -2.529  1.00  0.00     0.116 C 
BRANCH   3   4
ATOM      4  N   UNL     1       2.305  -3.147  -2.057  1.00  0.00    -0.355 N 
ATOM      5  C   UNL     1       2.673  -3.489  -0.788  1.00  0.00     0.239 C 
ATOM      6  O   UNL     1       3.203  -4.586  -0.603  1.00  0.00    -0.273 OA
ATOM      7  H   UNL     1       2.466  -3.832  -2.745  1.00  0.00     0.163 HD
BRANCH   5   8
ATOM      8  C   UNL     1       2.370  -2.545   0.376  1.00  0.00     0.216 C 
BRANCH   8   9
ATOM      9  N   UNL     1       3.083  -1.280   0.274  1.00  0.00    -0.343 N 
ATOM     10  O   UNL     1       1.219   0.006   0.583  1.00  0.00    -0.270 OA
ATOM     11  C   UNL     1       2.427  -0.087   0.388  1.00  0.00     0.244 C 
ATOM     12  H   UNL     1       4.055  -1.285   0.121  1.00  0.00     0.164 HD
BRANCH  11  13
ATOM     13  C   UNL     1       3.227   1.155   0.263  1.00  0.00     0.072 C 
ATOM     14  C   UNL     1       4.535   1.259  -0.011  1.00  0.00     0.024 C 
BRANCH  14  15
ATOM     15  C   UNL     1       5.167   2.536  -0.084  1.00  0.00     0.027 A 
ATOM     16  C   UNL     1       4.846   3.734   0.536  1.00  0.00     0.020 A 
ATOM     17  S   UNL     1       6.579   2.727  -1.054  1.00  0.00    -0.144 S 
ATOM     18  C   UNL     1       5.733   4.797   0.198  1.00  0.00     0.012 A 
ATOM     19  C   UNL     1       6.714   4.386  -0.673  1.00  0.00     0.065 A 
ENDBRANCH  14  15
ENDBRANCH  11  13
ENDBRANCH   8   9
ENDBRANCH   5   8
ENDBRANCH   3   4
ENDBRANCH   2   3
ENDBRANCH   1   2
BRANCH   1  20
ATOM     20  C   UNL     1       1.823  -1.956  -5.633  1.00  0.00     0.002 C 
BRANCH  20  21
ATOM     21  C   UNL     1       1.009  -0.693  -5.924  1.00  0.00     0.021 C 
BRANCH  21  22
ATOM     22  C   UNL     1       1.792   0.414  -6.622  1.00  0.00     0.116 C 
BRANCH  22  23
ATOM     23  N   UNL     1       2.242   0.008  -7.946  1.00  0.00    -0.352 N 
ATOM     24  C   UNL     1       2.042   0.624  -9.155  1.00  0.00     0.251 C 
ATOM     25  H   UNL     1       2.764  -0.826  -7.977  1.00  0.00     0.163 HD
ATOM     26  O   UNL     1       2.310   0.031 -10.198  1.00  0.00    -0.269 OA
BRANCH  24  27
ATOM     27  C   UNL     1       1.486   1.993  -9.200  1.00  0.00     0.039 A 
ATOM     28  C   UNL     1       0.479   2.288 -10.121  1.00  0.00     0.014 A 
ATOM     29  C   UNL     1       1.959   2.982  -8.332  1.00  0.00     0.014 A 
ATOM     30  C   UNL     1      -0.096   3.560 -10.131  1.00  0.00     0.010 A 
ATOM     31  C   UNL     1       1.332   4.224  -8.292  1.00  0.00     0.010 A 
ATOM     32  C   UNL     1       0.301   4.529  -9.193  1.00  0.00    -0.014 A 
BRANCH  32  33
ATOM     33  C   UNL     1      -0.354   5.861  -9.136  1.00  0.00     0.031 A 
ATOM     34  C   UNL     1       0.442   7.110  -9.405  1.00  0.00     0.074 A 
ATOM     35  C   UNL     1      -1.652   5.950  -8.783  1.00  0.00     0.049 A 
ATOM     36  N   UNL     1       0.058   8.359  -9.351  1.00  0.00    -0.248 NA
ATOM     37  C   UNL     1       1.861   6.934  -9.757  1.00  0.00     0.031 C 
ATOM     38  C   UNL     1      -2.522   4.816  -8.458  1.00  0.00     0.029 A 
ATOM     39  N   UNL     1      -2.466   7.045  -8.629  1.00  0.00    -0.354 N 
ATOM     40  C   UNL     1       1.187   9.116  -9.645  1.00  0.00     0.074 A 
ATOM     41  C   UNL     1       2.281   8.189  -9.826  1.00  0.00     0.031 C 
ATOM     42  C   UNL     1      -3.752   5.272  -8.173  1.00  0.00     0.029 A 
ATOM     43  C   UNL     1      -3.750   6.730  -8.247  1.00  0.00     0.049 A 
ATOM     44  H   UNL     1      -2.161   7.968  -8.779  1.00  0.00     0.167 HD
ATOM     45  C   UNL     1       1.298  10.460  -9.770  1.00  0.00     0.031 A 
ATOM     46  C   UNL     1      -4.805   7.523  -7.976  1.00  0.00     0.031 A 
ATOM     47  C   UNL     1       0.203  11.378  -9.595  1.00  0.00     0.049 A 
ATOM     48  C   UNL     1      -4.652   9.014  -8.105  1.00  0.00     0.074 A 
ATOM     49  C   UNL     1       0.201  12.753  -9.756  1.00  0.00     0.029 A 
ATOM     50  N   UNL     1      -1.081  11.019  -9.214  1.00  0.00    -0.354 N 
ATOM     51  N   UNL     1      -3.593   9.707  -8.453  1.00  0.00    -0.248 NA
ATOM     52  C   UNL     1      -5.839   9.831  -7.817  1.00  0.00     0.031 C 
ATOM     53  C   UNL     1      -1.067  13.231  -9.411  1.00  0.00     0.029 A 
ATOM     54  C   UNL     1      -1.876  12.148  -9.106  1.00  0.00     0.049 A 
ATOM     55  H   UNL     1      -1.383  10.097  -9.046  1.00  0.00     0.167 HD
ATOM     56  C   UNL     1      -3.996  11.038  -8.457  1.00  0.00     0.074 A 
ATOM     57  C   UNL     1      -5.397  11.051  -8.091  1.00  0.00     0.031 C 
ATOM     58  C   UNL     1      -3.271  12.148  -8.742  1.00  0.00     0.031 A 
BRANCH  45  59
ATOM     59  C   UNL     1       2.656  11.023 -10.105  1.00  0.00    -0.014 A 
ATOM     60  C   UNL     1       3.244  10.810 -11.365  1.00  0.00     0.010 A 
ATOM     61  C   UNL     1       3.333  11.818  -9.162  1.00  0.00     0.010 A 
ATOM     62  C   UNL     1       4.500  11.347 -11.661  1.00  0.00     0.020 A 
ATOM     63  C   UNL     1       4.575  12.384  -9.465  1.00  0.00     0.020 A 
ATOM     64  C   UNL     1       5.158  12.131 -10.708  1.00  0.00     0.054 A 
BRANCH  64  65
ATOM     65  S   UNL     1       6.774  12.837 -11.130  1.00  0.00     0.124 S 
ATOM     66  O   UNL     1       7.629  11.652 -11.131  1.00  0.00    -0.237 OA
ATOM     67  O   UNL     1       6.529  13.434 -12.440  1.00  0.00    -0.237 OA
ATOM     68  O   UNL     1       7.031  13.788 -10.052  1.00  0.00    -0.744 OA
ENDBRANCH  64  65
ENDBRANCH  45  59
BRANCH  46  69
ATOM     69  C   UNL     1      -6.103   6.920  -7.562  1.00  0.00    -0.014 A 
ATOM     70  C   UNL     1      -7.221   6.973  -8.412  1.00  0.00     0.010 A 
ATOM     71  C   UNL     1      -6.223   6.279  -6.315  1.00  0.00     0.010 A 
ATOM     72  C   UNL     1      -8.441   6.417  -8.014  1.00  0.00     0.020 A 
ATOM     73  C   UNL     1      -7.432   5.693  -5.928  1.00  0.00     0.020 A 
ATOM     74  C   UNL     1      -8.538   5.778  -6.775  1.00  0.00     0.054 A 
BRANCH  74  75
ATOM     75  S   UNL     1     -10.118   5.023  -6.301  1.00  0.00     0.124 S 
ATOM     76  O   UNL     1     -10.945   6.195  -6.032  1.00  0.00    -0.237 OA
ATOM     77  O   UNL     1     -10.471   4.258  -7.494  1.00  0.00    -0.237 OA
ATOM     78  O   UNL     1      -9.775   4.216  -5.132  1.00  0.00    -0.744 OA
ENDBRANCH  74  75
ENDBRANCH  46  69
BRANCH  58  79
ATOM     79  C   UNL     1      -3.986  13.474  -8.713  1.00  0.00    -0.014 A 
ATOM     80  C   UNL     1      -4.406  14.055  -7.504  1.00  0.00     0.010 A 
ATOM     81  C   UNL     1      -4.185  14.176  -9.916  1.00  0.00     0.010 A 
ATOM     82  C   UNL     1      -5.041  15.301  -7.502  1.00  0.00     0.020 A 
ATOM     83  C   UNL     1      -4.789  15.436  -9.915  1.00  0.00     0.020 A 
ATOM     84  C   UNL     1      -5.226  15.984  -8.709  1.00  0.00     0.054 A 
BRANCH  84  85
ATOM     85  S   UNL     1      -6.008  17.620  -8.673  1.00  0.00     0.124 S 
ATOM     86  O   UNL     1      -7.397  17.287  -8.372  1.00  0.00    -0.237 OA
ATOM     87  O   UNL     1      -5.278  18.299  -7.605  1.00  0.00    -0.237 OA
ATOM     88  O   UNL     1      -5.770  18.148 -10.015  1.00  0.00    -0.744 OA
ENDBRANCH  84  85
ENDBRANCH  58  79
ENDBRANCH  32  33
ENDBRANCH  24  27
ENDBRANCH  22  23
ENDBRANCH  21  22
ENDBRANCH  20  21
ENDBRANCH   1  20
TORSDOF 19
