REMARK SMILES COc1cc(C=C2C(=O)N(C)C(=S)N(C)C2=O)c(Br)cc1OCC(=O)NCCCCCCNC(=O)c1ccc(-c2c3nc(c(-c4ccc(S(=O)(=O)[O-])cc4)c4ccc([nH]4)c(-c4ccc(S(=O)(=O)[O-])cc4)c4nc(c(-c5ccc(S(=O)(=O)[O-])cc5)c5ccc2[nH]5)C=C4)C=C3)cc1
REMARK SMILES IDX 29 1 28 2 27 3 26 4 24 5 25 6 23 8 22 9 21 10 3 11 4 12 5 13
REMARK SMILES IDX 20 14 18 15 19 16 2 17 1 18 6 19 7 20 8 21 16 22 9 23 10 24
REMARK SMILES IDX 14 25 17 26 11 27 12 28 15 29 13 30 30 31 31 32 32 33 33 34
REMARK SMILES IDX 34 35 35 37 36 38 37 39 95 40 38 41 94 42 39 43 40 44 41 45
REMARK SMILES IDX 88 46 42 47 93 48 87 49 89 50 43 51 92 52 86 53 85 54 44 56
REMARK SMILES IDX 74 57 55 58 73 59 56 60 59 61 72 62 90 63 57 64 58 65 71 67
REMARK SMILES IDX 91 68 60 69 45 70 46 71 54 72 47 73 53 74 48 75 49 76 50 77
REMARK SMILES IDX 51 78 52 79 75 80 76 81 84 82 77 83 83 84 78 85 79 86 80 87
REMARK SMILES IDX 81 88 82 89 61 90 62 91 70 92 63 93 69 94 64 95 65 96 66 97
REMARK SMILES IDX 67 98 68 99
REMARK H PARENT 26 7 33 36 89 55 59 66
REMARK Flexibility Score: inf
ROOT
ATOM      1  C   UNL     1      -0.350   6.346  -1.332  1.00  0.00     0.002 C 
ENDROOT
BRANCH   1   2
ATOM      2  C   UNL     1      -1.009   5.795  -0.061  1.00  0.00     0.021 C 
BRANCH   2   3
ATOM      3  C   UNL     1      -2.182   4.840  -0.277  1.00  0.00     0.116 C 
BRANCH   3   4
ATOM      4  N   UNL     1      -1.829   3.681  -1.068  1.00  0.00    -0.353 N 
ATOM      5  C   UNL     1      -1.812   2.368  -0.699  1.00  0.00     0.257 C 
ATOM      6  O   UNL     1      -1.706   1.517  -1.588  1.00  0.00    -0.271 OA
ATOM      7  H   UNL     1      -1.565   3.865  -1.998  1.00  0.00     0.163 HD
BRANCH   5   8
ATOM      8  C   UNL     1      -2.019   1.968   0.774  1.00  0.00     0.329 C 
BRANCH   8   9
ATOM      9  O   UNL     1      -1.394   2.705   1.810  1.00  0.00    -0.480 OA
BRANCH   9  10
ATOM     10  C   UNL     1      -0.064   2.544   2.068  1.00  0.00     0.163 A 
ATOM     11  C   UNL     1       0.891   1.885   1.305  1.00  0.00     0.161 A 
ATOM     12  C   UNL     1       2.245   1.963   1.659  1.00  0.00     0.059 A 
ATOM     13  C   UNL     1       2.693   2.539   2.855  1.00  0.00    -0.006 A 
ATOM     14  C   UNL     1       0.358   3.167   3.248  1.00  0.00     0.066 A 
ATOM     15  C   UNL     1       1.706   3.146   3.653  1.00  0.00     0.029 A 
ATOM     16  Br  UNL     1       2.090   4.003   5.311  1.00  0.00    -0.050 Br
BRANCH  11  17
ATOM     17  O   UNL     1       0.562   1.230   0.153  1.00  0.00    -0.493 OA
ATOM     18  C   UNL     1       0.963  -0.144   0.168  1.00  0.00     0.278 C 
ENDBRANCH  11  17
BRANCH  13  19
ATOM     19  C   UNL     1       4.146   2.589   3.184  1.00  0.00     0.029 C 
ATOM     20  C   UNL     1       5.192   1.890   2.692  1.00  0.00     0.106 C 
ATOM     21  C   UNL     1       5.114   0.831   1.683  1.00  0.00     0.265 C 
ATOM     22  C   UNL     1       6.552   2.314   3.068  1.00  0.00     0.265 C 
ATOM     23  O   UNL     1       4.353  -0.126   1.791  1.00  0.00    -0.268 OA
ATOM     24  N   UNL     1       5.955   1.059   0.603  1.00  0.00    -0.288 N 
ATOM     25  N   UNL     1       7.488   2.191   2.036  1.00  0.00    -0.288 N 
ATOM     26  O   UNL     1       6.788   2.777   4.181  1.00  0.00    -0.268 OA
ATOM     27  C   UNL     1       5.459   0.492  -0.653  1.00  0.00     0.156 C 
ATOM     28  C   UNL     1       7.198   1.704   0.734  1.00  0.00     0.185 C 
ATOM     29  C   UNL     1       8.831   2.683   2.356  1.00  0.00     0.156 C 
ATOM     30  S   UNL     1       8.286   1.866  -0.555  1.00  0.00    -0.040 S 
ENDBRANCH  13  19
ENDBRANCH   9  10
ENDBRANCH   8   9
ENDBRANCH   5   8
ENDBRANCH   3   4
ENDBRANCH   2   3
ENDBRANCH   1   2
BRANCH   1  31
ATOM     31  C   UNL     1      -1.286   6.954  -2.382  1.00  0.00     0.002 C 
BRANCH  31  32
ATOM     32  C   UNL     1      -2.252   8.035  -1.890  1.00  0.00     0.021 C 
BRANCH  32  33
ATOM     33  C   UNL     1      -1.613   9.248  -1.220  1.00  0.00     0.116 C 
BRANCH  33  34
ATOM     34  N   UNL     1      -0.760  10.005  -2.118  1.00  0.00    -0.352 N 
ATOM     35  C   UNL     1      -0.719  11.357  -2.363  1.00  0.00     0.251 C 
ATOM     36  H   UNL     1      -0.113   9.469  -2.630  1.00  0.00     0.163 HD
ATOM     37  O   UNL     1      -0.003  11.781  -3.267  1.00  0.00    -0.269 OA
BRANCH  35  38
ATOM     38  C   UNL     1      -1.544  12.303  -1.574  1.00  0.00     0.039 A 
ATOM     39  C   UNL     1      -2.187  13.347  -2.249  1.00  0.00     0.014 A 
ATOM     40  C   UNL     1      -1.666  12.200  -0.185  1.00  0.00     0.014 A 
ATOM     41  C   UNL     1      -2.994  14.245  -1.544  1.00  0.00     0.010 A 
ATOM     42  C   UNL     1      -2.517  13.062   0.511  1.00  0.00     0.010 A 
ATOM     43  C   UNL     1      -3.190  14.093  -0.162  1.00  0.00    -0.014 A 
BRANCH  43  44
ATOM     44  C   UNL     1      -4.113  14.995   0.575  1.00  0.00     0.031 A 
ATOM     45  C   UNL     1      -3.591  15.969   1.596  1.00  0.00     0.074 A 
ATOM     46  C   UNL     1      -5.439  14.906   0.354  1.00  0.00     0.049 A 
ATOM     47  N   UNL     1      -4.253  16.838   2.317  1.00  0.00    -0.248 NA
ATOM     48  C   UNL     1      -2.143  15.950   1.855  1.00  0.00     0.031 C 
ATOM     49  C   UNL     1      -6.084  13.965  -0.565  1.00  0.00     0.029 A 
ATOM     50  N   UNL     1      -6.485  15.618   0.887  1.00  0.00    -0.354 N 
ATOM     51  C   UNL     1      -3.308  17.459   3.126  1.00  0.00     0.074 A 
ATOM     52  C   UNL     1      -2.033  16.841   2.831  1.00  0.00     0.031 C 
ATOM     53  C   UNL     1      -7.410  14.174  -0.549  1.00  0.00     0.029 A 
ATOM     54  C   UNL     1      -7.712  15.248   0.392  1.00  0.00     0.049 A 
ATOM     55  H   UNL     1      -6.367  16.326   1.561  1.00  0.00     0.167 HD
ATOM     56  C   UNL     1      -3.481  18.462   4.020  1.00  0.00     0.031 A 
ATOM     57  C   UNL     1      -8.944  15.723   0.657  1.00  0.00     0.031 A 
ATOM     58  C   UNL     1      -4.744  19.090   4.306  1.00  0.00     0.049 A 
ATOM     59  C   UNL     1      -9.108  16.860   1.623  1.00  0.00     0.074 A 
ATOM     60  C   UNL     1      -5.005  20.162   5.144  1.00  0.00     0.029 A 
ATOM     61  N   UNL     1      -5.960  18.703   3.765  1.00  0.00    -0.354 N 
ATOM     62  N   UNL     1      -8.190  17.487   2.318  1.00  0.00    -0.248 NA
ATOM     63  C   UNL     1     -10.473  17.364   1.827  1.00  0.00     0.031 C 
ATOM     64  C   UNL     1      -6.385  20.400   5.135  1.00  0.00     0.029 A 
ATOM     65  C   UNL     1      -6.977  19.501   4.264  1.00  0.00     0.049 A 
ATOM     66  H   UNL     1      -6.083  17.970   3.120  1.00  0.00     0.167 HD
ATOM     67  C   UNL     1      -8.865  18.469   3.034  1.00  0.00     0.074 A 
ATOM     68  C   UNL     1     -10.264  18.364   2.673  1.00  0.00     0.031 C 
ATOM     69  C   UNL     1      -8.368  19.375   3.911  1.00  0.00     0.031 A 
BRANCH  56  70
ATOM     70  C   UNL     1      -2.262  18.939   4.762  1.00  0.00    -0.014 A 
ATOM     71  C   UNL     1      -1.278  19.709   4.116  1.00  0.00     0.010 A 
ATOM     72  C   UNL     1      -2.106  18.630   6.125  1.00  0.00     0.010 A 
ATOM     73  C   UNL     1      -0.135  20.121   4.807  1.00  0.00     0.020 A 
ATOM     74  C   UNL     1      -0.974  19.059   6.826  1.00  0.00     0.020 A 
ATOM     75  C   UNL     1       0.014  19.783   6.156  1.00  0.00     0.054 A 
BRANCH  75  76
ATOM     76  S   UNL     1       1.505  20.327   7.035  1.00  0.00     0.124 S 
ATOM     77  O   UNL     1       2.494  19.354   6.577  1.00  0.00    -0.237 OA
ATOM     78  O   UNL     1       1.693  21.690   6.544  1.00  0.00    -0.237 OA
ATOM     79  O   UNL     1       1.133  20.223   8.443  1.00  0.00    -0.744 OA
ENDBRANCH  75  76
ENDBRANCH  56  70
BRANCH  57  80
ATOM     80  C   UNL     1     -10.120  15.136  -0.037  1.00  0.00    -0.014 A 
ATOM     81  C   UNL     1     -10.728  15.820  -1.103  1.00  0.00     0.010 A 
ATOM     82  C   UNL     1     -10.610  13.873   0.340  1.00  0.00     0.010 A 
ATOM     83  C   UNL     1     -11.812  15.254  -1.780  1.00  0.00     0.020 A 
ATOM     84  C   UNL     1     -11.681  13.295  -0.347  1.00  0.00     0.020 A 
ATOM     85  C   UNL     1     -12.279  13.993  -1.399  1.00  0.00     0.054 A 
BRANCH  85  86
ATOM     86  S   UNL     1     -13.634  13.235  -2.340  1.00  0.00     0.124 S 
ATOM     87  O   UNL     1     -14.803  13.903  -1.779  1.00  0.00    -0.237 OA
ATOM     88  O   UNL     1     -13.303  13.588  -3.718  1.00  0.00    -0.237 OA
ATOM     89  O   UNL     1     -13.510  11.813  -2.024  1.00  0.00    -0.744 OA
ENDBRANCH  85  86
ENDBRANCH  57  80
BRANCH  69  90
ATOM     90  C   UNL     1      -9.349  20.328   4.536  1.00  0.00    -0.014 A 
ATOM     91  C   UNL     1     -10.223  19.901   5.551  1.00  0.00     0.010 A 
ATOM     92  C   UNL     1      -9.383  21.670   4.118  1.00  0.00     0.010 A 
ATOM     93  C   UNL     1     -11.143  20.791   6.111  1.00  0.00     0.020 A 
ATOM     94  C   UNL     1     -10.288  22.568   4.690  1.00  0.00     0.020 A 
ATOM     95  C   UNL     1     -11.175  22.118   5.671  1.00  0.00     0.054 A 
BRANCH  95  96
ATOM     96  S   UNL     1     -12.361  23.266   6.424  1.00  0.00     0.124 S 
ATOM     97  O   UNL     1     -13.593  22.937   5.713  1.00  0.00    -0.237 OA
ATOM     98  O   UNL     1     -12.330  22.889   7.835  1.00  0.00    -0.237 OA
ATOM     99  O   UNL     1     -11.801  24.582   6.126  1.00  0.00    -0.744 OA
ENDBRANCH  95  96
ENDBRANCH  69  90
ENDBRANCH  43  44
ENDBRANCH  35  38
ENDBRANCH  33  34
ENDBRANCH  32  33
ENDBRANCH  31  32
ENDBRANCH   1  31
TORSDOF 20
