REMARK SMILES C[C@H]1CCC[C@]1(C(=O)NCCCCCCNC(=O)c1ccc(-c2c3nc(c(-c4ccc(S(=O)(=O)[O-])cc4)c4ccc([nH]4)c(-c4ccc(S(=O)(=O)[O-])cc4)c4nc(c(-c5ccc(S(=O)(=O)[O-])cc5)c5ccc2[nH]5)C=C4)C=C3)cc1)c1ccc2c(c1)OCO2
REMARK SMILES IDX 13 1 12 2 11 3 10 4 9 5 7 6 8 7 6 9 1 10 2 11 3 12 4 13 5 14
REMARK SMILES IDX 79 15 80 16 84 17 81 18 83 19 82 20 85 21 87 22 86 23 14 24
REMARK SMILES IDX 15 25 16 26 17 27 18 29 19 30 20 31 78 32 21 33 77 34 22 35
REMARK SMILES IDX 23 36 24 37 71 38 25 39 76 40 70 41 72 42 26 43 75 44 69 45
REMARK SMILES IDX 68 46 27 48 57 49 38 50 56 51 39 52 42 53 55 54 73 55 40 56
REMARK SMILES IDX 41 57 54 59 74 60 43 61 28 62 29 63 37 64 30 65 36 66 31 67
REMARK SMILES IDX 32 68 33 69 34 70 35 71 58 72 59 73 67 74 60 75 66 76 61 77
REMARK SMILES IDX 62 78 63 79 64 80 65 81 44 82 45 83 53 84 46 85 52 86 47 87
REMARK SMILES IDX 48 88 49 89 50 90 51 91
REMARK H PARENT 9 8 16 28 72 47 42 58
REMARK Flexibility Score: inf
ROOT
ATOM      1  C   UNL     1      -3.234  -2.339   4.761  1.00  0.00     0.002 C 
ENDROOT
BRANCH   1   2
ATOM      2  C   UNL     1      -1.750  -1.959   4.805  1.00  0.00     0.002 C 
BRANCH   2   3
ATOM      3  C   UNL     1      -1.080  -1.869   3.435  1.00  0.00     0.021 C 
BRANCH   3   4
ATOM      4  C   UNL     1      -1.754  -0.876   2.501  1.00  0.00     0.116 C 
BRANCH   4   5
ATOM      5  N   UNL     1      -1.322   0.480   2.750  1.00  0.00    -0.355 N 
ATOM      6  C   UNL     1      -0.769   1.444   1.962  1.00  0.00     0.230 C 
ATOM      7  O   UNL     1      -0.707   2.546   2.519  1.00  0.00    -0.274 OA
ATOM      8  H   UNL     1      -1.455   0.767   3.682  1.00  0.00     0.163 HD
BRANCH   6   9
ATOM      9  C   UNL     1      -0.263   1.192   0.494  1.00  0.00     0.077 C 
ATOM     10  C   UNL     1       1.838   0.013   1.583  1.00  0.00     0.009 C 
ATOM     11  C   UNL     1       0.927   0.169   0.371  1.00  0.00     0.006 C 
ATOM     12  C   UNL     1       0.351  -1.140  -0.157  1.00  0.00     0.005 C 
ATOM     13  C   UNL     1      -0.877  -0.730  -0.961  1.00  0.00     0.002 C 
ATOM     14  C   UNL     1      -1.423   0.557  -0.331  1.00  0.00     0.022 C 
BRANCH   9  15
ATOM     15  C   UNL     1       0.302   2.468  -0.227  1.00  0.00    -0.028 A 
ATOM     16  C   UNL     1       1.012   3.482   0.469  1.00  0.00     0.009 A 
ATOM     17  C   UNL     1       0.371   2.480  -1.641  1.00  0.00     0.055 A 
ATOM     18  C   UNL     1       1.783   4.445  -0.198  1.00  0.00     0.051 A 
ATOM     19  C   UNL     1       1.195   3.388  -2.263  1.00  0.00     0.166 A 
ATOM     20  C   UNL     1       1.894   4.337  -1.562  1.00  0.00     0.165 A 
ATOM     21  O   UNL     1       1.514   3.378  -3.586  1.00  0.00    -0.454 OA
ATOM     22  O   UNL     1       2.740   5.041  -2.363  1.00  0.00    -0.454 OA
ATOM     23  C   UNL     1       2.675   4.230  -3.556  1.00  0.00     0.468 C 
ENDBRANCH   9  15
ENDBRANCH   6   9
ENDBRANCH   4   5
ENDBRANCH   3   4
ENDBRANCH   2   3
ENDBRANCH   1   2
BRANCH   1  24
ATOM     24  C   UNL     1      -3.551  -3.590   3.937  1.00  0.00     0.021 C 
BRANCH  24  25
ATOM     25  C   UNL     1      -2.798  -4.835   4.390  1.00  0.00     0.116 C 
BRANCH  25  26
ATOM     26  N   UNL     1      -3.090  -5.151   5.779  1.00  0.00    -0.352 N 
ATOM     27  C   UNL     1      -3.636  -6.294   6.303  1.00  0.00     0.251 C 
ATOM     28  H   UNL     1      -2.865  -4.449   6.431  1.00  0.00     0.163 HD
ATOM     29  O   UNL     1      -4.078  -6.303   7.445  1.00  0.00    -0.269 OA
BRANCH  27  30
ATOM     30  C   UNL     1      -3.684  -7.509   5.467  1.00  0.00     0.039 A 
ATOM     31  C   UNL     1      -4.856  -8.265   5.427  1.00  0.00     0.014 A 
ATOM     32  C   UNL     1      -2.565  -7.889   4.719  1.00  0.00     0.014 A 
ATOM     33  C   UNL     1      -4.920  -9.384   4.596  1.00  0.00     0.010 A 
ATOM     34  C   UNL     1      -2.659  -8.953   3.833  1.00  0.00     0.010 A 
ATOM     35  C   UNL     1      -3.833  -9.719   3.772  1.00  0.00    -0.014 A 
BRANCH  35  36
ATOM     36  C   UNL     1      -3.893 -10.875   2.845  1.00  0.00     0.031 A 
ATOM     37  C   UNL     1      -2.954 -12.035   3.030  1.00  0.00     0.074 A 
ATOM     38  C   UNL     1      -4.745 -10.848   1.802  1.00  0.00     0.049 A 
ATOM     39  N   UNL     1      -2.808 -13.104   2.291  1.00  0.00    -0.248 NA
ATOM     40  C   UNL     1      -2.039 -11.973   4.183  1.00  0.00     0.031 C 
ATOM     41  C   UNL     1      -5.681  -9.762   1.500  1.00  0.00     0.029 A 
ATOM     42  N   UNL     1      -4.960 -11.760   0.800  1.00  0.00    -0.354 N 
ATOM     43  C   UNL     1      -1.780 -13.832   2.880  1.00  0.00     0.074 A 
ATOM     44  C   UNL     1      -1.298 -13.054   3.999  1.00  0.00     0.031 C 
ATOM     45  C   UNL     1      -6.393 -10.087   0.409  1.00  0.00     0.029 A 
ATOM     46  C   UNL     1      -5.932 -11.377  -0.094  1.00  0.00     0.049 A 
ATOM     47  H   UNL     1      -4.465 -12.607   0.727  1.00  0.00     0.167 HD
ATOM     48  C   UNL     1      -1.297 -15.049   2.533  1.00  0.00     0.031 A 
ATOM     49  C   UNL     1      -6.395 -11.994  -1.198  1.00  0.00     0.031 A 
ATOM     50  C   UNL     1      -1.782 -15.816   1.417  1.00  0.00     0.049 A 
ATOM     51  C   UNL     1      -5.820 -13.329  -1.584  1.00  0.00     0.074 A 
ATOM     52  C   UNL     1      -1.392 -17.077   1.004  1.00  0.00     0.029 A 
ATOM     53  N   UNL     1      -2.763 -15.391   0.532  1.00  0.00    -0.354 N 
ATOM     54  N   UNL     1      -4.888 -14.030  -0.983  1.00  0.00    -0.248 NA
ATOM     55  C   UNL     1      -6.368 -13.962  -2.791  1.00  0.00     0.031 C 
ATOM     56  C   UNL     1      -2.092 -17.389  -0.166  1.00  0.00     0.029 A 
ATOM     57  C   UNL     1      -2.971 -16.353  -0.442  1.00  0.00     0.049 A 
ATOM     58  H   UNL     1      -3.240 -14.531   0.588  1.00  0.00     0.167 HD
ATOM     59  C   UNL     1      -4.761 -15.202  -1.720  1.00  0.00     0.074 A 
ATOM     60  C   UNL     1      -5.720 -15.119  -2.803  1.00  0.00     0.031 C 
ATOM     61  C   UNL     1      -3.929 -16.254  -1.516  1.00  0.00     0.031 A 
BRANCH  48  62
ATOM     62  C   UNL     1      -0.177 -15.614   3.369  1.00  0.00    -0.014 A 
ATOM     63  C   UNL     1      -0.386 -15.993   4.709  1.00  0.00     0.010 A 
ATOM     64  C   UNL     1       1.101 -15.785   2.806  1.00  0.00     0.010 A 
ATOM     65  C   UNL     1       0.671 -16.479   5.483  1.00  0.00     0.020 A 
ATOM     66  C   UNL     1       2.153 -16.303   3.566  1.00  0.00     0.020 A 
ATOM     67  C   UNL     1       1.936 -16.626   4.907  1.00  0.00     0.054 A 
BRANCH  67  68
ATOM     68  S   UNL     1       3.288 -17.262   5.935  1.00  0.00     0.124 S 
ATOM     69  O   UNL     1       3.545 -16.132   6.825  1.00  0.00    -0.237 OA
ATOM     70  O   UNL     1       2.686 -18.434   6.566  1.00  0.00    -0.237 OA
ATOM     71  O   UNL     1       4.349 -17.551   4.974  1.00  0.00    -0.744 OA
ENDBRANCH  67  68
ENDBRANCH  48  62
BRANCH  49  72
ATOM     72  C   UNL     1      -7.479 -11.362  -2.001  1.00  0.00    -0.014 A 
ATOM     73  C   UNL     1      -8.769 -11.919  -2.017  1.00  0.00     0.010 A 
ATOM     74  C   UNL     1      -7.233 -10.186  -2.733  1.00  0.00     0.010 A 
ATOM     75  C   UNL     1      -9.790 -11.322  -2.762  1.00  0.00     0.020 A 
ATOM     76  C   UNL     1      -8.258  -9.569  -3.455  1.00  0.00     0.020 A 
ATOM     77  C   UNL     1      -9.529 -10.147  -3.472  1.00  0.00     0.054 A 
BRANCH  77  78
ATOM     78  S   UNL     1     -10.885  -9.358  -4.384  1.00  0.00     0.124 S 
ATOM     79  O   UNL     1     -11.082 -10.283  -5.495  1.00  0.00    -0.237 OA
ATOM     80  O   UNL     1     -11.954  -9.325  -3.389  1.00  0.00    -0.237 OA
ATOM     81  O   UNL     1     -10.340  -8.052  -4.745  1.00  0.00    -0.744 OA
ENDBRANCH  77  78
ENDBRANCH  49  72
BRANCH  61  82
ATOM     82  C   UNL     1      -4.044 -17.423  -2.459  1.00  0.00    -0.014 A 
ATOM     83  C   UNL     1      -3.611 -17.334  -3.793  1.00  0.00     0.010 A 
ATOM     84  C   UNL     1      -4.543 -18.649  -1.980  1.00  0.00     0.010 A 
ATOM     85  C   UNL     1      -3.704 -18.442  -4.640  1.00  0.00     0.020 A 
ATOM     86  C   UNL     1      -4.607 -19.767  -2.814  1.00  0.00     0.020 A 
ATOM     87  C   UNL     1      -4.199 -19.652  -4.144  1.00  0.00     0.054 A 
BRANCH  87  88
ATOM     88  S   UNL     1      -4.264 -21.087  -5.251  1.00  0.00     0.124 S 
ATOM     89  O   UNL     1      -5.360 -20.731  -6.147  1.00  0.00    -0.237 OA
ATOM     90  O   UNL     1      -2.933 -21.085  -5.854  1.00  0.00    -0.237 OA
ATOM     91  O   UNL     1      -4.533 -22.207  -4.353  1.00  0.00    -0.744 OA
ENDBRANCH  87  88
ENDBRANCH  61  82
ENDBRANCH  35  36
ENDBRANCH  27  30
ENDBRANCH  25  26
ENDBRANCH  24  25
ENDBRANCH   1  24
TORSDOF 17
