REMARK SMILES CC(C)CSc1cc2c(cc1Cl)C=C(C(=O)NCCCCCCNC(=O)c1ccc(-c3c4nc(c(-c5ccc(S(=O)(=O)[O-])cc5)c5ccc([nH]5)c(-c5ccc(S(=O)(=O)[O-])cc5)c5nc(c(-c6ccc(S(=O)(=O)[O-])cc6)c6ccc3[nH]6)C=C5)C=C4)cc1)[C@@H](C(F)(F)F)O2
REMARK SMILES IDX 20 1 19 2 18 3 17 4 15 5 16 6 14 8 6 9 7 10 11 11 8 12 10 13
REMARK SMILES IDX 12 14 9 15 92 16 13 17 87 18 5 19 4 20 2 21 1 22 3 23 88 24
REMARK SMILES IDX 89 25 90 26 91 27 21 28 22 29 23 30 24 31 25 32 26 34 27 35
REMARK SMILES IDX 28 36 86 37 29 38 85 39 30 40 31 41 32 42 79 43 33 44 84 45
REMARK SMILES IDX 78 46 80 47 34 48 83 49 77 50 76 51 35 53 65 54 46 55 64 56
REMARK SMILES IDX 47 57 50 58 63 59 81 60 48 61 49 62 62 64 82 65 51 66 36 67
REMARK SMILES IDX 37 68 45 69 38 70 44 71 39 72 40 73 41 74 42 75 43 76 66 77
REMARK SMILES IDX 67 78 75 79 68 80 74 81 69 82 70 83 71 84 72 85 73 86 52 87
REMARK SMILES IDX 53 88 61 89 54 90 60 91 55 92 56 93 57 94 58 95 59 96
REMARK H PARENT 17 7 24 33 80 52 50 63
REMARK Flexibility Score: inf
ROOT
ATOM      1  C   UNL     1      -2.383  11.315   2.132  1.00  0.00     0.002 C 
ENDROOT
BRANCH   1   2
ATOM      2  C   UNL     1      -2.693   9.959   1.492  1.00  0.00     0.021 C 
BRANCH   2   3
ATOM      3  C   UNL     1      -1.499   9.236   0.880  1.00  0.00     0.116 C 
BRANCH   3   4
ATOM      4  N   UNL     1      -0.627   8.639   1.874  1.00  0.00    -0.352 N 
ATOM      5  C   UNL     1      -0.098   7.408   2.075  1.00  0.00     0.251 C 
ATOM      6  O   UNL     1       0.666   7.297   3.039  1.00  0.00    -0.270 OA
ATOM      7  H   UNL     1      -0.355   9.282   2.568  1.00  0.00     0.163 HD
BRANCH   5   8
ATOM      8  C   UNL     1      -0.407   6.206   1.242  1.00  0.00     0.067 C 
ATOM      9  C   UNL     1      -1.310   1.400  -0.125  1.00  0.00     0.030 A 
ATOM     10  C   UNL     1      -1.281   2.640  -0.791  1.00  0.00     0.063 A 
ATOM     11  C   UNL     1      -1.026   1.397   1.250  1.00  0.00     0.055 A 
ATOM     12  C   UNL     1      -0.955   3.824  -0.125  1.00  0.00     0.129 A 
ATOM     13  C   UNL     1      -0.655   2.584   1.904  1.00  0.00     0.033 A 
ATOM     14  Cl  UNL     1      -1.182   0.012   2.269  1.00  0.00    -0.083 Cl
ATOM     15  C   UNL     1      -0.629   3.801   1.221  1.00  0.00     0.019 A 
ATOM     16  O   UNL     1      -0.989   4.959  -0.872  1.00  0.00    -0.475 OA
ATOM     17  C   UNL     1      -0.317   5.042   1.910  1.00  0.00     0.025 C 
ATOM     18  C   UNL     1      -0.754   6.244  -0.226  1.00  0.00     0.314 C 
BRANCH   9  19
ATOM     19  S   UNL     1      -1.812   0.036  -1.174  1.00  0.00    -0.124 SA
BRANCH  19  20
ATOM     20  C   UNL     1      -0.772  -1.395  -0.714  1.00  0.00     0.078 C 
BRANCH  20  21
ATOM     21  C   UNL     1       0.720  -1.386  -1.090  1.00  0.00    -0.007 C 
ATOM     22  C   UNL     1       1.533  -0.222  -0.530  1.00  0.00     0.008 C 
ATOM     23  C   UNL     1       1.341  -2.703  -0.602  1.00  0.00     0.008 C 
ENDBRANCH  20  21
ENDBRANCH  19  20
ENDBRANCH   9  19
BRANCH  18  24
ATOM     24  C   UNL     1       0.272   6.991  -1.096  1.00  0.00     0.429 C 
ATOM     25  F   UNL     1      -0.286   7.338  -2.283  1.00  0.00    -0.167 F 
ATOM     26  F   UNL     1       0.715   8.136  -0.535  1.00  0.00    -0.167 F 
ATOM     27  F   UNL     1       1.359   6.232  -1.362  1.00  0.00    -0.167 F 
ENDBRANCH  18  24
ENDBRANCH   5   8
ENDBRANCH   3   4
ENDBRANCH   2   3
ENDBRANCH   1   2
BRANCH   1  28
ATOM     28  C   UNL     1      -1.654  12.332   1.248  1.00  0.00     0.002 C 
BRANCH  28  29
ATOM     29  C   UNL     1      -2.225  12.540  -0.157  1.00  0.00     0.021 C 
BRANCH  29  30
ATOM     30  C   UNL     1      -3.695  12.934  -0.217  1.00  0.00     0.116 C 
BRANCH  30  31
ATOM     31  N   UNL     1      -3.962  14.226   0.394  1.00  0.00    -0.352 N 
ATOM     32  C   UNL     1      -4.650  15.300  -0.119  1.00  0.00     0.251 C 
ATOM     33  H   UNL     1      -3.599  14.348   1.302  1.00  0.00     0.163 HD
ATOM     34  O   UNL     1      -4.668  16.367   0.486  1.00  0.00    -0.269 OA
BRANCH  32  35
ATOM     35  C   UNL     1      -5.335  15.171  -1.425  1.00  0.00     0.039 A 
ATOM     36  C   UNL     1      -6.143  14.066  -1.701  1.00  0.00     0.014 A 
ATOM     37  C   UNL     1      -5.136  16.157  -2.395  1.00  0.00     0.014 A 
ATOM     38  C   UNL     1      -6.621  13.867  -2.993  1.00  0.00     0.010 A 
ATOM     39  C   UNL     1      -5.682  15.992  -3.671  1.00  0.00     0.010 A 
ATOM     40  C   UNL     1      -6.390  14.824  -3.994  1.00  0.00    -0.014 A 
BRANCH  40  41
ATOM     41  C   UNL     1      -6.891  14.585  -5.373  1.00  0.00     0.031 A 
ATOM     42  C   UNL     1      -5.928  14.392  -6.515  1.00  0.00     0.074 A 
ATOM     43  C   UNL     1      -8.218  14.495  -5.588  1.00  0.00     0.049 A 
ATOM     44  N   UNL     1      -6.189  14.176  -7.779  1.00  0.00    -0.248 NA
ATOM     45  C   UNL     1      -4.490  14.445  -6.203  1.00  0.00     0.031 C 
ATOM     46  C   UNL     1      -9.246  14.630  -4.553  1.00  0.00     0.029 A 
ATOM     47  N   UNL     1      -8.931  14.241  -6.733  1.00  0.00    -0.354 N 
ATOM     48  C   UNL     1      -4.955  14.081  -8.413  1.00  0.00     0.074 A 
ATOM     49  C   UNL     1      -3.943  14.290  -7.402  1.00  0.00     0.031 C 
ATOM     50  C   UNL     1     -10.450  14.404  -5.099  1.00  0.00     0.029 A 
ATOM     51  C   UNL     1     -10.290  14.178  -6.533  1.00  0.00     0.049 A 
ATOM     52  H   UNL     1      -8.509  14.117  -7.614  1.00  0.00     0.167 HD
ATOM     53  C   UNL     1      -4.693  13.829  -9.717  1.00  0.00     0.031 A 
ATOM     54  C   UNL     1     -11.301  13.976  -7.401  1.00  0.00     0.031 A 
ATOM     55  C   UNL     1      -5.707  13.608 -10.716  1.00  0.00     0.049 A 
ATOM     56  C   UNL     1     -10.988  13.761  -8.853  1.00  0.00     0.074 A 
ATOM     57  C   UNL     1      -5.534  13.336 -12.062  1.00  0.00     0.029 A 
ATOM     58  N   UNL     1      -7.073  13.627 -10.483  1.00  0.00    -0.354 N 
ATOM     59  N   UNL     1      -9.814  13.685  -9.434  1.00  0.00    -0.248 NA
ATOM     60  C   UNL     1     -12.126  13.613  -9.770  1.00  0.00     0.031 C 
ATOM     61  C   UNL     1      -6.796  13.249 -12.654  1.00  0.00     0.029 A 
ATOM     62  C   UNL     1      -7.756  13.398 -11.666  1.00  0.00     0.049 A 
ATOM     63  H   UNL     1      -7.495  13.780  -9.607  1.00  0.00     0.167 HD
ATOM     64  C   UNL     1     -10.072  13.474 -10.783  1.00  0.00     0.074 A 
ATOM     65  C   UNL     1     -11.512  13.415 -10.930  1.00  0.00     0.031 C 
ATOM     66  C   UNL     1      -9.190  13.346 -11.804  1.00  0.00     0.031 A 
BRANCH  53  67
ATOM     67  C   UNL     1      -3.254  13.777 -10.163  1.00  0.00    -0.014 A 
ATOM     68  C   UNL     1      -2.752  14.774 -11.019  1.00  0.00     0.010 A 
ATOM     69  C   UNL     1      -2.436  12.681  -9.836  1.00  0.00     0.010 A 
ATOM     70  C   UNL     1      -1.470  14.665 -11.564  1.00  0.00     0.020 A 
ATOM     71  C   UNL     1      -1.143  12.581 -10.358  1.00  0.00     0.020 A 
ATOM     72  C   UNL     1      -0.676  13.562 -11.237  1.00  0.00     0.054 A 
BRANCH  72  73
ATOM     73  S   UNL     1       0.979  13.424 -11.968  1.00  0.00     0.124 S 
ATOM     74  O   UNL     1       0.680  12.982 -13.326  1.00  0.00    -0.237 OA
ATOM     75  O   UNL     1       1.497  14.784 -11.846  1.00  0.00    -0.237 OA
ATOM     76  O   UNL     1       1.644  12.437 -11.120  1.00  0.00    -0.744 OA
ENDBRANCH  72  73
ENDBRANCH  53  67
BRANCH  54  77
ATOM     77  C   UNL     1     -12.698  13.960  -6.889  1.00  0.00    -0.014 A 
ATOM     78  C   UNL     1     -13.281  15.134  -6.375  1.00  0.00     0.010 A 
ATOM     79  C   UNL     1     -13.414  12.753  -6.813  1.00  0.00     0.010 A 
ATOM     80  C   UNL     1     -14.521  15.091  -5.734  1.00  0.00     0.020 A 
ATOM     81  C   UNL     1     -14.670  12.711  -6.198  1.00  0.00     0.020 A 
ATOM     82  C   UNL     1     -15.199  13.874  -5.633  1.00  0.00     0.054 A 
BRANCH  82  83
ATOM     83  S   UNL     1     -16.774  13.825  -4.734  1.00  0.00     0.124 S 
ATOM     84  O   UNL     1     -16.324  13.842  -3.345  1.00  0.00    -0.237 OA
ATOM     85  O   UNL     1     -17.444  15.038  -5.194  1.00  0.00    -0.237 OA
ATOM     86  O   UNL     1     -17.382  12.574  -5.180  1.00  0.00    -0.744 OA
ENDBRANCH  82  83
ENDBRANCH  54  77
BRANCH  66  87
ATOM     87  C   UNL     1      -9.733  13.134 -13.191  1.00  0.00    -0.014 A 
ATOM     88  C   UNL     1      -9.537  11.898 -13.835  1.00  0.00     0.010 A 
ATOM     89  C   UNL     1     -10.297  14.201 -13.911  1.00  0.00     0.010 A 
ATOM     90  C   UNL     1      -9.852  11.745 -15.187  1.00  0.00     0.020 A 
ATOM     91  C   UNL     1     -10.638  14.044 -15.257  1.00  0.00     0.020 A 
ATOM     92  C   UNL     1     -10.386  12.826 -15.893  1.00  0.00     0.054 A 
BRANCH  92  93
ATOM     93  S   UNL     1     -10.737  12.627 -17.662  1.00  0.00     0.124 S 
ATOM     94  O   UNL     1      -9.404  12.713 -18.251  1.00  0.00    -0.237 OA
ATOM     95  O   UNL     1     -11.367  11.310 -17.720  1.00  0.00    -0.237 OA
ATOM     96  O   UNL     1     -11.626  13.747 -17.962  1.00  0.00    -0.744 OA
ENDBRANCH  92  93
ENDBRANCH  66  87
ENDBRANCH  40  41
ENDBRANCH  32  35
ENDBRANCH  30  31
ENDBRANCH  29  30
ENDBRANCH  28  29
ENDBRANCH   1  28
TORSDOF 20
