REMARK SMILES CC(C)C[C@H](NC(=O)CNC(=O)[C@@H](NC(=O)OCc1ccccc1)C(C)C)C(=O)NCCCCCCNC(=O)c1ccc(-c2c3nc(c(-c4ccc(S(=O)(=O)[O-])cc4)c4ccc([nH]4)c(-c4ccc(S(=O)(=O)[O-])cc4)c4nc(c(-c5ccc(S(=O)(=O)[O-])cc5)c5ccc2[nH]5)C=C4)C=C3)cc1
REMARK SMILES IDX 31 1 30 2 28 3 29 4 5 6 4 7 2 8 1 9 3 10 6 11 7 12 8 14 9 15
REMARK SMILES IDX 10 16 11 17 12 19 13 20 14 21 15 22 16 24 17 25 18 26 19 27
REMARK SMILES IDX 20 28 24 29 21 30 23 31 22 32 25 33 26 34 27 35 32 36 33 37
REMARK SMILES IDX 34 38 35 39 36 40 37 41 38 42 39 44 40 45 41 46 99 47 42 48
REMARK SMILES IDX 98 49 43 50 44 51 45 52 92 53 46 54 97 55 91 56 93 57 47 58
REMARK SMILES IDX 96 59 90 60 89 61 48 63 78 64 59 65 77 66 60 67 63 68 76 69
REMARK SMILES IDX 94 70 61 71 62 72 75 74 95 75 64 76 49 77 50 78 58 79 51 80
REMARK SMILES IDX 57 81 52 82 53 83 54 84 55 85 56 86 79 87 80 88 88 89 81 90
REMARK SMILES IDX 87 91 82 92 83 93 84 94 85 95 86 96 65 97 66 98 74 99 67 100
REMARK SMILES IDX 73 101 68 102 69 103 70 104 71 105 72 106
REMARK H PARENT 30 5 6 13 10 18 14 23 37 43 93 62 63 73
REMARK Flexibility Score: inf
ROOT
ATOM      1  C   UNL     1      -3.462  -3.351   0.381  1.00  0.00     0.116 C 
ENDROOT
BRANCH   1   2
ATOM      2  N   UNL     1      -4.086  -2.090   0.036  1.00  0.00    -0.354 N 
ATOM      3  C   UNL     1      -3.539  -1.010  -0.580  1.00  0.00     0.242 C 
ATOM      4  O   UNL     1      -4.223   0.005  -0.725  1.00  0.00    -0.273 OA
ATOM      5  H   UNL     1      -5.036  -2.005   0.282  1.00  0.00     0.163 HD
BRANCH   3   6
ATOM      6  C   UNL     1      -2.113  -1.093  -1.119  1.00  0.00     0.171 C 
BRANCH   6   7
ATOM      7  C   UNL     1      -1.990  -1.953  -2.383  1.00  0.00     0.038 C 
BRANCH   7   8
ATOM      8  C   UNL     1      -3.151  -2.747  -3.030  1.00  0.00    -0.015 C 
ATOM      9  C   UNL     1      -4.286  -1.890  -3.581  1.00  0.00     0.007 C 
ATOM     10  C   UNL     1      -2.617  -3.607  -4.190  1.00  0.00     0.007 C 
ENDBRANCH   7   8
ENDBRANCH   6   7
BRANCH   6  11
ATOM     11  N   UNL     1      -1.208  -1.254   0.057  1.00  0.00    -0.343 N 
ATOM     12  C   UNL     1      -0.238  -1.999   0.621  1.00  0.00     0.240 C 
ATOM     13  H   UNL     1      -1.397  -0.510   0.673  1.00  0.00     0.164 HD
ATOM     14  O   UNL     1       0.059  -1.631   1.772  1.00  0.00    -0.273 OA
BRANCH  12  15
ATOM     15  C   UNL     1       0.618  -3.113   0.009  1.00  0.00     0.216 C 
BRANCH  15  16
ATOM     16  N   UNL     1       0.065  -4.129  -0.850  1.00  0.00    -0.345 N 
ATOM     17  C   UNL     1       0.310  -4.470  -2.139  1.00  0.00     0.243 C 
ATOM     18  H   UNL     1      -0.624  -4.682  -0.417  1.00  0.00     0.164 HD
ATOM     19  O   UNL     1      -0.120  -5.587  -2.454  1.00  0.00    -0.273 OA
BRANCH  17  20
ATOM     20  C   UNL     1       0.997  -3.551  -3.214  1.00  0.00     0.177 C 
BRANCH  20  21
ATOM     21  N   UNL     1       1.065  -2.121  -2.917  1.00  0.00    -0.309 N 
ATOM     22  C   UNL     1       1.957  -1.348  -2.261  1.00  0.00     0.408 C 
ATOM     23  H   UNL     1       0.297  -1.614  -3.269  1.00  0.00     0.167 HD
ATOM     24  O   UNL     1       1.622  -0.236  -1.890  1.00  0.00    -0.225 OA
BRANCH  22  25
ATOM     25  O   UNL     1       3.161  -1.935  -2.084  1.00  0.00    -0.445 OA
BRANCH  25  26
ATOM     26  C   UNL     1       4.190  -1.060  -1.594  1.00  0.00     0.270 C 
BRANCH  26  27
ATOM     27  C   UNL     1       4.434   0.090  -2.544  1.00  0.00    -0.011 A 
ATOM     28  C   UNL     1       4.053   1.391  -2.181  1.00  0.00     0.007 A 
ATOM     29  C   UNL     1       4.910  -0.142  -3.841  1.00  0.00     0.007 A 
ATOM     30  C   UNL     1       4.112   2.431  -3.107  1.00  0.00     0.000 A 
ATOM     31  C   UNL     1       4.974   0.902  -4.764  1.00  0.00     0.000 A 
ATOM     32  C   UNL     1       4.569   2.185  -4.399  1.00  0.00     0.000 A 
ENDBRANCH  26  27
ENDBRANCH  25  26
ENDBRANCH  22  25
ENDBRANCH  20  21
BRANCH  20  33
ATOM     33  C   UNL     1       2.260  -4.158  -3.861  1.00  0.00     0.015 C 
ATOM     34  C   UNL     1       1.978  -5.535  -4.483  1.00  0.00     0.010 C 
ATOM     35  C   UNL     1       2.793  -3.261  -4.989  1.00  0.00     0.010 C 
ENDBRANCH  20  33
ENDBRANCH  17  20
ENDBRANCH  15  16
ENDBRANCH  12  15
ENDBRANCH   6  11
ENDBRANCH   3   6
ENDBRANCH   1   2
BRANCH   1  36
ATOM     36  C   UNL     1      -3.983  -3.860   1.709  1.00  0.00     0.021 C 
BRANCH  36  37
ATOM     37  C   UNL     1      -5.449  -4.288   1.620  1.00  0.00     0.002 C 
BRANCH  37  38
ATOM     38  C   UNL     1      -5.737  -5.322   0.523  1.00  0.00     0.002 C 
BRANCH  38  39
ATOM     39  C   UNL     1      -4.881  -6.589   0.611  1.00  0.00     0.021 C 
BRANCH  39  40
ATOM     40  C   UNL     1      -4.920  -7.259   1.978  1.00  0.00     0.116 C 
BRANCH  40  41
ATOM     41  N   UNL     1      -6.285  -7.516   2.406  1.00  0.00    -0.352 N 
ATOM     42  C   UNL     1      -6.832  -8.670   2.897  1.00  0.00     0.251 C 
ATOM     43  H   UNL     1      -6.903  -6.753   2.332  1.00  0.00     0.163 HD
ATOM     44  O   UNL     1      -8.049  -8.783   2.997  1.00  0.00    -0.269 OA
BRANCH  42  45
ATOM     45  C   UNL     1      -5.937  -9.773   3.286  1.00  0.00     0.039 A 
ATOM     46  C   UNL     1      -6.252 -11.069   2.881  1.00  0.00     0.014 A 
ATOM     47  C   UNL     1      -4.782  -9.518   4.033  1.00  0.00     0.014 A 
ATOM     48  C   UNL     1      -5.380 -12.110   3.190  1.00  0.00     0.010 A 
ATOM     49  C   UNL     1      -3.874 -10.541   4.265  1.00  0.00     0.010 A 
ATOM     50  C   UNL     1      -4.170 -11.849   3.856  1.00  0.00    -0.014 A 
BRANCH  50  51
ATOM     51  C   UNL     1      -3.200 -12.938   4.121  1.00  0.00     0.031 A 
ATOM     52  C   UNL     1      -2.859 -13.320   5.535  1.00  0.00     0.074 A 
ATOM     53  C   UNL     1      -2.596 -13.549   3.084  1.00  0.00     0.049 A 
ATOM     54  N   UNL     1      -2.031 -14.239   5.960  1.00  0.00    -0.248 NA
ATOM     55  C   UNL     1      -3.514 -12.557   6.610  1.00  0.00     0.031 C 
ATOM     56  C   UNL     1      -2.816 -13.231   1.670  1.00  0.00     0.029 A 
ATOM     57  N   UNL     1      -1.678 -14.566   3.056  1.00  0.00    -0.354 N 
ATOM     58  C   UNL     1      -2.057 -14.158   7.347  1.00  0.00     0.074 A 
ATOM     59  C   UNL     1      -2.936 -13.062   7.690  1.00  0.00     0.031 C 
ATOM     60  C   UNL     1      -2.086 -14.065   0.914  1.00  0.00     0.029 A 
ATOM     61  C   UNL     1      -1.311 -14.942   1.785  1.00  0.00     0.049 A 
ATOM     62  H   UNL     1      -1.315 -14.988   3.868  1.00  0.00     0.167 HD
ATOM     63  C   UNL     1      -1.422 -14.939   8.253  1.00  0.00     0.031 A 
ATOM     64  C   UNL     1      -0.444 -15.884   1.367  1.00  0.00     0.031 A 
ATOM     65  C   UNL     1      -0.545 -16.024   7.900  1.00  0.00     0.049 A 
ATOM     66  C   UNL     1       0.268 -16.722   2.392  1.00  0.00     0.074 A 
ATOM     67  C   UNL     1       0.106 -16.910   8.739  1.00  0.00     0.029 A 
ATOM     68  N   UNL     1      -0.189 -16.366   6.603  1.00  0.00    -0.354 N 
ATOM     69  N   UNL     1       0.173 -16.681   3.700  1.00  0.00    -0.248 NA
ATOM     70  C   UNL     1       1.196 -17.741   1.884  1.00  0.00     0.031 C 
ATOM     71  C   UNL     1       0.911 -17.742   7.954  1.00  0.00     0.029 A 
ATOM     72  C   UNL     1       0.702 -17.426   6.621  1.00  0.00     0.049 A 
ATOM     73  H   UNL     1      -0.520 -15.920   5.790  1.00  0.00     0.167 HD
ATOM     74  C   UNL     1       1.010 -17.687   4.172  1.00  0.00     0.074 A 
ATOM     75  C   UNL     1       1.585 -18.329   3.007  1.00  0.00     0.031 C 
ATOM     76  C   UNL     1       1.276 -18.048   5.452  1.00  0.00     0.031 A 
BRANCH  63  77
ATOM     77  C   UNL     1      -1.642 -14.632   9.713  1.00  0.00    -0.014 A 
ATOM     78  C   UNL     1      -2.897 -14.825  10.320  1.00  0.00     0.010 A 
ATOM     79  C   UNL     1      -0.570 -14.170  10.498  1.00  0.00     0.010 A 
ATOM     80  C   UNL     1      -3.087 -14.515  11.670  1.00  0.00     0.020 A 
ATOM     81  C   UNL     1      -0.747 -13.891  11.856  1.00  0.00     0.020 A 
ATOM     82  C   UNL     1      -2.010 -14.048  12.429  1.00  0.00     0.054 A 
BRANCH  82  83
ATOM     83  S   UNL     1      -2.284 -13.667  14.181  1.00  0.00     0.124 S 
ATOM     84  O   UNL     1      -3.102 -12.459  14.102  1.00  0.00    -0.237 OA
ATOM     85  O   UNL     1      -2.974 -14.861  14.662  1.00  0.00    -0.237 OA
ATOM     86  O   UNL     1      -0.936 -13.472  14.709  1.00  0.00    -0.744 OA
ENDBRANCH  82  83
ENDBRANCH  63  77
BRANCH  64  87
ATOM     87  C   UNL     1      -0.222 -16.091  -0.090  1.00  0.00    -0.014 A 
ATOM     88  C   UNL     1      -0.675 -17.261  -0.724  1.00  0.00     0.010 A 
ATOM     89  C   UNL     1       0.420 -15.102  -0.859  1.00  0.00     0.010 A 
ATOM     90  C   UNL     1      -0.478 -17.445  -2.096  1.00  0.00     0.020 A 
ATOM     91  C   UNL     1       0.590 -15.268  -2.236  1.00  0.00     0.020 A 
ATOM     92  C   UNL     1       0.148 -16.444  -2.844  1.00  0.00     0.054 A 
BRANCH  92  93
ATOM     93  S   UNL     1       0.336 -16.679  -4.633  1.00  0.00     0.124 S 
ATOM     94  O   UNL     1       1.352 -17.726  -4.697  1.00  0.00    -0.237 OA
ATOM     95  O   UNL     1      -1.009 -17.076  -5.040  1.00  0.00    -0.237 OA
ATOM     96  O   UNL     1       0.761 -15.365  -5.109  1.00  0.00    -0.744 OA
ENDBRANCH  92  93
ENDBRANCH  64  87
BRANCH  76  97
ATOM     97  C   UNL     1       2.212 -19.209   5.663  1.00  0.00    -0.014 A 
ATOM     98  C   UNL     1       3.586 -19.104   5.380  1.00  0.00     0.010 A 
ATOM     99  C   UNL     1       1.714 -20.411   6.200  1.00  0.00     0.010 A 
ATOM    100  C   UNL     1       4.436 -20.192   5.596  1.00  0.00     0.020 A 
ATOM    101  C   UNL     1       2.567 -21.489   6.449  1.00  0.00     0.020 A 
ATOM    102  C   UNL     1       3.921 -21.377   6.130  1.00  0.00     0.054 A 
BRANCH 102 103
ATOM    103  S   UNL     1       5.054 -22.759   6.436  1.00  0.00     0.124 S 
ATOM    104  O   UNL     1       5.359 -23.208   5.080  1.00  0.00    -0.237 OA
ATOM    105  O   UNL     1       6.156 -22.117   7.148  1.00  0.00    -0.237 OA
ATOM    106  O   UNL     1       4.260 -23.689   7.235  1.00  0.00    -0.744 OA
ENDBRANCH 102 103
ENDBRANCH  76  97
ENDBRANCH  50  51
ENDBRANCH  42  45
ENDBRANCH  40  41
ENDBRANCH  39  40
ENDBRANCH  38  39
ENDBRANCH  37  38
ENDBRANCH  36  37
ENDBRANCH   1  36
TORSDOF 27
