REMARK SMILES CC[N@H+](CC(C)(C)C(=O)NCCCCCCNC(=O)c1ccc(-c2c3nc(c(-c4ccc(S(=O)(=O)[O-])cc4)c4ccc([nH]4)c(-c4ccc(S(=O)(=O)[O-])cc4)c4nc(c(-c5ccc(S(=O)(=O)[O-])cc5)c5ccc2[nH]5)C=C4)C=C3)cc1)[C@H]1CCC[NH2+]C1
REMARK SMILES IDX 13 1 12 2 11 3 10 4 8 5 9 6 5 8 6 9 7 10 4 11 3 12 2 14 1 15
REMARK SMILES IDX 80 16 81 17 85 18 82 19 84 20 83 21 14 24 15 25 16 26 17 27
REMARK SMILES IDX 18 28 19 30 20 31 21 32 79 33 22 34 78 35 23 36 24 37 25 38
REMARK SMILES IDX 72 39 26 40 77 41 71 42 73 43 27 44 76 45 70 46 69 47 28 49
REMARK SMILES IDX 58 50 39 51 57 52 40 53 43 54 56 55 74 56 41 57 42 58 55 60
REMARK SMILES IDX 75 61 44 62 29 63 30 64 38 65 31 66 37 67 32 68 33 69 34 70
REMARK SMILES IDX 35 71 36 72 59 73 60 74 68 75 61 76 67 77 62 78 63 79 64 80
REMARK SMILES IDX 65 81 66 82 45 83 46 84 54 85 47 86 53 87 48 88 49 89 50 90
REMARK SMILES IDX 51 91 52 92
REMARK H PARENT 10 7 3 13 84 22 84 23 17 29 73 48 43 59
REMARK Flexibility Score: inf
ROOT
ATOM      1  C   UNL     1      10.103  -4.357  -0.922  1.00  0.00     0.002 C 
ENDROOT
BRANCH   1   2
ATOM      2  C   UNL     1       9.203  -4.504  -2.158  1.00  0.00     0.021 C 
BRANCH   2   3
ATOM      3  C   UNL     1       7.970  -5.379  -1.915  1.00  0.00     0.116 C 
BRANCH   3   4
ATOM      4  N   UNL     1       7.123  -4.746  -0.933  1.00  0.00    -0.355 N 
ATOM      5  C   UNL     1       6.168  -3.814  -1.169  1.00  0.00     0.231 C 
ATOM      6  O   UNL     1       6.178  -2.839  -0.412  1.00  0.00    -0.274 OA
ATOM      7  H   UNL     1       7.252  -5.019   0.004  1.00  0.00     0.163 HD
BRANCH   5   8
ATOM      8  C   UNL     1       5.163  -3.966  -2.324  1.00  0.00     0.092 C 
ATOM      9  C   UNL     1       4.643  -5.397  -2.535  1.00  0.00     0.027 C 
ATOM     10  C   UNL     1       5.817  -3.464  -3.637  1.00  0.00     0.027 C 
BRANCH   8  11
ATOM     11  C   UNL     1       3.990  -2.973  -2.049  1.00  0.00     0.279 C 
BRANCH  11  12
ATOM     12  N   UNL     1       2.936  -3.115  -1.012  1.00  0.00    -0.327 N 
ATOM     13  H   UNL     1       2.245  -3.774  -1.370  1.00  0.00     0.348 HD
BRANCH  12  14
ATOM     14  C   UNL     1       3.395  -3.751   0.239  1.00  0.00     0.259 C 
ATOM     15  C   UNL     1       2.279  -4.193   1.183  1.00  0.00     0.071 C 
ENDBRANCH  12  14
BRANCH  12  16
ATOM     16  C   UNL     1       2.255  -1.775  -0.787  1.00  0.00     0.239 C 
ATOM     17  C   UNL     1       2.870  -0.958   0.380  1.00  0.00     0.077 C 
ATOM     18  C   UNL     1       2.127  -0.869  -2.074  1.00  0.00     0.326 C 
ATOM     19  C   UNL     1       2.322   0.460   0.474  1.00  0.00     0.068 C 
ATOM     20  N   UNL     1       1.650   0.505  -1.855  1.00  0.00    -0.341 N 
ATOM     21  C   UNL     1       2.481   1.175  -0.855  1.00  0.00     0.260 C 
ATOM     22  H   UNL     1       1.697   1.022  -2.733  1.00  0.00     0.346 HD
ATOM     23  H   UNL     1       0.687   0.474  -1.520  1.00  0.00     0.346 HD
ENDBRANCH  12  16
ENDBRANCH  11  12
ENDBRANCH   8  11
ENDBRANCH   5   8
ENDBRANCH   3   4
ENDBRANCH   2   3
ENDBRANCH   1   2
BRANCH   1  24
ATOM     24  C   UNL     1      10.491  -5.682  -0.259  1.00  0.00     0.002 C 
BRANCH  24  25
ATOM     25  C   UNL     1      11.070  -6.723  -1.220  1.00  0.00     0.021 C 
BRANCH  25  26
ATOM     26  C   UNL     1      12.289  -6.237  -1.991  1.00  0.00     0.116 C 
BRANCH  26  27
ATOM     27  N   UNL     1      13.403  -5.958  -1.102  1.00  0.00    -0.352 N 
ATOM     28  C   UNL     1      14.655  -6.523  -1.094  1.00  0.00     0.251 C 
ATOM     29  H   UNL     1      13.239  -5.273  -0.414  1.00  0.00     0.163 HD
ATOM     30  O   UNL     1      15.402  -6.364  -0.140  1.00  0.00    -0.269 OA
BRANCH  28  31
ATOM     31  C   UNL     1      15.072  -7.345  -2.250  1.00  0.00     0.039 A 
ATOM     32  C   UNL     1      15.638  -8.598  -2.019  1.00  0.00     0.014 A 
ATOM     33  C   UNL     1      14.865  -6.888  -3.556  1.00  0.00     0.014 A 
ATOM     34  C   UNL     1      15.936  -9.426  -3.102  1.00  0.00     0.010 A 
ATOM     35  C   UNL     1      15.092  -7.743  -4.629  1.00  0.00     0.010 A 
ATOM     36  C   UNL     1      15.625  -9.022  -4.412  1.00  0.00    -0.014 A 
BRANCH  36  37
ATOM     37  C   UNL     1      15.816  -9.940  -5.563  1.00  0.00     0.031 A 
ATOM     38  C   UNL     1      16.789  -9.596  -6.657  1.00  0.00     0.074 A 
ATOM     39  C   UNL     1      15.060 -11.053  -5.651  1.00  0.00     0.049 A 
ATOM     40  N   UNL     1      17.048 -10.249  -7.760  1.00  0.00    -0.248 NA
ATOM     41  C   UNL     1      17.554  -8.348  -6.503  1.00  0.00     0.031 C 
ATOM     42  C   UNL     1      14.053 -11.472  -4.672  1.00  0.00     0.029 A 
ATOM     43  N   UNL     1      15.014 -12.032  -6.611  1.00  0.00    -0.354 N 
ATOM     44  C   UNL     1      17.996  -9.490  -8.435  1.00  0.00     0.074 A 
ATOM     45  C   UNL     1      18.231  -8.303  -7.642  1.00  0.00     0.031 C 
ATOM     46  C   UNL     1      13.510 -12.634  -5.069  1.00  0.00     0.029 A 
ATOM     47  C   UNL     1      14.091 -13.018  -6.351  1.00  0.00     0.049 A 
ATOM     48  H   UNL     1      15.589 -12.030  -7.411  1.00  0.00     0.167 HD
ATOM     49  C   UNL     1      18.626  -9.765  -9.602  1.00  0.00     0.031 A 
ATOM     50  C   UNL     1      13.739 -14.103  -7.069  1.00  0.00     0.031 A 
ATOM     51  C   UNL     1      18.388 -10.948 -10.386  1.00  0.00     0.049 A 
ATOM     52  C   UNL     1      14.431 -14.367  -8.379  1.00  0.00     0.074 A 
ATOM     53  C   UNL     1      19.017 -11.345 -11.553  1.00  0.00     0.029 A 
ATOM     54  N   UNL     1      17.442 -11.918 -10.093  1.00  0.00    -0.354 N 
ATOM     55  N   UNL     1      15.382 -13.677  -8.961  1.00  0.00    -0.248 NA
ATOM     56  C   UNL     1      14.005 -15.559  -9.125  1.00  0.00     0.031 C 
ATOM     57  C   UNL     1      18.406 -12.521 -12.001  1.00  0.00     0.029 A 
ATOM     58  C   UNL     1      17.443 -12.893 -11.076  1.00  0.00     0.049 A 
ATOM     59  H   UNL     1      16.856 -11.915  -9.302  1.00  0.00     0.167 HD
ATOM     60  C   UNL     1      15.683 -14.363 -10.133  1.00  0.00     0.074 A 
ATOM     61  C   UNL     1      14.829 -15.533 -10.163  1.00  0.00     0.031 C 
ATOM     62  C   UNL     1      16.582 -14.050 -11.098  1.00  0.00     0.031 A 
BRANCH  49  63
ATOM     63  C   UNL     1      19.630  -8.762 -10.112  1.00  0.00    -0.014 A 
ATOM     64  C   UNL     1      20.860  -8.567  -9.458  1.00  0.00     0.010 A 
ATOM     65  C   UNL     1      19.364  -8.049 -11.295  1.00  0.00     0.010 A 
ATOM     66  C   UNL     1      21.791  -7.654  -9.959  1.00  0.00     0.020 A 
ATOM     67  C   UNL     1      20.305  -7.156 -11.816  1.00  0.00     0.020 A 
ATOM     68  C   UNL     1      21.508  -6.954 -11.136  1.00  0.00     0.054 A 
BRANCH  68  69
ATOM     69  S   UNL     1      22.751  -5.802 -11.781  1.00  0.00     0.124 S 
ATOM     70  O   UNL     1      22.692  -4.717 -10.804  1.00  0.00    -0.237 OA
ATOM     71  O   UNL     1      23.972  -6.603 -11.756  1.00  0.00    -0.237 OA
ATOM     72  O   UNL     1      22.256  -5.466 -13.114  1.00  0.00    -0.744 OA
ENDBRANCH  68  69
ENDBRANCH  49  63
BRANCH  50  73
ATOM     73  C   UNL     1      12.674 -15.014  -6.568  1.00  0.00    -0.014 A 
ATOM     74  C   UNL     1      12.984 -16.322  -6.154  1.00  0.00     0.010 A 
ATOM     75  C   UNL     1      11.338 -14.575  -6.499  1.00  0.00     0.010 A 
ATOM     76  C   UNL     1      11.976 -17.179  -5.702  1.00  0.00     0.020 A 
ATOM     77  C   UNL     1      10.334 -15.418  -6.017  1.00  0.00     0.020 A 
ATOM     78  C   UNL     1      10.658 -16.721  -5.634  1.00  0.00     0.054 A 
BRANCH  78  79
ATOM     79  S   UNL     1       9.374 -17.837  -5.003  1.00  0.00     0.124 S 
ATOM     80  O   UNL     1       9.233 -18.789  -6.100  1.00  0.00    -0.237 OA
ATOM     81  O   UNL     1       9.985 -18.360  -3.783  1.00  0.00    -0.237 OA
ATOM     82  O   UNL     1       8.229 -16.954  -4.788  1.00  0.00    -0.744 OA
ENDBRANCH  78  79
ENDBRANCH  50  73
BRANCH  62  83
ATOM     83  C   UNL     1      16.706 -14.995 -12.264  1.00  0.00    -0.014 A 
ATOM     84  C   UNL     1      15.691 -15.091 -13.233  1.00  0.00     0.010 A 
ATOM     85  C   UNL     1      17.880 -15.753 -12.424  1.00  0.00     0.010 A 
ATOM     86  C   UNL     1      15.838 -15.948 -14.326  1.00  0.00     0.020 A 
ATOM     87  C   UNL     1      18.044 -16.587 -13.533  1.00  0.00     0.020 A 
ATOM     88  C   UNL     1      17.015 -16.688 -14.471  1.00  0.00     0.054 A 
BRANCH  88  89
ATOM     89  S   UNL     1      17.200 -17.752 -15.928  1.00  0.00     0.124 S 
ATOM     90  O   UNL     1      16.264 -18.834 -15.636  1.00  0.00    -0.237 OA
ATOM     91  O   UNL     1      16.814 -16.864 -17.022  1.00  0.00    -0.237 OA
ATOM     92  O   UNL     1      18.612 -18.127 -15.907  1.00  0.00    -0.744 OA
ENDBRANCH  88  89
ENDBRANCH  62  83
ENDBRANCH  36  37
ENDBRANCH  28  31
ENDBRANCH  26  27
ENDBRANCH  25  26
ENDBRANCH  24  25
ENDBRANCH   1  24
TORSDOF 20
