REMARK SMILES CC(C)C[C@H](NC(=O)[C@@H](NC(=O)[C@H](C)NC(=O)CNC(=O)OCc1ccccc1)C(C)C)C(=O)NCCCCCCNC(=O)c1ccc(-c2c3nc(c(-c4ccc(S(=O)(=O)[O-])cc4)c4ccc([nH]4)c(-c4ccc(S(=O)(=O)[O-])cc4)c4nc(c(-c5ccc(S(=O)(=O)[O-])cc5)c5ccc2[nH]5)C=C4)C=C3)cc1
REMARK SMILES IDX 33 1 34 2 35 3 5 5 4 6 2 7 1 8 3 9 6 10 7 11 8 13 9 14 10 15
REMARK SMILES IDX 11 16 12 18 13 19 14 20 15 21 16 22 17 24 18 25 19 26 20 27
REMARK SMILES IDX 21 29 22 30 23 31 24 32 25 33 29 34 26 35 28 36 27 37 30 38
REMARK SMILES IDX 31 39 32 40 36 41 37 42 38 43 39 44 40 45 41 46 42 47 43 48
REMARK SMILES IDX 44 50 45 51 46 52 104 53 47 54 103 55 48 56 49 57 50 58
REMARK SMILES IDX 97 59 51 60 102 61 96 62 98 63 52 64 101 65 95 66 94 67
REMARK SMILES IDX 53 69 83 70 64 71 82 72 65 73 68 74 81 75 99 76 66 77 67 78
REMARK SMILES IDX 80 80 100 81 69 82 54 83 55 84 63 85 56 86 62 87 57 88 58 89
REMARK SMILES IDX 59 90 60 91 61 92 84 93 85 94 93 95 86 96 92 97 87 98 88 99
REMARK SMILES IDX 89 100 90 101 91 102 70 103 71 104 79 105 72 106 78 107
REMARK SMILES IDX 73 108 74 109 75 110 76 111 77 112
REMARK H PARENT 35 4 6 12 10 17 15 23 19 28 42 49 98 68 68 79
REMARK Flexibility Score: inf
ROOT
ATOM      1  C   UNL     1      -4.710  -2.701   1.901  1.00  0.00     0.242 C 
ATOM      2  O   UNL     1      -5.497  -1.983   2.519  1.00  0.00    -0.273 OA
ATOM      3  N   UNL     1      -3.381  -2.383   1.886  1.00  0.00    -0.354 N 
ATOM      4  H   UNL     1      -3.166  -1.423   1.927  1.00  0.00     0.163 HD
ENDROOT
BRANCH   1   5
ATOM      5  C   UNL     1      -5.217  -4.035   1.367  1.00  0.00     0.171 C 
BRANCH   5   6
ATOM      6  C   UNL     1      -5.018  -4.976   2.590  1.00  0.00     0.038 C 
BRANCH   6   7
ATOM      7  C   UNL     1      -4.728  -6.481   2.526  1.00  0.00    -0.015 C 
ATOM      8  C   UNL     1      -3.366  -6.851   1.942  1.00  0.00     0.007 C 
ATOM      9  C   UNL     1      -4.747  -6.993   3.985  1.00  0.00     0.007 C 
ENDBRANCH   6   7
ENDBRANCH   5   6
BRANCH   5  10
ATOM     10  N   UNL     1      -4.607  -4.316   0.079  1.00  0.00    -0.343 N 
ATOM     11  C   UNL     1      -4.730  -3.648  -1.111  1.00  0.00     0.243 C 
ATOM     12  H   UNL     1      -4.017  -5.103   0.058  1.00  0.00     0.164 HD
ATOM     13  O   UNL     1      -4.269  -4.246  -2.094  1.00  0.00    -0.273 OA
BRANCH  11  14
ATOM     14  C   UNL     1      -5.257  -2.166  -1.300  1.00  0.00     0.174 C 
BRANCH  14  15
ATOM     15  N   UNL     1      -6.460  -1.858  -0.498  1.00  0.00    -0.342 N 
ATOM     16  C   UNL     1      -7.019  -0.920   0.296  1.00  0.00     0.242 C 
ATOM     17  H   UNL     1      -7.085  -2.616  -0.570  1.00  0.00     0.164 HD
ATOM     18  O   UNL     1      -8.245  -1.098   0.442  1.00  0.00    -0.273 OA
BRANCH  16  19
ATOM     19  C   UNL     1      -6.420   0.378   0.929  1.00  0.00     0.168 C 
ATOM     20  C   UNL     1      -6.945   1.628   0.211  1.00  0.00     0.041 C 
BRANCH  19  21
ATOM     21  N   UNL     1      -5.013   0.565   1.265  1.00  0.00    -0.343 N 
ATOM     22  C   UNL     1      -4.401   0.572   2.487  1.00  0.00     0.240 C 
ATOM     23  H   UNL     1      -4.415   0.708   0.497  1.00  0.00     0.164 HD
ATOM     24  O   UNL     1      -3.164   0.596   2.492  1.00  0.00    -0.273 OA
BRANCH  22  25
ATOM     25  C   UNL     1      -5.179   0.546   3.809  1.00  0.00     0.219 C 
BRANCH  25  26
ATOM     26  N   UNL     1      -5.819   1.827   3.993  1.00  0.00    -0.312 N 
ATOM     27  C   UNL     1      -7.158   2.044   3.892  1.00  0.00     0.407 C 
ATOM     28  H   UNL     1      -5.245   2.599   4.206  1.00  0.00     0.167 HD
ATOM     29  O   UNL     1      -7.602   3.171   3.728  1.00  0.00    -0.225 OA
BRANCH  27  30
ATOM     30  O   UNL     1      -7.878   0.898   3.959  1.00  0.00    -0.445 OA
BRANCH  30  31
ATOM     31  C   UNL     1      -9.304   1.023   3.874  1.00  0.00     0.270 C 
BRANCH  31  32
ATOM     32  C   UNL     1      -9.814   1.604   5.164  1.00  0.00    -0.011 A 
ATOM     33  C   UNL     1     -10.191   2.952   5.216  1.00  0.00     0.007 A 
ATOM     34  C   UNL     1      -9.747   0.862   6.350  1.00  0.00     0.007 A 
ATOM     35  C   UNL     1     -10.438   3.567   6.439  1.00  0.00     0.000 A 
ATOM     36  C   UNL     1     -10.008   1.477   7.574  1.00  0.00     0.000 A 
ATOM     37  C   UNL     1     -10.337   2.832   7.618  1.00  0.00     0.000 A 
ENDBRANCH  31  32
ENDBRANCH  30  31
ENDBRANCH  27  30
ENDBRANCH  25  26
ENDBRANCH  22  25
ENDBRANCH  19  21
ENDBRANCH  16  19
ENDBRANCH  14  15
BRANCH  14  38
ATOM     38  C   UNL     1      -4.161  -1.086  -1.412  1.00  0.00     0.015 C 
ATOM     39  C   UNL     1      -2.954  -1.492  -2.271  1.00  0.00     0.010 C 
ATOM     40  C   UNL     1      -4.702   0.208  -2.046  1.00  0.00     0.010 C 
ENDBRANCH  14  38
ENDBRANCH  11  14
ENDBRANCH   5  10
ENDBRANCH   1   5
BRANCH   3  41
ATOM     41  C   UNL     1      -2.249  -3.284   1.818  1.00  0.00     0.116 C 
BRANCH  41  42
ATOM     42  C   UNL     1      -1.247  -2.940   0.731  1.00  0.00     0.021 C 
BRANCH  42  43
ATOM     43  C   UNL     1      -0.715  -1.506   0.756  1.00  0.00     0.002 C 
BRANCH  43  44
ATOM     44  C   UNL     1      -0.003  -1.098   2.048  1.00  0.00     0.002 C 
BRANCH  44  45
ATOM     45  C   UNL     1       1.105  -2.042   2.515  1.00  0.00     0.021 C 
BRANCH  45  46
ATOM     46  C   UNL     1       2.155  -2.387   1.466  1.00  0.00     0.116 C 
BRANCH  46  47
ATOM     47  N   UNL     1       2.940  -1.239   1.050  1.00  0.00    -0.352 N 
ATOM     48  C   UNL     1       4.298  -1.173   0.842  1.00  0.00     0.251 C 
ATOM     49  H   UNL     1       2.439  -0.406   0.898  1.00  0.00     0.163 HD
ATOM     50  O   UNL     1       4.840  -0.099   0.603  1.00  0.00    -0.269 OA
BRANCH  48  51
ATOM     51  C   UNL     1       5.103  -2.409   0.947  1.00  0.00     0.039 A 
ATOM     52  C   UNL     1       6.223  -2.416   1.781  1.00  0.00     0.014 A 
ATOM     53  C   UNL     1       4.731  -3.566   0.253  1.00  0.00     0.014 A 
ATOM     54  C   UNL     1       6.940  -3.601   1.964  1.00  0.00     0.010 A 
ATOM     55  C   UNL     1       5.412  -4.759   0.485  1.00  0.00     0.010 A 
ATOM     56  C   UNL     1       6.524  -4.789   1.340  1.00  0.00    -0.014 A 
BRANCH  56  57
ATOM     57  C   UNL     1       7.250  -6.067   1.556  1.00  0.00     0.031 A 
ATOM     58  C   UNL     1       7.969  -6.724   0.409  1.00  0.00     0.074 A 
ATOM     59  C   UNL     1       7.221  -6.663   2.765  1.00  0.00     0.049 A 
ATOM     60  N   UNL     1       8.592  -7.874   0.377  1.00  0.00    -0.248 NA
ATOM     61  C   UNL     1       7.967  -6.006  -0.876  1.00  0.00     0.031 C 
ATOM     62  C   UNL     1       6.529  -6.148   3.951  1.00  0.00     0.029 A 
ATOM     63  N   UNL     1       7.781  -7.840   3.196  1.00  0.00    -0.354 N 
ATOM     64  C   UNL     1       9.044  -8.023  -0.930  1.00  0.00     0.074 A 
ATOM     65  C   UNL     1       8.583  -6.869  -1.671  1.00  0.00     0.031 C 
ATOM     66  C   UNL     1       6.720  -6.997   4.975  1.00  0.00     0.029 A 
ATOM     67  C   UNL     1       7.518  -8.129   4.515  1.00  0.00     0.049 A 
ATOM     68  H   UNL     1       8.321  -8.423   2.615  1.00  0.00     0.167 HD
ATOM     69  C   UNL     1       9.794  -9.017  -1.461  1.00  0.00     0.031 A 
ATOM     70  C   UNL     1       7.873  -9.189   5.267  1.00  0.00     0.031 A 
ATOM     71  C   UNL     1      10.270 -10.155  -0.721  1.00  0.00     0.049 A 
ATOM     72  C   UNL     1       8.713 -10.278   4.654  1.00  0.00     0.074 A 
ATOM     73  C   UNL     1      11.062 -11.200  -1.164  1.00  0.00     0.029 A 
ATOM     74  N   UNL     1      10.010 -10.391   0.620  1.00  0.00    -0.354 N 
ATOM     75  N   UNL     1       9.162 -10.378   3.426  1.00  0.00    -0.248 NA
ATOM     76  C   UNL     1       9.107 -11.388   5.533  1.00  0.00     0.031 C 
ATOM     77  C   UNL     1      11.256 -12.084  -0.098  1.00  0.00     0.029 A 
ATOM     78  C   UNL     1      10.623 -11.565   1.020  1.00  0.00     0.049 A 
ATOM     79  H   UNL     1       9.469  -9.809   1.202  1.00  0.00     0.167 HD
ATOM     80  C   UNL     1       9.915 -11.547   3.394  1.00  0.00     0.074 A 
ATOM     81  C   UNL     1       9.873 -12.111   4.727  1.00  0.00     0.031 C 
ATOM     82  C   UNL     1      10.582 -12.104   2.354  1.00  0.00     0.031 A 
BRANCH  69  83
ATOM     83  C   UNL     1      10.162  -8.910  -2.916  1.00  0.00    -0.014 A 
ATOM     84  C   UNL     1      11.111  -7.968  -3.350  1.00  0.00     0.010 A 
ATOM     85  C   UNL     1       9.595  -9.793  -3.852  1.00  0.00     0.010 A 
ATOM     86  C   UNL     1      11.465  -7.889  -4.698  1.00  0.00     0.020 A 
ATOM     87  C   UNL     1       9.965  -9.735  -5.199  1.00  0.00     0.020 A 
ATOM     88  C   UNL     1      10.888  -8.773  -5.615  1.00  0.00     0.054 A 
BRANCH  88  89
ATOM     89  S   UNL     1      11.396  -8.674  -7.354  1.00  0.00     0.124 S 
ATOM     90  O   UNL     1      10.709  -7.464  -7.799  1.00  0.00    -0.237 OA
ATOM     91  O   UNL     1      12.850  -8.571  -7.259  1.00  0.00    -0.237 OA
ATOM     92  O   UNL     1      10.899  -9.920  -7.931  1.00  0.00    -0.744 OA
ENDBRANCH  88  89
ENDBRANCH  69  83
BRANCH  70  93
ATOM     93  C   UNL     1       7.441  -9.279   6.689  1.00  0.00    -0.014 A 
ATOM     94  C   UNL     1       8.374  -9.130   7.730  1.00  0.00     0.010 A 
ATOM     95  C   UNL     1       6.096  -9.537   7.007  1.00  0.00     0.010 A 
ATOM     96  C   UNL     1       7.977  -9.273   9.063  1.00  0.00     0.020 A 
ATOM     97  C   UNL     1       5.690  -9.653   8.340  1.00  0.00     0.020 A 
ATOM     98  C   UNL     1       6.637  -9.539   9.359  1.00  0.00     0.054 A 
BRANCH  98  99
ATOM     99  S   UNL     1       6.134  -9.699  11.095  1.00  0.00     0.124 S 
ATOM    100  O   UNL     1       6.596 -11.045  11.420  1.00  0.00    -0.237 OA
ATOM    101  O   UNL     1       6.859  -8.607  11.740  1.00  0.00    -0.237 OA
ATOM    102  O   UNL     1       4.684  -9.528  11.044  1.00  0.00    -0.744 OA
ENDBRANCH  98  99
ENDBRANCH  70  93
BRANCH  82 103
ATOM    103  C   UNL     1      11.360 -13.363   2.624  1.00  0.00    -0.014 A 
ATOM    104  C   UNL     1      10.711 -14.596   2.802  1.00  0.00     0.010 A 
ATOM    105  C   UNL     1      12.766 -13.316   2.641  1.00  0.00     0.010 A 
ATOM    106  C   UNL     1      11.455 -15.758   3.023  1.00  0.00     0.020 A 
ATOM    107  C   UNL     1      13.514 -14.479   2.838  1.00  0.00     0.020 A 
ATOM    108  C   UNL     1      12.852 -15.692   3.041  1.00  0.00     0.054 A 
BRANCH 108 109
ATOM    109  S   UNL     1      13.798 -17.221   3.283  1.00  0.00     0.124 S 
ATOM    110  O   UNL     1      13.645 -17.448   4.717  1.00  0.00    -0.237 OA
ATOM    111  O   UNL     1      13.102 -18.171   2.418  1.00  0.00    -0.237 OA
ATOM    112  O   UNL     1      15.147 -16.865   2.847  1.00  0.00    -0.744 OA
ENDBRANCH 108 109
ENDBRANCH  82 103
ENDBRANCH  56  57
ENDBRANCH  48  51
ENDBRANCH  46  47
ENDBRANCH  45  46
ENDBRANCH  44  45
ENDBRANCH  43  44
ENDBRANCH  42  43
ENDBRANCH  41  42
ENDBRANCH   3  41
TORSDOF 29
