REMARK SMILES COc1cc(/C=C/C(=O)NCCCCCCNC(=O)c2ccc(-c3c4nc(c(-c5ccc(S(=O)(=O)[O-])cc5)c5ccc([nH]5)c(-c5ccc(S(=O)(=O)[O-])cc5)c5nc(c(-c6ccc(S(=O)(=O)[O-])cc6)c6ccc3[nH]6)C=C5)C=C4)cc2)cc(OC)c1O
REMARK SMILES IDX 14 1 13 2 12 3 11 4 10 5 8 6 9 7 7 9 6 10 5 11 3 12 4 13
REMARK SMILES IDX 84 14 81 15 80 16 2 17 1 18 85 19 82 21 83 22 15 23 16 24
REMARK SMILES IDX 17 25 18 26 19 28 20 29 21 30 79 31 22 32 78 33 23 34 24 35
REMARK SMILES IDX 25 36 72 37 26 38 77 39 71 40 73 41 27 42 76 43 70 44 69 45
REMARK SMILES IDX 28 47 58 48 39 49 57 50 40 51 43 52 56 53 74 54 41 55 42 56
REMARK SMILES IDX 55 58 75 59 44 60 29 61 30 62 38 63 31 64 37 65 32 66 33 67
REMARK SMILES IDX 34 68 35 69 36 70 59 71 60 72 68 73 61 74 67 75 62 76 63 77
REMARK SMILES IDX 64 78 65 79 66 80 45 81 46 82 54 83 47 84 53 85 48 86 49 87
REMARK SMILES IDX 50 88 51 89 52 90
REMARK H PARENT 10 8 85 20 17 27 73 46 43 57
REMARK Flexibility Score: inf
ROOT
ATOM      1  C   UNL     1      -1.293  -7.333   9.196  1.00  0.00     0.002 C 
ENDROOT
BRANCH   1   2
ATOM      2  C   UNL     1      -0.232  -6.227   9.138  1.00  0.00     0.002 C 
BRANCH   2   3
ATOM      3  C   UNL     1       0.059  -5.688   7.730  1.00  0.00     0.021 C 
BRANCH   3   4
ATOM      4  C   UNL     1      -1.157  -5.036   7.070  1.00  0.00     0.116 C 
BRANCH   4   5
ATOM      5  N   UNL     1      -1.357  -3.703   7.607  1.00  0.00    -0.353 N 
ATOM      6  C   UNL     1      -1.231  -2.476   7.043  1.00  0.00     0.243 C 
ATOM      7  O   UNL     1      -1.482  -1.476   7.715  1.00  0.00    -0.270 OA
ATOM      8  H   UNL     1      -1.635  -3.686   8.552  1.00  0.00     0.163 HD
BRANCH   6   9
ATOM      9  C   UNL     1      -0.898  -2.309   5.610  1.00  0.00     0.072 C 
ATOM     10  C   UNL     1       0.037  -2.987   4.928  1.00  0.00     0.014 C 
BRANCH  10  11
ATOM     11  C   UNL     1       0.323  -2.772   3.502  1.00  0.00    -0.018 A 
ATOM     12  C   UNL     1       0.697  -1.308   1.584  1.00  0.00     0.165 A 
ATOM     13  C   UNL     1       0.340  -1.500   2.927  1.00  0.00     0.058 A 
ATOM     14  C   UNL     1       1.059  -2.420   0.806  1.00  0.00     0.200 A 
ATOM     15  C   UNL     1       1.030  -3.709   1.358  1.00  0.00     0.165 A 
ATOM     16  C   UNL     1       0.662  -3.867   2.703  1.00  0.00     0.058 A 
BRANCH  12  17
ATOM     17  O   UNL     1       0.673   0.015   1.229  1.00  0.00    -0.493 OA
ATOM     18  C   UNL     1       0.798   0.373  -0.137  1.00  0.00     0.278 C 
ENDBRANCH  12  17
BRANCH  14  19
ATOM     19  O   UNL     1       1.508  -2.242  -0.473  1.00  0.00    -0.502 OA
ATOM     20  H   UNL     1       1.530  -1.383  -0.846  1.00  0.00     0.293 HD
ENDBRANCH  14  19
BRANCH  15  21
ATOM     21  O   UNL     1       1.360  -4.902   0.771  1.00  0.00    -0.493 OA
ATOM     22  C   UNL     1       1.780  -4.918  -0.584  1.00  0.00     0.278 C 
ENDBRANCH  15  21
ENDBRANCH  10  11
ENDBRANCH   6   9
ENDBRANCH   4   5
ENDBRANCH   3   4
ENDBRANCH   2   3
ENDBRANCH   1   2
BRANCH   1  23
ATOM     23  C   UNL     1      -1.023  -8.531   8.282  1.00  0.00     0.021 C 
BRANCH  23  24
ATOM     24  C   UNL     1       0.280  -9.264   8.586  1.00  0.00     0.116 C 
BRANCH  24  25
ATOM     25  N   UNL     1       0.257  -9.868   9.911  1.00  0.00    -0.352 N 
ATOM     26  C   UNL     1       0.322 -11.196  10.260  1.00  0.00     0.251 C 
ATOM     27  H   UNL     1       0.185  -9.236  10.662  1.00  0.00     0.163 HD
ATOM     28  O   UNL     1       0.040 -11.552  11.396  1.00  0.00    -0.269 OA
BRANCH  26  29
ATOM     29  C   UNL     1       0.722 -12.190   9.242  1.00  0.00     0.039 A 
ATOM     30  C   UNL     1      -0.043 -13.346   9.079  1.00  0.00     0.014 A 
ATOM     31  C   UNL     1       1.841 -11.960   8.437  1.00  0.00     0.014 A 
ATOM     32  C   UNL     1       0.268 -14.236   8.049  1.00  0.00     0.010 A 
ATOM     33  C   UNL     1       2.108 -12.813   7.371  1.00  0.00     0.010 A 
ATOM     34  C   UNL     1       1.317 -13.952   7.159  1.00  0.00    -0.014 A 
BRANCH  34  35
ATOM     35  C   UNL     1       1.578 -14.802   5.970  1.00  0.00     0.031 A 
ATOM     36  C   UNL     1       2.881 -15.538   5.837  1.00  0.00     0.074 A 
ATOM     37  C   UNL     1       0.676 -14.832   4.969  1.00  0.00     0.049 A 
ATOM     38  N   UNL     1       3.331 -16.240   4.829  1.00  0.00    -0.248 NA
ATOM     39  C   UNL     1       3.809 -15.458   6.977  1.00  0.00     0.031 C 
ATOM     40  C   UNL     1      -0.614 -14.136   4.970  1.00  0.00     0.029 A 
ATOM     41  N   UNL     1       0.711 -15.462   3.750  1.00  0.00    -0.354 N 
ATOM     42  C   UNL     1       4.596 -16.674   5.205  1.00  0.00     0.074 A 
ATOM     43  C   UNL     1       4.861 -16.120   6.516  1.00  0.00     0.031 C 
ATOM     44  C   UNL     1      -1.252 -14.392   3.817  1.00  0.00     0.029 A 
ATOM     45  C   UNL     1      -0.399 -15.223   2.973  1.00  0.00     0.049 A 
ATOM     46  H   UNL     1       1.459 -16.031   3.458  1.00  0.00     0.167 HD
ATOM     47  C   UNL     1       5.453 -17.474   4.526  1.00  0.00     0.031 A 
ATOM     48  C   UNL     1      -0.691 -15.608   1.716  1.00  0.00     0.031 A 
ATOM     49  C   UNL     1       5.184 -18.016   3.220  1.00  0.00     0.049 A 
ATOM     50  C   UNL     1       0.301 -16.449   0.960  1.00  0.00     0.074 A 
ATOM     51  C   UNL     1       5.965 -18.878   2.471  1.00  0.00     0.029 A 
ATOM     52  N   UNL     1       4.054 -17.741   2.464  1.00  0.00    -0.354 N 
ATOM     53  N   UNL     1       1.462 -16.911   1.361  1.00  0.00    -0.248 NA
ATOM     54  C   UNL     1      -0.055 -16.822  -0.416  1.00  0.00     0.031 C 
ATOM     55  C   UNL     1       5.339 -19.070   1.235  1.00  0.00     0.029 A 
ATOM     56  C   UNL     1       4.136 -18.382   1.240  1.00  0.00     0.049 A 
ATOM     57  H   UNL     1       3.304 -17.173   2.755  1.00  0.00     0.167 HD
ATOM     58  C   UNL     1       1.966 -17.643   0.293  1.00  0.00     0.074 A 
ATOM     59  C   UNL     1       0.977 -17.580  -0.763  1.00  0.00     0.031 C 
ATOM     60  C   UNL     1       3.145 -18.306   0.195  1.00  0.00     0.031 A 
BRANCH  47  61
ATOM     61  C   UNL     1       6.773 -17.797   5.177  1.00  0.00    -0.014 A 
ATOM     62  C   UNL     1       6.841 -18.622   6.314  1.00  0.00     0.010 A 
ATOM     63  C   UNL     1       7.967 -17.304   4.618  1.00  0.00     0.010 A 
ATOM     64  C   UNL     1       8.074 -18.914   6.905  1.00  0.00     0.020 A 
ATOM     65  C   UNL     1       9.204 -17.618   5.188  1.00  0.00     0.020 A 
ATOM     66  C   UNL     1       9.248 -18.408   6.339  1.00  0.00     0.054 A 
BRANCH  66  67
ATOM     67  S   UNL     1      10.833 -18.819   7.117  1.00  0.00     0.124 S 
ATOM     68  O   UNL     1      10.776 -18.034   8.348  1.00  0.00    -0.237 OA
ATOM     69  O   UNL     1      10.738 -20.266   7.291  1.00  0.00    -0.237 OA
ATOM     70  O   UNL     1      11.826 -18.375   6.142  1.00  0.00    -0.744 OA
ENDBRANCH  66  67
ENDBRANCH  47  61
BRANCH  48  71
ATOM     71  C   UNL     1      -1.976 -15.190   1.090  1.00  0.00    -0.014 A 
ATOM     72  C   UNL     1      -2.983 -16.136   0.828  1.00  0.00     0.010 A 
ATOM     73  C   UNL     1      -2.207 -13.839   0.767  1.00  0.00     0.010 A 
ATOM     74  C   UNL     1      -4.190 -15.741   0.244  1.00  0.00     0.020 A 
ATOM     75  C   UNL     1      -3.425 -13.437   0.212  1.00  0.00     0.020 A 
ATOM     76  C   UNL     1      -4.405 -14.393  -0.056  1.00  0.00     0.054 A 
BRANCH  76  77
ATOM     77  S   UNL     1      -6.002 -13.899  -0.762  1.00  0.00     0.124 S 
ATOM     78  O   UNL     1      -5.915 -14.437  -2.116  1.00  0.00    -0.237 OA
ATOM     79  O   UNL     1      -6.955 -14.564   0.124  1.00  0.00    -0.237 OA
ATOM     80  O   UNL     1      -5.983 -12.441  -0.663  1.00  0.00    -0.744 OA
ENDBRANCH  76  77
ENDBRANCH  48  71
BRANCH  60  81
ATOM     81  C   UNL     1       3.434 -19.031  -1.092  1.00  0.00    -0.014 A 
ATOM     82  C   UNL     1       3.762 -18.325  -2.263  1.00  0.00     0.010 A 
ATOM     83  C   UNL     1       3.461 -20.438  -1.109  1.00  0.00     0.010 A 
ATOM     84  C   UNL     1       4.103 -19.014  -3.430  1.00  0.00     0.020 A 
ATOM     85  C   UNL     1       3.830 -21.129  -2.266  1.00  0.00     0.020 A 
ATOM     86  C   UNL     1       4.143 -20.411  -3.421  1.00  0.00     0.054 A 
BRANCH  86  87
ATOM     87  S   UNL     1       4.668 -21.275  -4.928  1.00  0.00     0.124 S 
ATOM     88  O   UNL     1       3.529 -21.059  -5.816  1.00  0.00    -0.237 OA
ATOM     89  O   UNL     1       5.892 -20.566  -5.291  1.00  0.00    -0.237 OA
ATOM     90  O   UNL     1       4.862 -22.655  -4.488  1.00  0.00    -0.744 OA
ENDBRANCH  86  87
ENDBRANCH  60  81
ENDBRANCH  34  35
ENDBRANCH  26  29
ENDBRANCH  24  25
ENDBRANCH  23  24
ENDBRANCH   1  23
TORSDOF 20
