REMARK SMILES CC(C)=C1[C@H]2CC[C@@H]1[C@@H](C(=O)Nc1cc(C)cc(C)c1)[C@@H]2C(=O)NCCCCCCNC(=O)c1ccc(-c2c3nc(c(-c4ccc(S(=O)(=O)[O-])cc4)c4ccc([nH]4)c(-c4ccc(S(=O)(=O)[O-])cc4)c4nc(c(-c5ccc(S(=O)(=O)[O-])cc5)c5ccc2[nH]5)C=C4)C=C3)cc1
REMARK SMILES IDX 28 1 27 2 26 3 25 4 24 5 22 6 23 7 21 9 1 10 2 11 3 12 4 13
REMARK SMILES IDX 5 14 8 15 6 16 7 17 9 18 10 19 11 20 12 21 13 23 14 24 20 25
REMARK SMILES IDX 15 26 18 27 16 28 17 29 19 30 29 31 30 32 31 33 32 34 33 36
REMARK SMILES IDX 34 37 35 38 93 39 36 40 92 41 37 42 38 43 39 44 86 45 40 46
REMARK SMILES IDX 91 47 85 48 87 49 41 50 90 51 84 52 83 53 42 55 72 56 53 57
REMARK SMILES IDX 71 58 54 59 57 60 70 61 88 62 55 63 56 64 69 66 89 67 58 68
REMARK SMILES IDX 43 69 44 70 52 71 45 72 51 73 46 74 47 75 48 76 49 77 50 78
REMARK SMILES IDX 73 79 74 80 82 81 75 82 81 83 76 84 77 85 78 86 79 87 80 88
REMARK SMILES IDX 59 89 60 90 68 91 61 92 67 93 62 94 63 95 64 96 65 97 66 98
REMARK H PARENT 24 8 12 22 31 35 87 54 57 65
REMARK Flexibility Score: inf
ROOT
ATOM      1  C   UNL     1      -2.159  -5.452  -6.639  1.00  0.00     0.002 C 
ENDROOT
BRANCH   1   2
ATOM      2  C   UNL     1      -0.735  -5.266  -7.179  1.00  0.00     0.002 C 
BRANCH   2   3
ATOM      3  C   UNL     1       0.182  -4.311  -6.425  1.00  0.00     0.021 C 
BRANCH   3   4
ATOM      4  C   UNL     1       0.182  -4.424  -4.915  1.00  0.00     0.116 C 
BRANCH   4   5
ATOM      5  N   UNL     1       1.114  -5.263  -4.248  1.00  0.00    -0.356 N 
ATOM      6  C   UNL     1       1.481  -5.135  -2.942  1.00  0.00     0.224 C 
ATOM      7  O   UNL     1       2.145  -6.072  -2.476  1.00  0.00    -0.275 OA
ATOM      8  H   UNL     1       1.525  -5.991  -4.768  1.00  0.00     0.163 HD
BRANCH   6   9
ATOM      9  C   UNL     1       1.243  -3.878  -2.058  1.00  0.00     0.098 C 
ATOM     10  C   UNL     1       0.406   0.435  -0.113  1.00  0.00     0.039 C 
ATOM     11  C   UNL     1      -0.106  -0.975  -0.263  1.00  0.00    -0.077 C 
ATOM     12  C   UNL     1      -1.376  -1.284   0.473  1.00  0.00     0.039 C 
ATOM     13  C   UNL     1       0.435  -1.819  -1.164  1.00  0.00    -0.064 C 
ATOM     14  C   UNL     1      -0.090  -3.116  -1.775  1.00  0.00     0.028 C 
ATOM     15  C   UNL     1       1.438  -1.469  -2.222  1.00  0.00     0.028 C 
ATOM     16  C   UNL     1      -0.735  -2.325  -2.916  1.00  0.00     0.009 C 
ATOM     17  C   UNL     1       0.384  -1.334  -3.347  1.00  0.00     0.009 C 
ATOM     18  C   UNL     1       2.260  -2.767  -2.335  1.00  0.00     0.099 C 
BRANCH  18  19
ATOM     19  C   UNL     1       3.553  -2.707  -1.482  1.00  0.00     0.228 C 
ATOM     20  O   UNL     1       4.635  -2.649  -2.090  1.00  0.00    -0.274 OA
ATOM     21  N   UNL     1       3.636  -2.530  -0.128  1.00  0.00    -0.326 N 
ATOM     22  H   UNL     1       4.530  -2.252   0.176  1.00  0.00     0.169 HD
BRANCH  21  23
ATOM     23  C   UNL     1       2.709  -2.663   0.913  1.00  0.00     0.041 A 
ATOM     24  C   UNL     1       1.990  -3.835   1.125  1.00  0.00     0.029 A 
ATOM     25  C   UNL     1       2.529  -1.588   1.788  1.00  0.00     0.029 A 
ATOM     26  C   UNL     1       0.921  -3.869   2.027  1.00  0.00    -0.049 A 
ATOM     27  C   UNL     1       1.496  -1.615   2.738  1.00  0.00    -0.049 A 
ATOM     28  C   UNL     1      -0.039  -5.022   2.020  1.00  0.00     0.044 C 
ATOM     29  C   UNL     1       0.677  -2.749   2.828  1.00  0.00     0.007 A 
ATOM     30  C   UNL     1       1.155  -0.391   3.538  1.00  0.00     0.044 C 
ENDBRANCH  21  23
ENDBRANCH  18  19
ENDBRANCH   6   9
ENDBRANCH   4   5
ENDBRANCH   3   4
ENDBRANCH   2   3
ENDBRANCH   1   2
BRANCH   1  31
ATOM     31  C   UNL     1      -2.999  -4.197  -6.370  1.00  0.00     0.021 C 
BRANCH  31  32
ATOM     32  C   UNL     1      -3.131  -3.197  -7.515  1.00  0.00     0.116 C 
BRANCH  32  33
ATOM     33  N   UNL     1      -3.529  -3.821  -8.765  1.00  0.00    -0.352 N 
ATOM     34  C   UNL     1      -4.555  -3.523  -9.618  1.00  0.00     0.251 C 
ATOM     35  H   UNL     1      -2.968  -4.581  -9.043  1.00  0.00     0.163 HD
ATOM     36  O   UNL     1      -4.799  -4.291 -10.557  1.00  0.00    -0.269 OA
BRANCH  34  37
ATOM     37  C   UNL     1      -5.386  -2.317  -9.426  1.00  0.00     0.039 A 
ATOM     38  C   UNL     1      -6.769  -2.423  -9.603  1.00  0.00     0.014 A 
ATOM     39  C   UNL     1      -4.816  -1.080  -9.111  1.00  0.00     0.014 A 
ATOM     40  C   UNL     1      -7.584  -1.305  -9.410  1.00  0.00     0.010 A 
ATOM     41  C   UNL     1      -5.636   0.019  -8.855  1.00  0.00     0.010 A 
ATOM     42  C   UNL     1      -7.028  -0.082  -9.002  1.00  0.00    -0.014 A 
BRANCH  42  43
ATOM     43  C   UNL     1      -7.891   1.091  -8.711  1.00  0.00     0.031 A 
ATOM     44  C   UNL     1      -7.799   2.335  -9.552  1.00  0.00     0.074 A 
ATOM     45  C   UNL     1      -8.721   1.053  -7.649  1.00  0.00     0.049 A 
ATOM     46  N   UNL     1      -8.441   3.468  -9.419  1.00  0.00    -0.248 NA
ATOM     47  C   UNL     1      -6.847   2.312 -10.674  1.00  0.00     0.031 C 
ATOM     48  C   UNL     1      -8.873  -0.082  -6.735  1.00  0.00     0.029 A 
ATOM     49  N   UNL     1      -9.589   1.994  -7.155  1.00  0.00    -0.354 N 
ATOM     50  C   UNL     1      -7.962   4.296 -10.428  1.00  0.00     0.074 A 
ATOM     51  C   UNL     1      -6.943   3.551 -11.135  1.00  0.00     0.031 C 
ATOM     52  C   UNL     1      -9.796   0.220  -5.808  1.00  0.00     0.029 A 
ATOM     53  C   UNL     1     -10.271   1.582  -6.034  1.00  0.00     0.049 A 
ATOM     54  H   UNL     1      -9.711   2.881  -7.564  1.00  0.00     0.167 HD
ATOM     55  C   UNL     1      -8.346   5.556 -10.747  1.00  0.00     0.031 A 
ATOM     56  C   UNL     1     -11.171   2.227  -5.268  1.00  0.00     0.031 A 
ATOM     57  C   UNL     1      -9.364   6.290 -10.042  1.00  0.00     0.049 A 
ATOM     58  C   UNL     1     -11.572   3.629  -5.633  1.00  0.00     0.074 A 
ATOM     59  C   UNL     1      -9.865   7.550 -10.321  1.00  0.00     0.029 A 
ATOM     60  N   UNL     1     -10.033   5.836  -8.915  1.00  0.00    -0.354 N 
ATOM     61  N   UNL     1     -11.156   4.370  -6.632  1.00  0.00    -0.248 NA
ATOM     62  C   UNL     1     -12.573   4.278  -4.775  1.00  0.00     0.031 C 
ATOM     63  C   UNL     1     -10.796   7.880  -9.331  1.00  0.00     0.029 A 
ATOM     64  C   UNL     1     -10.921   6.801  -8.470  1.00  0.00     0.049 A 
ATOM     65  H   UNL     1      -9.897   4.957  -8.494  1.00  0.00     0.167 HD
ATOM     66  C   UNL     1     -11.861   5.564  -6.536  1.00  0.00     0.074 A 
ATOM     67  C   UNL     1     -12.742   5.439  -5.393  1.00  0.00     0.031 C 
ATOM     68  C   UNL     1     -11.786   6.665  -7.325  1.00  0.00     0.031 A 
BRANCH  55  69
ATOM     69  C   UNL     1      -7.652   6.224 -11.906  1.00  0.00    -0.014 A 
ATOM     70  C   UNL     1      -7.857   5.788 -13.228  1.00  0.00     0.010 A 
ATOM     71  C   UNL     1      -6.813   7.330 -11.675  1.00  0.00     0.010 A 
ATOM     72  C   UNL     1      -7.200   6.413 -14.291  1.00  0.00     0.020 A 
ATOM     73  C   UNL     1      -6.178   7.978 -12.739  1.00  0.00     0.020 A 
ATOM     74  C   UNL     1      -6.361   7.503 -14.039  1.00  0.00     0.054 A 
BRANCH  74  75
ATOM     75  S   UNL     1      -5.534   8.305 -15.440  1.00  0.00     0.124 S 
ATOM     76  O   UNL     1      -4.522   7.314 -15.799  1.00  0.00    -0.237 OA
ATOM     77  O   UNL     1      -6.620   8.470 -16.402  1.00  0.00    -0.237 OA
ATOM     78  O   UNL     1      -5.014   9.547 -14.872  1.00  0.00    -0.744 OA
ENDBRANCH  74  75
ENDBRANCH  55  69
BRANCH  56  79
ATOM     79  C   UNL     1     -11.761   1.543  -4.084  1.00  0.00    -0.014 A 
ATOM     80  C   UNL     1     -13.107   1.138  -4.089  1.00  0.00     0.010 A 
ATOM     81  C   UNL     1     -10.970   1.273  -2.952  1.00  0.00     0.010 A 
ATOM     82  C   UNL     1     -13.655   0.487  -2.979  1.00  0.00     0.020 A 
ATOM     83  C   UNL     1     -11.507   0.598  -1.852  1.00  0.00     0.020 A 
ATOM     84  C   UNL     1     -12.850   0.218  -1.869  1.00  0.00     0.054 A 
BRANCH  84  85
ATOM     85  S   UNL     1     -13.566  -0.679  -0.465  1.00  0.00     0.124 S 
ATOM     86  O   UNL     1     -14.419   0.337   0.142  1.00  0.00    -0.237 OA
ATOM     87  O   UNL     1     -14.263  -1.784  -1.119  1.00  0.00    -0.237 OA
ATOM     88  O   UNL     1     -12.399  -1.070   0.323  1.00  0.00    -0.744 OA
ENDBRANCH  84  85
ENDBRANCH  56  79
BRANCH  68  89
ATOM     89  C   UNL     1     -12.700   7.816  -6.994  1.00  0.00    -0.014 A 
ATOM     90  C   UNL     1     -12.479   8.620  -5.862  1.00  0.00     0.010 A 
ATOM     91  C   UNL     1     -13.764   8.127  -7.859  1.00  0.00     0.010 A 
ATOM     92  C   UNL     1     -13.327   9.695  -5.583  1.00  0.00     0.020 A 
ATOM     93  C   UNL     1     -14.596   9.219  -7.600  1.00  0.00     0.020 A 
ATOM     94  C   UNL     1     -14.380   9.988  -6.455  1.00  0.00     0.054 A 
BRANCH  94  95
ATOM     95  S   UNL     1     -15.440  11.415  -6.094  1.00  0.00     0.124 S 
ATOM     96  O   UNL     1     -16.233  10.928  -4.968  1.00  0.00    -0.237 OA
ATOM     97  O   UNL     1     -14.472  12.461  -5.775  1.00  0.00    -0.237 OA
ATOM     98  O   UNL     1     -16.182  11.619  -7.336  1.00  0.00    -0.744 OA
ENDBRANCH  94  95
ENDBRANCH  68  89
ENDBRANCH  42  43
ENDBRANCH  34  37
ENDBRANCH  32  33
ENDBRANCH  31  32
ENDBRANCH   1  31
TORSDOF 18
