REMARK SMILES O=C(NCCCCCCNC(=O)[C@@H]1CCCCN1c1ccccc1[N+](=O)[O-])c1ccc(-c2c3nc(c(-c4ccc(S(=O)(=O)[O-])cc4)c4ccc([nH]4)c(-c4ccc(S(=O)(=O)[O-])cc4)c4nc(c(-c5ccc(S(=O)(=O)[O-])cc5)c5ccc2[nH]5)C=C4)C=C3)cc1
REMARK SMILES IDX 6 1 5 2 4 3 3 4 1 5 2 6 28 8 29 9 87 10 30 11 86 12 31 13
REMARK SMILES IDX 32 14 33 15 80 16 34 17 85 18 79 19 81 20 35 21 84 22 78 23
REMARK SMILES IDX 77 24 36 26 66 27 47 28 65 29 48 30 51 31 64 32 82 33 49 34
REMARK SMILES IDX 50 35 63 37 83 38 52 39 37 40 38 41 46 42 39 43 45 44 40 45
REMARK SMILES IDX 41 46 42 47 43 48 44 49 67 50 68 51 76 52 69 53 75 54 70 55
REMARK SMILES IDX 71 56 72 57 73 58 74 59 53 60 54 61 62 62 55 63 61 64 56 65
REMARK SMILES IDX 57 66 58 67 59 68 60 69 7 70 8 71 9 72 10 73 11 74 12 76
REMARK SMILES IDX 13 77 14 78 18 79 15 80 17 81 16 82 19 83 20 84 24 85 21 86
REMARK SMILES IDX 23 87 22 88 25 89 26 90 27 91
REMARK H PARENT 3 7 81 25 51 36 10 75
REMARK Flexibility Score: inf
ROOT
ATOM      1  C   UNL     1       4.158  -3.861   0.828  1.00  0.00     0.002 C 
ENDROOT
BRANCH   1   2
ATOM      2  C   UNL     1       4.730  -2.456   1.012  1.00  0.00     0.021 C 
BRANCH   2   3
ATOM      3  C   UNL     1       4.379  -1.441  -0.066  1.00  0.00     0.116 C 
BRANCH   3   4
ATOM      4  N   UNL     1       2.955  -1.172  -0.163  1.00  0.00    -0.352 N 
ATOM      5  O   UNL     1       1.058   0.039  -0.140  1.00  0.00    -0.269 OA
ATOM      6  C   UNL     1       2.288   0.030  -0.160  1.00  0.00     0.251 C 
ATOM      7  H   UNL     1       2.383  -1.969  -0.242  1.00  0.00     0.163 HD
BRANCH   6   8
ATOM      8  C   UNL     1       3.037   1.310  -0.149  1.00  0.00     0.039 A 
ATOM      9  C   UNL     1       4.170   1.494  -0.943  1.00  0.00     0.014 A 
ATOM     10  C   UNL     1       2.579   2.357   0.658  1.00  0.00     0.014 A 
ATOM     11  C   UNL     1       4.922   2.660  -0.824  1.00  0.00     0.010 A 
ATOM     12  C   UNL     1       3.284   3.565   0.706  1.00  0.00     0.010 A 
ATOM     13  C   UNL     1       4.477   3.718  -0.016  1.00  0.00    -0.014 A 
BRANCH  13  14
ATOM     14  C   UNL     1       5.230   5.000  -0.011  1.00  0.00     0.031 A 
ATOM     15  C   UNL     1       5.894   5.516   1.236  1.00  0.00     0.074 A 
ATOM     16  C   UNL     1       5.324   5.694  -1.163  1.00  0.00     0.049 A 
ATOM     17  N   UNL     1       6.599   6.608   1.398  1.00  0.00    -0.248 NA
ATOM     18  C   UNL     1       5.745   4.712   2.459  1.00  0.00     0.031 C 
ATOM     19  C   UNL     1       4.713   5.299  -2.436  1.00  0.00     0.029 A 
ATOM     20  N   UNL     1       5.977   6.863  -1.459  1.00  0.00    -0.354 N 
ATOM     21  C   UNL     1       6.963   6.633   2.740  1.00  0.00     0.074 A 
ATOM     22  C   UNL     1       6.379   5.459   3.354  1.00  0.00     0.031 C 
ATOM     23  C   UNL     1       5.063   6.180  -3.385  1.00  0.00     0.029 A 
ATOM     24  C   UNL     1       5.861   7.237  -2.777  1.00  0.00     0.049 A 
ATOM     25  H   UNL     1       6.481   7.383  -0.792  1.00  0.00     0.167 HD
ATOM     26  C   UNL     1       7.717   7.549   3.397  1.00  0.00     0.031 A 
ATOM     27  C   UNL     1       6.326   8.320  -3.428  1.00  0.00     0.031 A 
ATOM     28  C   UNL     1       8.290   8.719   2.779  1.00  0.00     0.049 A 
ATOM     29  C   UNL     1       7.128   9.336  -2.668  1.00  0.00     0.074 A 
ATOM     30  C   UNL     1       9.093   9.689   3.354  1.00  0.00     0.029 A 
ATOM     31  N   UNL     1       8.117   9.081   1.451  1.00  0.00    -0.354 N 
ATOM     32  N   UNL     1       7.488   9.323  -1.407  1.00  0.00    -0.248 NA
ATOM     33  C   UNL     1       7.586  10.512  -3.419  1.00  0.00     0.031 C 
ATOM     34  C   UNL     1       9.359  10.667   2.389  1.00  0.00     0.029 A 
ATOM     35  C   UNL     1       8.774  10.275   1.196  1.00  0.00     0.049 A 
ATOM     36  H   UNL     1       7.604   8.566   0.788  1.00  0.00     0.167 HD
ATOM     37  C   UNL     1       8.228  10.483  -1.216  1.00  0.00     0.074 A 
ATOM     38  C   UNL     1       8.283  11.161  -2.496  1.00  0.00     0.031 C 
ATOM     39  C   UNL     1       8.809  10.945  -0.081  1.00  0.00     0.031 A 
BRANCH  26  40
ATOM     40  C   UNL     1       7.941   7.342   4.874  1.00  0.00    -0.014 A 
ATOM     41  C   UNL     1       8.776   6.315   5.350  1.00  0.00     0.010 A 
ATOM     42  C   UNL     1       7.346   8.220   5.800  1.00  0.00     0.010 A 
ATOM     43  C   UNL     1       8.975   6.142   6.724  1.00  0.00     0.020 A 
ATOM     44  C   UNL     1       7.563   8.067   7.173  1.00  0.00     0.020 A 
ATOM     45  C   UNL     1       8.363   7.017   7.627  1.00  0.00     0.054 A 
BRANCH  45  46
ATOM     46  S   UNL     1       8.646   6.775   9.403  1.00  0.00     0.124 S 
ATOM     47  O   UNL     1       7.853   5.578   9.673  1.00  0.00    -0.237 OA
ATOM     48  O   UNL     1      10.094   6.597   9.476  1.00  0.00    -0.237 OA
ATOM     49  O   UNL     1       8.142   8.006  10.007  1.00  0.00    -0.744 OA
ENDBRANCH  45  46
ENDBRANCH  26  40
BRANCH  27  50
ATOM     50  C   UNL     1       6.024   8.495  -4.874  1.00  0.00    -0.014 A 
ATOM     51  C   UNL     1       7.037   8.373  -5.838  1.00  0.00     0.010 A 
ATOM     52  C   UNL     1       4.704   8.746  -5.294  1.00  0.00     0.010 A 
ATOM     53  C   UNL     1       6.739   8.509  -7.198  1.00  0.00     0.020 A 
ATOM     54  C   UNL     1       4.396   8.851  -6.652  1.00  0.00     0.020 A 
ATOM     55  C   UNL     1       5.419   8.742  -7.596  1.00  0.00     0.054 A 
BRANCH  55  56
ATOM     56  S   UNL     1       5.045   8.851  -9.367  1.00  0.00     0.124 S 
ATOM     57  O   UNL     1       5.578  10.166  -9.709  1.00  0.00    -0.237 OA
ATOM     58  O   UNL     1       5.773   7.710  -9.915  1.00  0.00    -0.237 OA
ATOM     59  O   UNL     1       3.589   8.733  -9.417  1.00  0.00    -0.744 OA
ENDBRANCH  55  56
ENDBRANCH  27  50
BRANCH  39  60
ATOM     60  C   UNL     1       9.573  12.238  -0.179  1.00  0.00    -0.014 A 
ATOM     61  C   UNL     1       8.908  13.467  -0.331  1.00  0.00     0.010 A 
ATOM     62  C   UNL     1      10.977  12.224  -0.082  1.00  0.00     0.010 A 
ATOM     63  C   UNL     1       9.635  14.657  -0.417  1.00  0.00     0.020 A 
ATOM     64  C   UNL     1      11.705  13.414  -0.139  1.00  0.00     0.020 A 
ATOM     65  C   UNL     1      11.030  14.623  -0.322  1.00  0.00     0.054 A 
BRANCH  65  66
ATOM     66  S   UNL     1      11.949  16.184  -0.398  1.00  0.00     0.124 S 
ATOM     67  O   UNL     1      11.861  16.520  -1.816  1.00  0.00    -0.237 OA
ATOM     68  O   UNL     1      11.189  17.049   0.501  1.00  0.00    -0.237 OA
ATOM     69  O   UNL     1      13.284  15.824   0.075  1.00  0.00    -0.744 OA
ENDBRANCH  65  66
ENDBRANCH  39  60
ENDBRANCH  13  14
ENDBRANCH   6   8
ENDBRANCH   3   4
ENDBRANCH   2   3
ENDBRANCH   1   2
BRANCH   1  70
ATOM     70  C   UNL     1       4.435  -4.551  -0.513  1.00  0.00     0.002 C 
BRANCH  70  71
ATOM     71  C   UNL     1       5.896  -4.638  -0.976  1.00  0.00     0.021 C 
BRANCH  71  72
ATOM     72  C   UNL     1       6.892  -5.168   0.047  1.00  0.00     0.116 C 
BRANCH  72  73
ATOM     73  N   UNL     1       6.620  -6.499   0.530  1.00  0.00    -0.354 N 
ATOM     74  C   UNL     1       7.459  -7.302   1.256  1.00  0.00     0.242 C 
ATOM     75  H   UNL     1       5.735  -6.872   0.313  1.00  0.00     0.163 HD
ATOM     76  O   UNL     1       6.949  -8.300   1.779  1.00  0.00    -0.273 OA
BRANCH  74  77
ATOM     77  C   UNL     1       8.990  -7.025   1.330  1.00  0.00     0.171 C 
ATOM     78  C   UNL     1       9.693  -8.230   1.992  1.00  0.00     0.035 C 
ATOM     79  N   UNL     1       9.447  -5.778   2.013  1.00  0.00    -0.354 N 
ATOM     80  C   UNL     1      11.210  -8.063   2.034  1.00  0.00     0.004 C 
ATOM     81  C   UNL     1      10.904  -5.568   2.035  1.00  0.00     0.117 C 
ATOM     82  C   UNL     1      11.591  -6.752   2.712  1.00  0.00     0.022 C 
BRANCH  79  83
ATOM     83  C   UNL     1       8.645  -4.918   2.742  1.00  0.00     0.116 A 
ATOM     84  C   UNL     1       7.797  -5.469   3.725  1.00  0.00     0.033 A 
ATOM     85  C   UNL     1       8.569  -3.507   2.564  1.00  0.00     0.292 A 
ATOM     86  C   UNL     1       6.896  -4.693   4.462  1.00  0.00     0.003 A 
ATOM     87  C   UNL     1       7.676  -2.725   3.334  1.00  0.00     0.088 A 
ATOM     88  C   UNL     1       6.835  -3.321   4.267  1.00  0.00     0.007 A 
BRANCH  85  89
ATOM     89  N   UNL     1       9.255  -2.791   1.462  1.00  0.00     0.064 N 
ATOM     90  O   UNL     1       9.242  -1.551   1.495  1.00  0.00    -0.258 OA
ATOM     91  O   UNL     1       9.749  -3.434   0.526  1.00  0.00    -0.258 OA
ENDBRANCH  85  89
ENDBRANCH  79  83
ENDBRANCH  74  77
ENDBRANCH  72  73
ENDBRANCH  71  72
ENDBRANCH  70  71
ENDBRANCH   1  70
TORSDOF 18
