REMARK SMILES CCN1C(=O)[C@@H](CC(=O)Nc2cccc(C(=O)NCCCCCCNC(=O)c3ccc(-c4c5nc(c(-c6ccc(S(=O)(=O)[O-])cc6)c6ccc([nH]6)c(-c6ccc(S(=O)(=O)[O-])cc6)c6nc(c(-c7ccc(S(=O)(=O)[O-])cc7)c7ccc4[nH]7)C=C6)C=C5)cc3)c2)S/C1=[NH+]\c1cc(Cl)c(O)c(Cl)c1
REMARK SMILES IDX 20 1 19 2 18 3 16 4 17 5 15 7 11 8 12 9 88 10 13 11 14 12
REMARK SMILES IDX 10 13 8 14 9 15 7 17 6 18 3 19 4 20 90 21 5 22 89 23 91 24
REMARK SMILES IDX 2 26 1 27 92 28 93 29 100 30 94 31 98 32 95 33 96 34 99 35
REMARK SMILES IDX 97 36 21 38 22 39 23 40 24 41 25 42 26 43 27 45 28 46 29 47
REMARK SMILES IDX 87 48 30 49 86 50 31 51 32 52 33 53 80 54 34 55 85 56 79 57
REMARK SMILES IDX 81 58 35 59 84 60 78 61 77 62 36 64 66 65 47 66 65 67 48 68
REMARK SMILES IDX 51 69 64 70 82 71 49 72 50 73 63 75 83 76 52 77 37 78 38 79
REMARK SMILES IDX 46 80 39 81 45 82 40 83 41 84 42 85 43 86 44 87 67 88 68 89
REMARK SMILES IDX 76 90 69 91 75 92 70 93 71 94 72 95 73 96 74 97 53 98 54 99
REMARK SMILES IDX 62 100 55 101 61 102 56 103 57 104 58 105 59 106 60 107
REMARK H PARENT 18 6 10 16 91 25 97 37 25 44 81 63 51 74
REMARK Flexibility Score: inf
ROOT
ATOM      1  C   UNL     1       3.756  -2.255  -1.207  1.00  0.00     0.021 C 
ENDROOT
BRANCH   1   2
ATOM      2  C   UNL     1       2.870  -3.412  -0.702  1.00  0.00     0.116 C 
BRANCH   2   3
ATOM      3  N   UNL     1       3.016  -3.870   0.660  1.00  0.00    -0.352 N 
ATOM      4  C   UNL     1       2.069  -4.309   1.574  1.00  0.00     0.251 C 
ATOM      5  O   UNL     1       2.490  -4.711   2.662  1.00  0.00    -0.269 OA
ATOM      6  H   UNL     1       3.941  -3.870   0.996  1.00  0.00     0.163 HD
BRANCH   4   7
ATOM      7  C   UNL     1       0.574  -4.274   1.380  1.00  0.00     0.041 A 
ATOM      8  C   UNL     1      -1.530  -4.448   0.133  1.00  0.00     0.041 A 
ATOM      9  C   UNL     1      -2.233  -4.135   1.308  1.00  0.00     0.026 A 
ATOM     10  C   UNL     1      -0.124  -4.589   0.196  1.00  0.00     0.040 A 
ATOM     11  C   UNL     1      -1.563  -3.882   2.498  1.00  0.00     0.003 A 
ATOM     12  C   UNL     1      -0.171  -3.938   2.527  1.00  0.00     0.014 A 
BRANCH   8  13
ATOM     13  N   UNL     1      -2.345  -4.411  -1.024  1.00  0.00    -0.326 N 
ATOM     14  C   UNL     1      -2.127  -4.211  -2.349  1.00  0.00     0.226 C 
ATOM     15  O   UNL     1      -3.102  -3.937  -3.056  1.00  0.00    -0.275 OA
ATOM     16  H   UNL     1      -3.295  -4.568  -0.820  1.00  0.00     0.169 HD
BRANCH  14  17
ATOM     17  C   UNL     1      -0.774  -4.279  -2.973  1.00  0.00     0.128 C 
BRANCH  17  18
ATOM     18  C   UNL     1       0.077  -3.039  -2.787  1.00  0.00     0.183 C 
ATOM     19  N   UNL     1      -0.093  -0.657  -2.422  1.00  0.00    -0.190 N 
ATOM     20  C   UNL     1      -0.372  -1.886  -1.889  1.00  0.00     0.324 C 
ATOM     21  C   UNL     1       0.203  -0.633  -3.745  1.00  0.00     0.319 C 
ATOM     22  O   UNL     1      -0.836  -1.998  -0.767  1.00  0.00    -0.245 OA
ATOM     23  S   UNL     1       0.545  -2.250  -4.330  1.00  0.00    -0.022 SA
ATOM     24  N   UNL     1       0.268   0.481  -4.403  1.00  0.00    -0.235 N 
ATOM     25  H   UNL     1      -0.251   1.273  -4.135  1.00  0.00     0.313 HD
BRANCH  19  26
ATOM     26  C   UNL     1      -0.128   0.540  -1.584  1.00  0.00     0.243 C 
ATOM     27  C   UNL     1       0.865   0.482  -0.417  1.00  0.00     0.054 C 
ENDBRANCH  19  26
BRANCH  24  28
ATOM     28  C   UNL     1       1.112   0.495  -5.511  1.00  0.00     0.128 A 
ATOM     29  C   UNL     1       2.366   0.995  -5.200  1.00  0.00     0.076 A 
ATOM     30  C   UNL     1       0.901  -0.262  -6.660  1.00  0.00     0.076 A 
ATOM     31  C   UNL     1       3.470   0.455  -5.810  1.00  0.00     0.088 A 
ATOM     32  C   UNL     1       2.010  -0.806  -7.285  1.00  0.00     0.088 A 
ATOM     33  Cl  UNL     1       4.938   0.962  -5.073  1.00  0.00    -0.080 Cl
ATOM     34  C   UNL     1       3.289  -0.521  -6.800  1.00  0.00     0.153 A 
ATOM     35  Cl  UNL     1       1.784  -2.036  -8.474  1.00  0.00    -0.080 Cl
BRANCH  34  36
ATOM     36  O   UNL     1       4.314  -1.312  -7.227  1.00  0.00    -0.505 OA
ATOM     37  H   UNL     1       5.187  -1.152  -6.924  1.00  0.00     0.293 HD
ENDBRANCH  34  36
ENDBRANCH  24  28
ENDBRANCH  17  18
ENDBRANCH  14  17
ENDBRANCH   8  13
ENDBRANCH   4   7
ENDBRANCH   2   3
ENDBRANCH   1   2
BRANCH   1  38
ATOM     38  C   UNL     1       5.277  -2.416  -1.386  1.00  0.00     0.002 C 
BRANCH  38  39
ATOM     39  C   UNL     1       5.867  -3.422  -2.401  1.00  0.00     0.002 C 
BRANCH  39  40
ATOM     40  C   UNL     1       5.641  -3.259  -3.929  1.00  0.00     0.021 C 
BRANCH  40  41
ATOM     41  C   UNL     1       6.113  -1.969  -4.657  1.00  0.00     0.116 C 
BRANCH  41  42
ATOM     42  N   UNL     1       7.395  -1.981  -5.387  1.00  0.00    -0.352 N 
ATOM     43  C   UNL     1       7.871  -1.390  -6.568  1.00  0.00     0.251 C 
ATOM     44  H   UNL     1       8.077  -2.534  -4.941  1.00  0.00     0.163 HD
ATOM     45  O   UNL     1       9.097  -1.371  -6.718  1.00  0.00    -0.269 OA
BRANCH  43  46
ATOM     46  C   UNL     1       7.062  -0.844  -7.715  1.00  0.00     0.039 A 
ATOM     47  C   UNL     1       7.043  -1.507  -8.947  1.00  0.00     0.014 A 
ATOM     48  C   UNL     1       6.484   0.419  -7.725  1.00  0.00     0.014 A 
ATOM     49  C   UNL     1       6.292  -1.010 -10.057  1.00  0.00     0.010 A 
ATOM     50  C   UNL     1       5.589   0.821  -8.765  1.00  0.00     0.010 A 
ATOM     51  C   UNL     1       5.432   0.105  -9.964  1.00  0.00    -0.014 A 
BRANCH  51  52
ATOM     52  C   UNL     1       4.422   0.467 -11.078  1.00  0.00     0.031 A 
ATOM     53  C   UNL     1       4.085   1.916 -11.486  1.00  0.00     0.074 A 
ATOM     54  C   UNL     1       3.704  -0.492 -11.730  1.00  0.00     0.049 A 
ATOM     55  N   UNL     1       3.276   2.348 -12.437  1.00  0.00    -0.248 NA
ATOM     56  C   UNL     1       4.678   3.014 -10.712  1.00  0.00     0.031 C 
ATOM     57  C   UNL     1       3.723  -1.929 -11.441  1.00  0.00     0.029 A 
ATOM     58  N   UNL     1       2.803  -0.410 -12.785  1.00  0.00    -0.354 N 
ATOM     59  C   UNL     1       3.257   3.743 -12.345  1.00  0.00     0.074 A 
ATOM     60  C   UNL     1       4.037   4.076 -11.177  1.00  0.00     0.031 C 
ATOM     61  C   UNL     1       2.941  -2.586 -12.313  1.00  0.00     0.029 A 
ATOM     62  C   UNL     1       2.325  -1.631 -13.227  1.00  0.00     0.049 A 
ATOM     63  H   UNL     1       2.527   0.446 -13.184  1.00  0.00     0.167 HD
ATOM     64  C   UNL     1       2.722   4.686 -13.168  1.00  0.00     0.031 A 
ATOM     65  C   UNL     1       1.512  -1.983 -14.252  1.00  0.00     0.031 A 
ATOM     66  C   UNL     1       1.990   4.413 -14.378  1.00  0.00     0.049 A 
ATOM     67  C   UNL     1       0.971  -0.939 -15.197  1.00  0.00     0.074 A 
ATOM     68  C   UNL     1       1.533   5.311 -15.331  1.00  0.00     0.029 A 
ATOM     69  N   UNL     1       1.608   3.155 -14.807  1.00  0.00    -0.354 N 
ATOM     70  N   UNL     1       1.127   0.361 -15.165  1.00  0.00    -0.248 NA
ATOM     71  C   UNL     1       0.172  -1.416 -16.340  1.00  0.00     0.031 C 
ATOM     72  C   UNL     1       0.833   4.600 -16.311  1.00  0.00     0.029 A 
ATOM     73  C   UNL     1       0.907   3.254 -15.999  1.00  0.00     0.049 A 
ATOM     74  H   UNL     1       1.804   2.313 -14.335  1.00  0.00     0.167 HD
ATOM     75  C   UNL     1       0.490   0.848 -16.306  1.00  0.00     0.074 A 
ATOM     76  C   UNL     1      -0.049  -0.293 -17.010  1.00  0.00     0.031 C 
ATOM     77  C   UNL     1       0.377   2.131 -16.727  1.00  0.00     0.031 A 
BRANCH  64  78
ATOM     78  C   UNL     1       2.971   6.143 -12.823  1.00  0.00    -0.014 A 
ATOM     79  C   UNL     1       4.272   6.680 -12.875  1.00  0.00     0.010 A 
ATOM     80  C   UNL     1       1.901   6.998 -12.499  1.00  0.00     0.010 A 
ATOM     81  C   UNL     1       4.509   8.014 -12.533  1.00  0.00     0.020 A 
ATOM     82  C   UNL     1       2.129   8.347 -12.194  1.00  0.00     0.020 A 
ATOM     83  C   UNL     1       3.436   8.838 -12.186  1.00  0.00     0.054 A 
BRANCH  83  84
ATOM     84  S   UNL     1       3.780  10.564 -11.745  1.00  0.00     0.124 S 
ATOM     85  O   UNL     1       4.399  10.419 -10.429  1.00  0.00    -0.237 OA
ATOM     86  O   UNL     1       4.675  10.997 -12.814  1.00  0.00    -0.237 OA
ATOM     87  O   UNL     1       2.462  11.193 -11.746  1.00  0.00    -0.744 OA
ENDBRANCH  83  84
ENDBRANCH  64  78
BRANCH  65  88
ATOM     88  C   UNL     1       1.202  -3.427 -14.508  1.00  0.00    -0.014 A 
ATOM     89  C   UNL     1       1.760  -4.088 -15.621  1.00  0.00     0.010 A 
ATOM     90  C   UNL     1       0.332  -4.142 -13.665  1.00  0.00     0.010 A 
ATOM     91  C   UNL     1       1.438  -5.422 -15.897  1.00  0.00     0.020 A 
ATOM     92  C   UNL     1       0.031  -5.486 -13.921  1.00  0.00     0.020 A 
ATOM     93  C   UNL     1       0.578  -6.115 -15.041  1.00  0.00     0.054 A 
BRANCH  93  94
ATOM     94  S   UNL     1       0.219  -7.862 -15.390  1.00  0.00     0.124 S 
ATOM     95  O   UNL     1      -0.634  -7.769 -16.571  1.00  0.00    -0.237 OA
ATOM     96  O   UNL     1       1.552  -8.417 -15.614  1.00  0.00    -0.237 OA
ATOM     97  O   UNL     1      -0.443  -8.325 -14.173  1.00  0.00    -0.744 OA
ENDBRANCH  93  94
ENDBRANCH  65  88
BRANCH  77  98
ATOM     98  C   UNL     1      -0.306   2.396 -18.045  1.00  0.00    -0.014 A 
ATOM     99  C   UNL     1      -1.694   2.234 -18.204  1.00  0.00     0.010 A 
ATOM    100  C   UNL     1       0.450   2.885 -19.128  1.00  0.00     0.010 A 
ATOM    101  C   UNL     1      -2.306   2.530 -19.428  1.00  0.00     0.020 A 
ATOM    102  C   UNL     1      -0.162   3.208 -20.343  1.00  0.00     0.020 A 
ATOM    103  C   UNL     1      -1.536   3.016 -20.489  1.00  0.00     0.054 A 
BRANCH 103 104
ATOM    104  S   UNL     1      -2.363   3.441 -22.048  1.00  0.00     0.124 S 
ATOM    105  O   UNL     1      -2.681   2.124 -22.593  1.00  0.00    -0.237 OA
ATOM    106  O   UNL     1      -3.508   4.229 -21.600  1.00  0.00    -0.237 OA
ATOM    107  O   UNL     1      -1.349   4.191 -22.786  1.00  0.00    -0.744 OA
ENDBRANCH 103 104
ENDBRANCH  77  98
ENDBRANCH  51  52
ENDBRANCH  43  46
ENDBRANCH  41  42
ENDBRANCH  40  41
ENDBRANCH  39  40
ENDBRANCH  38  39
ENDBRANCH   1  38
TORSDOF 22
