REMARK SMILES Cc1ccc([C@@H]2[C@H](C(=O)NCCCCCCNC(=O)c3ccc(-c4c5nc(c(-c6ccc(S(=O)(=O)[O-])cc6)c6ccc([nH]6)c(-c6ccc(S(=O)(=O)[O-])cc6)c6nc(c(-c7ccc(S(=O)(=O)[O-])cc7)c7ccc4[nH]7)C=C6)C=C5)cc3)c3ccccc3C(=O)N2c2ccccc2)cc1
REMARK SMILES IDX 14 1 13 2 12 3 11 4 10 5 8 6 9 7 7 9 6 10 88 11 80 12 86 13
REMARK SMILES IDX 81 14 85 15 87 16 82 17 84 18 83 19 5 20 1 21 2 22 3 23
REMARK SMILES IDX 96 24 4 25 95 26 89 27 90 28 94 29 91 30 93 31 92 32 15 33
REMARK SMILES IDX 16 34 17 35 18 36 19 38 20 39 21 40 79 41 22 42 78 43 23 44
REMARK SMILES IDX 24 45 25 46 72 47 26 48 77 49 71 50 73 51 27 52 76 53 70 54
REMARK SMILES IDX 69 55 28 57 58 58 39 59 57 60 40 61 43 62 56 63 74 64 41 65
REMARK SMILES IDX 42 66 55 68 75 69 44 70 29 71 30 72 38 73 31 74 37 75 32 76
REMARK SMILES IDX 33 77 34 78 35 79 36 80 59 81 60 82 68 83 61 84 67 85 62 86
REMARK SMILES IDX 63 87 64 88 65 89 66 90 45 91 46 92 54 93 47 94 53 95 48 96
REMARK SMILES IDX 49 97 50 98 51 99 52 100
REMARK H PARENT 10 8 17 37 73 56 43 67
REMARK Flexibility Score: inf
ROOT
ATOM      1  C   UNL     1      -2.675  -6.426   6.860  1.00  0.00     0.002 C 
ENDROOT
BRANCH   1   2
ATOM      2  C   UNL     1      -3.829  -5.748   6.098  1.00  0.00     0.002 C 
BRANCH   2   3
ATOM      3  C   UNL     1      -3.908  -4.219   6.176  1.00  0.00     0.021 C 
BRANCH   3   4
ATOM      4  C   UNL     1      -2.658  -3.484   5.686  1.00  0.00     0.116 C 
BRANCH   4   5
ATOM      5  N   UNL     1      -2.822  -3.003   4.332  1.00  0.00    -0.355 N 
ATOM      6  C   UNL     1      -2.104  -1.924   3.872  1.00  0.00     0.230 C 
ATOM      7  O   UNL     1      -0.878  -1.888   3.964  1.00  0.00    -0.274 OA
ATOM      8  H   UNL     1      -3.457  -3.454   3.731  1.00  0.00     0.163 HD
BRANCH   6   9
ATOM      9  C   UNL     1      -2.906  -0.736   3.323  1.00  0.00     0.137 C 
ATOM     10  C   UNL     1      -2.865  -0.590   1.777  1.00  0.00     0.138 C 
ATOM     11  N   UNL     1      -3.888  -1.462   1.180  1.00  0.00    -0.300 N 
ATOM     12  C   UNL     1      -4.360  -0.660   3.809  1.00  0.00    -0.020 A 
ATOM     13  C   UNL     1      -5.176  -0.951   1.430  1.00  0.00     0.259 C 
ATOM     14  C   UNL     1      -4.648  -0.537   5.178  1.00  0.00     0.005 A 
ATOM     15  C   UNL     1      -5.433  -0.704   2.891  1.00  0.00     0.044 A 
ATOM     16  O   UNL     1      -6.053  -0.817   0.586  1.00  0.00    -0.269 OA
ATOM     17  C   UNL     1      -5.972  -0.504   5.621  1.00  0.00     0.000 A 
ATOM     18  C   UNL     1      -6.755  -0.630   3.338  1.00  0.00     0.014 A 
ATOM     19  C   UNL     1      -7.022  -0.545   4.704  1.00  0.00     0.001 A 
BRANCH  10  20
ATOM     20  C   UNL     1      -1.526  -0.321   1.097  1.00  0.00    -0.024 A 
ATOM     21  C   UNL     1       2.475   0.392  -0.404  1.00  0.00     0.044 C 
ATOM     22  C   UNL     1       1.051   0.223   0.032  1.00  0.00    -0.051 A 
ATOM     23  C   UNL     1       0.220  -0.737  -0.552  1.00  0.00     0.004 A 
ATOM     24  C   UNL     1       0.554   0.980   1.091  1.00  0.00     0.004 A 
ATOM     25  C   UNL     1      -1.072  -0.966  -0.058  1.00  0.00     0.006 A 
ATOM     26  C   UNL     1      -0.712   0.710   1.613  1.00  0.00     0.006 A 
ENDBRANCH  10  20
BRANCH  11  27
ATOM     27  C   UNL     1      -3.777  -2.906   1.120  1.00  0.00     0.045 A 
ATOM     28  C   UNL     1      -4.947  -3.694   1.145  1.00  0.00     0.026 A 
ATOM     29  C   UNL     1      -2.557  -3.590   1.169  1.00  0.00     0.026 A 
ATOM     30  C   UNL     1      -4.902  -5.083   1.293  1.00  0.00     0.002 A 
ATOM     31  C   UNL     1      -2.507  -4.988   1.272  1.00  0.00     0.002 A 
ATOM     32  C   UNL     1      -3.678  -5.732   1.358  1.00  0.00     0.000 A 
ENDBRANCH  11  27
ENDBRANCH   6   9
ENDBRANCH   4   5
ENDBRANCH   3   4
ENDBRANCH   2   3
ENDBRANCH   1   2
BRANCH   1  33
ATOM     33  C   UNL     1      -2.394  -5.927   8.281  1.00  0.00     0.021 C 
BRANCH  33  34
ATOM     34  C   UNL     1      -3.519  -6.180   9.275  1.00  0.00     0.116 C 
BRANCH  34  35
ATOM     35  N   UNL     1      -3.307  -7.311  10.166  1.00  0.00    -0.352 N 
ATOM     36  C   UNL     1      -3.843  -7.290  11.456  1.00  0.00     0.251 C 
ATOM     37  H   UNL     1      -2.786  -8.089   9.860  1.00  0.00     0.163 HD
ATOM     38  O   UNL     1      -3.190  -7.229  12.482  1.00  0.00    -0.269 OA
BRANCH  36  39
ATOM     39  C   UNL     1      -5.320  -7.254  11.485  1.00  0.00     0.039 A 
ATOM     40  C   UNL     1      -6.056  -8.427  11.666  1.00  0.00     0.014 A 
ATOM     41  C   UNL     1      -5.939  -6.067  11.095  1.00  0.00     0.014 A 
ATOM     42  C   UNL     1      -7.405  -8.444  11.307  1.00  0.00     0.010 A 
ATOM     43  C   UNL     1      -7.241  -6.111  10.649  1.00  0.00     0.010 A 
ATOM     44  C   UNL     1      -7.966  -7.306  10.722  1.00  0.00    -0.014 A 
BRANCH  44  45
ATOM     45  C   UNL     1      -9.275  -7.260  10.082  1.00  0.00     0.031 A 
ATOM     46  C   UNL     1     -10.406  -6.570  10.745  1.00  0.00     0.074 A 
ATOM     47  C   UNL     1      -9.408  -7.697   8.810  1.00  0.00     0.049 A 
ATOM     48  N   UNL     1     -11.649  -6.768  10.457  1.00  0.00    -0.248 NA
ATOM     49  C   UNL     1     -10.215  -5.615  11.831  1.00  0.00     0.031 C 
ATOM     50  C   UNL     1     -10.502  -7.395   7.891  1.00  0.00     0.029 A 
ATOM     51  N   UNL     1      -8.675  -8.683   8.148  1.00  0.00    -0.354 N 
ATOM     52  C   UNL     1     -12.379  -5.776  11.075  1.00  0.00     0.074 A 
ATOM     53  C   UNL     1     -11.455  -5.142  11.986  1.00  0.00     0.031 C 
ATOM     54  C   UNL     1     -10.555  -8.359   6.958  1.00  0.00     0.029 A 
ATOM     55  C   UNL     1      -9.593  -9.378   7.344  1.00  0.00     0.049 A 
ATOM     56  H   UNL     1      -7.710  -8.856   8.227  1.00  0.00     0.167 HD
ATOM     57  C   UNL     1     -13.642  -5.495  10.644  1.00  0.00     0.031 A 
ATOM     58  C   UNL     1      -9.866 -10.711   7.467  1.00  0.00     0.031 A 
ATOM     59  C   UNL     1     -14.067  -6.405   9.583  1.00  0.00     0.049 A 
ATOM     60  C   UNL     1     -11.332 -10.987   7.716  1.00  0.00     0.074 A 
ATOM     61  C   UNL     1     -14.130  -6.275   8.205  1.00  0.00     0.029 A 
ATOM     62  N   UNL     1     -14.236  -7.756   9.862  1.00  0.00    -0.354 N 
ATOM     63  N   UNL     1     -12.180 -10.087   8.130  1.00  0.00    -0.248 NA
ATOM     64  C   UNL     1     -11.951 -12.299   7.556  1.00  0.00     0.031 C 
ATOM     65  C   UNL     1     -14.271  -7.571   7.650  1.00  0.00     0.029 A 
ATOM     66  C   UNL     1     -14.319  -8.483   8.690  1.00  0.00     0.049 A 
ATOM     67  H   UNL     1     -14.288  -8.140  10.767  1.00  0.00     0.167 HD
ATOM     68  C   UNL     1     -13.417 -10.654   8.290  1.00  0.00     0.074 A 
ATOM     69  C   UNL     1     -13.223 -12.042   7.912  1.00  0.00     0.031 C 
ATOM     70  C   UNL     1     -14.490  -9.930   8.724  1.00  0.00     0.031 A 
BRANCH  57  71
ATOM     71  C   UNL     1     -14.379  -4.213  10.975  1.00  0.00    -0.014 A 
ATOM     72  C   UNL     1     -15.339  -3.710  10.070  1.00  0.00     0.010 A 
ATOM     73  C   UNL     1     -14.144  -3.430  12.121  1.00  0.00     0.010 A 
ATOM     74  C   UNL     1     -15.944  -2.455  10.240  1.00  0.00     0.020 A 
ATOM     75  C   UNL     1     -14.714  -2.157  12.289  1.00  0.00     0.020 A 
ATOM     76  C   UNL     1     -15.602  -1.670  11.336  1.00  0.00     0.054 A 
BRANCH  76  77
ATOM     77  S   UNL     1     -16.323  -0.016  11.497  1.00  0.00     0.124 S 
ATOM     78  O   UNL     1     -15.919   0.625  10.248  1.00  0.00    -0.237 OA
ATOM     79  O   UNL     1     -17.748  -0.305  11.625  1.00  0.00    -0.237 OA
ATOM     80  O   UNL     1     -15.688   0.524  12.698  1.00  0.00    -0.744 OA
ENDBRANCH  76  77
ENDBRANCH  57  71
BRANCH  58  81
ATOM     81  C   UNL     1      -8.740 -11.520   8.010  1.00  0.00    -0.014 A 
ATOM     82  C   UNL     1      -7.615 -11.698   7.176  1.00  0.00     0.010 A 
ATOM     83  C   UNL     1      -8.590 -11.674   9.400  1.00  0.00     0.010 A 
ATOM     84  C   UNL     1      -6.337 -11.819   7.728  1.00  0.00     0.020 A 
ATOM     85  C   UNL     1      -7.308 -11.804   9.954  1.00  0.00     0.020 A 
ATOM     86  C   UNL     1      -6.189 -11.789   9.114  1.00  0.00     0.054 A 
BRANCH  86  87
ATOM     87  S   UNL     1      -4.520 -11.531   9.793  1.00  0.00     0.124 S 
ATOM     88  O   UNL     1      -3.751 -12.589   9.146  1.00  0.00    -0.237 OA
ATOM     89  O   UNL     1      -4.216 -10.167   9.353  1.00  0.00    -0.237 OA
ATOM     90  O   UNL     1      -4.716 -11.684  11.231  1.00  0.00    -0.744 OA
ENDBRANCH  86  87
ENDBRANCH  58  81
BRANCH  70  91
ATOM     91  C   UNL     1     -15.836 -10.480   9.137  1.00  0.00    -0.014 A 
ATOM     92  C   UNL     1     -16.066 -11.812   9.512  1.00  0.00     0.010 A 
ATOM     93  C   UNL     1     -16.925  -9.583   9.277  1.00  0.00     0.010 A 
ATOM     94  C   UNL     1     -17.331 -12.244   9.939  1.00  0.00     0.020 A 
ATOM     95  C   UNL     1     -18.177  -9.992   9.746  1.00  0.00     0.020 A 
ATOM     96  C   UNL     1     -18.380 -11.331  10.049  1.00  0.00     0.054 A 
BRANCH  96  97
ATOM     97  S   UNL     1     -19.991 -11.885  10.661  1.00  0.00     0.124 S 
ATOM     98  O   UNL     1     -20.646 -12.322   9.431  1.00  0.00    -0.237 OA
ATOM     99  O   UNL     1     -19.639 -12.953  11.595  1.00  0.00    -0.237 OA
ATOM    100  O   UNL     1     -20.551 -10.687  11.281  1.00  0.00    -0.744 OA
ENDBRANCH  96  97
ENDBRANCH  70  91
ENDBRANCH  44  45
ENDBRANCH  36  39
ENDBRANCH  34  35
ENDBRANCH  33  34
ENDBRANCH   1  33
TORSDOF 18
