REMARK SMILES Cc1ccc(-c2cc(Cl)cc3c2O[C@H](C(F)(F)F)C(C(=O)NCCCCCCNC(=O)c2ccc(-c4c5nc(c(-c6ccc(S(=O)(=O)[O-])cc6)c6ccc([nH]6)c(-c6ccc(S(=O)(=O)[O-])cc6)c6nc(c(-c7ccc(S(=O)(=O)[O-])cc7)c7ccc4[nH]7)C=C6)C=C5)cc2)=C3)cc1F
REMARK SMILES IDX 26 1 25 2 24 3 23 4 22 5 20 6 21 7 19 9 6 10 7 11 12 12 8 13
REMARK SMILES IDX 11 14 13 15 9 16 10 17 92 18 14 19 5 20 1 21 2 22 3 23 94 24
REMARK SMILES IDX 4 25 93 26 95 27 15 28 16 29 17 30 18 31 27 32 28 33 29 34
REMARK SMILES IDX 30 35 31 37 32 38 33 39 91 40 34 41 90 42 35 43 36 44 37 45
REMARK SMILES IDX 84 46 38 47 89 48 83 49 85 50 39 51 88 52 82 53 81 54 40 56
REMARK SMILES IDX 70 57 51 58 69 59 52 60 55 61 68 62 86 63 53 64 54 65 67 67
REMARK SMILES IDX 87 68 56 69 41 70 42 71 50 72 43 73 49 74 44 75 45 76 46 77
REMARK SMILES IDX 47 78 48 79 71 80 72 81 80 82 73 83 79 84 74 85 75 86 76 87
REMARK SMILES IDX 77 88 78 89 57 90 58 91 66 92 59 93 65 94 60 95 61 96 62 97
REMARK SMILES IDX 63 98 64 99
REMARK H PARENT 22 8 29 36 85 55 55 66
REMARK Flexibility Score: inf
ROOT
ATOM      1  C   UNL     1      -0.402  -5.735   8.489  1.00  0.00     0.002 C 
ENDROOT
BRANCH   1   2
ATOM      2  C   UNL     1      -1.679  -4.899   8.328  1.00  0.00     0.002 C 
BRANCH   2   3
ATOM      3  C   UNL     1      -1.758  -4.047   7.057  1.00  0.00     0.021 C 
BRANCH   3   4
ATOM      4  C   UNL     1      -1.621  -4.845   5.762  1.00  0.00     0.116 C 
BRANCH   4   5
ATOM      5  N   UNL     1      -2.895  -5.395   5.327  1.00  0.00    -0.352 N 
ATOM      6  C   UNL     1      -3.725  -5.270   4.265  1.00  0.00     0.251 C 
ATOM      7  O   UNL     1      -4.737  -5.979   4.303  1.00  0.00    -0.270 OA
ATOM      8  H   UNL     1      -3.253  -6.033   5.986  1.00  0.00     0.163 HD
BRANCH   6   9
ATOM      9  C   UNL     1      -3.510  -4.365   3.095  1.00  0.00     0.067 C 
ATOM     10  C   UNL     1      -3.101  -1.726  -0.170  1.00  0.00     0.026 A 
ATOM     11  C   UNL     1      -4.044  -1.779  -1.205  1.00  0.00     0.033 A 
ATOM     12  C   UNL     1      -3.288  -2.573   0.941  1.00  0.00     0.135 A 
ATOM     13  C   UNL     1      -5.129  -2.655  -1.125  1.00  0.00     0.042 A 
ATOM     14  C   UNL     1      -4.369  -3.457   1.021  1.00  0.00     0.019 A 
ATOM     15  O   UNL     1      -2.405  -2.443   1.979  1.00  0.00    -0.475 OA
ATOM     16  Cl  UNL     1      -6.282  -2.697  -2.403  1.00  0.00    -0.084 Cl
ATOM     17  C   UNL     1      -5.296  -3.494  -0.021  1.00  0.00     0.032 A 
ATOM     18  C   UNL     1      -4.521  -4.295   2.208  1.00  0.00     0.025 C 
ATOM     19  C   UNL     1      -2.250  -3.585   2.855  1.00  0.00     0.314 C 
BRANCH  10  20
ATOM     20  C   UNL     1      -1.941  -0.823  -0.240  1.00  0.00    -0.012 A 
ATOM     21  C   UNL     1       1.514   1.775  -0.046  1.00  0.00     0.047 C 
ATOM     22  C   UNL     1       0.307   0.894  -0.152  1.00  0.00    -0.015 A 
ATOM     23  C   UNL     1      -0.989   1.422  -0.146  1.00  0.00     0.007 A 
ATOM     24  C   UNL     1       0.462  -0.490  -0.227  1.00  0.00     0.126 A 
ATOM     25  C   UNL     1      -2.101   0.571  -0.192  1.00  0.00     0.009 A 
ATOM     26  C   UNL     1      -0.637  -1.341  -0.277  1.00  0.00     0.048 A 
ATOM     27  F   UNL     1       1.692  -1.024  -0.230  1.00  0.00    -0.207 F 
ENDBRANCH  10  20
BRANCH  19  28
ATOM     28  C   UNL     1      -1.088  -4.462   2.354  1.00  0.00     0.429 C 
ATOM     29  F   UNL     1       0.087  -3.794   2.443  1.00  0.00    -0.167 F 
ATOM     30  F   UNL     1      -0.946  -5.595   3.080  1.00  0.00    -0.167 F 
ATOM     31  F   UNL     1      -1.246  -4.838   1.064  1.00  0.00    -0.167 F 
ENDBRANCH  19  28
ENDBRANCH   6   9
ENDBRANCH   4   5
ENDBRANCH   3   4
ENDBRANCH   2   3
ENDBRANCH   1   2
BRANCH   1  32
ATOM     32  C   UNL     1       0.917  -4.987   8.274  1.00  0.00     0.021 C 
BRANCH  32  33
ATOM     33  C   UNL     1       1.138  -3.789   9.191  1.00  0.00     0.116 C 
BRANCH  33  34
ATOM     34  N   UNL     1       1.225  -4.166  10.592  1.00  0.00    -0.352 N 
ATOM     35  C   UNL     1       2.184  -3.838  11.521  1.00  0.00     0.251 C 
ATOM     36  H   UNL     1       0.494  -4.737  10.923  1.00  0.00     0.163 HD
ATOM     37  O   UNL     1       2.177  -4.369  12.628  1.00  0.00    -0.269 OA
BRANCH  35  38
ATOM     38  C   UNL     1       3.245  -2.871  11.166  1.00  0.00     0.039 A 
ATOM     39  C   UNL     1       2.928  -1.661  10.543  1.00  0.00     0.014 A 
ATOM     40  C   UNL     1       4.577  -3.194  11.436  1.00  0.00     0.014 A 
ATOM     41  C   UNL     1       3.948  -0.848  10.055  1.00  0.00     0.010 A 
ATOM     42  C   UNL     1       5.599  -2.342  11.005  1.00  0.00     0.010 A 
ATOM     43  C   UNL     1       5.294  -1.186  10.270  1.00  0.00    -0.014 A 
BRANCH  43  44
ATOM     44  C   UNL     1       6.371  -0.337   9.696  1.00  0.00     0.031 A 
ATOM     45  C   UNL     1       7.261  -0.874   8.605  1.00  0.00     0.074 A 
ATOM     46  C   UNL     1       6.508   0.939  10.112  1.00  0.00     0.049 A 
ATOM     47  N   UNL     1       8.258  -0.285   7.995  1.00  0.00    -0.248 NA
ATOM     48  C   UNL     1       6.999  -2.244   8.130  1.00  0.00     0.031 C 
ATOM     49  C   UNL     1       5.670   1.589  11.123  1.00  0.00     0.029 A 
ATOM     50  N   UNL     1       7.374   1.927   9.716  1.00  0.00    -0.354 N 
ATOM     51  C   UNL     1       8.745  -1.209   7.078  1.00  0.00     0.074 A 
ATOM     52  C   UNL     1       7.955  -2.411   7.226  1.00  0.00     0.031 C 
ATOM     53  C   UNL     1       6.021   2.880  11.220  1.00  0.00     0.029 A 
ATOM     54  C   UNL     1       7.154   3.136  10.334  1.00  0.00     0.049 A 
ATOM     55  H   UNL     1       8.087   1.784   9.051  1.00  0.00     0.167 HD
ATOM     56  C   UNL     1       9.751  -1.062   6.185  1.00  0.00     0.031 A 
ATOM     57  C   UNL     1       7.793   4.316  10.213  1.00  0.00     0.031 A 
ATOM     58  C   UNL     1      10.520   0.144   6.026  1.00  0.00     0.049 A 
ATOM     59  C   UNL     1       8.959   4.425   9.270  1.00  0.00     0.074 A 
ATOM     60  C   UNL     1      11.568   0.379   5.152  1.00  0.00     0.029 A 
ATOM     61  N   UNL     1      10.319   1.317   6.736  1.00  0.00    -0.354 N 
ATOM     62  N   UNL     1       9.428   3.525   8.440  1.00  0.00    -0.248 NA
ATOM     63  C   UNL     1       9.690   5.700   9.254  1.00  0.00     0.031 C 
ATOM     64  C   UNL     1      12.032   1.677   5.367  1.00  0.00     0.029 A 
ATOM     65  C   UNL     1      11.234   2.272   6.330  1.00  0.00     0.049 A 
ATOM     66  H   UNL     1       9.629   1.450   7.425  1.00  0.00     0.167 HD
ATOM     67  C   UNL     1      10.495   4.133   7.788  1.00  0.00     0.074 A 
ATOM     68  C   UNL     1      10.597   5.479   8.310  1.00  0.00     0.031 C 
ATOM     69  C   UNL     1      11.316   3.615   6.843  1.00  0.00     0.031 A 
BRANCH  56  70
ATOM     70  C   UNL     1      10.096  -2.218   5.283  1.00  0.00    -0.014 A 
ATOM     71  C   UNL     1      11.320  -2.891   5.451  1.00  0.00     0.010 A 
ATOM     72  C   UNL     1       9.291  -2.523   4.172  1.00  0.00     0.010 A 
ATOM     73  C   UNL     1      11.758  -3.814   4.498  1.00  0.00     0.020 A 
ATOM     74  C   UNL     1       9.716  -3.463   3.228  1.00  0.00     0.020 A 
ATOM     75  C   UNL     1      10.959  -4.081   3.383  1.00  0.00     0.054 A 
BRANCH  75  76
ATOM     76  S   UNL     1      11.575  -5.232   2.122  1.00  0.00     0.124 S 
ATOM     77  O   UNL     1      12.586  -4.431   1.441  1.00  0.00    -0.237 OA
ATOM     78  O   UNL     1      12.083  -6.342   2.925  1.00  0.00    -0.237 OA
ATOM     79  O   UNL     1      10.384  -5.542   1.333  1.00  0.00    -0.744 OA
ENDBRANCH  75  76
ENDBRANCH  56  70
BRANCH  57  80
ATOM     80  C   UNL     1       7.329   5.493  10.999  1.00  0.00    -0.014 A 
ATOM     81  C   UNL     1       7.447   5.510  12.401  1.00  0.00     0.010 A 
ATOM     82  C   UNL     1       6.729   6.586  10.351  1.00  0.00     0.010 A 
ATOM     83  C   UNL     1       6.935   6.577  13.143  1.00  0.00     0.020 A 
ATOM     84  C   UNL     1       6.243   7.671  11.088  1.00  0.00     0.020 A 
ATOM     85  C   UNL     1       6.328   7.647  12.482  1.00  0.00     0.054 A 
BRANCH  85  86
ATOM     86  S   UNL     1       5.661   9.019  13.464  1.00  0.00     0.124 S 
ATOM     87  O   UNL     1       4.384   8.471  13.913  1.00  0.00    -0.237 OA
ATOM     88  O   UNL     1       6.672   9.193  14.503  1.00  0.00    -0.237 OA
ATOM     89  O   UNL     1       5.569  10.113  12.500  1.00  0.00    -0.744 OA
ENDBRANCH  85  86
ENDBRANCH  57  80
BRANCH  69  90
ATOM     90  C   UNL     1      12.398   4.493   6.275  1.00  0.00    -0.014 A 
ATOM     91  C   UNL     1      12.312   4.919   4.936  1.00  0.00     0.010 A 
ATOM     92  C   UNL     1      13.566   4.760   7.009  1.00  0.00     0.010 A 
ATOM     93  C   UNL     1      13.393   5.558   4.327  1.00  0.00     0.020 A 
ATOM     94  C   UNL     1      14.640   5.421   6.409  1.00  0.00     0.020 A 
ATOM     95  C   UNL     1      14.557   5.790   5.063  1.00  0.00     0.054 A 
BRANCH  95  96
ATOM     96  S   UNL     1      15.973   6.570   4.240  1.00  0.00     0.124 S 
ATOM     97  O   UNL     1      16.529   5.461   3.470  1.00  0.00    -0.237 OA
ATOM     98  O   UNL     1      15.346   7.630   3.454  1.00  0.00    -0.237 OA
ATOM     99  O   UNL     1      16.800   7.035   5.351  1.00  0.00    -0.744 OA
ENDBRANCH  95  96
ENDBRANCH  69  90
ENDBRANCH  43  44
ENDBRANCH  35  38
ENDBRANCH  33  34
ENDBRANCH  32  33
ENDBRANCH   1  32
TORSDOF 18
