REMARK SMILES O=C(COc1ccccc1/C=N/N1[C@@H](S)N=N[C@H]1[C@@H]1C=C(c2ccccc2)N=N1)NCCCCCCNC(=O)c1ccc(-c2c3nc(c(-c4ccc(S(=O)(=O)[O-])cc4)c4ccc([nH]4)c(-c4ccc(S(=O)(=O)[O-])cc4)c4nc(c(-c5ccc(S(=O)(=O)[O-])cc5)c5ccc2[nH]5)C=C4)C=C3)cc1
REMARK SMILES IDX 32 1 31 2 30 3 1 4 2 5 3 7 4 8 5 9 6 10 10 11 7 12 9 13 8 14
REMARK SMILES IDX 11 15 12 16 13 17 14 18 18 19 16 20 17 21 15 22 19 24 20 25
REMARK SMILES IDX 29 26 21 27 28 28 22 29 23 30 27 31 24 32 26 33 25 34 33 35
REMARK SMILES IDX 34 36 35 37 36 38 37 39 38 40 39 42 40 43 41 44 99 45 42 46
REMARK SMILES IDX 98 47 43 48 44 49 45 50 92 51 46 52 97 53 91 54 93 55 47 56
REMARK SMILES IDX 96 57 90 58 89 59 48 61 78 62 59 63 77 64 60 65 63 66 76 67
REMARK SMILES IDX 94 68 61 69 62 70 75 72 95 73 64 74 49 75 50 76 58 77 51 78
REMARK SMILES IDX 57 79 52 80 53 81 54 82 55 83 56 84 79 85 80 86 88 87 81 88
REMARK SMILES IDX 87 89 82 90 83 91 84 92 85 93 86 94 65 95 66 96 74 97 67 98
REMARK SMILES IDX 73 99 68 100 69 101 70 102 71 103 72 104
REMARK H PARENT 30 6 15 23 37 41 93 60 63 71
REMARK Flexibility Score: inf
ROOT
ATOM      1  C   UNL     1       2.626   0.497   3.595  1.00  0.00     0.021 C 
ENDROOT
BRANCH   1   2
ATOM      2  C   UNL     1       2.403   1.381   2.245  1.00  0.00     0.116 C 
BRANCH   2   3
ATOM      3  N   UNL     1       2.414   1.022   0.615  1.00  0.00    -0.353 N 
ATOM      4  O   UNL     1       1.244  -0.865  -0.522  1.00  0.00    -0.271 OA
ATOM      5  C   UNL     1       1.905   0.172  -0.482  1.00  0.00     0.257 C 
ATOM      6  H   UNL     1       3.038   1.661   0.199  1.00  0.00     0.163 HD
BRANCH   5   7
ATOM      7  C   UNL     1       2.123   0.657  -1.876  1.00  0.00     0.329 C 
BRANCH   7   8
ATOM      8  O   UNL     1       2.643   1.936  -1.758  1.00  0.00    -0.483 OA
BRANCH   8   9
ATOM      9  C   UNL     1       1.672   2.894  -1.881  1.00  0.00     0.128 A 
ATOM     10  C   UNL     1       2.125   3.776  -2.878  1.00  0.00     0.047 A 
ATOM     11  C   UNL     1       0.658   3.206  -0.932  1.00  0.00     0.037 A 
ATOM     12  C   UNL     1       1.718   5.085  -2.864  1.00  0.00     0.004 A 
ATOM     13  C   UNL     1       0.305   4.562  -0.925  1.00  0.00     0.013 A 
ATOM     14  C   UNL     1       0.843   5.486  -1.859  1.00  0.00     0.001 A 
BRANCH  11  15
ATOM     15  C   UNL     1       0.134   2.341   0.261  1.00  0.00     0.145 C 
ATOM     16  N   UNL     1      -0.149   1.054   0.240  1.00  0.00    -0.180 NA
BRANCH  16  17
ATOM     17  N   UNL     1      -0.061   0.277   1.525  1.00  0.00    -0.233 NA
ATOM     18  C   UNL     1      -1.327  -0.445   1.881  1.00  0.00     0.298 C 
ATOM     19  C   UNL     1       0.885  -1.149   1.650  1.00  0.00     0.274 C 
ATOM     20  N   UNL     1      -1.244  -1.879   1.492  1.00  0.00    -0.153 NA
ATOM     21  N   UNL     1      -0.051  -2.277   1.354  1.00  0.00    -0.161 NA
BRANCH  18  22
ATOM     22  S   UNL     1      -2.856   0.461   1.422  1.00  0.00    -0.128 SA
ATOM     23  H   UNL     1      -2.920   0.586   0.069  1.00  0.00     0.106 HD
ENDBRANCH  18  22
BRANCH  19  24
ATOM     24  C   UNL     1       2.675  -1.681   1.379  1.00  0.00     0.202 C 
ATOM     25  C   UNL     1       3.972  -0.826   1.420  1.00  0.00     0.037 C 
ATOM     26  N   UNL     1       3.014  -2.351   0.030  1.00  0.00    -0.177 NA
ATOM     27  C   UNL     1       4.605  -0.822   0.243  1.00  0.00     0.091 C 
ATOM     28  N   UNL     1       4.041  -1.799  -0.548  1.00  0.00    -0.155 NA
BRANCH  27  29
ATOM     29  C   UNL     1       5.477   0.367  -0.215  1.00  0.00     0.002 A 
ATOM     30  C   UNL     1       5.144   1.715   0.094  1.00  0.00     0.010 A 
ATOM     31  C   UNL     1       6.616   0.267  -1.010  1.00  0.00     0.010 A 
ATOM     32  C   UNL     1       5.680   2.861  -0.516  1.00  0.00     0.001 A 
ATOM     33  C   UNL     1       7.271   1.424  -1.528  1.00  0.00     0.001 A 
ATOM     34  C   UNL     1       6.764   2.712  -1.343  1.00  0.00     0.000 A 
ENDBRANCH  27  29
ENDBRANCH  19  24
ENDBRANCH  16  17
ENDBRANCH  11  15
ENDBRANCH   8   9
ENDBRANCH   7   8
ENDBRANCH   5   7
ENDBRANCH   2   3
ENDBRANCH   1   2
BRANCH   1  35
ATOM     35  C   UNL     1       3.967   0.192   4.343  1.00  0.00     0.002 C 
BRANCH  35  36
ATOM     36  C   UNL     1       4.730   1.369   4.923  1.00  0.00     0.002 C 
BRANCH  36  37
ATOM     37  C   UNL     1       4.187   1.834   6.277  1.00  0.00     0.021 C 
BRANCH  37  38
ATOM     38  C   UNL     1       4.321   0.814   7.414  1.00  0.00     0.116 C 
BRANCH  38  39
ATOM     39  N   UNL     1       5.709   0.496   7.723  1.00  0.00    -0.352 N 
ATOM     40  C   UNL     1       6.185  -0.464   8.599  1.00  0.00     0.251 C 
ATOM     41  H   UNL     1       6.391   1.027   7.251  1.00  0.00     0.163 HD
ATOM     42  O   UNL     1       7.290  -0.362   9.089  1.00  0.00    -0.269 OA
BRANCH  40  43
ATOM     43  C   UNL     1       5.327  -1.625   8.909  1.00  0.00     0.039 A 
ATOM     44  C   UNL     1       5.199  -2.080  10.225  1.00  0.00     0.014 A 
ATOM     45  C   UNL     1       4.674  -2.270   7.858  1.00  0.00     0.014 A 
ATOM     46  C   UNL     1       4.357  -3.158  10.486  1.00  0.00     0.010 A 
ATOM     47  C   UNL     1       3.782  -3.285   8.127  1.00  0.00     0.010 A 
ATOM     48  C   UNL     1       3.646  -3.753   9.434  1.00  0.00    -0.014 A 
BRANCH  48  49
ATOM     49  C   UNL     1       2.669  -4.801   9.711  1.00  0.00     0.031 A 
ATOM     50  C   UNL     1       1.550  -4.406  10.611  1.00  0.00     0.074 A 
ATOM     51  C   UNL     1       2.628  -5.967   9.034  1.00  0.00     0.049 A 
ATOM     52  N   UNL     1       1.303  -4.831  11.806  1.00  0.00    -0.248 NA
ATOM     53  C   UNL     1       0.661  -3.318  10.172  1.00  0.00     0.031 C 
ATOM     54  C   UNL     1       3.449  -6.380   7.891  1.00  0.00     0.029 A 
ATOM     55  N   UNL     1       1.734  -6.986   9.148  1.00  0.00    -0.354 N 
ATOM     56  C   UNL     1       0.112  -4.224  12.195  1.00  0.00     0.074 A 
ATOM     57  C   UNL     1      -0.135  -3.178  11.234  1.00  0.00     0.031 C 
ATOM     58  C   UNL     1       2.860  -7.428   7.272  1.00  0.00     0.029 A 
ATOM     59  C   UNL     1       1.725  -7.860   8.068  1.00  0.00     0.049 A 
ATOM     60  H   UNL     1       1.145  -7.095   9.929  1.00  0.00     0.167 HD
ATOM     61  C   UNL     1      -0.702  -4.773  13.142  1.00  0.00     0.031 A 
ATOM     62  C   UNL     1       0.821  -8.841   7.824  1.00  0.00     0.031 A 
ATOM     63  C   UNL     1      -0.048  -5.842  13.853  1.00  0.00     0.049 A 
ATOM     64  C   UNL     1       0.160  -9.156   9.115  1.00  0.00     0.074 A 
ATOM     65  C   UNL     1       1.093  -5.944  14.624  1.00  0.00     0.029 A 
ATOM     66  N   UNL     1      -0.368  -7.128  13.480  1.00  0.00    -0.354 N 
ATOM     67  N   UNL     1       0.789  -9.685  10.127  1.00  0.00    -0.248 NA
ATOM     68  C   UNL     1      -1.080  -8.472   9.446  1.00  0.00     0.031 C 
ATOM     69  C   UNL     1       1.667  -7.197  14.261  1.00  0.00     0.029 A 
ATOM     70  C   UNL     1       0.809  -7.818  13.350  1.00  0.00     0.049 A 
ATOM     71  H   UNL     1      -1.274  -7.485  13.334  1.00  0.00     0.167 HD
ATOM     72  C   UNL     1       0.279  -9.037  11.243  1.00  0.00     0.074 A 
ATOM     73  C   UNL     1      -0.942  -8.385  10.773  1.00  0.00     0.031 C 
ATOM     74  C   UNL     1       1.039  -8.856  12.365  1.00  0.00     0.031 A 
BRANCH  61  75
ATOM     75  C   UNL     1      -2.205  -4.618  13.166  1.00  0.00    -0.014 A 
ATOM     76  C   UNL     1      -2.933  -5.187  14.233  1.00  0.00     0.010 A 
ATOM     77  C   UNL     1      -2.948  -4.184  12.050  1.00  0.00     0.010 A 
ATOM     78  C   UNL     1      -4.318  -5.385  14.149  1.00  0.00     0.020 A 
ATOM     79  C   UNL     1      -4.335  -4.334  11.974  1.00  0.00     0.020 A 
ATOM     80  C   UNL     1      -5.006  -4.971  13.009  1.00  0.00     0.054 A 
BRANCH  80  81
ATOM     81  S   UNL     1      -6.770  -5.340  12.852  1.00  0.00     0.124 S 
ATOM     82  O   UNL     1      -6.763  -6.796  12.749  1.00  0.00    -0.237 OA
ATOM     83  O   UNL     1      -7.312  -4.794  14.093  1.00  0.00    -0.237 OA
ATOM     84  O   UNL     1      -7.162  -4.626  11.639  1.00  0.00    -0.744 OA
ENDBRANCH  80  81
ENDBRANCH  61  75
BRANCH  62  85
ATOM     85  C   UNL     1       0.305  -9.303   6.512  1.00  0.00    -0.014 A 
ATOM     86  C   UNL     1      -0.436 -10.494   6.402  1.00  0.00     0.010 A 
ATOM     87  C   UNL     1       0.307  -8.428   5.406  1.00  0.00     0.010 A 
ATOM     88  C   UNL     1      -1.202 -10.765   5.256  1.00  0.00     0.020 A 
ATOM     89  C   UNL     1      -0.448  -8.695   4.257  1.00  0.00     0.020 A 
ATOM     90  C   UNL     1      -1.222  -9.851   4.199  1.00  0.00     0.054 A 
BRANCH  90  91
ATOM     91  S   UNL     1      -2.366 -10.114   2.811  1.00  0.00     0.124 S 
ATOM     92  O   UNL     1      -1.762 -11.250   2.121  1.00  0.00    -0.237 OA
ATOM     93  O   UNL     1      -3.630 -10.387   3.490  1.00  0.00    -0.237 OA
ATOM     94  O   UNL     1      -2.320  -8.848   2.083  1.00  0.00    -0.744 OA
ENDBRANCH  90  91
ENDBRANCH  62  85
BRANCH  74  95
ATOM     95  C   UNL     1       2.346  -9.611  12.481  1.00  0.00    -0.014 A 
ATOM     96  C   UNL     1       3.411  -9.479  11.568  1.00  0.00     0.010 A 
ATOM     97  C   UNL     1       2.558 -10.369  13.646  1.00  0.00     0.010 A 
ATOM     98  C   UNL     1       4.641 -10.115  11.799  1.00  0.00     0.020 A 
ATOM     99  C   UNL     1       3.786 -10.989  13.893  1.00  0.00     0.020 A 
ATOM    100  C   UNL     1       4.819 -10.869  12.963  1.00  0.00     0.054 A 
BRANCH 100 101
ATOM    101  S   UNL     1       6.422 -11.659  13.279  1.00  0.00     0.124 S 
ATOM    102  O   UNL     1       6.468 -12.703  12.258  1.00  0.00    -0.237 OA
ATOM    103  O   UNL     1       7.368 -10.560  13.099  1.00  0.00    -0.237 OA
ATOM    104  O   UNL     1       6.306 -12.145  14.653  1.00  0.00    -0.744 OA
ENDBRANCH 100 101
ENDBRANCH  74  95
ENDBRANCH  48  49
ENDBRANCH  40  43
ENDBRANCH  38  39
ENDBRANCH  37  38
ENDBRANCH  36  37
ENDBRANCH  35  36
ENDBRANCH   1  35
TORSDOF 23
