REMARK SMILES O=C(Cc1c(C(=O)c2cc3c(cn2)CCCC3)[nH]c2cc(Cl)ccc12)NCCCCCCNC(=O)c1ccc(-c2c3nc(c(-c4ccc(S(=O)(=O)[O-])cc4)c4ccc([nH]4)c(-c4ccc(S(=O)(=O)[O-])cc4)c4nc(c(-c5ccc(S(=O)(=O)[O-])cc5)c5ccc2[nH]5)C=C4)C=C3)cc1
REMARK SMILES IDX 29 1 28 2 27 3 26 4 1 5 2 6 3 8 4 9 5 10 25 11 18 12 19 13
REMARK SMILES IDX 24 14 20 16 23 17 21 18 22 19 6 20 7 21 8 22 9 23 13 24
REMARK SMILES IDX 10 25 12 26 11 27 17 28 14 29 16 30 15 31 30 32 31 33 32 34
REMARK SMILES IDX 33 35 34 36 35 38 36 39 37 40 95 41 38 42 94 43 39 44 40 45
REMARK SMILES IDX 41 46 88 47 42 48 93 49 87 50 89 51 43 52 92 53 86 54 85 55
REMARK SMILES IDX 44 57 74 58 55 59 73 60 56 61 59 62 72 63 90 64 57 65 58 66
REMARK SMILES IDX 71 68 91 69 60 70 45 71 46 72 54 73 47 74 53 75 48 76 49 77
REMARK SMILES IDX 50 78 51 79 52 80 75 81 76 82 84 83 77 84 83 85 78 86 79 87
REMARK SMILES IDX 80 88 81 89 82 90 61 91 62 92 70 93 63 94 69 95 64 96 65 97
REMARK SMILES IDX 66 98 67 99 68 100
REMARK H PARENT 26 7 18 15 33 37 89 56 59 67
REMARK Flexibility Score: inf
ROOT
ATOM      1  C   UNL     1       4.306   2.793   2.683  1.00  0.00     0.002 C 
ENDROOT
BRANCH   1   2
ATOM      2  C   UNL     1       2.814   2.449   2.726  1.00  0.00     0.021 C 
BRANCH   2   3
ATOM      3  C   UNL     1       2.197   2.027   1.396  1.00  0.00     0.116 C 
BRANCH   3   4
ATOM      4  N   UNL     1       2.850   0.875   0.804  1.00  0.00    -0.356 N 
ATOM      5  O   UNL     1       0.943  -0.391   0.627  1.00  0.00    -0.275 OA
ATOM      6  C   UNL     1       2.121  -0.196   0.329  1.00  0.00     0.224 C 
ATOM      7  H   UNL     1       3.832   0.857   0.741  1.00  0.00     0.163 HD
BRANCH   6   8
ATOM      8  C   UNL     1       2.896  -1.221  -0.475  1.00  0.00     0.138 C 
BRANCH   8   9
ATOM      9  C   UNL     1       3.764  -0.759  -1.623  1.00  0.00    -0.002 A 
ATOM     10  C   UNL     1       3.819   0.453  -2.314  1.00  0.00     0.093 A 
ATOM     11  C   UNL     1       4.644  -1.661  -2.326  1.00  0.00     0.004 A 
ATOM     12  N   UNL     1       4.897   0.368  -3.174  1.00  0.00    -0.351 N 
ATOM     13  C   UNL     1       5.307  -0.933  -3.308  1.00  0.00     0.048 A 
ATOM     14  C   UNL     1       4.893  -3.049  -2.241  1.00  0.00     0.012 A 
ATOM     15  H   UNL     1       5.314   1.136  -3.628  1.00  0.00     0.167 HD
ATOM     16  C   UNL     1       6.192  -1.513  -4.226  1.00  0.00     0.047 A 
ATOM     17  C   UNL     1       5.752  -3.656  -3.166  1.00  0.00     0.021 A 
ATOM     18  C   UNL     1       6.383  -2.894  -4.144  1.00  0.00     0.043 A 
ATOM     19  Cl  UNL     1       7.408  -3.670  -5.293  1.00  0.00    -0.084 Cl
BRANCH  10  20
ATOM     20  C   UNL     1       2.926   1.604  -2.288  1.00  0.00     0.227 C 
ATOM     21  O   UNL     1       1.751   1.551  -1.938  1.00  0.00    -0.285 OA
BRANCH  20  22
ATOM     22  C   UNL     1       3.413   2.878  -2.869  1.00  0.00     0.113 A 
ATOM     23  C   UNL     1       2.988   3.220  -4.145  1.00  0.00     0.036 A 
ATOM     24  N   UNL     1       4.307   3.589  -2.140  1.00  0.00    -0.252 NA
ATOM     25  C   UNL     1       3.482   4.394  -4.714  1.00  0.00    -0.041 A 
ATOM     26  C   UNL     1       4.719   4.755  -2.689  1.00  0.00     0.115 A 
ATOM     27  C   UNL     1       4.357   5.194  -3.963  1.00  0.00    -0.026 A 
ATOM     28  C   UNL     1       3.123   4.737  -6.137  1.00  0.00     0.036 C 
ATOM     29  C   UNL     1       4.827   6.533  -4.467  1.00  0.00     0.037 C 
ATOM     30  C   UNL     1       3.365   6.204  -6.483  1.00  0.00     0.005 C 
ATOM     31  C   UNL     1       4.733   6.659  -5.988  1.00  0.00     0.005 C 
ENDBRANCH  20  22
ENDBRANCH  10  20
ENDBRANCH   8   9
ENDBRANCH   6   8
ENDBRANCH   3   4
ENDBRANCH   2   3
ENDBRANCH   1   2
BRANCH   1  32
ATOM     32  C   UNL     1       4.723   3.860   1.667  1.00  0.00     0.002 C 
BRANCH  32  33
ATOM     33  C   UNL     1       4.014   5.210   1.779  1.00  0.00     0.021 C 
BRANCH  33  34
ATOM     34  C   UNL     1       4.077   5.881   3.147  1.00  0.00     0.116 C 
BRANCH  34  35
ATOM     35  N   UNL     1       5.431   6.191   3.581  1.00  0.00    -0.352 N 
ATOM     36  C   UNL     1       5.904   7.321   4.213  1.00  0.00     0.251 C 
ATOM     37  H   UNL     1       6.103   5.496   3.398  1.00  0.00     0.163 HD
ATOM     38  O   UNL     1       7.104   7.449   4.422  1.00  0.00    -0.269 OA
BRANCH  36  39
ATOM     39  C   UNL     1       4.962   8.401   4.591  1.00  0.00     0.039 A 
ATOM     40  C   UNL     1       3.750   8.111   5.222  1.00  0.00     0.014 A 
ATOM     41  C   UNL     1       5.288   9.724   4.278  1.00  0.00     0.014 A 
ATOM     42  C   UNL     1       2.799   9.116   5.383  1.00  0.00     0.010 A 
ATOM     43  C   UNL     1       4.359  10.744   4.508  1.00  0.00     0.010 A 
ATOM     44  C   UNL     1       3.086  10.440   5.013  1.00  0.00    -0.014 A 
BRANCH  44  45
ATOM     45  C   UNL     1       2.034  11.482   5.143  1.00  0.00     0.031 A 
ATOM     46  C   UNL     1       1.439  12.129   3.919  1.00  0.00     0.074 A 
ATOM     47  C   UNL     1       1.561  11.798   6.365  1.00  0.00     0.049 A 
ATOM     48  N   UNL     1       0.485  13.023   3.844  1.00  0.00    -0.248 NA
ATOM     49  C   UNL     1       1.978  11.722   2.610  1.00  0.00     0.031 C 
ATOM     50  C   UNL     1       2.037  11.221   7.623  1.00  0.00     0.029 A 
ATOM     51  N   UNL     1       0.557  12.652   6.748  1.00  0.00    -0.354 N 
ATOM     52  C   UNL     1       0.318  13.292   2.491  1.00  0.00     0.074 A 
ATOM     53  C   UNL     1       1.287  12.490   1.778  1.00  0.00     0.031 C 
ATOM     54  C   UNL     1       1.285  11.687   8.631  1.00  0.00     0.029 A 
ATOM     55  C   UNL     1       0.314  12.642   8.101  1.00  0.00     0.049 A 
ATOM     56  H   UNL     1       0.058  13.217   6.115  1.00  0.00     0.167 HD
ATOM     57  C   UNL     1      -0.573  14.121   1.896  1.00  0.00     0.031 A 
ATOM     58  C   UNL     1      -0.584  13.322   8.841  1.00  0.00     0.031 A 
ATOM     59  C   UNL     1      -1.547  14.906   2.606  1.00  0.00     0.049 A 
ATOM     60  C   UNL     1      -1.531  14.270   8.164  1.00  0.00     0.074 A 
ATOM     61  C   UNL     1      -2.495  15.770   2.083  1.00  0.00     0.029 A 
ATOM     62  N   UNL     1      -1.708  14.922   3.983  1.00  0.00    -0.354 N 
ATOM     63  N   UNL     1      -1.662  14.519   6.883  1.00  0.00    -0.248 NA
ATOM     64  C   UNL     1      -2.444  15.033   9.026  1.00  0.00     0.031 C 
ATOM     65  C   UNL     1      -3.196  16.345   3.146  1.00  0.00     0.029 A 
ATOM     66  C   UNL     1      -2.725  15.796   4.329  1.00  0.00     0.049 A 
ATOM     67  H   UNL     1      -1.179  14.389   4.620  1.00  0.00     0.167 HD
ATOM     68  C   UNL     1      -2.675  15.466   6.784  1.00  0.00     0.074 A 
ATOM     69  C   UNL     1      -3.136  15.730   8.132  1.00  0.00     0.031 C 
ATOM     70  C   UNL     1      -3.170  16.062   5.673  1.00  0.00     0.031 A 
BRANCH  57  71
ATOM     71  C   UNL     1      -0.547  14.235   0.395  1.00  0.00    -0.014 A 
ATOM     72  C   UNL     1      -0.105  15.428  -0.207  1.00  0.00     0.010 A 
ATOM     73  C   UNL     1      -1.061  13.208  -0.416  1.00  0.00     0.010 A 
ATOM     74  C   UNL     1      -0.195  15.601  -1.591  1.00  0.00     0.020 A 
ATOM     75  C   UNL     1      -1.132  13.369  -1.804  1.00  0.00     0.020 A 
ATOM     76  C   UNL     1      -0.717  14.572  -2.380  1.00  0.00     0.054 A 
BRANCH  76  77
ATOM     77  S   UNL     1      -0.829  14.810  -4.176  1.00  0.00     0.124 S 
ATOM     78  O   UNL     1      -2.030  15.629  -4.304  1.00  0.00    -0.237 OA
ATOM     79  O   UNL     1       0.430  15.481  -4.492  1.00  0.00    -0.237 OA
ATOM     80  O   UNL     1      -0.940  13.447  -4.692  1.00  0.00    -0.744 OA
ENDBRANCH  76  77
ENDBRANCH  57  71
BRANCH  58  81
ATOM     81  C   UNL     1      -0.623  13.097  10.311  1.00  0.00    -0.014 A 
ATOM     82  C   UNL     1       0.439  13.534  11.125  1.00  0.00     0.010 A 
ATOM     83  C   UNL     1      -1.669  12.356  10.889  1.00  0.00     0.010 A 
ATOM     84  C   UNL     1       0.489  13.182  12.475  1.00  0.00     0.020 A 
ATOM     85  C   UNL     1      -1.636  12.025  12.247  1.00  0.00     0.020 A 
ATOM     86  C   UNL     1      -0.540  12.413  13.023  1.00  0.00     0.054 A 
BRANCH  86  87
ATOM     87  S   UNL     1      -0.427  11.911  14.763  1.00  0.00     0.124 S 
ATOM     88  O   UNL     1       0.492  10.779  14.687  1.00  0.00    -0.237 OA
ATOM     89  O   UNL     1       0.102  13.109  15.410  1.00  0.00    -0.237 OA
ATOM     90  O   UNL     1      -1.806  11.577  15.111  1.00  0.00    -0.744 OA
ENDBRANCH  86  87
ENDBRANCH  58  81
BRANCH  70  91
ATOM     91  C   UNL     1      -4.268  17.077   5.843  1.00  0.00    -0.014 A 
ATOM     92  C   UNL     1      -5.571  16.777   5.406  1.00  0.00     0.010 A 
ATOM     93  C   UNL     1      -3.978  18.373   6.305  1.00  0.00     0.010 A 
ATOM     94  C   UNL     1      -6.559  17.764   5.396  1.00  0.00     0.020 A 
ATOM     95  C   UNL     1      -4.971  19.357   6.318  1.00  0.00     0.020 A 
ATOM     96  C   UNL     1      -6.248  19.052   5.839  1.00  0.00     0.054 A 
BRANCH  96  97
ATOM     97  S   UNL     1      -7.531  20.334   5.783  1.00  0.00     0.124 S 
ATOM     98  O   UNL     1      -7.521  20.718   4.375  1.00  0.00    -0.237 OA
ATOM     99  O   UNL     1      -8.723  19.618   6.232  1.00  0.00    -0.237 OA
ATOM    100  O   UNL     1      -7.039  21.349   6.712  1.00  0.00    -0.744 OA
ENDBRANCH  96  97
ENDBRANCH  70  91
ENDBRANCH  44  45
ENDBRANCH  36  39
ENDBRANCH  34  35
ENDBRANCH  33  34
ENDBRANCH  32  33
ENDBRANCH   1  32
TORSDOF 19
