REMARK SMILES CCc1nn(-c2ccncn2)c(Cl)c1C(=O)NCCCCCCNC(=O)c1ccc(-c2c3nc(c(-c4ccc(S(=O)(=O)[O-])cc4)c4ccc([nH]4)c(-c4ccc(S(=O)(=O)[O-])cc4)c4nc(c(-c5ccc(S(=O)(=O)[O-])cc5)c5ccc2[nH]5)C=C4)C=C3)cc1
REMARK SMILES IDX 21 1 20 2 19 3 18 4 17 5 15 6 16 7 14 9 3 10 4 11 5 12 12 13
REMARK SMILES IDX 13 14 2 15 1 16 6 17 7 18 11 19 8 20 10 21 9 22 22 23 23 24
REMARK SMILES IDX 24 25 25 26 26 28 27 29 28 30 86 31 29 32 85 33 30 34 31 35
REMARK SMILES IDX 32 36 79 37 33 38 84 39 78 40 80 41 34 42 83 43 77 44 76 45
REMARK SMILES IDX 35 47 65 48 46 49 64 50 47 51 50 52 63 53 81 54 48 55 49 56
REMARK SMILES IDX 62 58 82 59 51 60 36 61 37 62 45 63 38 64 44 65 39 66 40 67
REMARK SMILES IDX 41 68 42 69 43 70 66 71 67 72 75 73 68 74 74 75 69 76 70 77
REMARK SMILES IDX 71 78 72 79 73 80 52 81 53 82 61 83 54 84 60 85 55 86 56 87
REMARK SMILES IDX 57 88 58 89 59 90
REMARK H PARENT 17 8 24 27 80 46 50 57
REMARK Flexibility Score: inf
ROOT
ATOM      1  C   UNL     1       2.926  -3.484   0.125  1.00  0.00     0.002 C 
ENDROOT
BRANCH   1   2
ATOM      2  C   UNL     1       2.398  -2.631  -1.040  1.00  0.00     0.002 C 
BRANCH   2   3
ATOM      3  C   UNL     1       1.621  -1.375  -0.635  1.00  0.00     0.021 C 
BRANCH   3   4
ATOM      4  C   UNL     1       2.421  -0.406   0.237  1.00  0.00     0.116 C 
BRANCH   4   5
ATOM      5  N   UNL     1       3.183   0.492  -0.586  1.00  0.00    -0.352 N 
ATOM      6  C   UNL     1       3.123   1.815  -0.912  1.00  0.00     0.256 C 
ATOM      7  O   UNL     1       3.948   2.115  -1.782  1.00  0.00    -0.269 OA
ATOM      8  H   UNL     1       3.939   0.039  -1.025  1.00  0.00     0.163 HD
BRANCH   6   9
ATOM      9  C   UNL     1       2.268   2.838  -0.299  1.00  0.00     0.100 A 
ATOM     10  C   UNL     1       1.074   2.909   0.508  1.00  0.00     0.077 A 
ATOM     11  N   UNL     1       0.820   4.162   0.923  1.00  0.00    -0.169 NA
ATOM     12  N   UNL     1       1.626   4.947   0.184  1.00  0.00    -0.203 N 
ATOM     13  C   UNL     1       2.543   4.189  -0.496  1.00  0.00     0.147 A 
ATOM     14  Cl  UNL     1       3.850   4.976  -1.293  1.00  0.00    -0.061 Cl
BRANCH  10  15
ATOM     15  C   UNL     1       0.062   1.902   0.964  1.00  0.00     0.056 C 
ATOM     16  C   UNL     1      -0.605   1.156  -0.180  1.00  0.00     0.011 C 
ENDBRANCH  10  15
BRANCH  12  17
ATOM     17  C   UNL     1       1.439   6.357   0.164  1.00  0.00     0.158 A 
ATOM     18  C   UNL     1       1.354   6.995  -1.061  1.00  0.00     0.069 A 
ATOM     19  N   UNL     1       1.353   7.011   1.347  1.00  0.00    -0.217 NA
ATOM     20  C   UNL     1       1.214   8.361  -1.013  1.00  0.00     0.117 A 
ATOM     21  C   UNL     1       1.246   8.343   1.264  1.00  0.00     0.224 A 
ATOM     22  N   UNL     1       1.184   9.064   0.134  1.00  0.00    -0.245 NA
ENDBRANCH  12  17
ENDBRANCH   6   9
ENDBRANCH   4   5
ENDBRANCH   3   4
ENDBRANCH   2   3
ENDBRANCH   1   2
BRANCH   1  23
ATOM     23  C   UNL     1       1.911  -3.837   1.223  1.00  0.00     0.021 C 
BRANCH  23  24
ATOM     24  C   UNL     1       0.766  -4.698   0.722  1.00  0.00     0.116 C 
BRANCH  24  25
ATOM     25  N   UNL     1       1.218  -6.016   0.276  1.00  0.00    -0.352 N 
ATOM     26  C   UNL     1       0.460  -7.097  -0.142  1.00  0.00     0.251 C 
ATOM     27  H   UNL     1       2.193  -6.154   0.273  1.00  0.00     0.163 HD
ATOM     28  O   UNL     1       0.930  -8.222  -0.147  1.00  0.00    -0.269 OA
BRANCH  26  29
ATOM     29  C   UNL     1      -0.919  -6.849  -0.600  1.00  0.00     0.039 A 
ATOM     30  C   UNL     1      -1.955  -7.764  -0.385  1.00  0.00     0.014 A 
ATOM     31  C   UNL     1      -1.159  -5.656  -1.272  1.00  0.00     0.014 A 
ATOM     32  C   UNL     1      -3.236  -7.436  -0.825  1.00  0.00     0.010 A 
ATOM     33  C   UNL     1      -2.437  -5.239  -1.490  1.00  0.00     0.010 A 
ATOM     34  C   UNL     1      -3.459  -6.166  -1.378  1.00  0.00    -0.014 A 
BRANCH  34  35
ATOM     35  C   UNL     1      -4.771  -5.710  -1.796  1.00  0.00     0.031 A 
ATOM     36  C   UNL     1      -5.754  -5.640  -0.690  1.00  0.00     0.074 A 
ATOM     37  C   UNL     1      -4.978  -5.145  -3.007  1.00  0.00     0.049 A 
ATOM     38  N   UNL     1      -6.750  -6.433  -0.486  1.00  0.00    -0.248 NA
ATOM     39  C   UNL     1      -5.498  -4.707   0.422  1.00  0.00     0.031 C 
ATOM     40  C   UNL     1      -3.998  -4.849  -4.063  1.00  0.00     0.029 A 
ATOM     41  N   UNL     1      -6.109  -4.585  -3.502  1.00  0.00    -0.354 N 
ATOM     42  C   UNL     1      -7.400  -5.939   0.638  1.00  0.00     0.074 A 
ATOM     43  C   UNL     1      -6.467  -5.046   1.276  1.00  0.00     0.031 C 
ATOM     44  C   UNL     1      -4.523  -3.956  -4.933  1.00  0.00     0.029 A 
ATOM     45  C   UNL     1      -5.919  -3.746  -4.597  1.00  0.00     0.049 A 
ATOM     46  H   UNL     1      -6.997  -4.758  -3.116  1.00  0.00     0.167 HD
ATOM     47  C   UNL     1      -8.746  -6.084   0.792  1.00  0.00     0.031 A 
ATOM     48  C   UNL     1      -6.841  -2.915  -5.152  1.00  0.00     0.031 A 
ATOM     49  C   UNL     1      -9.289  -6.994  -0.188  1.00  0.00     0.049 A 
ATOM     50  C   UNL     1      -8.173  -3.412  -4.715  1.00  0.00     0.074 A 
ATOM     51  C   UNL     1      -9.060  -8.316  -0.513  1.00  0.00     0.029 A 
ATOM     52  N   UNL     1      -9.890  -6.428  -1.290  1.00  0.00    -0.354 N 
ATOM     53  N   UNL     1      -8.647  -4.574  -5.073  1.00  0.00    -0.248 NA
ATOM     54  C   UNL     1      -8.735  -2.863  -3.489  1.00  0.00     0.031 C 
ATOM     55  C   UNL     1      -9.078  -8.348  -1.938  1.00  0.00     0.029 A 
ATOM     56  C   UNL     1      -9.413  -7.074  -2.402  1.00  0.00     0.049 A 
ATOM     57  H   UNL     1     -10.544  -5.692  -1.282  1.00  0.00     0.167 HD
ATOM     58  C   UNL     1      -9.208  -5.101  -3.917  1.00  0.00     0.074 A 
ATOM     59  C   UNL     1      -9.312  -3.965  -2.998  1.00  0.00     0.031 C 
ATOM     60  C   UNL     1      -9.257  -6.450  -3.701  1.00  0.00     0.031 A 
BRANCH  47  61
ATOM     61  C   UNL     1      -9.625  -5.101   1.522  1.00  0.00    -0.014 A 
ATOM     62  C   UNL     1     -10.998  -5.397   1.647  1.00  0.00     0.010 A 
ATOM     63  C   UNL     1      -9.221  -3.789   1.844  1.00  0.00     0.010 A 
ATOM     64  C   UNL     1     -11.926  -4.408   1.994  1.00  0.00     0.020 A 
ATOM     65  C   UNL     1     -10.132  -2.807   2.234  1.00  0.00     0.020 A 
ATOM     66  C   UNL     1     -11.485  -3.115   2.271  1.00  0.00     0.054 A 
BRANCH  66  67
ATOM     67  S   UNL     1     -12.702  -1.822   2.614  1.00  0.00     0.124 S 
ATOM     68  O   UNL     1     -13.398  -1.720   1.335  1.00  0.00    -0.237 OA
ATOM     69  O   UNL     1     -13.469  -2.406   3.711  1.00  0.00    -0.237 OA
ATOM     70  O   UNL     1     -11.881  -0.669   2.976  1.00  0.00    -0.744 OA
ENDBRANCH  66  67
ENDBRANCH  47  61
BRANCH  48  71
ATOM     71  C   UNL     1      -6.630  -1.561  -5.735  1.00  0.00    -0.014 A 
ATOM     72  C   UNL     1      -7.641  -0.906  -6.466  1.00  0.00     0.010 A 
ATOM     73  C   UNL     1      -5.523  -0.787  -5.328  1.00  0.00     0.010 A 
ATOM     74  C   UNL     1      -7.577   0.479  -6.722  1.00  0.00     0.020 A 
ATOM     75  C   UNL     1      -5.450   0.590  -5.581  1.00  0.00     0.020 A 
ATOM     76  C   UNL     1      -6.490   1.224  -6.256  1.00  0.00     0.054 A 
BRANCH  76  77
ATOM     77  S   UNL     1      -6.497   3.037  -6.417  1.00  0.00     0.124 S 
ATOM     78  O   UNL     1      -6.312   3.225  -7.853  1.00  0.00    -0.237 OA
ATOM     79  O   UNL     1      -7.812   3.399  -5.896  1.00  0.00    -0.237 OA
ATOM     80  O   UNL     1      -5.369   3.459  -5.588  1.00  0.00    -0.744 OA
ENDBRANCH  76  77
ENDBRANCH  48  71
BRANCH  60  81
ATOM     81  C   UNL     1      -8.917  -7.381  -4.846  1.00  0.00    -0.014 A 
ATOM     82  C   UNL     1      -7.659  -7.430  -5.482  1.00  0.00     0.010 A 
ATOM     83  C   UNL     1      -9.867  -8.363  -5.174  1.00  0.00     0.010 A 
ATOM     84  C   UNL     1      -7.375  -8.421  -6.438  1.00  0.00     0.020 A 
ATOM     85  C   UNL     1      -9.584  -9.361  -6.109  1.00  0.00     0.020 A 
ATOM     86  C   UNL     1      -8.344  -9.380  -6.746  1.00  0.00     0.054 A 
BRANCH  86  87
ATOM     87  S   UNL     1      -7.971 -10.678  -7.958  1.00  0.00     0.124 S 
ATOM     88  O   UNL     1      -7.885  -9.929  -9.209  1.00  0.00    -0.237 OA
ATOM     89  O   UNL     1      -6.711 -11.231  -7.468  1.00  0.00    -0.237 OA
ATOM     90  O   UNL     1      -9.114 -11.586  -7.860  1.00  0.00    -0.744 OA
ENDBRANCH  86  87
ENDBRANCH  60  81
ENDBRANCH  34  35
ENDBRANCH  26  29
ENDBRANCH  24  25
ENDBRANCH  23  24
ENDBRANCH   1  23
TORSDOF 18
