REMARK SMILES Cc1cccc(OC2(C(=O)NCCCCCCNC(=O)c3ccc(-c4c5nc(c(-c6ccc(S(=O)(=O)[O-])cc6)c6ccc([nH]6)c(-c6ccc(S(=O)(=O)[O-])cc6)c6nc(c(-c7ccc(S(=O)(=O)[O-])cc7)c7ccc4[nH]7)C=C6)C=C5)cc3)CCN(C(=O)c3cnc[nH]c3=O)CC2)c1
REMARK SMILES IDX 15 1 14 2 13 3 12 4 11 5 9 6 10 7 8 9 81 10 94 11 82 12
REMARK SMILES IDX 93 13 83 14 84 15 85 16 7 17 6 18 1 19 2 20 3 21 95 22 4 23
REMARK SMILES IDX 5 24 86 25 87 26 91 27 88 28 90 29 92 30 89 31 16 33 17 34
REMARK SMILES IDX 18 35 19 36 20 38 21 39 22 40 80 41 23 42 79 43 24 44 25 45
REMARK SMILES IDX 26 46 73 47 27 48 78 49 72 50 74 51 28 52 77 53 71 54 70 55
REMARK SMILES IDX 29 57 59 58 40 59 58 60 41 61 44 62 57 63 75 64 42 65 43 66
REMARK SMILES IDX 56 68 76 69 45 70 30 71 31 72 39 73 32 74 38 75 33 76 34 77
REMARK SMILES IDX 35 78 36 79 37 80 60 81 61 82 69 83 62 84 68 85 63 86 64 87
REMARK SMILES IDX 65 88 66 89 67 90 46 91 47 92 55 93 48 94 54 95 49 96 50 97
REMARK SMILES IDX 51 98 52 99 53 100
REMARK H PARENT 11 8 90 32 18 37 74 56 44 67
REMARK Flexibility Score: inf
ROOT
ATOM      1  C   UNL     1       0.649   8.134  -4.179  1.00  0.00     0.002 C 
ENDROOT
BRANCH   1   2
ATOM      2  C   UNL     1       1.245   6.798  -3.714  1.00  0.00     0.002 C 
BRANCH   2   3
ATOM      3  C   UNL     1       1.079   6.407  -2.241  1.00  0.00     0.021 C 
BRANCH   3   4
ATOM      4  C   UNL     1      -0.341   6.427  -1.659  1.00  0.00     0.116 C 
BRANCH   4   5
ATOM      5  N   UNL     1      -1.133   5.245  -1.969  1.00  0.00    -0.353 N 
ATOM      6  C   UNL     1      -1.408   4.086  -1.301  1.00  0.00     0.264 C 
ATOM      7  O   UNL     1      -2.314   3.408  -1.808  1.00  0.00    -0.270 OA
ATOM      8  H   UNL     1      -1.563   5.291  -2.853  1.00  0.00     0.163 HD
BRANCH   6   9
ATOM      9  C   UNL     1      -0.713   3.629   0.031  1.00  0.00     0.190 C 
ATOM     10  C   UNL     1       0.791   3.933   0.042  1.00  0.00     0.080 C 
ATOM     11  C   UNL     1      -1.401   4.351   1.224  1.00  0.00     0.080 C 
ATOM     12  C   UNL     1       1.462   3.744   1.392  1.00  0.00     0.124 C 
ATOM     13  C   UNL     1      -0.675   4.035   2.541  1.00  0.00     0.124 C 
ATOM     14  N   UNL     1       0.712   4.453   2.408  1.00  0.00    -0.338 N 
ATOM     15  C   UNL     1       1.163   5.680   2.856  1.00  0.00     0.261 C 
ATOM     16  O   UNL     1       1.839   6.442   2.170  1.00  0.00    -0.269 OA
BRANCH   9  17
ATOM     17  O   UNL     1      -1.133   2.260   0.241  1.00  0.00    -0.477 OA
BRANCH  17  18
ATOM     18  C   UNL     1      -0.527   1.071   0.032  1.00  0.00     0.121 A 
ATOM     19  C   UNL     1       2.786  -0.791  -0.089  1.00  0.00     0.044 C 
ATOM     20  C   UNL     1       1.307  -0.526  -0.085  1.00  0.00    -0.047 A 
ATOM     21  C   UNL     1       0.403  -1.589  -0.039  1.00  0.00     0.003 A 
ATOM     22  C   UNL     1       0.827   0.795  -0.088  1.00  0.00     0.049 A 
ATOM     23  C   UNL     1      -0.962  -1.331   0.018  1.00  0.00     0.004 A 
ATOM     24  C   UNL     1      -1.416  -0.011   0.066  1.00  0.00     0.046 A 
ENDBRANCH  17  18
ENDBRANCH   9  17
BRANCH  15  25
ATOM     25  C   UNL     1       0.801   6.022   4.243  1.00  0.00     0.123 A 
ATOM     26  C   UNL     1       0.235   7.205   4.521  1.00  0.00     0.132 A 
ATOM     27  C   UNL     1       1.090   5.128   5.380  1.00  0.00     0.263 A 
ATOM     28  N   UNL     1      -0.130   7.633   5.777  1.00  0.00    -0.246 NA
ATOM     29  N   UNL     1       0.768   5.634   6.608  1.00  0.00    -0.312 N 
ATOM     30  O   UNL     1       1.570   4.006   5.265  1.00  0.00    -0.269 OA
ATOM     31  C   UNL     1       0.167   6.848   6.756  1.00  0.00     0.199 A 
ATOM     32  H   UNL     1       0.977   5.105   7.412  1.00  0.00     0.171 HD
ENDBRANCH  15  25
ENDBRANCH   6   9
ENDBRANCH   4   5
ENDBRANCH   3   4
ENDBRANCH   2   3
ENDBRANCH   1   2
BRANCH   1  33
ATOM     33  C   UNL     1       0.827   9.341  -3.257  1.00  0.00     0.021 C 
BRANCH  33  34
ATOM     34  C   UNL     1       2.260   9.795  -3.055  1.00  0.00     0.116 C 
BRANCH  34  35
ATOM     35  N   UNL     1       2.730  10.804  -3.994  1.00  0.00    -0.352 N 
ATOM     36  C   UNL     1       3.576  11.804  -3.509  1.00  0.00     0.251 C 
ATOM     37  H   UNL     1       2.460  10.781  -4.941  1.00  0.00     0.163 HD
ATOM     38  O   UNL     1       3.222  12.893  -3.113  1.00  0.00    -0.269 OA
BRANCH  36  39
ATOM     39  C   UNL     1       4.951  11.306  -3.281  1.00  0.00     0.039 A 
ATOM     40  C   UNL     1       5.952  11.457  -4.239  1.00  0.00     0.014 A 
ATOM     41  C   UNL     1       5.109  10.448  -2.192  1.00  0.00     0.014 A 
ATOM     42  C   UNL     1       7.078  10.633  -4.174  1.00  0.00     0.010 A 
ATOM     43  C   UNL     1       6.161   9.567  -2.193  1.00  0.00     0.010 A 
ATOM     44  C   UNL     1       7.135   9.640  -3.196  1.00  0.00    -0.014 A 
BRANCH  44  45
ATOM     45  C   UNL     1       8.149   8.600  -3.093  1.00  0.00     0.031 A 
ATOM     46  C   UNL     1       9.153   8.678  -2.006  1.00  0.00     0.074 A 
ATOM     47  C   UNL     1       7.980   7.455  -3.790  1.00  0.00     0.049 A 
ATOM     48  N   UNL     1      10.177   7.903  -1.891  1.00  0.00    -0.248 NA
ATOM     49  C   UNL     1       9.089   9.695  -0.958  1.00  0.00     0.031 C 
ATOM     50  C   UNL     1       8.543   6.144  -3.479  1.00  0.00     0.029 A 
ATOM     51  N   UNL     1       7.435   7.291  -5.065  1.00  0.00    -0.354 N 
ATOM     52  C   UNL     1      10.692   8.086  -0.625  1.00  0.00     0.074 A 
ATOM     53  C   UNL     1      10.049   9.279  -0.129  1.00  0.00     0.031 C 
ATOM     54  C   UNL     1       8.591   5.419  -4.608  1.00  0.00     0.029 A 
ATOM     55  C   UNL     1       8.232   6.317  -5.693  1.00  0.00     0.049 A 
ATOM     56  H   UNL     1       6.657   7.758  -5.444  1.00  0.00     0.167 HD
ATOM     57  C   UNL     1      11.488   7.121  -0.083  1.00  0.00     0.031 A 
ATOM     58  C   UNL     1       9.013   6.564  -6.787  1.00  0.00     0.031 A 
ATOM     59  C   UNL     1      11.807   6.084  -1.063  1.00  0.00     0.049 A 
ATOM     60  C   UNL     1      10.473   6.229  -6.557  1.00  0.00     0.074 A 
ATOM     61  C   UNL     1      11.336   4.799  -1.276  1.00  0.00     0.029 A 
ATOM     62  N   UNL     1      12.534   6.431  -2.195  1.00  0.00    -0.354 N 
ATOM     63  N   UNL     1      11.018   6.106  -5.378  1.00  0.00    -0.248 NA
ATOM     64  C   UNL     1      11.435   6.024  -7.635  1.00  0.00     0.031 C 
ATOM     65  C   UNL     1      11.724   4.404  -2.584  1.00  0.00     0.029 A 
ATOM     66  C   UNL     1      12.454   5.436  -3.148  1.00  0.00     0.049 A 
ATOM     67  H   UNL     1      13.037   7.271  -2.302  1.00  0.00     0.167 HD
ATOM     68  C   UNL     1      12.346   5.790  -5.509  1.00  0.00     0.074 A 
ATOM     69  C   UNL     1      12.558   5.751  -6.945  1.00  0.00     0.031 C 
ATOM     70  C   UNL     1      13.150   5.587  -4.421  1.00  0.00     0.031 A 
BRANCH  57  71
ATOM     71  C   UNL     1      11.758   6.972   1.403  1.00  0.00    -0.014 A 
ATOM     72  C   UNL     1      12.134   5.712   1.917  1.00  0.00     0.010 A 
ATOM     73  C   UNL     1      11.600   7.997   2.354  1.00  0.00     0.010 A 
ATOM     74  C   UNL     1      12.254   5.469   3.296  1.00  0.00     0.020 A 
ATOM     75  C   UNL     1      11.691   7.766   3.736  1.00  0.00     0.020 A 
ATOM     76  C   UNL     1      12.005   6.496   4.201  1.00  0.00     0.054 A 
BRANCH  76  77
ATOM     77  S   UNL     1      12.095   6.157   5.979  1.00  0.00     0.124 S 
ATOM     78  O   UNL     1      11.090   5.111   6.151  1.00  0.00    -0.237 OA
ATOM     79  O   UNL     1      13.482   5.735   6.149  1.00  0.00    -0.237 OA
ATOM     80  O   UNL     1      11.758   7.440   6.595  1.00  0.00    -0.744 OA
ENDBRANCH  76  77
ENDBRANCH  57  71
BRANCH  58  81
ATOM     81  C   UNL     1       8.514   7.670  -7.654  1.00  0.00    -0.014 A 
ATOM     82  C   UNL     1       7.317   7.438  -8.364  1.00  0.00     0.010 A 
ATOM     83  C   UNL     1       8.906   8.996  -7.393  1.00  0.00     0.010 A 
ATOM     84  C   UNL     1       6.427   8.486  -8.611  1.00  0.00     0.020 A 
ATOM     85  C   UNL     1       8.020  10.051  -7.656  1.00  0.00     0.020 A 
ATOM     86  C   UNL     1       6.754   9.772  -8.180  1.00  0.00     0.054 A 
BRANCH  86  87
ATOM     87  S   UNL     1       5.419  11.007  -8.096  1.00  0.00     0.124 S 
ATOM     88  O   UNL     1       4.902  11.008  -9.460  1.00  0.00    -0.237 OA
ATOM     89  O   UNL     1       4.536  10.428  -7.083  1.00  0.00    -0.237 OA
ATOM     90  O   UNL     1       6.111  12.225  -7.684  1.00  0.00    -0.744 OA
ENDBRANCH  86  87
ENDBRANCH  58  81
BRANCH  70  91
ATOM     91  C   UNL     1      14.659   5.441  -4.414  1.00  0.00    -0.014 A 
ATOM     92  C   UNL     1      15.502   5.793  -5.478  1.00  0.00     0.010 A 
ATOM     93  C   UNL     1      15.295   5.035  -3.212  1.00  0.00     0.010 A 
ATOM     94  C   UNL     1      16.899   5.697  -5.367  1.00  0.00     0.020 A 
ATOM     95  C   UNL     1      16.685   4.980  -3.075  1.00  0.00     0.020 A 
ATOM     96  C   UNL     1      17.482   5.291  -4.167  1.00  0.00     0.054 A 
BRANCH  96  97
ATOM     97  S   UNL     1      19.285   5.245  -4.016  1.00  0.00     0.124 S 
ATOM     98  O   UNL     1      19.598   3.924  -4.554  1.00  0.00    -0.237 OA
ATOM     99  O   UNL     1      19.709   6.374  -4.841  1.00  0.00    -0.237 OA
ATOM    100  O   UNL     1      19.514   5.411  -2.583  1.00  0.00    -0.744 OA
ENDBRANCH  96  97
ENDBRANCH  70  91
ENDBRANCH  44  45
ENDBRANCH  36  39
ENDBRANCH  34  35
ENDBRANCH  33  34
ENDBRANCH   1  33
TORSDOF 19
