REMARK SMILES Cc1cc(Br)c2ncc(C(=O)NCCCCCCNC(=O)c3ccc(-c4c5nc(c(-c6ccc(S(=O)(=O)[O-])cc6)c6ccc([nH]6)c(-c6ccc(S(=O)(=O)[O-])cc6)c6nc(c(-c7ccc(S(=O)(=O)[O-])cc7)c7ccc4[nH]7)C=C6)C=C5)cc3)c(N)c2c1
REMARK SMILES IDX 16 1 15 2 14 3 13 4 12 5 10 6 11 7 9 9 1 10 2 11 3 12 85 13
REMARK SMILES IDX 4 14 84 15 5 16 6 17 82 18 7 19 8 20 83 21 17 24 18 25 19 26
REMARK SMILES IDX 20 27 21 29 22 30 23 31 81 32 24 33 80 34 25 35 26 36 27 37
REMARK SMILES IDX 74 38 28 39 79 40 73 41 75 42 29 43 78 44 72 45 71 46 30 48
REMARK SMILES IDX 60 49 41 50 59 51 42 52 45 53 58 54 76 55 43 56 44 57 57 59
REMARK SMILES IDX 77 60 46 61 31 62 32 63 40 64 33 65 39 66 34 67 35 68 36 69
REMARK SMILES IDX 37 70 38 71 61 72 62 73 70 74 63 75 69 76 64 77 65 78 66 79
REMARK SMILES IDX 67 80 68 81 47 82 48 83 56 84 49 85 55 86 50 87 51 88 52 89
REMARK SMILES IDX 53 90 54 91
REMARK H PARENT 12 8 83 22 83 23 19 28 75 47 45 58
REMARK Flexibility Score: inf
ROOT
ATOM      1  C   UNL     1      -2.953   2.797  11.270  1.00  0.00     0.002 C 
ENDROOT
BRANCH   1   2
ATOM      2  C   UNL     1      -3.682   2.501   9.953  1.00  0.00     0.002 C 
BRANCH   2   3
ATOM      3  C   UNL     1      -2.931   2.942   8.686  1.00  0.00     0.021 C 
BRANCH   3   4
ATOM      4  C   UNL     1      -1.599   2.212   8.492  1.00  0.00     0.116 C 
BRANCH   4   5
ATOM      5  N   UNL     1      -1.853   0.866   8.013  1.00  0.00    -0.352 N 
ATOM      6  C   UNL     1      -1.829   0.269   6.780  1.00  0.00     0.254 C 
ATOM      7  O   UNL     1      -2.222  -0.902   6.746  1.00  0.00    -0.269 OA
ATOM      8  H   UNL     1      -2.095   0.242   8.735  1.00  0.00     0.163 HD
BRANCH   6   9
ATOM      9  C   UNL     1      -1.330   0.910   5.526  1.00  0.00     0.081 A 
ATOM     10  C   UNL     1       1.090  -0.155  -0.175  1.00  0.00     0.044 C 
ATOM     11  C   UNL     1       0.632   0.643   1.009  1.00  0.00    -0.049 A 
ATOM     12  C   UNL     1       0.746   2.027   1.015  1.00  0.00     0.021 A 
ATOM     13  C   UNL     1       0.114   0.014   2.145  1.00  0.00     0.016 A 
ATOM     14  C   UNL     1       0.281   2.760   2.112  1.00  0.00     0.044 A 
ATOM     15  C   UNL     1      -0.364   0.741   3.267  1.00  0.00     0.025 A 
ATOM     16  Br  UNL     1       0.485   4.655   2.028  1.00  0.00    -0.048 Br
ATOM     17  C   UNL     1      -0.307   2.152   3.231  1.00  0.00     0.086 A 
ATOM     18  C   UNL     1      -0.905   0.116   4.434  1.00  0.00     0.055 A 
ATOM     19  N   UNL     1      -0.814   2.893   4.236  1.00  0.00    -0.254 NA
ATOM     20  C   UNL     1      -1.330   2.273   5.323  1.00  0.00     0.127 A 
BRANCH  18  21
ATOM     21  N   UNL     1      -0.886  -1.291   4.545  1.00  0.00    -0.397 N 
ATOM     22  H   UNL     1      -1.257  -1.727   5.346  1.00  0.00     0.156 HD
ATOM     23  H   UNL     1      -0.502  -1.837   3.821  1.00  0.00     0.156 HD
ENDBRANCH  18  21
ENDBRANCH   6   9
ENDBRANCH   4   5
ENDBRANCH   3   4
ENDBRANCH   2   3
ENDBRANCH   1   2
BRANCH   1  24
ATOM     24  C   UNL     1      -2.502   4.250  11.440  1.00  0.00     0.021 C 
BRANCH  24  25
ATOM     25  C   UNL     1      -3.648   5.256  11.416  1.00  0.00     0.116 C 
BRANCH  25  26
ATOM     26  N   UNL     1      -4.493   5.116  12.591  1.00  0.00    -0.352 N 
ATOM     27  C   UNL     1      -4.697   6.024  13.601  1.00  0.00     0.251 C 
ATOM     28  H   UNL     1      -4.979   4.264  12.674  1.00  0.00     0.163 HD
ATOM     29  O   UNL     1      -5.218   5.682  14.654  1.00  0.00    -0.269 OA
BRANCH  27  30
ATOM     30  C   UNL     1      -4.276   7.423  13.392  1.00  0.00     0.039 A 
ATOM     31  C   UNL     1      -3.472   8.047  14.347  1.00  0.00     0.014 A 
ATOM     32  C   UNL     1      -4.682   8.106  12.241  1.00  0.00     0.014 A 
ATOM     33  C   UNL     1      -3.046   9.358  14.132  1.00  0.00     0.010 A 
ATOM     34  C   UNL     1      -4.217   9.394  12.005  1.00  0.00     0.010 A 
ATOM     35  C   UNL     1      -3.409  10.035  12.956  1.00  0.00    -0.014 A 
BRANCH  35  36
ATOM     36  C   UNL     1      -3.013  11.444  12.732  1.00  0.00     0.031 A 
ATOM     37  C   UNL     1      -4.059  12.520  12.799  1.00  0.00     0.074 A 
ATOM     38  C   UNL     1      -1.736  11.749  12.433  1.00  0.00     0.049 A 
ATOM     39  N   UNL     1      -3.935  13.802  12.581  1.00  0.00    -0.248 NA
ATOM     40  C   UNL     1      -5.429  12.096  13.140  1.00  0.00     0.031 C 
ATOM     41  C   UNL     1      -0.637  10.788  12.329  1.00  0.00     0.029 A 
ATOM     42  N   UNL     1      -1.149  12.959  12.160  1.00  0.00    -0.354 N 
ATOM     43  C   UNL     1      -5.205  14.337  12.753  1.00  0.00     0.074 A 
ATOM     44  C   UNL     1      -6.096  13.238  13.050  1.00  0.00     0.031 C 
ATOM     45  C   UNL     1       0.495  11.449  12.034  1.00  0.00     0.029 A 
ATOM     46  C   UNL     1       0.197  12.873  11.899  1.00  0.00     0.049 A 
ATOM     47  H   UNL     1      -1.646  13.809  12.152  1.00  0.00     0.167 HD
ATOM     48  C   UNL     1      -5.591  15.631  12.690  1.00  0.00     0.031 A 
ATOM     49  C   UNL     1       1.089  13.832  11.585  1.00  0.00     0.031 A 
ATOM     50  C   UNL     1      -4.701  16.723  12.410  1.00  0.00     0.049 A 
ATOM     51  C   UNL     1       0.632  15.261  11.492  1.00  0.00     0.074 A 
ATOM     52  C   UNL     1      -4.992  18.075  12.363  1.00  0.00     0.029 A 
ATOM     53  N   UNL     1      -3.350  16.591  12.135  1.00  0.00    -0.354 N 
ATOM     54  N   UNL     1      -0.569  15.752  11.684  1.00  0.00    -0.248 NA
ATOM     55  C   UNL     1       1.646  16.267  11.143  1.00  0.00     0.031 C 
ATOM     56  C   UNL     1      -3.822  18.758  12.021  1.00  0.00     0.029 A 
ATOM     57  C   UNL     1      -2.795  17.835  11.900  1.00  0.00     0.049 A 
ATOM     58  H   UNL     1      -2.858  15.738  12.111  1.00  0.00     0.167 HD
ATOM     59  C   UNL     1      -0.452  17.124  11.498  1.00  0.00     0.074 A 
ATOM     60  C   UNL     1       0.937  17.388  11.183  1.00  0.00     0.031 C 
ATOM     61  C   UNL     1      -1.410  18.078  11.586  1.00  0.00     0.031 A 
BRANCH  48  62
ATOM     62  C   UNL     1      -7.040  15.940  12.937  1.00  0.00    -0.014 A 
ATOM     63  C   UNL     1      -7.570  15.898  14.239  1.00  0.00     0.010 A 
ATOM     64  C   UNL     1      -7.864  16.339  11.870  1.00  0.00     0.010 A 
ATOM     65  C   UNL     1      -8.906  16.235  14.466  1.00  0.00     0.020 A 
ATOM     66  C   UNL     1      -9.195  16.697  12.097  1.00  0.00     0.020 A 
ATOM     67  C   UNL     1      -9.708  16.639  13.395  1.00  0.00     0.054 A 
BRANCH  67  68
ATOM     68  S   UNL     1     -11.428  17.103  13.733  1.00  0.00     0.124 S 
ATOM     69  O   UNL     1     -11.979  15.862  14.272  1.00  0.00    -0.237 OA
ATOM     70  O   UNL     1     -11.276  18.192  14.693  1.00  0.00    -0.237 OA
ATOM     71  O   UNL     1     -11.948  17.493  12.425  1.00  0.00    -0.744 OA
ENDBRANCH  67  68
ENDBRANCH  48  62
BRANCH  49  72
ATOM     72  C   UNL     1       2.512  13.464  11.361  1.00  0.00    -0.014 A 
ATOM     73  C   UNL     1       3.476  13.731  12.348  1.00  0.00     0.010 A 
ATOM     74  C   UNL     1       2.900  12.797  10.185  1.00  0.00     0.010 A 
ATOM     75  C   UNL     1       4.803  13.331  12.167  1.00  0.00     0.020 A 
ATOM     76  C   UNL     1       4.222  12.380  10.008  1.00  0.00     0.020 A 
ATOM     77  C   UNL     1       5.165  12.647  11.003  1.00  0.00     0.054 A 
BRANCH  77  78
ATOM     78  S   UNL     1       6.880  12.080  10.828  1.00  0.00     0.124 S 
ATOM     79  O   UNL     1       7.625  13.335  10.865  1.00  0.00    -0.237 OA
ATOM     80  O   UNL     1       7.037  11.216  11.994  1.00  0.00    -0.237 OA
ATOM     81  O   UNL     1       6.885  11.389   9.541  1.00  0.00    -0.744 OA
ENDBRANCH  77  78
ENDBRANCH  49  72
BRANCH  61  82
ATOM     82  C   UNL     1      -1.005  19.507  11.355  1.00  0.00    -0.014 A 
ATOM     83  C   UNL     1      -0.814  19.999  10.053  1.00  0.00     0.010 A 
ATOM     84  C   UNL     1      -0.940  20.393  12.446  1.00  0.00     0.010 A 
ATOM     85  C   UNL     1      -0.566  21.358   9.846  1.00  0.00     0.020 A 
ATOM     86  C   UNL     1      -0.711  21.756  12.240  1.00  0.00     0.020 A 
ATOM     87  C   UNL     1      -0.528  22.229  10.939  1.00  0.00     0.054 A 
BRANCH  87  88
ATOM     88  S   UNL     1      -0.275  23.998  10.628  1.00  0.00     0.124 S 
ATOM     89  O   UNL     1       1.048  24.016  10.009  1.00  0.00    -0.237 OA
ATOM     90  O   UNL     1      -1.389  24.322   9.740  1.00  0.00    -0.237 OA
ATOM     91  O   UNL     1      -0.345  24.600  11.957  1.00  0.00    -0.744 OA
ENDBRANCH  87  88
ENDBRANCH  61  82
ENDBRANCH  35  36
ENDBRANCH  27  30
ENDBRANCH  25  26
ENDBRANCH  24  25
ENDBRANCH   1  24
TORSDOF 17
