REMARK SMILES O=C(NCCCCCCNC(=O)[C@H]1CC2(CCN(S(=O)(=O)N3CCOCC3)CC2)C[NH2+]1)c1ccc(-c2c3nc(c(-c4ccc(S(=O)(=O)[O-])cc4)c4ccc([nH]4)c(-c4ccc(S(=O)(=O)[O-])cc4)c4nc(c(-c5ccc(S(=O)(=O)[O-])cc5)c5ccc2[nH]5)C=C4)C=C3)cc1
REMARK SMILES IDX 6 1 5 2 4 3 3 4 1 5 2 6 32 8 33 9 91 10 34 11 90 12 35 13
REMARK SMILES IDX 36 14 37 15 84 16 38 17 89 18 83 19 85 20 39 21 88 22 82 23
REMARK SMILES IDX 81 24 40 26 70 27 51 28 69 29 52 30 55 31 68 32 86 33 53 34
REMARK SMILES IDX 54 35 67 37 87 38 56 39 41 40 42 41 50 42 43 43 49 44 44 45
REMARK SMILES IDX 45 46 46 47 47 48 48 49 71 50 72 51 80 52 73 53 79 54 74 55
REMARK SMILES IDX 75 56 76 57 77 58 78 59 57 60 58 61 66 62 59 63 65 64 60 65
REMARK SMILES IDX 61 66 62 67 63 68 64 69 7 70 8 71 9 72 10 73 11 74 12 76
REMARK SMILES IDX 13 77 14 78 31 79 15 80 30 81 16 84 29 85 17 86 28 87 18 88
REMARK SMILES IDX 19 89 20 90 21 91 22 92 23 93 27 94 24 95 26 96 25 97
REMARK H PARENT 3 7 85 25 55 36 10 75 31 82 31 83
REMARK Flexibility Score: inf
ROOT
ATOM      1  C   UNL     1       5.434  -4.894   0.195  1.00  0.00     0.002 C 
ENDROOT
BRANCH   1   2
ATOM      2  C   UNL     1       4.392  -6.009   0.297  1.00  0.00     0.021 C 
BRANCH   2   3
ATOM      3  C   UNL     1       2.974  -5.511   0.548  1.00  0.00     0.116 C 
BRANCH   3   4
ATOM      4  N   UNL     1       2.505  -4.665  -0.537  1.00  0.00    -0.352 N 
ATOM      5  O   UNL     1       1.325  -4.167  -2.390  1.00  0.00    -0.269 OA
ATOM      6  C   UNL     1       1.440  -4.854  -1.380  1.00  0.00     0.251 C 
ATOM      7  H   UNL     1       3.024  -3.842  -0.687  1.00  0.00     0.163 HD
BRANCH   6   8
ATOM      8  C   UNL     1       0.445  -5.899  -1.068  1.00  0.00     0.039 A 
ATOM      9  C   UNL     1      -0.059  -6.036   0.230  1.00  0.00     0.014 A 
ATOM     10  C   UNL     1       0.008  -6.745  -2.089  1.00  0.00     0.014 A 
ATOM     11  C   UNL     1      -0.910  -7.093   0.533  1.00  0.00     0.010 A 
ATOM     12  C   UNL     1      -0.907  -7.756  -1.798  1.00  0.00     0.010 A 
ATOM     13  C   UNL     1      -1.355  -7.954  -0.481  1.00  0.00    -0.014 A 
BRANCH  13  14
ATOM     14  C   UNL     1      -2.330  -9.029  -0.176  1.00  0.00     0.031 A 
ATOM     15  C   UNL     1      -1.960 -10.473  -0.356  1.00  0.00     0.074 A 
ATOM     16  C   UNL     1      -3.569  -8.691   0.229  1.00  0.00     0.049 A 
ATOM     17  N   UNL     1      -2.710 -11.537  -0.228  1.00  0.00    -0.248 NA
ATOM     18  C   UNL     1      -0.570 -10.759  -0.741  1.00  0.00     0.031 C 
ATOM     19  C   UNL     1      -4.041  -7.321   0.449  1.00  0.00     0.029 A 
ATOM     20  N   UNL     1      -4.662  -9.468   0.515  1.00  0.00    -0.354 N 
ATOM     21  C   UNL     1      -1.895 -12.617  -0.542  1.00  0.00     0.074 A 
ATOM     22  C   UNL     1      -0.598 -12.076  -0.892  1.00  0.00     0.031 C 
ATOM     23  C   UNL     1      -5.320  -7.356   0.846  1.00  0.00     0.029 A 
ATOM     24  C   UNL     1      -5.781  -8.740   0.840  1.00  0.00     0.049 A 
ATOM     25  H   UNL     1      -4.646 -10.453   0.490  1.00  0.00     0.167 HD
ATOM     26  C   UNL     1      -2.201 -13.938  -0.542  1.00  0.00     0.031 A 
ATOM     27  C   UNL     1      -7.048  -9.132   1.069  1.00  0.00     0.031 A 
ATOM     28  C   UNL     1      -3.503 -14.459  -0.214  1.00  0.00     0.049 A 
ATOM     29  C   UNL     1      -7.383 -10.594   1.008  1.00  0.00     0.074 A 
ATOM     30  C   UNL     1      -3.911 -15.781  -0.157  1.00  0.00     0.029 A 
ATOM     31  N   UNL     1      -4.613 -13.686   0.098  1.00  0.00    -0.354 N 
ATOM     32  N   UNL     1      -6.592 -11.606   0.739  1.00  0.00    -0.248 NA
ATOM     33  C   UNL     1      -8.774 -10.970   1.288  1.00  0.00     0.031 C 
ATOM     34  C   UNL     1      -5.282 -15.803   0.119  1.00  0.00     0.029 A 
ATOM     35  C   UNL     1      -5.712 -14.500   0.319  1.00  0.00     0.049 A 
ATOM     36  H   UNL     1      -4.619 -12.703   0.153  1.00  0.00     0.167 HD
ATOM     37  C   UNL     1      -7.383 -12.743   0.852  1.00  0.00     0.074 A 
ATOM     38  C   UNL     1      -8.712 -12.293   1.214  1.00  0.00     0.031 C 
ATOM     39  C   UNL     1      -7.031 -14.042   0.683  1.00  0.00     0.031 A 
BRANCH  26  40
ATOM     40  C   UNL     1      -1.120 -14.903  -0.961  1.00  0.00    -0.014 A 
ATOM     41  C   UNL     1       0.031 -15.106  -0.178  1.00  0.00     0.010 A 
ATOM     42  C   UNL     1      -1.265 -15.630  -2.158  1.00  0.00     0.010 A 
ATOM     43  C   UNL     1       1.045 -15.962  -0.617  1.00  0.00     0.020 A 
ATOM     44  C   UNL     1      -0.269 -16.514  -2.583  1.00  0.00     0.020 A 
ATOM     45  C   UNL     1       0.892 -16.653  -1.822  1.00  0.00     0.054 A 
BRANCH  45  46
ATOM     46  S   UNL     1       2.236 -17.736  -2.380  1.00  0.00     0.124 S 
ATOM     47  O   UNL     1       3.261 -16.767  -2.763  1.00  0.00    -0.237 OA
ATOM     48  O   UNL     1       2.532 -18.521  -1.185  1.00  0.00    -0.237 OA
ATOM     49  O   UNL     1       1.644 -18.485  -3.485  1.00  0.00    -0.744 OA
ENDBRANCH  45  46
ENDBRANCH  26  40
BRANCH  27  50
ATOM     50  C   UNL     1      -8.083  -8.104   1.363  1.00  0.00    -0.014 A 
ATOM     51  C   UNL     1      -8.615  -7.973   2.656  1.00  0.00     0.010 A 
ATOM     52  C   UNL     1      -8.485  -7.199   0.361  1.00  0.00     0.010 A 
ATOM     53  C   UNL     1      -9.528  -6.955   2.944  1.00  0.00     0.020 A 
ATOM     54  C   UNL     1      -9.373  -6.161   0.653  1.00  0.00     0.020 A 
ATOM     55  C   UNL     1      -9.892  -6.048   1.943  1.00  0.00     0.054 A 
BRANCH  55  56
ATOM     56  S   UNL     1     -11.007  -4.682   2.368  1.00  0.00     0.124 S 
ATOM     57  O   UNL     1     -12.276  -5.375   2.566  1.00  0.00    -0.237 OA
ATOM     58  O   UNL     1     -10.388  -4.137   3.574  1.00  0.00    -0.237 OA
ATOM     59  O   UNL     1     -10.945  -3.811   1.197  1.00  0.00    -0.744 OA
ENDBRANCH  55  56
ENDBRANCH  27  50
BRANCH  39  60
ATOM     60  C   UNL     1      -8.079 -15.092   0.946  1.00  0.00    -0.014 A 
ATOM     61  C   UNL     1      -9.149 -15.306   0.060  1.00  0.00     0.010 A 
ATOM     62  C   UNL     1      -7.930 -15.940   2.059  1.00  0.00     0.010 A 
ATOM     63  C   UNL     1     -10.058 -16.344   0.291  1.00  0.00     0.020 A 
ATOM     64  C   UNL     1      -8.817 -16.997   2.276  1.00  0.00     0.020 A 
ATOM     65  C   UNL     1      -9.880 -17.188   1.392  1.00  0.00     0.054 A 
BRANCH  65  66
ATOM     66  S   UNL     1     -11.023 -18.578   1.621  1.00  0.00     0.124 S 
ATOM     67  O   UNL     1     -12.251 -17.899   2.025  1.00  0.00    -0.237 OA
ATOM     68  O   UNL     1     -11.049 -19.191   0.296  1.00  0.00    -0.237 OA
ATOM     69  O   UNL     1     -10.386 -19.383   2.662  1.00  0.00    -0.744 OA
ENDBRANCH  65  66
ENDBRANCH  39  60
ENDBRANCH  13  14
ENDBRANCH   6   8
ENDBRANCH   3   4
ENDBRANCH   2   3
ENDBRANCH   1   2
BRANCH   1  70
ATOM     70  C   UNL     1       5.492  -3.963   1.411  1.00  0.00     0.002 C 
BRANCH  70  71
ATOM     71  C   UNL     1       5.701  -4.682   2.746  1.00  0.00     0.021 C 
BRANCH  71  72
ATOM     72  C   UNL     1       6.970  -5.522   2.777  1.00  0.00     0.116 C 
BRANCH  72  73
ATOM     73  N   UNL     1       8.144  -4.671   2.713  1.00  0.00    -0.351 N 
ATOM     74  C   UNL     1       8.969  -4.300   3.743  1.00  0.00     0.278 C 
ATOM     75  H   UNL     1       8.376  -4.319   1.823  1.00  0.00     0.163 HD
ATOM     76  O   UNL     1       9.763  -3.379   3.564  1.00  0.00    -0.268 OA
BRANCH  74  77
ATOM     77  C   UNL     1       8.840  -5.095   5.043  1.00  0.00     0.273 C 
ATOM     78  C   UNL     1       9.340  -6.515   4.838  1.00  0.00     0.088 C 
ATOM     79  N   UNL     1       9.748  -4.629   6.102  1.00  0.00    -0.336 N 
ATOM     80  C   UNL     1       9.706  -7.001   6.252  1.00  0.00     0.028 C 
ATOM     81  C   UNL     1       9.751  -5.706   7.088  1.00  0.00     0.268 C 
ATOM     82  H   UNL     1       9.404  -3.763   6.516  1.00  0.00     0.346 HD
ATOM     83  H   UNL     1      10.684  -4.428   5.748  1.00  0.00     0.346 HD
ATOM     84  C   UNL     1      11.088  -7.673   6.180  1.00  0.00     0.030 C 
ATOM     85  C   UNL     1       8.613  -7.960   6.803  1.00  0.00     0.030 C 
ATOM     86  C   UNL     1      10.954  -9.043   5.548  1.00  0.00     0.104 C 
ATOM     87  C   UNL     1       8.688  -9.397   6.267  1.00  0.00     0.104 C 
ATOM     88  N   UNL     1      10.082  -9.919   6.349  1.00  0.00    -0.189 NA
BRANCH  88  89
ATOM     89  S   UNL     1      10.534 -10.428   7.904  1.00  0.00     0.282 S 
ATOM     90  O   UNL     1      10.668  -9.268   8.758  1.00  0.00    -0.195 OA
ATOM     91  O   UNL     1       9.630 -11.493   8.267  1.00  0.00    -0.195 OA
BRANCH  89  92
ATOM     92  N   UNL     1      12.037 -11.086   7.690  1.00  0.00    -0.184 NA
ATOM     93  C   UNL     1      12.215 -12.374   7.008  1.00  0.00     0.132 C 
ATOM     94  C   UNL     1      13.290 -10.330   7.853  1.00  0.00     0.132 C 
ATOM     95  C   UNL     1      12.865 -12.122   5.652  1.00  0.00     0.177 C 
ATOM     96  C   UNL     1      14.084 -10.245   6.542  1.00  0.00     0.177 C 
ATOM     97  O   UNL     1      14.140 -11.473   5.801  1.00  0.00    -0.379 OA
ENDBRANCH  89  92
ENDBRANCH  88  89
ENDBRANCH  74  77
ENDBRANCH  72  73
ENDBRANCH  71  72
ENDBRANCH  70  71
ENDBRANCH   1  70
TORSDOF 18
