REMARK SMILES COc1ccc(Nc2cc(C(=O)NCCCCCCNC(=O)c3ccc(-c4c5nc(c(-c6ccc(S(=O)(=O)[O-])cc6)c6ccc([nH]6)c(-c6ccc(S(=O)(=O)[O-])cc6)c6nc(c(-c7ccc(S(=O)(=O)[O-])cc7)c7ccc4[nH]7)C=C6)C=C5)cc3)ccn2)cc1
REMARK SMILES IDX 16 1 15 2 14 3 13 4 11 5 12 6 10 8 8 9 9 10 85 11 84 12
REMARK SMILES IDX 83 13 7 14 6 16 3 17 4 18 87 19 5 20 86 21 2 22 1 23 17 24
REMARK SMILES IDX 18 25 19 26 20 27 21 28 22 30 23 31 24 32 82 33 25 34 81 35
REMARK SMILES IDX 26 36 27 37 28 38 75 39 29 40 80 41 74 42 76 43 30 44 79 45
REMARK SMILES IDX 73 46 72 47 31 49 61 50 42 51 60 52 43 53 46 54 59 55 77 56
REMARK SMILES IDX 44 57 45 58 58 60 78 61 47 62 32 63 33 64 41 65 34 66 40 67
REMARK SMILES IDX 35 68 36 69 37 70 38 71 39 72 62 73 63 74 71 75 64 76 70 77
REMARK SMILES IDX 65 78 66 79 67 80 68 81 69 82 48 83 49 84 57 85 50 86 56 87
REMARK SMILES IDX 51 88 52 89 53 90 54 91 55 92
REMARK H PARENT 13 7 7 15 20 29 76 48 46 59
REMARK Flexibility Score: inf
ROOT
ATOM      1  C   UNL     1      -2.647   1.224  -7.248  1.00  0.00     0.002 C 
ENDROOT
BRANCH   1   2
ATOM      2  C   UNL     1      -1.647   0.099  -6.944  1.00  0.00     0.021 C 
BRANCH   2   3
ATOM      3  C   UNL     1      -2.290  -1.079  -6.207  1.00  0.00     0.116 C 
BRANCH   3   4
ATOM      4  N   UNL     1      -2.926  -1.972  -7.159  1.00  0.00    -0.352 N 
ATOM      5  C   UNL     1      -2.550  -3.147  -7.756  1.00  0.00     0.251 C 
ATOM      6  O   UNL     1      -3.334  -3.636  -8.572  1.00  0.00    -0.269 OA
ATOM      7  H   UNL     1      -3.821  -1.669  -7.435  1.00  0.00     0.163 HD
BRANCH   5   8
ATOM      8  C   UNL     1      -1.305  -3.897  -7.430  1.00  0.00     0.044 A 
ATOM      9  C   UNL     1       0.813  -4.212  -6.345  1.00  0.00     0.131 A 
ATOM     10  C   UNL     1      -0.191  -3.362  -6.801  1.00  0.00     0.061 A 
ATOM     11  N   UNL     1       0.857  -5.515  -6.676  1.00  0.00    -0.239 NA
ATOM     12  C   UNL     1      -0.184  -6.008  -7.378  1.00  0.00     0.114 A 
ATOM     13  C   UNL     1      -1.287  -5.258  -7.743  1.00  0.00     0.034 A 
BRANCH   9  14
ATOM     14  N   UNL     1       1.738  -3.750  -5.393  1.00  0.00    -0.340 N 
ATOM     15  H   UNL     1       2.692  -3.889  -5.591  1.00  0.00     0.168 HD
BRANCH  14  16
ATOM     16  C   UNL     1       1.419  -3.102  -4.175  1.00  0.00     0.040 A 
ATOM     17  C   UNL     1       0.834  -1.842  -1.715  1.00  0.00     0.119 A 
ATOM     18  C   UNL     1      -0.150  -2.556  -2.391  1.00  0.00     0.048 A 
ATOM     19  C   UNL     1       2.120  -1.778  -2.251  1.00  0.00     0.048 A 
ATOM     20  C   UNL     1       0.138  -3.176  -3.607  1.00  0.00     0.030 A 
ATOM     21  C   UNL     1       2.409  -2.408  -3.473  1.00  0.00     0.030 A 
BRANCH  17  22
ATOM     22  O   UNL     1       0.440  -1.309  -0.521  1.00  0.00    -0.497 OA
ATOM     23  C   UNL     1       1.095  -0.106  -0.134  1.00  0.00     0.278 C 
ENDBRANCH  17  22
ENDBRANCH  14  16
ENDBRANCH   9  14
ENDBRANCH   5   8
ENDBRANCH   3   4
ENDBRANCH   2   3
ENDBRANCH   1   2
BRANCH   1  24
ATOM     24  C   UNL     1      -3.233   1.911  -6.007  1.00  0.00     0.002 C 
BRANCH  24  25
ATOM     25  C   UNL     1      -2.196   2.487  -5.038  1.00  0.00     0.021 C 
BRANCH  25  26
ATOM     26  C   UNL     1      -1.317   3.579  -5.640  1.00  0.00     0.116 C 
BRANCH  26  27
ATOM     27  N   UNL     1      -2.099   4.750  -6.006  1.00  0.00    -0.352 N 
ATOM     28  C   UNL     1      -1.956   6.052  -5.598  1.00  0.00     0.251 C 
ATOM     29  H   UNL     1      -2.836   4.584  -6.638  1.00  0.00     0.163 HD
ATOM     30  O   UNL     1      -2.853   6.862  -5.810  1.00  0.00    -0.269 OA
BRANCH  28  31
ATOM     31  C   UNL     1      -0.723   6.473  -4.899  1.00  0.00     0.039 A 
ATOM     32  C   UNL     1      -0.827   7.307  -3.784  1.00  0.00     0.014 A 
ATOM     33  C   UNL     1       0.533   6.065  -5.357  1.00  0.00     0.014 A 
ATOM     34  C   UNL     1       0.327   7.695  -3.100  1.00  0.00     0.010 A 
ATOM     35  C   UNL     1       1.676   6.396  -4.635  1.00  0.00     0.010 A 
ATOM     36  C   UNL     1       1.587   7.221  -3.504  1.00  0.00    -0.014 A 
BRANCH  36  37
ATOM     37  C   UNL     1       2.820   7.584  -2.760  1.00  0.00     0.031 A 
ATOM     38  C   UNL     1       3.896   8.398  -3.430  1.00  0.00     0.074 A 
ATOM     39  C   UNL     1       2.997   7.130  -1.502  1.00  0.00     0.049 A 
ATOM     40  N   UNL     1       5.063   8.760  -2.964  1.00  0.00    -0.248 NA
ATOM     41  C   UNL     1       3.639   8.841  -4.811  1.00  0.00     0.031 C 
ATOM     42  C   UNL     1       2.048   6.295  -0.760  1.00  0.00     0.029 A 
ATOM     43  N   UNL     1       4.042   7.297  -0.628  1.00  0.00    -0.354 N 
ATOM     44  C   UNL     1       5.687   9.450  -3.997  1.00  0.00     0.074 A 
ATOM     45  C   UNL     1       4.787   9.425  -5.128  1.00  0.00     0.031 C 
ATOM     46  C   UNL     1       2.546   6.041   0.461  1.00  0.00     0.029 A 
ATOM     47  C   UNL     1       3.864   6.657   0.576  1.00  0.00     0.049 A 
ATOM     48  H   UNL     1       4.844   7.826  -0.844  1.00  0.00     0.167 HD
ATOM     49  C   UNL     1       6.894  10.063  -3.998  1.00  0.00     0.031 A 
ATOM     50  C   UNL     1       4.674   6.567   1.649  1.00  0.00     0.031 A 
ATOM     51  C   UNL     1       7.773  10.113  -2.860  1.00  0.00     0.049 A 
ATOM     52  C   UNL     1       6.006   7.269   1.623  1.00  0.00     0.074 A 
ATOM     53  C   UNL     1       8.982  10.777  -2.740  1.00  0.00     0.029 A 
ATOM     54  N   UNL     1       7.542   9.480  -1.650  1.00  0.00    -0.354 N 
ATOM     55  N   UNL     1       6.539   7.987   0.663  1.00  0.00    -0.248 NA
ATOM     56  C   UNL     1       6.838   7.162   2.829  1.00  0.00     0.031 C 
ATOM     57  C   UNL     1       9.509  10.499  -1.476  1.00  0.00     0.029 A 
ATOM     58  C   UNL     1       8.599   9.715  -0.787  1.00  0.00     0.049 A 
ATOM     59  H   UNL     1       6.746   8.942  -1.436  1.00  0.00     0.167 HD
ATOM     60  C   UNL     1       7.754   8.443   1.164  1.00  0.00     0.074 A 
ATOM     61  C   UNL     1       7.868   7.935   2.515  1.00  0.00     0.031 C 
ATOM     62  C   UNL     1       8.691   9.213   0.560  1.00  0.00     0.031 A 
BRANCH  49  63
ATOM     63  C   UNL     1       7.349  10.736  -5.266  1.00  0.00    -0.014 A 
ATOM     64  C   UNL     1       6.764  11.939  -5.701  1.00  0.00     0.010 A 
ATOM     65  C   UNL     1       8.444  10.210  -5.976  1.00  0.00     0.010 A 
ATOM     66  C   UNL     1       7.258  12.595  -6.832  1.00  0.00     0.020 A 
ATOM     67  C   UNL     1       8.956  10.877  -7.093  1.00  0.00     0.020 A 
ATOM     68  C   UNL     1       8.355  12.064  -7.517  1.00  0.00     0.054 A 
BRANCH  68  69
ATOM     69  S   UNL     1       9.019  12.978  -8.936  1.00  0.00     0.124 S 
ATOM     70  O   UNL     1       7.982  12.765  -9.943  1.00  0.00    -0.237 OA
ATOM     71  O   UNL     1       9.122  14.340  -8.418  1.00  0.00    -0.237 OA
ATOM     72  O   UNL     1      10.294  12.319  -9.208  1.00  0.00    -0.744 OA
ENDBRANCH  68  69
ENDBRANCH  49  63
BRANCH  50  73
ATOM     73  C   UNL     1       4.262   5.773   2.840  1.00  0.00    -0.014 A 
ATOM     74  C   UNL     1       3.984   6.405   4.065  1.00  0.00     0.010 A 
ATOM     75  C   UNL     1       4.178   4.371   2.761  1.00  0.00     0.010 A 
ATOM     76  C   UNL     1       3.675   5.648   5.199  1.00  0.00     0.020 A 
ATOM     77  C   UNL     1       3.838   3.613   3.884  1.00  0.00     0.020 A 
ATOM     78  C   UNL     1       3.610   4.256   5.102  1.00  0.00     0.054 A 
BRANCH  78  79
ATOM     79  S   UNL     1       3.202   3.289   6.582  1.00  0.00     0.124 S 
ATOM     80  O   UNL     1       4.449   3.355   7.338  1.00  0.00    -0.237 OA
ATOM     81  O   UNL     1       2.078   4.032   7.146  1.00  0.00    -0.237 OA
ATOM     82  O   UNL     1       2.862   1.974   6.044  1.00  0.00    -0.744 OA
ENDBRANCH  78  79
ENDBRANCH  50  73
BRANCH  62  83
ATOM     83  C   UNL     1       9.902   9.597   1.368  1.00  0.00    -0.014 A 
ATOM     84  C   UNL     1      10.895   8.656   1.691  1.00  0.00     0.010 A 
ATOM     85  C   UNL     1      10.071  10.937   1.763  1.00  0.00     0.010 A 
ATOM     86  C   UNL     1      12.019   9.042   2.427  1.00  0.00     0.020 A 
ATOM     87  C   UNL     1      11.207  11.333   2.471  1.00  0.00     0.020 A 
ATOM     88  C   UNL     1      12.167  10.378   2.813  1.00  0.00     0.054 A 
BRANCH  88  89
ATOM     89  S   UNL     1      13.653  10.861   3.732  1.00  0.00     0.124 S 
ATOM     90  O   UNL     1      13.387  10.302   5.055  1.00  0.00    -0.237 OA
ATOM     91  O   UNL     1      14.723  10.211   2.978  1.00  0.00    -0.237 OA
ATOM     92  O   UNL     1      13.647  12.321   3.660  1.00  0.00    -0.744 OA
ENDBRANCH  88  89
ENDBRANCH  62  83
ENDBRANCH  36  37
ENDBRANCH  28  31
ENDBRANCH  26  27
ENDBRANCH  25  26
ENDBRANCH  24  25
ENDBRANCH   1  24
TORSDOF 19
