REMARK SMILES COc1c(C(=O)NCCCCCCNC(=O)c2ccc(-c3c4nc(c(-c5ccc(S(=O)(=O)[O-])cc5)c5ccc([nH]5)c(-c5ccc(S(=O)(=O)[O-])cc5)c5nc(c(-c6ccc(S(=O)(=O)[O-])cc6)c6ccc3[nH]6)C=C5)C=C4)cc2)ccc(F)c1F
REMARK SMILES IDX 11 1 10 2 9 3 8 4 7 5 5 6 6 7 4 9 3 10 81 11 77 12 79 13
REMARK SMILES IDX 82 14 78 15 80 16 2 17 1 18 12 19 13 20 14 21 15 22 16 24
REMARK SMILES IDX 17 25 18 26 76 27 19 28 75 29 20 30 21 31 22 32 69 33 23 34
REMARK SMILES IDX 74 35 68 36 70 37 24 38 73 39 67 40 66 41 25 43 55 44 36 45
REMARK SMILES IDX 54 46 37 47 40 48 53 49 71 50 38 51 39 52 52 54 72 55 41 56
REMARK SMILES IDX 26 57 27 58 35 59 28 60 34 61 29 62 30 63 31 64 32 65 33 66
REMARK SMILES IDX 56 67 57 68 65 69 58 70 64 71 59 72 60 73 61 74 62 75 63 76
REMARK SMILES IDX 42 77 43 78 51 79 44 80 50 81 45 82 46 83 47 84 48 85 49 86
REMARK H PARENT 7 8 14 23 70 42 40 53
REMARK Flexibility Score: inf
ROOT
ATOM      1  C   UNL     1       8.138   0.447   2.983  1.00  0.00     0.002 C 
ENDROOT
BRANCH   1   2
ATOM      2  C   UNL     1       6.912  -0.475   2.942  1.00  0.00     0.002 C 
BRANCH   2   3
ATOM      3  C   UNL     1       5.674   0.049   3.690  1.00  0.00     0.021 C 
BRANCH   3   4
ATOM      4  C   UNL     1       5.219   1.431   3.218  1.00  0.00     0.116 C 
BRANCH   4   5
ATOM      5  N   UNL     1       4.557   1.337   1.935  1.00  0.00    -0.352 N 
ATOM      6  C   UNL     1       3.269   1.312   1.475  1.00  0.00     0.255 C 
ATOM      7  O   UNL     1       3.191   1.211   0.249  1.00  0.00    -0.269 OA
ATOM      8  H   UNL     1       5.205   1.275   1.197  1.00  0.00     0.163 HD
BRANCH   6   9
ATOM      9  C   UNL     1       2.024   1.435   2.314  1.00  0.00     0.085 A 
ATOM     10  C   UNL     1       0.765   1.546   1.678  1.00  0.00     0.170 A 
ATOM     11  C   UNL     1      -0.387   1.867   2.410  1.00  0.00     0.201 A 
ATOM     12  C   UNL     1       2.025   1.486   3.718  1.00  0.00     0.021 A 
ATOM     13  C   UNL     1      -0.328   2.011   3.784  1.00  0.00     0.162 A 
ATOM     14  F   UNL     1      -1.565   2.013   1.782  1.00  0.00    -0.200 F 
ATOM     15  C   UNL     1       0.867   1.795   4.448  1.00  0.00     0.043 A 
ATOM     16  F   UNL     1      -1.427   2.323   4.485  1.00  0.00    -0.204 F 
BRANCH  10  17
ATOM     17  O   UNL     1       0.581   1.375   0.327  1.00  0.00    -0.493 OA
ATOM     18  C   UNL     1       0.491  -0.019   0.014  1.00  0.00     0.278 C 
ENDBRANCH  10  17
ENDBRANCH   6   9
ENDBRANCH   4   5
ENDBRANCH   3   4
ENDBRANCH   2   3
ENDBRANCH   1   2
BRANCH   1  19
ATOM     19  C   UNL     1       8.544   0.922   4.381  1.00  0.00     0.021 C 
BRANCH  19  20
ATOM     20  C   UNL     1       8.933  -0.202   5.335  1.00  0.00     0.116 C 
BRANCH  20  21
ATOM     21  N   UNL     1      10.136  -0.886   4.891  1.00  0.00    -0.352 N 
ATOM     22  C   UNL     1      11.321  -1.074   5.556  1.00  0.00     0.251 C 
ATOM     23  H   UNL     1      10.094  -1.270   3.985  1.00  0.00     0.163 HD
ATOM     24  O   UNL     1      12.312  -1.460   4.944  1.00  0.00    -0.269 OA
BRANCH  22  25
ATOM     25  C   UNL     1      11.402  -0.798   7.006  1.00  0.00     0.039 A 
ATOM     26  C   UNL     1      12.511  -0.113   7.505  1.00  0.00     0.014 A 
ATOM     27  C   UNL     1      10.394  -1.233   7.873  1.00  0.00     0.014 A 
ATOM     28  C   UNL     1      12.588   0.177   8.869  1.00  0.00     0.010 A 
ATOM     29  C   UNL     1      10.438  -0.882   9.219  1.00  0.00     0.010 A 
ATOM     30  C   UNL     1      11.540  -0.183   9.733  1.00  0.00    -0.014 A 
BRANCH  30  31
ATOM     31  C   UNL     1      11.586   0.159  11.178  1.00  0.00     0.031 A 
ATOM     32  C   UNL     1      11.642  -0.933  12.213  1.00  0.00     0.074 A 
ATOM     33  C   UNL     1      11.521   1.450  11.558  1.00  0.00     0.049 A 
ATOM     34  N   UNL     1      11.652  -0.832  13.517  1.00  0.00    -0.248 NA
ATOM     35  C   UNL     1      11.665  -2.320  11.719  1.00  0.00     0.031 C 
ATOM     36  C   UNL     1      11.423   2.596  10.651  1.00  0.00     0.029 A 
ATOM     37  N   UNL     1      11.527   2.016  12.807  1.00  0.00    -0.354 N 
ATOM     38  C   UNL     1      11.664  -2.136  13.999  1.00  0.00     0.074 A 
ATOM     39  C   UNL     1      11.611  -3.011  12.848  1.00  0.00     0.031 C 
ATOM     40  C   UNL     1      11.410   3.728  11.373  1.00  0.00     0.029 A 
ATOM     41  C   UNL     1      11.458   3.389  12.792  1.00  0.00     0.049 A 
ATOM     42  H   UNL     1      11.575   1.489  13.637  1.00  0.00     0.167 HD
ATOM     43  C   UNL     1      11.732  -2.567  15.281  1.00  0.00     0.031 A 
ATOM     44  C   UNL     1      11.435   4.277  13.805  1.00  0.00     0.031 A 
ATOM     45  C   UNL     1      11.797  -1.692  16.422  1.00  0.00     0.049 A 
ATOM     46  C   UNL     1      11.507   3.774  15.220  1.00  0.00     0.074 A 
ATOM     47  C   UNL     1      11.932  -2.028  17.758  1.00  0.00     0.029 A 
ATOM     48  N   UNL     1      11.730  -0.308  16.363  1.00  0.00    -0.354 N 
ATOM     49  N   UNL     1      11.589   2.538  15.652  1.00  0.00    -0.248 NA
ATOM     50  C   UNL     1      11.497   4.787  16.284  1.00  0.00     0.031 C 
ATOM     51  C   UNL     1      11.890  -0.850  18.511  1.00  0.00     0.029 A 
ATOM     52  C   UNL     1      11.793   0.224  17.641  1.00  0.00     0.049 A 
ATOM     53  H   UNL     1      11.651   0.219  15.536  1.00  0.00     0.167 HD
ATOM     54  C   UNL     1      11.668   2.626  17.038  1.00  0.00     0.074 A 
ATOM     55  C   UNL     1      11.641   4.037  17.368  1.00  0.00     0.031 C 
ATOM     56  C   UNL     1      11.757   1.630  17.954  1.00  0.00     0.031 A 
BRANCH  43  57
ATOM     57  C   UNL     1      11.728  -4.055  15.518  1.00  0.00    -0.014 A 
ATOM     58  C   UNL     1      12.826  -4.855  15.153  1.00  0.00     0.010 A 
ATOM     59  C   UNL     1      10.623  -4.658  16.147  1.00  0.00     0.010 A 
ATOM     60  C   UNL     1      12.801  -6.235  15.370  1.00  0.00     0.020 A 
ATOM     61  C   UNL     1      10.607  -6.035  16.394  1.00  0.00     0.020 A 
ATOM     62  C   UNL     1      11.689  -6.817  15.986  1.00  0.00     0.054 A 
BRANCH  62  63
ATOM     63  S   UNL     1      11.691  -8.608  16.271  1.00  0.00     0.124 S 
ATOM     64  O   UNL     1      11.494  -9.127  14.920  1.00  0.00    -0.237 OA
ATOM     65  O   UNL     1      13.013  -8.840  16.846  1.00  0.00    -0.237 OA
ATOM     66  O   UNL     1      10.572  -8.815  17.187  1.00  0.00    -0.744 OA
ENDBRANCH  62  63
ENDBRANCH  43  57
BRANCH  44  67
ATOM     67  C   UNL     1      11.360   5.735  13.514  1.00  0.00    -0.014 A 
ATOM     68  C   UNL     1      12.469   6.566  13.750  1.00  0.00     0.010 A 
ATOM     69  C   UNL     1      10.183   6.298  12.989  1.00  0.00     0.010 A 
ATOM     70  C   UNL     1      12.397   7.937  13.485  1.00  0.00     0.020 A 
ATOM     71  C   UNL     1      10.116   7.663  12.696  1.00  0.00     0.020 A 
ATOM     72  C   UNL     1      11.220   8.476  12.957  1.00  0.00     0.054 A 
BRANCH  72  73
ATOM     73  S   UNL     1      11.165  10.249  12.573  1.00  0.00     0.124 S 
ATOM     74  O   UNL     1      11.081  10.845  13.902  1.00  0.00    -0.237 OA
ATOM     75  O   UNL     1      12.425  10.457  11.864  1.00  0.00    -0.237 OA
ATOM     76  O   UNL     1       9.966  10.381  11.748  1.00  0.00    -0.744 OA
ENDBRANCH  72  73
ENDBRANCH  44  67
BRANCH  56  77
ATOM     77  C   UNL     1      11.863   2.032  19.401  1.00  0.00    -0.014 A 
ATOM     78  C   UNL     1      10.764   2.572  20.091  1.00  0.00     0.010 A 
ATOM     79  C   UNL     1      13.073   1.828  20.090  1.00  0.00     0.010 A 
ATOM     80  C   UNL     1      10.884   2.938  21.434  1.00  0.00     0.020 A 
ATOM     81  C   UNL     1      13.188   2.165  21.441  1.00  0.00     0.020 A 
ATOM     82  C   UNL     1      12.097   2.735  22.100  1.00  0.00     0.054 A 
BRANCH  82  83
ATOM     83  S   UNL     1      12.220   3.190  23.851  1.00  0.00     0.124 S 
ATOM     84  O   UNL     1      12.281   4.647  23.782  1.00  0.00    -0.237 OA
ATOM     85  O   UNL     1      10.989   2.638  24.413  1.00  0.00    -0.237 OA
ATOM     86  O   UNL     1      13.448   2.535  24.294  1.00  0.00    -0.744 OA
ENDBRANCH  82  83
ENDBRANCH  56  77
ENDBRANCH  30  31
ENDBRANCH  22  25
ENDBRANCH  20  21
ENDBRANCH  19  20
ENDBRANCH   1  19
TORSDOF 17
