REMARK SMILES CC[C@](C)(NC(=O)c1cccc2ncccc12)C(=O)NCCCCCCNC(=O)c1ccc(-c2c3nc(c(-c4ccc(S(=O)(=O)[O-])cc4)c4ccc([nH]4)c(-c4ccc(S(=O)(=O)[O-])cc4)c4nc(c(-c5ccc(S(=O)(=O)[O-])cc5)c5ccc2[nH]5)C=C4)C=C3)cc1
REMARK SMILES IDX 24 1 23 2 22 3 21 4 20 5 18 6 19 7 3 9 4 10 2 11 1 12 5 13
REMARK SMILES IDX 6 14 7 16 8 17 9 18 17 19 10 20 12 21 16 22 11 23 13 24
REMARK SMILES IDX 15 25 14 26 25 27 26 28 27 29 28 30 29 32 30 33 31 34 89 35
REMARK SMILES IDX 32 36 88 37 33 38 34 39 35 40 82 41 36 42 87 43 81 44 83 45
REMARK SMILES IDX 37 46 86 47 80 48 79 49 38 51 68 52 49 53 67 54 50 55 53 56
REMARK SMILES IDX 66 57 84 58 51 59 52 60 65 62 85 63 54 64 39 65 40 66 48 67
REMARK SMILES IDX 41 68 47 69 42 70 43 71 44 72 45 73 46 74 69 75 70 76 78 77
REMARK SMILES IDX 71 78 77 79 72 80 73 81 74 82 75 83 76 84 55 85 56 86 64 87
REMARK SMILES IDX 57 88 63 89 58 90 59 91 60 92 61 93 62 94
REMARK H PARENT 20 8 5 15 27 31 83 50 53 61
REMARK Flexibility Score: inf
ROOT
ATOM      1  C   UNL     1       4.822   4.890   4.675  1.00  0.00     0.002 C 
ENDROOT
BRANCH   1   2
ATOM      2  C   UNL     1       4.191   3.535   4.970  1.00  0.00     0.002 C 
BRANCH   2   3
ATOM      3  C   UNL     1       2.671   3.454   4.819  1.00  0.00     0.021 C 
BRANCH   3   4
ATOM      4  C   UNL     1       2.073   3.841   3.464  1.00  0.00     0.116 C 
BRANCH   4   5
ATOM      5  N   UNL     1       2.582   3.143   2.291  1.00  0.00    -0.354 N 
ATOM      6  C   UNL     1       2.183   2.007   1.635  1.00  0.00     0.245 C 
ATOM      7  O   UNL     1       2.751   1.764   0.563  1.00  0.00    -0.272 OA
ATOM      8  H   UNL     1       3.371   3.574   1.889  1.00  0.00     0.163 HD
BRANCH   6   9
ATOM      9  C   UNL     1       1.034   1.096   2.160  1.00  0.00     0.116 C 
ATOM     10  C   UNL     1       0.986  -0.271   1.452  1.00  0.00     0.045 C 
BRANCH   9  11
ATOM     11  C   UNL     1      -0.272   1.891   1.790  1.00  0.00     0.035 C 
ATOM     12  C   UNL     1      -0.609   1.928   0.295  1.00  0.00     0.007 C 
ENDBRANCH   9  11
BRANCH   9  13
ATOM     13  N   UNL     1       1.062   0.821   3.633  1.00  0.00    -0.338 N 
ATOM     14  C   UNL     1       1.830   0.037   4.490  1.00  0.00     0.252 C 
ATOM     15  H   UNL     1       0.363   1.320   4.115  1.00  0.00     0.164 HD
ATOM     16  O   UNL     1       1.231  -0.304   5.514  1.00  0.00    -0.269 OA
BRANCH  14  17
ATOM     17  C   UNL     1       3.301  -0.322   4.343  1.00  0.00     0.049 A 
ATOM     18  C   UNL     1       4.100   0.394   3.458  1.00  0.00     0.014 A 
ATOM     19  C   UNL     1       3.984  -1.239   5.218  1.00  0.00     0.013 A 
ATOM     20  C   UNL     1       5.479   0.261   3.371  1.00  0.00     0.003 A 
ATOM     21  C   UNL     1       5.404  -1.358   5.132  1.00  0.00     0.071 A 
ATOM     22  C   UNL     1       3.398  -2.055   6.217  1.00  0.00     0.013 A 
ATOM     23  C   UNL     1       6.117  -0.617   4.216  1.00  0.00     0.029 A 
ATOM     24  N   UNL     1       6.155  -2.143   5.915  1.00  0.00    -0.256 NA
ATOM     25  C   UNL     1       4.176  -2.863   7.048  1.00  0.00     0.021 A 
ATOM     26  C   UNL     1       5.539  -2.867   6.863  1.00  0.00     0.112 A 
ENDBRANCH  14  17
ENDBRANCH   9  13
ENDBRANCH   6   9
ENDBRANCH   4   5
ENDBRANCH   3   4
ENDBRANCH   2   3
ENDBRANCH   1   2
BRANCH   1  27
ATOM     27  C   UNL     1       4.249   6.053   5.479  1.00  0.00     0.021 C 
BRANCH  27  28
ATOM     28  C   UNL     1       4.339   5.884   6.991  1.00  0.00     0.116 C 
BRANCH  28  29
ATOM     29  N   UNL     1       5.717   5.860   7.461  1.00  0.00    -0.352 N 
ATOM     30  C   UNL     1       6.331   6.696   8.361  1.00  0.00     0.251 C 
ATOM     31  H   UNL     1       6.284   5.150   7.083  1.00  0.00     0.163 HD
ATOM     32  O   UNL     1       7.554   6.678   8.490  1.00  0.00    -0.269 OA
BRANCH  30  33
ATOM     33  C   UNL     1       5.511   7.633   9.156  1.00  0.00     0.039 A 
ATOM     34  C   UNL     1       5.899   8.970   9.244  1.00  0.00     0.014 A 
ATOM     35  C   UNL     1       4.343   7.192   9.786  1.00  0.00     0.014 A 
ATOM     36  C   UNL     1       5.077   9.880   9.912  1.00  0.00     0.010 A 
ATOM     37  C   UNL     1       3.485   8.116  10.376  1.00  0.00     0.010 A 
ATOM     38  C   UNL     1       3.845   9.469  10.450  1.00  0.00    -0.014 A 
BRANCH  38  39
ATOM     39  C   UNL     1       2.920  10.454  11.066  1.00  0.00     0.031 A 
ATOM     40  C   UNL     1       2.563  10.364  12.525  1.00  0.00     0.074 A 
ATOM     41  C   UNL     1       2.373  11.415  10.295  1.00  0.00     0.049 A 
ATOM     42  N   UNL     1       1.814  11.165  13.239  1.00  0.00    -0.248 NA
ATOM     43  C   UNL     1       3.096   9.215  13.274  1.00  0.00     0.031 C 
ATOM     44  C   UNL     1       2.596  11.574   8.855  1.00  0.00     0.029 A 
ATOM     45  N   UNL     1       1.528  12.448  10.614  1.00  0.00    -0.354 N 
ATOM     46  C   UNL     1       1.776  10.612  14.514  1.00  0.00     0.074 A 
ATOM     47  C   UNL     1       2.530   9.379  14.461  1.00  0.00     0.031 C 
ATOM     48  C   UNL     1       1.952  12.672   8.429  1.00  0.00     0.029 A 
ATOM     49  C   UNL     1       1.238  13.271   9.551  1.00  0.00     0.049 A 
ATOM     50  H   UNL     1       1.163  12.587  11.518  1.00  0.00     0.167 HD
ATOM     51  C   UNL     1       1.184  11.096  15.633  1.00  0.00     0.031 A 
ATOM     52  C   UNL     1       0.490  14.390   9.487  1.00  0.00     0.031 A 
ATOM     53  C   UNL     1       0.432  12.323  15.678  1.00  0.00     0.049 A 
ATOM     54  C   UNL     1      -0.163  14.904  10.740  1.00  0.00     0.074 A 
ATOM     55  C   UNL     1      -0.148  12.937  16.774  1.00  0.00     0.029 A 
ATOM     56  N   UNL     1       0.143  13.117  14.578  1.00  0.00    -0.354 N 
ATOM     57  N   UNL     1      -0.109  14.418  11.957  1.00  0.00    -0.248 NA
ATOM     58  C   UNL     1      -0.966  16.126  10.610  1.00  0.00     0.031 C 
ATOM     59  C   UNL     1      -0.847  14.063  16.325  1.00  0.00     0.029 A 
ATOM     60  C   UNL     1      -0.642  14.192  14.961  1.00  0.00     0.049 A 
ATOM     61  H   UNL     1       0.451  12.941  13.659  1.00  0.00     0.167 HD
ATOM     62  C   UNL     1      -0.855  15.287  12.745  1.00  0.00     0.074 A 
ATOM     63  C   UNL     1      -1.326  16.342  11.868  1.00  0.00     0.031 C 
ATOM     64  C   UNL     1      -1.126  15.220  14.072  1.00  0.00     0.031 A 
BRANCH  51  65
ATOM     65  C   UNL     1       1.310  10.279  16.896  1.00  0.00    -0.014 A 
ATOM     66  C   UNL     1       2.550  10.109  17.540  1.00  0.00     0.010 A 
ATOM     67  C   UNL     1       0.165   9.687  17.459  1.00  0.00     0.010 A 
ATOM     68  C   UNL     1       2.651   9.320  18.689  1.00  0.00     0.020 A 
ATOM     69  C   UNL     1       0.255   8.925  18.628  1.00  0.00     0.020 A 
ATOM     70  C   UNL     1       1.502   8.729  19.223  1.00  0.00     0.054 A 
BRANCH  70  71
ATOM     71  S   UNL     1       1.661   7.713  20.718  1.00  0.00     0.124 S 
ATOM     72  O   UNL     1       2.339   6.526  20.204  1.00  0.00    -0.237 OA
ATOM     73  O   UNL     1       2.461   8.562  21.597  1.00  0.00    -0.237 OA
ATOM     74  O   UNL     1       0.280   7.505  21.145  1.00  0.00    -0.744 OA
ENDBRANCH  70  71
ENDBRANCH  51  65
BRANCH  52  75
ATOM     75  C   UNL     1       0.352  15.116   8.194  1.00  0.00    -0.014 A 
ATOM     76  C   UNL     1       0.963  16.370   8.013  1.00  0.00     0.010 A 
ATOM     77  C   UNL     1      -0.368  14.547   7.128  1.00  0.00     0.010 A 
ATOM     78  C   UNL     1       0.849  17.045   6.794  1.00  0.00     0.020 A 
ATOM     79  C   UNL     1      -0.459  15.204   5.898  1.00  0.00     0.020 A 
ATOM     80  C   UNL     1       0.144  16.454   5.741  1.00  0.00     0.054 A 
BRANCH  80  81
ATOM     81  S   UNL     1       0.069  17.317   4.147  1.00  0.00     0.124 S 
ATOM     82  O   UNL     1      -0.827  18.429   4.445  1.00  0.00    -0.237 OA
ATOM     83  O   UNL     1       1.467  17.672   3.916  1.00  0.00    -0.237 OA
ATOM     84  O   UNL     1      -0.467  16.306   3.237  1.00  0.00    -0.744 OA
ENDBRANCH  80  81
ENDBRANCH  52  75
BRANCH  64  85
ATOM     85  C   UNL     1      -1.963  16.329  14.657  1.00  0.00    -0.014 A 
ATOM     86  C   UNL     1      -3.325  16.465  14.333  1.00  0.00     0.010 A 
ATOM     87  C   UNL     1      -1.381  17.240  15.558  1.00  0.00     0.010 A 
ATOM     88  C   UNL     1      -4.075  17.522  14.856  1.00  0.00     0.020 A 
ATOM     89  C   UNL     1      -2.136  18.277  16.111  1.00  0.00     0.020 A 
ATOM     90  C   UNL     1      -3.474  18.424  15.739  1.00  0.00     0.054 A 
BRANCH  90  91
ATOM     91  S   UNL     1      -4.470  19.782  16.410  1.00  0.00     0.124 S 
ATOM     92  O   UNL     1      -4.607  20.660  15.251  1.00  0.00    -0.237 OA
ATOM     93  O   UNL     1      -5.693  19.104  16.832  1.00  0.00    -0.237 OA
ATOM     94  O   UNL     1      -3.650  20.310  17.498  1.00  0.00    -0.744 OA
ENDBRANCH  90  91
ENDBRANCH  64  85
ENDBRANCH  38  39
ENDBRANCH  30  33
ENDBRANCH  28  29
ENDBRANCH  27  28
ENDBRANCH   1  27
TORSDOF 19
