REMARK SMILES O=C(CNC(=O)N1CC(NCCCCCCNC(=O)c2ccc(-c3c4nc(c(-c5ccc(S(=O)(=O)[O-])cc5)c5ccc([nH]5)c(-c5ccc(S(=O)(=O)[O-])cc5)c5nc(c(-c6ccc(S(=O)(=O)[O-])cc6)c6ccc3[nH]6)C=C5)C=C4)cc2)=[NH+]c2ccccc21)N[C@H](C(=O)[O-])c1ccccc1
REMARK SMILES IDX 13 1 12 2 11 3 10 4 7 5 8 6 86 7 9 8 81 9 85 10 80 11 82 12
REMARK SMILES IDX 84 13 83 16 5 17 4 18 6 20 3 21 2 22 1 23 87 24 88 26 92 27
REMARK SMILES IDX 93 28 97 29 94 30 96 31 95 32 89 33 90 34 91 35 14 36 15 37
REMARK SMILES IDX 16 38 17 39 18 40 19 42 20 43 21 44 79 45 22 46 78 47 23 48
REMARK SMILES IDX 24 49 25 50 72 51 26 52 77 53 71 54 73 55 27 56 76 57 70 58
REMARK SMILES IDX 69 59 28 61 58 62 39 63 57 64 40 65 43 66 56 67 74 68 41 69
REMARK SMILES IDX 42 70 55 72 75 73 44 74 29 75 30 76 38 77 31 78 37 79 32 80
REMARK SMILES IDX 33 81 34 82 35 83 36 84 59 85 60 86 68 87 61 88 67 89 62 90
REMARK SMILES IDX 63 91 64 92 65 93 66 94 45 95 46 96 54 97 47 98 53 99 48 100
REMARK SMILES IDX 49 101 50 102 51 103 52 104
REMARK H PARENT 10 14 80 15 4 19 87 25 17 41 73 60 43 71
REMARK Flexibility Score: inf
ROOT
ATOM      1  C   UNL     1      -0.336  -5.179   0.650  1.00  0.00     0.004 C 
ENDROOT
BRANCH   1   2
ATOM      2  C   UNL     1      -0.399  -4.890   2.156  1.00  0.00     0.046 C 
BRANCH   2   3
ATOM      3  C   UNL     1       0.188  -5.993   3.038  1.00  0.00     0.233 C 
BRANCH   3   4
ATOM      4  N   UNL     1       1.613  -6.088   2.839  1.00  0.00    -0.277 N 
ATOM      5  N   UNL     1       3.317  -4.356   5.572  1.00  0.00    -0.278 N 
ATOM      6  C   UNL     1       2.345  -5.359   5.155  1.00  0.00     0.255 C 
ATOM      7  C   UNL     1       4.658  -4.720   5.295  1.00  0.00     0.093 A 
ATOM      8  C   UNL     1       2.626  -5.757   3.701  1.00  0.00     0.268 C 
ATOM      9  C   UNL     1       4.893  -5.456   4.116  1.00  0.00     0.148 A 
ATOM     10  C   UNL     1       5.722  -4.348   6.125  1.00  0.00     0.031 A 
ATOM     11  N   UNL     1       3.849  -5.833   3.244  1.00  0.00    -0.241 N 
ATOM     12  C   UNL     1       6.210  -5.723   3.741  1.00  0.00     0.054 A 
ATOM     13  C   UNL     1       7.032  -4.635   5.742  1.00  0.00     0.002 A 
ATOM     14  H   UNL     1       1.898  -6.440   1.965  1.00  0.00     0.304 HD
ATOM     15  H   UNL     1       4.035  -6.141   2.327  1.00  0.00     0.312 HD
ATOM     16  C   UNL     1       7.276  -5.306   4.543  1.00  0.00     0.005 A 
BRANCH   5  17
ATOM     17  C   UNL     1       2.861  -3.229   6.194  1.00  0.00     0.323 C 
ATOM     18  N   UNL     1       3.522  -2.053   6.076  1.00  0.00    -0.329 N 
ATOM     19  H   UNL     1       3.217  -1.355   6.699  1.00  0.00     0.165 HD
ATOM     20  O   UNL     1       1.782  -3.189   6.790  1.00  0.00    -0.248 OA
BRANCH  18  21
ATOM     21  C   UNL     1       4.606  -1.631   5.192  1.00  0.00     0.218 C 
BRANCH  21  22
ATOM     22  C   UNL     1       4.228  -0.528   4.212  1.00  0.00     0.240 C 
ATOM     23  O   UNL     1       5.077   0.242   3.773  1.00  0.00    -0.273 OA
ATOM     24  N   UNL     1       2.932  -0.577   3.753  1.00  0.00    -0.342 N 
ATOM     25  H   UNL     1       2.341  -1.292   4.081  1.00  0.00     0.164 HD
BRANCH  24  26
ATOM     26  C   UNL     1       2.396   0.393   2.795  1.00  0.00     0.158 C 
BRANCH  26  27
ATOM     27  C   UNL     1       2.456   1.835   3.297  1.00  0.00    -0.020 A 
ATOM     28  C   UNL     1       2.433   2.117   4.678  1.00  0.00     0.006 A 
ATOM     29  C   UNL     1       2.486   2.923   2.410  1.00  0.00     0.006 A 
ATOM     30  C   UNL     1       2.532   3.425   5.152  1.00  0.00     0.000 A 
ATOM     31  C   UNL     1       2.571   4.235   2.886  1.00  0.00     0.000 A 
ATOM     32  C   UNL     1       2.611   4.484   4.255  1.00  0.00     0.000 A 
ENDBRANCH  26  27
BRANCH  26  33
ATOM     33  C   UNL     1       3.029   0.145   1.409  1.00  0.00     0.068 C 
ATOM     34  O   UNL     1       4.055   0.607   0.933  1.00  0.00    -0.548 OA
ATOM     35  O   UNL     1       2.345  -0.783   0.693  1.00  0.00    -0.548 OA
ENDBRANCH  26  33
ENDBRANCH  24  26
ENDBRANCH  21  22
ENDBRANCH  18  21
ENDBRANCH   5  17
ENDBRANCH   3   4
ENDBRANCH   2   3
ENDBRANCH   1   2
BRANCH   1  36
ATOM     36  C   UNL     1      -0.972  -6.503   0.211  1.00  0.00     0.002 C 
BRANCH  36  37
ATOM     37  C   UNL     1      -2.428  -6.700   0.640  1.00  0.00     0.021 C 
BRANCH  37  38
ATOM     38  C   UNL     1      -3.396  -5.641   0.121  1.00  0.00     0.116 C 
BRANCH  38  39
ATOM     39  N   UNL     1      -3.493  -5.650  -1.329  1.00  0.00    -0.352 N 
ATOM     40  C   UNL     1      -4.607  -5.750  -2.126  1.00  0.00     0.251 C 
ATOM     41  H   UNL     1      -2.637  -5.574  -1.810  1.00  0.00     0.163 HD
ATOM     42  O   UNL     1      -4.480  -5.935  -3.333  1.00  0.00    -0.269 OA
BRANCH  40  43
ATOM     43  C   UNL     1      -5.956  -5.656  -1.526  1.00  0.00     0.039 A 
ATOM     44  C   UNL     1      -6.940  -6.564  -1.926  1.00  0.00     0.014 A 
ATOM     45  C   UNL     1      -6.253  -4.672  -0.579  1.00  0.00     0.014 A 
ATOM     46  C   UNL     1      -8.203  -6.522  -1.331  1.00  0.00     0.010 A 
ATOM     47  C   UNL     1      -7.487  -4.680   0.066  1.00  0.00     0.010 A 
ATOM     48  C   UNL     1      -8.478  -5.601  -0.307  1.00  0.00    -0.014 A 
BRANCH  48  49
ATOM     49  C   UNL     1      -9.793  -5.587   0.386  1.00  0.00     0.031 A 
ATOM     50  C   UNL     1     -10.688  -4.380   0.288  1.00  0.00     0.074 A 
ATOM     51  C   UNL     1     -10.155  -6.635   1.152  1.00  0.00     0.049 A 
ATOM     52  N   UNL     1     -11.843  -4.162   0.863  1.00  0.00    -0.248 NA
ATOM     53  C   UNL     1     -10.213  -3.264  -0.546  1.00  0.00     0.031 C 
ATOM     54  C   UNL     1      -9.361  -7.848   1.358  1.00  0.00     0.029 A 
ATOM     55  N   UNL     1     -11.283  -6.846   1.905  1.00  0.00    -0.354 N 
ATOM     56  C   UNL     1     -12.224  -2.883   0.474  1.00  0.00     0.074 A 
ATOM     57  C   UNL     1     -11.153  -2.354  -0.342  1.00  0.00     0.031 C 
ATOM     58  C   UNL     1     -10.040  -8.687   2.158  1.00  0.00     0.029 A 
ATOM     59  C   UNL     1     -11.294  -8.056   2.558  1.00  0.00     0.049 A 
ATOM     60  H   UNL     1     -12.016  -6.192   1.972  1.00  0.00     0.167 HD
ATOM     61  C   UNL     1     -13.370  -2.215   0.754  1.00  0.00     0.031 A 
ATOM     62  C   UNL     1     -12.205  -8.597   3.390  1.00  0.00     0.031 A 
ATOM     63  C   UNL     1     -14.435  -2.746   1.562  1.00  0.00     0.049 A 
ATOM     64  C   UNL     1     -13.460  -7.829   3.703  1.00  0.00     0.074 A 
ATOM     65  C   UNL     1     -15.657  -2.169   1.862  1.00  0.00     0.029 A 
ATOM     66  N   UNL     1     -14.406  -3.976   2.204  1.00  0.00    -0.354 N 
ATOM     67  N   UNL     1     -13.830  -6.646   3.274  1.00  0.00    -0.248 NA
ATOM     68  C   UNL     1     -14.425  -8.474   4.604  1.00  0.00     0.031 C 
ATOM     69  C   UNL     1     -16.343  -3.024   2.732  1.00  0.00     0.029 A 
ATOM     70  C   UNL     1     -15.576  -4.163   2.921  1.00  0.00     0.049 A 
ATOM     71  H   UNL     1     -13.663  -4.620   2.157  1.00  0.00     0.167 HD
ATOM     72  C   UNL     1     -15.084  -6.417   3.830  1.00  0.00     0.074 A 
ATOM     73  C   UNL     1     -15.414  -7.590   4.614  1.00  0.00     0.031 C 
ATOM     74  C   UNL     1     -15.891  -5.335   3.700  1.00  0.00     0.031 A 
BRANCH  61  75
ATOM     75  C   UNL     1     -13.522  -0.827   0.185  1.00  0.00    -0.014 A 
ATOM     76  C   UNL     1     -13.677  -0.620  -1.198  1.00  0.00     0.010 A 
ATOM     77  C   UNL     1     -13.540   0.284   1.048  1.00  0.00     0.010 A 
ATOM     78  C   UNL     1     -13.796   0.674  -1.712  1.00  0.00     0.020 A 
ATOM     79  C   UNL     1     -13.691   1.578   0.541  1.00  0.00     0.020 A 
ATOM     80  C   UNL     1     -13.797   1.766  -0.839  1.00  0.00     0.054 A 
BRANCH  80  81
ATOM     81  S   UNL     1     -13.963   3.433  -1.533  1.00  0.00     0.124 S 
ATOM     82  O   UNL     1     -12.656   3.630  -2.156  1.00  0.00    -0.237 OA
ATOM     83  O   UNL     1     -15.083   3.285  -2.459  1.00  0.00    -0.237 OA
ATOM     84  O   UNL     1     -14.229   4.271  -0.366  1.00  0.00    -0.744 OA
ENDBRANCH  80  81
ENDBRANCH  61  75
BRANCH  62  85
ATOM     85  C   UNL     1     -11.969  -9.948   3.971  1.00  0.00    -0.014 A 
ATOM     86  C   UNL     1     -12.741 -11.048   3.556  1.00  0.00     0.010 A 
ATOM     87  C   UNL     1     -10.958 -10.145   4.929  1.00  0.00     0.010 A 
ATOM     88  C   UNL     1     -12.516 -12.316   4.099  1.00  0.00     0.020 A 
ATOM     89  C   UNL     1     -10.710 -11.417   5.452  1.00  0.00     0.020 A 
ATOM     90  C   UNL     1     -11.498 -12.494   5.041  1.00  0.00     0.054 A 
BRANCH  90  91
ATOM     91  S   UNL     1     -11.186 -14.160   5.687  1.00  0.00     0.124 S 
ATOM     92  O   UNL     1     -12.336 -14.368   6.560  1.00  0.00    -0.237 OA
ATOM     93  O   UNL     1     -11.158 -14.969   4.471  1.00  0.00    -0.237 OA
ATOM     94  O   UNL     1      -9.899 -14.027   6.366  1.00  0.00    -0.744 OA
ENDBRANCH  90  91
ENDBRANCH  62  85
BRANCH  74  95
ATOM     95  C   UNL     1     -17.228  -5.378   4.393  1.00  0.00    -0.014 A 
ATOM     96  C   UNL     1     -17.331  -5.281   5.791  1.00  0.00     0.010 A 
ATOM     97  C   UNL     1     -18.404  -5.461   3.623  1.00  0.00     0.010 A 
ATOM     98  C   UNL     1     -18.585  -5.297   6.410  1.00  0.00     0.020 A 
ATOM     99  C   UNL     1     -19.659  -5.447   4.235  1.00  0.00     0.020 A 
ATOM    100  C   UNL     1     -19.741  -5.379   5.627  1.00  0.00     0.054 A 
BRANCH 100 101
ATOM    101  S   UNL     1     -21.357  -5.352   6.451  1.00  0.00     0.124 S 
ATOM    102  O   UNL     1     -21.410  -6.678   7.059  1.00  0.00    -0.237 OA
ATOM    103  O   UNL     1     -21.220  -4.237   7.386  1.00  0.00    -0.237 OA
ATOM    104  O   UNL     1     -22.300  -5.129   5.358  1.00  0.00    -0.744 OA
ENDBRANCH 100 101
ENDBRANCH  74  95
ENDBRANCH  48  49
ENDBRANCH  40  43
ENDBRANCH  38  39
ENDBRANCH  37  38
ENDBRANCH  36  37
ENDBRANCH   1  36
TORSDOF 21
