REMARK SMILES O=C(NCCCCCCNC(=O)c1ccc(-c2c3nc(c(-c4ccc(S(=O)(=O)[O-])cc4)c4ccc([nH]4)c(-c4ccc(S(=O)(=O)[O-])cc4)c4nc(c(-c5ccc(S(=O)(=O)[O-])cc5)c5ccc2[nH]5)C=C4)C=C3)cc1)C1=Cc2cc(C(F)(F)F)ccc2O[C@@H]1C(F)(F)F
REMARK SMILES IDX 7 1 6 2 5 3 4 4 3 5 1 6 2 7 73 9 74 10 86 11 75 12 85 13
REMARK SMILES IDX 76 14 84 15 77 16 83 17 82 18 87 19 88 20 89 21 90 22 78 23
REMARK SMILES IDX 79 24 80 25 81 26 8 27 9 28 10 29 11 30 12 32 13 33 14 34
REMARK SMILES IDX 72 35 15 36 71 37 16 38 17 39 18 40 65 41 19 42 70 43 64 44
REMARK SMILES IDX 66 45 20 46 69 47 63 48 62 49 21 51 51 52 32 53 50 54 33 55
REMARK SMILES IDX 36 56 49 57 67 58 34 59 35 60 48 62 68 63 37 64 22 65 23 66
REMARK SMILES IDX 31 67 24 68 30 69 25 70 26 71 27 72 28 73 29 74 52 75 53 76
REMARK SMILES IDX 61 77 54 78 60 79 55 80 56 81 57 82 58 83 59 84 38 85 39 86
REMARK SMILES IDX 47 87 40 88 46 89 41 90 42 91 43 92 44 93 45 94
REMARK H PARENT 3 8 10 31 66 50 36 61
REMARK Flexibility Score: inf
ROOT
ATOM      1  C   UNL     1       4.539   2.674  -3.949  1.00  0.00     0.002 C 
ENDROOT
BRANCH   1   2
ATOM      2  C   UNL     1       3.849   1.355  -4.322  1.00  0.00     0.002 C 
BRANCH   2   3
ATOM      3  C   UNL     1       4.170   0.142  -3.451  1.00  0.00     0.021 C 
BRANCH   3   4
ATOM      4  C   UNL     1       3.887   0.289  -1.961  1.00  0.00     0.116 C 
BRANCH   4   5
ATOM      5  N   UNL     1       2.601  -0.209  -1.506  1.00  0.00    -0.352 N 
ATOM      6  O   UNL     1       1.041  -0.865  -0.029  1.00  0.00    -0.270 OA
ATOM      7  C   UNL     1       2.229  -0.644  -0.262  1.00  0.00     0.251 C 
ATOM      8  H   UNL     1       1.895  -0.239  -2.191  1.00  0.00     0.163 HD
BRANCH   7   9
ATOM      9  C   UNL     1       3.200  -0.782   0.865  1.00  0.00     0.067 C 
ATOM     10  C   UNL     1       4.389  -1.398   0.728  1.00  0.00     0.025 C 
ATOM     11  C   UNL     1       3.052   0.287   1.924  1.00  0.00     0.314 C 
ATOM     12  C   UNL     1       5.488  -0.394   0.736  1.00  0.00     0.018 A 
ATOM     13  O   UNL     1       4.087   1.303   1.803  1.00  0.00    -0.475 OA
ATOM     14  C   UNL     1       6.642  -0.689  -0.001  1.00  0.00     0.025 A 
ATOM     15  C   UNL     1       5.245   0.919   1.173  1.00  0.00     0.128 A 
ATOM     16  C   UNL     1       7.484   0.350  -0.427  1.00  0.00     0.056 A 
ATOM     17  C   UNL     1       6.136   1.935   0.841  1.00  0.00     0.048 A 
ATOM     18  C   UNL     1       7.236   1.658   0.022  1.00  0.00     0.017 A 
BRANCH  11  19
ATOM     19  C   UNL     1       3.010  -0.289   3.348  1.00  0.00     0.429 C 
ATOM     20  F   UNL     1       2.692   0.665   4.255  1.00  0.00    -0.167 F 
ATOM     21  F   UNL     1       2.079  -1.266   3.466  1.00  0.00    -0.167 F 
ATOM     22  F   UNL     1       4.195  -0.825   3.726  1.00  0.00    -0.167 F 
ENDBRANCH  11  19
BRANCH  16  23
ATOM     23  C   UNL     1       8.562   0.063  -1.446  1.00  0.00     0.416 C 
ATOM     24  F   UNL     1       9.680  -0.478  -0.903  1.00  0.00    -0.166 F 
ATOM     25  F   UNL     1       8.135  -0.819  -2.398  1.00  0.00    -0.166 F 
ATOM     26  F   UNL     1       8.952   1.169  -2.138  1.00  0.00    -0.166 F 
ENDBRANCH  16  23
ENDBRANCH   7   9
ENDBRANCH   4   5
ENDBRANCH   3   4
ENDBRANCH   2   3
ENDBRANCH   1   2
BRANCH   1  27
ATOM     27  C   UNL     1       6.058   2.638  -3.755  1.00  0.00     0.021 C 
BRANCH  27  28
ATOM     28  C   UNL     1       6.881   2.082  -4.915  1.00  0.00     0.116 C 
BRANCH  28  29
ATOM     29  N   UNL     1       6.686   2.822  -6.150  1.00  0.00    -0.352 N 
ATOM     30  C   UNL     1       7.601   3.416  -6.982  1.00  0.00     0.251 C 
ATOM     31  H   UNL     1       5.748   2.912  -6.435  1.00  0.00     0.163 HD
ATOM     32  O   UNL     1       7.197   4.128  -7.904  1.00  0.00    -0.269 OA
BRANCH  30  33
ATOM     33  C   UNL     1       9.057   3.235  -6.780  1.00  0.00     0.039 A 
ATOM     34  C   UNL     1       9.901   4.335  -6.966  1.00  0.00     0.014 A 
ATOM     35  C   UNL     1       9.606   1.992  -6.454  1.00  0.00     0.014 A 
ATOM     36  C   UNL     1      11.279   4.202  -6.775  1.00  0.00     0.010 A 
ATOM     37  C   UNL     1      10.972   1.877  -6.191  1.00  0.00     0.010 A 
ATOM     38  C   UNL     1      11.826   2.978  -6.356  1.00  0.00    -0.014 A 
BRANCH  38  39
ATOM     39  C   UNL     1      13.285   2.837  -6.097  1.00  0.00     0.031 A 
ATOM     40  C   UNL     1      14.120   1.901  -6.932  1.00  0.00     0.074 A 
ATOM     41  C   UNL     1      13.855   3.521  -5.084  1.00  0.00     0.049 A 
ATOM     42  N   UNL     1      15.393   1.614  -6.826  1.00  0.00    -0.248 NA
ATOM     43  C   UNL     1      13.432   1.178  -8.014  1.00  0.00     0.031 C 
ATOM     44  C   UNL     1      13.152   4.432  -4.177  1.00  0.00     0.029 A 
ATOM     45  N   UNL     1      15.155   3.553  -4.642  1.00  0.00    -0.354 N 
ATOM     46  C   UNL     1      15.656   0.677  -7.819  1.00  0.00     0.074 A 
ATOM     47  C   UNL     1      14.399   0.401  -8.480  1.00  0.00     0.031 C 
ATOM     48  C   UNL     1      14.031   4.947  -3.302  1.00  0.00     0.029 A 
ATOM     49  C   UNL     1      15.349   4.374  -3.555  1.00  0.00     0.049 A 
ATOM     50  H   UNL     1      15.879   3.036  -5.063  1.00  0.00     0.167 HD
ATOM     51  C   UNL     1      16.838   0.115  -8.168  1.00  0.00     0.031 A 
ATOM     52  C   UNL     1      16.459   4.630  -2.834  1.00  0.00     0.031 A 
ATOM     53  C   UNL     1      18.089   0.391  -7.511  1.00  0.00     0.049 A 
ATOM     54  C   UNL     1      17.756   3.975  -3.224  1.00  0.00     0.074 A 
ATOM     55  C   UNL     1      19.347  -0.103  -7.813  1.00  0.00     0.029 A 
ATOM     56  N   UNL     1      18.243   1.235  -6.421  1.00  0.00    -0.354 N 
ATOM     57  N   UNL     1      17.992   3.134  -4.203  1.00  0.00    -0.248 NA
ATOM     58  C   UNL     1      18.940   4.315  -2.423  1.00  0.00     0.031 C 
ATOM     59  C   UNL     1      20.252   0.400  -6.873  1.00  0.00     0.029 A 
ATOM     60  C   UNL     1      19.571   1.260  -6.026  1.00  0.00     0.049 A 
ATOM     61  H   UNL     1      17.517   1.741  -5.992  1.00  0.00     0.167 HD
ATOM     62  C   UNL     1      19.356   2.865  -4.150  1.00  0.00     0.074 A 
ATOM     63  C   UNL     1      19.895   3.648  -3.057  1.00  0.00     0.031 C 
ATOM     64  C   UNL     1      20.095   2.044  -4.937  1.00  0.00     0.031 A 
BRANCH  51  65
ATOM     65  C   UNL     1      16.836  -0.858  -9.320  1.00  0.00    -0.014 A 
ATOM     66  C   UNL     1      16.607  -0.419 -10.637  1.00  0.00     0.010 A 
ATOM     67  C   UNL     1      17.115  -2.219  -9.093  1.00  0.00     0.010 A 
ATOM     68  C   UNL     1      16.618  -1.327 -11.699  1.00  0.00     0.020 A 
ATOM     69  C   UNL     1      17.157  -3.125 -10.157  1.00  0.00     0.020 A 
ATOM     70  C   UNL     1      16.892  -2.675 -11.452  1.00  0.00     0.054 A 
BRANCH  70  71
ATOM     71  S   UNL     1      16.927  -3.824 -12.856  1.00  0.00     0.124 S 
ATOM     72  O   UNL     1      15.512  -3.911 -13.208  1.00  0.00    -0.237 OA
ATOM     73  O   UNL     1      17.772  -3.124 -13.820  1.00  0.00    -0.237 OA
ATOM     74  O   UNL     1      17.504  -5.042 -12.294  1.00  0.00    -0.744 OA
ENDBRANCH  70  71
ENDBRANCH  51  65
BRANCH  52  75
ATOM     75  C   UNL     1      16.388   5.547  -1.661  1.00  0.00    -0.014 A 
ATOM     76  C   UNL     1      17.019   6.804  -1.689  1.00  0.00     0.010 A 
ATOM     77  C   UNL     1      15.682   5.164  -0.506  1.00  0.00     0.010 A 
ATOM     78  C   UNL     1      16.966   7.648  -0.575  1.00  0.00     0.020 A 
ATOM     79  C   UNL     1      15.600   6.018   0.597  1.00  0.00     0.020 A 
ATOM     80  C   UNL     1      16.255   7.250   0.560  1.00  0.00     0.054 A 
BRANCH  80  81
ATOM     81  S   UNL     1      16.162   8.379   1.978  1.00  0.00     0.124 S 
ATOM     82  O   UNL     1      17.511   8.289   2.526  1.00  0.00    -0.237 OA
ATOM     83  O   UNL     1      15.818   9.650   1.346  1.00  0.00    -0.237 OA
ATOM     84  O   UNL     1      15.108   7.800   2.807  1.00  0.00    -0.744 OA
ENDBRANCH  80  81
ENDBRANCH  52  75
BRANCH  64  85
ATOM     85  C   UNL     1      21.576   1.975  -4.671  1.00  0.00    -0.014 A 
ATOM     86  C   UNL     1      22.086   1.337  -3.527  1.00  0.00     0.010 A 
ATOM     87  C   UNL     1      22.474   2.509  -5.614  1.00  0.00     0.010 A 
ATOM     88  C   UNL     1      23.466   1.264  -3.314  1.00  0.00     0.020 A 
ATOM     89  C   UNL     1      23.854   2.411  -5.421  1.00  0.00     0.020 A 
ATOM     90  C   UNL     1      24.341   1.801  -4.263  1.00  0.00     0.054 A 
BRANCH  90  91
ATOM     91  S   UNL     1      26.128   1.654  -3.985  1.00  0.00     0.124 S 
ATOM     92  O   UNL     1      26.347   2.613  -2.905  1.00  0.00    -0.237 OA
ATOM     93  O   UNL     1      26.279   0.249  -3.617  1.00  0.00    -0.237 OA
ATOM     94  O   UNL     1      26.712   2.022  -5.273  1.00  0.00    -0.744 OA
ENDBRANCH  90  91
ENDBRANCH  64  85
ENDBRANCH  38  39
ENDBRANCH  30  33
ENDBRANCH  28  29
ENDBRANCH  27  28
ENDBRANCH   1  27
TORSDOF 18
