REMARK SMILES O=C(NCCCCCCNC(=O)c1ccc(C[NH+]2CC[NH2+]CC2)c(Br)c1)c1ccc(-c2c3nc(c(-c4ccc(S(=O)(=O)[O-])cc4)c4ccc([nH]4)c(-c4ccc(S(=O)(=O)[O-])cc4)c4nc(c(-c5ccc(S(=O)(=O)[O-])cc5)c5ccc2[nH]5)C=C4)C=C3)cc1
REMARK SMILES IDX 6 1 5 2 4 3 3 4 1 5 2 6 27 8 28 9 86 10 29 11 85 12 30 13
REMARK SMILES IDX 31 14 32 15 79 16 33 17 84 18 78 19 80 20 34 21 83 22 77 23
REMARK SMILES IDX 76 24 35 26 65 27 46 28 64 29 47 30 50 31 63 32 81 33 48 34
REMARK SMILES IDX 49 35 62 37 82 38 51 39 36 40 37 41 45 42 38 43 44 44 39 45
REMARK SMILES IDX 40 46 41 47 42 48 43 49 66 50 67 51 75 52 68 53 74 54 69 55
REMARK SMILES IDX 70 56 71 57 72 58 73 59 52 60 53 61 61 62 54 63 60 64 55 65
REMARK SMILES IDX 56 66 57 67 58 68 59 69 7 70 8 71 9 72 10 73 11 74 12 76
REMARK SMILES IDX 13 77 14 78 26 79 15 80 24 81 16 82 25 83 17 84 18 85 19 86
REMARK SMILES IDX 23 87 20 89 22 90 21 91
REMARK H PARENT 3 7 80 25 50 36 10 75 18 88 21 92 21 93
REMARK Flexibility Score: inf
ROOT
ATOM      1  C   UNL     1       4.295  -1.299   3.550  1.00  0.00     0.002 C 
ENDROOT
BRANCH   1   2
ATOM      2  C   UNL     1       4.741  -0.273   2.506  1.00  0.00     0.021 C 
BRANCH   2   3
ATOM      3  C   UNL     1       4.439  -0.653   1.060  1.00  0.00     0.116 C 
BRANCH   3   4
ATOM      4  N   UNL     1       3.011  -0.760   0.805  1.00  0.00    -0.352 N 
ATOM      5  O   UNL     1       1.005  -0.158  -0.025  1.00  0.00    -0.269 OA
ATOM      6  C   UNL     1       2.229  -0.069  -0.086  1.00  0.00     0.251 C 
ATOM      7  H   UNL     1       2.535  -1.426   1.353  1.00  0.00     0.163 HD
BRANCH   6   8
ATOM      8  C   UNL     1       2.858   0.797  -1.107  1.00  0.00     0.039 A 
ATOM      9  C   UNL     1       3.950   0.347  -1.856  1.00  0.00     0.014 A 
ATOM     10  C   UNL     1       2.327   2.069  -1.335  1.00  0.00     0.014 A 
ATOM     11  C   UNL     1       4.581   1.208  -2.750  1.00  0.00     0.010 A 
ATOM     12  C   UNL     1       2.918   2.906  -2.283  1.00  0.00     0.010 A 
ATOM     13  C   UNL     1       4.064   2.491  -2.982  1.00  0.00    -0.014 A 
BRANCH  13  14
ATOM     14  C   UNL     1       4.682   3.381  -3.997  1.00  0.00     0.031 A 
ATOM     15  C   UNL     1       5.310   4.685  -3.595  1.00  0.00     0.074 A 
ATOM     16  C   UNL     1       4.629   3.029  -5.296  1.00  0.00     0.049 A 
ATOM     17  N   UNL     1       5.807   5.629  -4.353  1.00  0.00    -0.248 NA
ATOM     18  C   UNL     1       5.379   4.971  -2.154  1.00  0.00     0.031 C 
ATOM     19  C   UNL     1       4.046   1.787  -5.809  1.00  0.00     0.029 A 
ATOM     20  N   UNL     1       5.051   3.689  -6.423  1.00  0.00    -0.354 N 
ATOM     21  C   UNL     1       6.222   6.634  -3.487  1.00  0.00     0.074 A 
ATOM     22  C   UNL     1       5.897   6.191  -2.147  1.00  0.00     0.031 C 
ATOM     23  C   UNL     1       4.148   1.774  -7.145  1.00  0.00     0.029 A 
ATOM     24  C   UNL     1       4.739   3.032  -7.589  1.00  0.00     0.049 A 
ATOM     25  H   UNL     1       5.529   4.549  -6.398  1.00  0.00     0.167 HD
ATOM     26  C   UNL     1       6.814   7.817  -3.784  1.00  0.00     0.031 A 
ATOM     27  C   UNL     1       4.870   3.410  -8.875  1.00  0.00     0.031 A 
ATOM     28  C   UNL     1       7.109   8.254  -5.124  1.00  0.00     0.049 A 
ATOM     29  C   UNL     1       5.480   4.745  -9.187  1.00  0.00     0.074 A 
ATOM     30  C   UNL     1       7.739   9.417  -5.530  1.00  0.00     0.029 A 
ATOM     31  N   UNL     1       6.776   7.557  -6.278  1.00  0.00    -0.354 N 
ATOM     32  N   UNL     1       5.910   5.665  -8.355  1.00  0.00    -0.248 NA
ATOM     33  C   UNL     1       5.633   5.094 -10.605  1.00  0.00     0.031 C 
ATOM     34  C   UNL     1       7.724   9.457  -6.928  1.00  0.00     0.029 A 
ATOM     35  C   UNL     1       7.157   8.281  -7.396  1.00  0.00     0.049 A 
ATOM     36  H   UNL     1       6.333   6.678  -6.299  1.00  0.00     0.167 HD
ATOM     37  C   UNL     1       6.411   6.689  -9.149  1.00  0.00     0.074 A 
ATOM     38  C   UNL     1       6.231   6.277 -10.527  1.00  0.00     0.031 C 
ATOM     39  C   UNL     1       6.978   7.859  -8.765  1.00  0.00     0.031 A 
BRANCH  26  40
ATOM     40  C   UNL     1       7.127   8.744  -2.636  1.00  0.00    -0.014 A 
ATOM     41  C   UNL     1       8.102   8.424  -1.674  1.00  0.00     0.010 A 
ATOM     42  C   UNL     1       6.431   9.962  -2.519  1.00  0.00     0.010 A 
ATOM     43  C   UNL     1       8.322   9.267  -0.580  1.00  0.00     0.020 A 
ATOM     44  C   UNL     1       6.671  10.824  -1.445  1.00  0.00     0.020 A 
ATOM     45  C   UNL     1       7.595  10.455  -0.466  1.00  0.00     0.054 A 
BRANCH  45  46
ATOM     46  S   UNL     1       7.871  11.509   0.985  1.00  0.00     0.124 S 
ATOM     47  O   UNL     1       7.235  10.730   2.045  1.00  0.00    -0.237 OA
ATOM     48  O   UNL     1       9.328  11.586   1.052  1.00  0.00    -0.237 OA
ATOM     49  O   UNL     1       7.197  12.758   0.641  1.00  0.00    -0.744 OA
ENDBRANCH  45  46
ENDBRANCH  26  40
BRANCH  27  50
ATOM     50  C   UNL     1       4.383   2.499  -9.944  1.00  0.00    -0.014 A 
ATOM     51  C   UNL     1       5.288   1.788 -10.749  1.00  0.00     0.010 A 
ATOM     52  C   UNL     1       3.002   2.268 -10.096  1.00  0.00     0.010 A 
ATOM     53  C   UNL     1       4.821   0.852 -11.677  1.00  0.00     0.020 A 
ATOM     54  C   UNL     1       2.534   1.313 -11.002  1.00  0.00     0.020 A 
ATOM     55  C   UNL     1       3.448   0.611 -11.788  1.00  0.00     0.054 A 
BRANCH  55  56
ATOM     56  S   UNL     1       2.878  -0.684 -12.924  1.00  0.00     0.124 S 
ATOM     57  O   UNL     1       3.126  -0.076 -14.227  1.00  0.00    -0.237 OA
ATOM     58  O   UNL     1       3.742  -1.809 -12.575  1.00  0.00    -0.237 OA
ATOM     59  O   UNL     1       1.471  -0.856 -12.569  1.00  0.00    -0.744 OA
ENDBRANCH  55  56
ENDBRANCH  27  50
BRANCH  39  60
ATOM     60  C   UNL     1       7.503   8.774  -9.840  1.00  0.00    -0.014 A 
ATOM     61  C   UNL     1       6.640   9.535 -10.646  1.00  0.00     0.010 A 
ATOM     62  C   UNL     1       8.894   8.956  -9.961  1.00  0.00     0.010 A 
ATOM     63  C   UNL     1       7.159  10.464 -11.553  1.00  0.00     0.020 A 
ATOM     64  C   UNL     1       9.415   9.902 -10.847  1.00  0.00     0.020 A 
ATOM     65  C   UNL     1       8.543  10.649 -11.639  1.00  0.00     0.054 A 
BRANCH  65  66
ATOM     66  S   UNL     1       9.186  11.933 -12.749  1.00  0.00     0.124 S 
ATOM     67  O   UNL     1       8.940  11.350 -14.065  1.00  0.00    -0.237 OA
ATOM     68  O   UNL     1       8.362  13.090 -12.409  1.00  0.00    -0.237 OA
ATOM     69  O   UNL     1      10.593  12.046 -12.371  1.00  0.00    -0.744 OA
ENDBRANCH  65  66
ENDBRANCH  39  60
ENDBRANCH  13  14
ENDBRANCH   6   8
ENDBRANCH   3   4
ENDBRANCH   2   3
ENDBRANCH   1   2
BRANCH   1  70
ATOM     70  C   UNL     1       4.871  -2.707   3.371  1.00  0.00     0.002 C 
BRANCH  70  71
ATOM     71  C   UNL     1       6.402  -2.800   3.384  1.00  0.00     0.021 C 
BRANCH  71  72
ATOM     72  C   UNL     1       7.070  -2.303   4.668  1.00  0.00     0.116 C 
BRANCH  72  73
ATOM     73  N   UNL     1       6.648  -3.069   5.836  1.00  0.00    -0.352 N 
ATOM     74  C   UNL     1       7.413  -3.753   6.746  1.00  0.00     0.251 C 
ATOM     75  H   UNL     1       5.677  -3.099   5.993  1.00  0.00     0.163 HD
ATOM     76  O   UNL     1       6.901  -4.494   7.582  1.00  0.00    -0.269 OA
BRANCH  74  77
ATOM     77  C   UNL     1       8.875  -3.607   6.702  1.00  0.00     0.040 A 
ATOM     78  C   UNL     1       9.457  -2.358   6.907  1.00  0.00     0.014 A 
ATOM     79  C   UNL     1       9.662  -4.723   6.424  1.00  0.00     0.030 A 
ATOM     80  C   UNL     1      10.823  -2.200   6.685  1.00  0.00     0.011 A 
ATOM     81  C   UNL     1      11.030  -4.557   6.194  1.00  0.00     0.027 A 
ATOM     82  C   UNL     1      11.610  -3.274   6.224  1.00  0.00     0.020 A 
ATOM     83  Br  UNL     1      12.021  -6.133   5.812  1.00  0.00    -0.050 Br
BRANCH  82  84
ATOM     84  C   UNL     1      12.996  -2.962   5.701  1.00  0.00     0.300 C 
BRANCH  84  85
ATOM     85  N   UNL     1      13.091  -2.462   4.319  1.00  0.00    -0.322 N 
ATOM     86  C   UNL     1      12.682  -3.398   3.264  1.00  0.00     0.324 C 
ATOM     87  C   UNL     1      12.569  -1.112   4.066  1.00  0.00     0.324 C 
ATOM     88  H   UNL     1      14.105  -2.379   4.248  1.00  0.00     0.348 HD
ATOM     89  C   UNL     1      11.198  -3.312   2.840  1.00  0.00     0.322 C 
ATOM     90  C   UNL     1      11.111  -1.015   3.549  1.00  0.00     0.322 C 
ATOM     91  N   UNL     1      10.781  -1.952   2.463  1.00  0.00    -0.337 N 
ATOM     92  H   UNL     1       9.774  -1.939   2.298  1.00  0.00     0.346 HD
ATOM     93  H   UNL     1      11.270  -1.671   1.613  1.00  0.00     0.346 HD
ENDBRANCH  84  85
ENDBRANCH  82  84
ENDBRANCH  74  77
ENDBRANCH  72  73
ENDBRANCH  71  72
ENDBRANCH  70  71
ENDBRANCH   1  70
TORSDOF 18
