REMARK SMILES NC(=O)c1ccc(N(CC(=O)NCCCCCCNC(=O)c2ccc(-c3c4nc(c(-c5ccc(S(=O)(=O)[O-])cc5)c5ccc([nH]5)c(-c5ccc(S(=O)(=O)[O-])cc5)c5nc(c(-c6ccc(S(=O)(=O)[O-])cc6)c6ccc3[nH]6)C=C5)C=C4)cc2)C2CCCC2)nn1
REMARK SMILES IDX 15 1 14 2 13 3 12 4 10 5 11 6 9 8 8 9 7 10 4 11 5 12 88 13
REMARK SMILES IDX 6 14 87 15 2 16 1 17 3 20 82 21 83 22 86 23 84 24 85 25
REMARK SMILES IDX 16 26 17 27 18 28 19 29 20 30 21 32 22 33 23 34 81 35 24 36
REMARK SMILES IDX 80 37 25 38 26 39 27 40 74 41 28 42 79 43 73 44 75 45 29 46
REMARK SMILES IDX 78 47 72 48 71 49 30 51 60 52 41 53 59 54 42 55 45 56 58 57
REMARK SMILES IDX 76 58 43 59 44 60 57 62 77 63 46 64 31 65 32 66 40 67 33 68
REMARK SMILES IDX 39 69 34 70 35 71 36 72 37 73 38 74 61 75 62 76 70 77 63 78
REMARK SMILES IDX 69 79 64 80 65 81 66 82 67 83 68 84 47 85 48 86 56 87 49 88
REMARK SMILES IDX 55 89 50 90 51 91 52 92 53 93 54 94
REMARK H PARENT 12 7 1 18 1 19 19 31 75 50 45 61
REMARK Flexibility Score: inf
ROOT
ATOM      1  C   UNL     1       5.921  -0.098  -6.152  1.00  0.00     0.002 C 
ENDROOT
BRANCH   1   2
ATOM      2  C   UNL     1       4.762  -0.780  -5.417  1.00  0.00     0.021 C 
BRANCH   2   3
ATOM      3  C   UNL     1       3.598  -1.173  -6.326  1.00  0.00     0.116 C 
BRANCH   3   4
ATOM      4  N   UNL     1       3.955  -2.290  -7.179  1.00  0.00    -0.355 N 
ATOM      5  C   UNL     1       3.576  -3.598  -7.065  1.00  0.00     0.239 C 
ATOM      6  O   UNL     1       4.072  -4.420  -7.841  1.00  0.00    -0.273 OA
ATOM      7  H   UNL     1       4.546  -2.079  -7.937  1.00  0.00     0.163 HD
BRANCH   5   8
ATOM      8  C   UNL     1       2.541  -4.015  -6.008  1.00  0.00     0.218 C 
BRANCH   8   9
ATOM      9  N   UNL     1       3.094  -4.007  -4.630  1.00  0.00    -0.343 N 
BRANCH   9  10
ATOM     10  C   UNL     1       2.384  -3.288  -3.681  1.00  0.00     0.151 A 
ATOM     11  C   UNL     1       0.958  -1.652  -1.927  1.00  0.00     0.150 A 
ATOM     12  C   UNL     1       2.073  -2.321  -1.466  1.00  0.00     0.040 A 
ATOM     13  N   UNL     1       0.537  -1.817  -3.189  1.00  0.00    -0.143 NA
ATOM     14  C   UNL     1       2.775  -3.149  -2.353  1.00  0.00     0.051 A 
ATOM     15  N   UNL     1       1.260  -2.634  -4.050  1.00  0.00    -0.132 NA
BRANCH  11  16
ATOM     16  C   UNL     1       0.169  -0.724  -1.073  1.00  0.00     0.269 C 
ATOM     17  N   UNL     1       0.845  -0.007  -0.119  1.00  0.00    -0.364 N 
ATOM     18  H   UNL     1       0.357   0.617   0.465  1.00  0.00     0.160 HD
ATOM     19  H   UNL     1       1.818  -0.117  -0.019  1.00  0.00     0.160 HD
ATOM     20  O   UNL     1      -1.044  -0.579  -1.213  1.00  0.00    -0.268 OA
ENDBRANCH  11  16
ENDBRANCH   9  10
BRANCH   9  21
ATOM     21  C   UNL     1       4.225  -4.915  -4.393  1.00  0.00     0.084 C 
ATOM     22  C   UNL     1       5.492  -4.230  -3.891  1.00  0.00     0.025 C 
ATOM     23  C   UNL     1       3.922  -6.053  -3.418  1.00  0.00     0.025 C 
ATOM     24  C   UNL     1       6.259  -5.329  -3.177  1.00  0.00     0.002 C 
ATOM     25  C   UNL     1       5.215  -6.305  -2.647  1.00  0.00     0.002 C 
ENDBRANCH   9  21
ENDBRANCH   8   9
ENDBRANCH   5   8
ENDBRANCH   3   4
ENDBRANCH   2   3
ENDBRANCH   1   2
BRANCH   1  26
ATOM     26  C   UNL     1       5.562   1.236  -6.816  1.00  0.00     0.002 C 
BRANCH  26  27
ATOM     27  C   UNL     1       4.949   2.283  -5.880  1.00  0.00     0.021 C 
BRANCH  27  28
ATOM     28  C   UNL     1       5.817   2.656  -4.681  1.00  0.00     0.116 C 
BRANCH  28  29
ATOM     29  N   UNL     1       7.083   3.241  -5.086  1.00  0.00    -0.352 N 
ATOM     30  C   UNL     1       7.664   4.425  -4.706  1.00  0.00     0.251 C 
ATOM     31  H   UNL     1       7.603   2.709  -5.731  1.00  0.00     0.163 HD
ATOM     32  O   UNL     1       8.642   4.843  -5.319  1.00  0.00    -0.269 OA
BRANCH  30  33
ATOM     33  C   UNL     1       7.113   5.201  -3.573  1.00  0.00     0.039 A 
ATOM     34  C   UNL     1       7.032   6.590  -3.691  1.00  0.00     0.014 A 
ATOM     35  C   UNL     1       6.715   4.576  -2.387  1.00  0.00     0.014 A 
ATOM     36  C   UNL     1       6.516   7.347  -2.637  1.00  0.00     0.010 A 
ATOM     37  C   UNL     1       6.136   5.325  -1.363  1.00  0.00     0.010 A 
ATOM     38  C   UNL     1       6.040   6.720  -1.473  1.00  0.00    -0.014 A 
BRANCH  38  39
ATOM     39  C   UNL     1       5.436   7.524  -0.380  1.00  0.00     0.031 A 
ATOM     40  C   UNL     1       6.098   7.614   0.969  1.00  0.00     0.074 A 
ATOM     41  C   UNL     1       4.271   8.166  -0.601  1.00  0.00     0.049 A 
ATOM     42  N   UNL     1       5.742   8.314   2.016  1.00  0.00    -0.248 NA
ATOM     43  C   UNL     1       7.303   6.795   1.178  1.00  0.00     0.031 C 
ATOM     44  C   UNL     1       3.500   8.113  -1.846  1.00  0.00     0.029 A 
ATOM     45  N   UNL     1       3.539   8.998   0.208  1.00  0.00    -0.354 N 
ATOM     46  C   UNL     1       6.672   8.019   3.006  1.00  0.00     0.074 A 
ATOM     47  C   UNL     1       7.574   7.032   2.453  1.00  0.00     0.031 C 
ATOM     48  C   UNL     1       2.430   8.916  -1.734  1.00  0.00     0.029 A 
ATOM     49  C   UNL     1       2.422   9.517  -0.404  1.00  0.00     0.049 A 
ATOM     50  H   UNL     1       3.789   9.203   1.137  1.00  0.00     0.167 HD
ATOM     51  C   UNL     1       6.781   8.538   4.254  1.00  0.00     0.031 A 
ATOM     52  C   UNL     1       1.503  10.391   0.046  1.00  0.00     0.031 A 
ATOM     53  C   UNL     1       5.883   9.521   4.801  1.00  0.00     0.049 A 
ATOM     54  C   UNL     1       1.655  10.968   1.426  1.00  0.00     0.074 A 
ATOM     55  C   UNL     1       5.937  10.146   6.036  1.00  0.00     0.029 A 
ATOM     56  N   UNL     1       4.767  10.024   4.149  1.00  0.00    -0.354 N 
ATOM     57  N   UNL     1       2.583  10.728   2.322  1.00  0.00    -0.248 NA
ATOM     58  C   UNL     1       0.647  11.950   1.845  1.00  0.00     0.031 C 
ATOM     59  C   UNL     1       4.826  10.991   6.149  1.00  0.00     0.029 A 
ATOM     60  C   UNL     1       4.112  10.936   4.962  1.00  0.00     0.049 A 
ATOM     61  H   UNL     1       4.481   9.771   3.242  1.00  0.00     0.167 HD
ATOM     62  C   UNL     1       2.283  11.549   3.404  1.00  0.00     0.074 A 
ATOM     63  C   UNL     1       1.102  12.306   3.038  1.00  0.00     0.031 C 
ATOM     64  C   UNL     1       2.926  11.666   4.593  1.00  0.00     0.031 A 
BRANCH  51  65
ATOM     65  C   UNL     1       7.915   8.040   5.114  1.00  0.00    -0.014 A 
ATOM     66  C   UNL     1       9.251   8.365   4.813  1.00  0.00     0.010 A 
ATOM     67  C   UNL     1       7.643   7.259   6.251  1.00  0.00     0.010 A 
ATOM     68  C   UNL     1      10.295   7.875   5.603  1.00  0.00     0.020 A 
ATOM     69  C   UNL     1       8.683   6.791   7.061  1.00  0.00     0.020 A 
ATOM     70  C   UNL     1      10.004   7.085   6.719  1.00  0.00     0.054 A 
BRANCH  70  71
ATOM     71  S   UNL     1      11.377   6.467   7.730  1.00  0.00     0.124 S 
ATOM     72  O   UNL     1      11.929   5.418   6.876  1.00  0.00    -0.237 OA
ATOM     73  O   UNL     1      12.217   7.651   7.892  1.00  0.00    -0.237 OA
ATOM     74  O   UNL     1      10.726   5.997   8.950  1.00  0.00    -0.744 OA
ENDBRANCH  70  71
ENDBRANCH  51  65
BRANCH  52  75
ATOM     75  C   UNL     1       0.383  10.809  -0.839  1.00  0.00    -0.014 A 
ATOM     76  C   UNL     1       0.352  12.103  -1.387  1.00  0.00     0.010 A 
ATOM     77  C   UNL     1      -0.648   9.906  -1.158  1.00  0.00     0.010 A 
ATOM     78  C   UNL     1      -0.697  12.493  -2.225  1.00  0.00     0.020 A 
ATOM     79  C   UNL     1      -1.684  10.283  -2.017  1.00  0.00     0.020 A 
ATOM     80  C   UNL     1      -1.707  11.579  -2.537  1.00  0.00     0.054 A 
BRANCH  80  81
ATOM     81  S   UNL     1      -3.026  12.086  -3.674  1.00  0.00     0.124 S 
ATOM     82  O   UNL     1      -3.833  12.963  -2.831  1.00  0.00    -0.237 OA
ATOM     83  O   UNL     1      -2.283  12.745  -4.746  1.00  0.00    -0.237 OA
ATOM     84  O   UNL     1      -3.657  10.823  -4.050  1.00  0.00    -0.744 OA
ENDBRANCH  80  81
ENDBRANCH  52  75
BRANCH  64  85
ATOM     85  C   UNL     1       2.371  12.669   5.571  1.00  0.00    -0.014 A 
ATOM     86  C   UNL     1       1.142  12.453   6.220  1.00  0.00     0.010 A 
ATOM     87  C   UNL     1       3.092  13.846   5.843  1.00  0.00     0.010 A 
ATOM     88  C   UNL     1       0.615  13.424   7.075  1.00  0.00     0.020 A 
ATOM     89  C   UNL     1       2.582  14.806   6.721  1.00  0.00     0.020 A 
ATOM     90  C   UNL     1       1.334  14.600   7.312  1.00  0.00     0.054 A 
BRANCH  90  91
ATOM     91  S   UNL     1       0.627  15.851   8.418  1.00  0.00     0.124 S 
ATOM     92  O   UNL     1      -0.390  16.465   7.569  1.00  0.00    -0.237 OA
ATOM     93  O   UNL     1       0.119  15.050   9.529  1.00  0.00    -0.237 OA
ATOM     94  O   UNL     1       1.766  16.706   8.745  1.00  0.00    -0.744 OA
ENDBRANCH  90  91
ENDBRANCH  64  85
ENDBRANCH  38  39
ENDBRANCH  30  33
ENDBRANCH  28  29
ENDBRANCH  27  28
ENDBRANCH  26  27
ENDBRANCH   1  26
TORSDOF 20
