REMARK SMILES O=C(NCCCCCCNC(=O)[C@@H]1Cc2[nH]cnc2CN1C(=O)c1csc(-c2cccs2)n1)c1ccc(-c2c3nc(c(-c4ccc(S(=O)(=O)[O-])cc4)c4ccc([nH]4)c(-c4ccc(S(=O)(=O)[O-])cc4)c4nc(c(-c5ccc(S(=O)(=O)[O-])cc5)c5ccc2[nH]5)C=C4)C=C3)cc1
REMARK SMILES IDX 6 1 5 2 4 3 3 4 1 5 2 6 34 8 35 9 93 10 36 11 92 12 37 13
REMARK SMILES IDX 38 14 39 15 86 16 40 17 91 18 85 19 87 20 41 21 90 22 84 23
REMARK SMILES IDX 83 24 42 26 72 27 53 28 71 29 54 30 57 31 70 32 88 33 55 34
REMARK SMILES IDX 56 35 69 37 89 38 58 39 43 40 44 41 52 42 45 43 51 44 46 45
REMARK SMILES IDX 47 46 48 47 49 48 50 49 73 50 74 51 82 52 75 53 81 54 76 55
REMARK SMILES IDX 77 56 78 57 79 58 80 59 59 60 60 61 68 62 61 63 67 64 62 65
REMARK SMILES IDX 63 66 64 67 65 68 66 69 7 70 8 71 9 72 10 73 11 74 12 76
REMARK SMILES IDX 13 77 14 78 21 79 15 80 20 81 16 82 19 83 17 84 18 86 22 87
REMARK SMILES IDX 23 88 24 89 25 90 33 91 26 92 27 93 28 94 29 95 32 96 30 97
REMARK SMILES IDX 31 98
REMARK H PARENT 3 7 87 25 57 36 10 75 16 85
REMARK Flexibility Score: inf
ROOT
ATOM      1  C   UNL     1       6.749   8.001  -1.293  1.00  0.00     0.002 C 
ENDROOT
BRANCH   1   2
ATOM      2  C   UNL     1       5.800   8.983  -1.988  1.00  0.00     0.021 C 
BRANCH   2   3
ATOM      3  C   UNL     1       4.313   8.723  -1.737  1.00  0.00     0.116 C 
BRANCH   3   4
ATOM      4  N   UNL     1       3.943   8.770  -0.339  1.00  0.00    -0.352 N 
ATOM      5  O   UNL     1       3.419   9.415   1.705  1.00  0.00    -0.269 OA
ATOM      6  C   UNL     1       3.751   9.775   0.571  1.00  0.00     0.251 C 
ATOM      7  H   UNL     1       3.795   7.875   0.046  1.00  0.00     0.163 HD
BRANCH   6   8
ATOM      8  C   UNL     1       3.925  11.233   0.299  1.00  0.00     0.039 A 
ATOM      9  C   UNL     1       4.117  11.811  -0.956  1.00  0.00     0.014 A 
ATOM     10  C   UNL     1       3.865  12.092   1.413  1.00  0.00     0.014 A 
ATOM     11  C   UNL     1       4.280  13.191  -1.096  1.00  0.00     0.010 A 
ATOM     12  C   UNL     1       4.002  13.477   1.276  1.00  0.00     0.010 A 
ATOM     13  C   UNL     1       4.226  14.033   0.016  1.00  0.00    -0.014 A 
BRANCH  13  14
ATOM     14  C   UNL     1       4.335  15.478  -0.225  1.00  0.00     0.031 A 
ATOM     15  C   UNL     1       3.265  16.134  -1.034  1.00  0.00     0.074 A 
ATOM     16  C   UNL     1       5.224  16.302   0.365  1.00  0.00     0.049 A 
ATOM     17  N   UNL     1       3.389  16.863  -2.099  1.00  0.00    -0.248 NA
ATOM     18  C   UNL     1       1.879  15.981  -0.565  1.00  0.00     0.031 C 
ATOM     19  C   UNL     1       6.116  15.990   1.481  1.00  0.00     0.029 A 
ATOM     20  N   UNL     1       5.418  17.645   0.159  1.00  0.00    -0.354 N 
ATOM     21  C   UNL     1       2.129  17.406  -2.339  1.00  0.00     0.074 A 
ATOM     22  C   UNL     1       1.222  16.776  -1.409  1.00  0.00     0.031 C 
ATOM     23  C   UNL     1       6.581  17.147   2.000  1.00  0.00     0.029 A 
ATOM     24  C   UNL     1       6.128  18.259   1.174  1.00  0.00     0.049 A 
ATOM     25  H   UNL     1       5.084  18.124  -0.633  1.00  0.00     0.167 HD
ATOM     26  C   UNL     1       1.911  18.466  -3.163  1.00  0.00     0.031 A 
ATOM     27  C   UNL     1       6.293  19.584   1.384  1.00  0.00     0.031 A 
ATOM     28  C   UNL     1       3.019  18.793  -4.011  1.00  0.00     0.049 A 
ATOM     29  C   UNL     1       6.047  20.340   0.135  1.00  0.00     0.074 A 
ATOM     30  C   UNL     1       3.696  18.191  -5.048  1.00  0.00     0.029 A 
ATOM     31  N   UNL     1       3.734  19.916  -3.680  1.00  0.00    -0.354 N 
ATOM     32  N   UNL     1       6.810  20.290  -0.920  1.00  0.00    -0.248 NA
ATOM     33  C   UNL     1       4.803  21.082  -0.037  1.00  0.00     0.031 C 
ATOM     34  C   UNL     1       4.981  18.806  -5.091  1.00  0.00     0.029 A 
ATOM     35  C   UNL     1       5.045  19.714  -4.034  1.00  0.00     0.049 A 
ATOM     36  H   UNL     1       3.369  20.729  -3.260  1.00  0.00     0.167 HD
ATOM     37  C   UNL     1       5.997  20.669  -1.971  1.00  0.00     0.074 A 
ATOM     38  C   UNL     1       4.848  21.308  -1.351  1.00  0.00     0.031 C 
ATOM     39  C   UNL     1       6.165  20.145  -3.219  1.00  0.00     0.031 A 
BRANCH  26  40
ATOM     40  C   UNL     1       0.775  19.440  -2.983  1.00  0.00    -0.014 A 
ATOM     41  C   UNL     1       0.396  20.265  -4.061  1.00  0.00     0.010 A 
ATOM     42  C   UNL     1       0.273  19.765  -1.705  1.00  0.00     0.010 A 
ATOM     43  C   UNL     1      -0.423  21.384  -3.865  1.00  0.00     0.020 A 
ATOM     44  C   UNL     1      -0.574  20.860  -1.507  1.00  0.00     0.020 A 
ATOM     45  C   UNL     1      -0.888  21.684  -2.584  1.00  0.00     0.054 A 
BRANCH  45  46
ATOM     46  S   UNL     1      -1.870  23.184  -2.321  1.00  0.00     0.124 S 
ATOM     47  O   UNL     1      -0.832  24.203  -2.207  1.00  0.00    -0.237 OA
ATOM     48  O   UNL     1      -2.692  23.249  -3.526  1.00  0.00    -0.237 OA
ATOM     49  O   UNL     1      -2.605  22.891  -1.091  1.00  0.00    -0.744 OA
ENDBRANCH  45  46
ENDBRANCH  26  40
BRANCH  27  50
ATOM     50  C   UNL     1       6.511  20.262   2.683  1.00  0.00    -0.014 A 
ATOM     51  C   UNL     1       7.051  21.558   2.746  1.00  0.00     0.010 A 
ATOM     52  C   UNL     1       5.980  19.711   3.868  1.00  0.00     0.010 A 
ATOM     53  C   UNL     1       7.039  22.285   3.946  1.00  0.00     0.020 A 
ATOM     54  C   UNL     1       5.983  20.420   5.072  1.00  0.00     0.020 A 
ATOM     55  C   UNL     1       6.500  21.711   5.101  1.00  0.00     0.054 A 
BRANCH  55  56
ATOM     56  S   UNL     1       6.386  22.699   6.619  1.00  0.00     0.124 S 
ATOM     57  O   UNL     1       7.783  22.787   7.035  1.00  0.00    -0.237 OA
ATOM     58  O   UNL     1       5.787  23.943   6.145  1.00  0.00    -0.237 OA
ATOM     59  O   UNL     1       5.529  21.895   7.489  1.00  0.00    -0.744 OA
ENDBRANCH  55  56
ENDBRANCH  27  50
BRANCH  39  60
ATOM     60  C   UNL     1       7.529  19.633  -3.601  1.00  0.00    -0.014 A 
ATOM     61  C   UNL     1       8.156  18.568  -2.930  1.00  0.00     0.010 A 
ATOM     62  C   UNL     1       8.143  20.160  -4.752  1.00  0.00     0.010 A 
ATOM     63  C   UNL     1       9.378  18.058  -3.382  1.00  0.00     0.020 A 
ATOM     64  C   UNL     1       9.356  19.642  -5.220  1.00  0.00     0.020 A 
ATOM     65  C   UNL     1       9.971  18.597  -4.526  1.00  0.00     0.054 A 
BRANCH  65  66
ATOM     66  S   UNL     1      11.509  17.867  -5.153  1.00  0.00     0.124 S 
ATOM     67  O   UNL     1      12.516  18.443  -4.265  1.00  0.00    -0.237 OA
ATOM     68  O   UNL     1      11.280  16.432  -4.995  1.00  0.00    -0.237 OA
ATOM     69  O   UNL     1      11.569  18.325  -6.540  1.00  0.00    -0.744 OA
ENDBRANCH  65  66
ENDBRANCH  39  60
ENDBRANCH  13  14
ENDBRANCH   6   8
ENDBRANCH   3   4
ENDBRANCH   2   3
ENDBRANCH   1   2
BRANCH   1  70
ATOM     70  C   UNL     1       6.489   6.518  -1.575  1.00  0.00     0.002 C 
BRANCH  70  71
ATOM     71  C   UNL     1       6.400   6.141  -3.058  1.00  0.00     0.021 C 
BRANCH  71  72
ATOM     72  C   UNL     1       7.693   6.358  -3.840  1.00  0.00     0.116 C 
BRANCH  72  73
ATOM     73  N   UNL     1       8.667   5.343  -3.521  1.00  0.00    -0.354 N 
ATOM     74  C   UNL     1       9.120   4.317  -4.298  1.00  0.00     0.243 C 
ATOM     75  H   UNL     1       9.058   5.397  -2.620  1.00  0.00     0.163 HD
ATOM     76  O   UNL     1       9.716   3.406  -3.716  1.00  0.00    -0.273 OA
BRANCH  74  77
ATOM     77  C   UNL     1       8.874   4.320  -5.840  1.00  0.00     0.181 C 
ATOM     78  C   UNL     1       9.282   2.926  -6.425  1.00  0.00     0.091 C 
ATOM     79  N   UNL     1       9.657   5.400  -6.532  1.00  0.00    -0.319 N 
ATOM     80  C   UNL     1      10.767   2.873  -6.535  1.00  0.00     0.042 A 
ATOM     81  C   UNL     1      11.127   5.374  -6.337  1.00  0.00     0.178 C 
ATOM     82  N   UNL     1      11.587   1.787  -6.581  1.00  0.00    -0.348 N 
ATOM     83  C   UNL     1      11.602   3.969  -6.505  1.00  0.00     0.081 A 
ATOM     84  C   UNL     1      12.872   2.263  -6.600  1.00  0.00     0.197 A 
ATOM     85  H   UNL     1      11.310   0.842  -6.597  1.00  0.00     0.167 HD
ATOM     86  N   UNL     1      12.912   3.578  -6.561  1.00  0.00    -0.240 NA
BRANCH  79  87
ATOM     87  C   UNL     1       9.169   6.299  -7.476  1.00  0.00     0.274 C 
ATOM     88  O   UNL     1       9.914   7.059  -8.097  1.00  0.00    -0.267 OA
BRANCH  87  89
ATOM     89  C   UNL     1       7.723   6.421  -7.681  1.00  0.00     0.140 A 
ATOM     90  C   UNL     1       7.014   7.494  -7.173  1.00  0.00     0.101 A 
ATOM     91  N   UNL     1       6.992   5.609  -8.556  1.00  0.00    -0.230 NA
ATOM     92  S   UNL     1       5.413   7.478  -7.751  1.00  0.00    -0.121 S 
ATOM     93  C   UNL     1       5.810   6.159  -8.790  1.00  0.00     0.134 A 
BRANCH  93  94
ATOM     94  C   UNL     1       4.941   5.715  -9.863  1.00  0.00     0.063 A 
ATOM     95  C   UNL     1       5.082   4.564 -10.621  1.00  0.00     0.023 A 
ATOM     96  S   UNL     1       3.602   6.641 -10.429  1.00  0.00    -0.141 S 
ATOM     97  C   UNL     1       4.114   4.461 -11.666  1.00  0.00     0.012 A 
ATOM     98  C   UNL     1       3.257   5.536 -11.682  1.00  0.00     0.065 A 
ENDBRANCH  93  94
ENDBRANCH  87  89
ENDBRANCH  79  87
ENDBRANCH  74  77
ENDBRANCH  72  73
ENDBRANCH  71  72
ENDBRANCH  70  71
ENDBRANCH   1  70
TORSDOF 19
