REMARK SMILES Cc1sc2nc3c(S[C@H](C)C(=O)NCCCCCCNC(=O)c4ccc(-c5c6nc(c(-c7ccc(S(=O)(=O)[O-])cc7)c7ccc([nH]7)c(-c7ccc(S(=O)(=O)[O-])cc7)c7nc(c(-c8ccc(S(=O)(=O)[O-])cc8)c8ccc5[nH]8)C=C7)C=C6)cc4)cc(C(=O)c4ccccc4O)cn3c(=O)c2c1C
REMARK SMILES IDX 15 1 14 2 13 3 11 4 12 5 9 7 10 8 8 9 7 10 1 11 2 12 3 13
REMARK SMILES IDX 99 14 4 15 98 16 100 17 5 18 96 19 6 20 95 21 97 22 94 23
REMARK SMILES IDX 83 24 84 25 85 26 86 27 87 28 88 29 92 30 89 31 91 32 90 33
REMARK SMILES IDX 93 34 16 36 17 37 18 38 19 39 20 40 21 41 22 43 23 44 24 45
REMARK SMILES IDX 82 46 25 47 81 48 26 49 27 50 28 51 75 52 29 53 80 54 74 55
REMARK SMILES IDX 76 56 30 57 79 58 73 59 72 60 31 62 61 63 42 64 60 65 43 66
REMARK SMILES IDX 46 67 59 68 77 69 44 70 45 71 58 73 78 74 47 75 32 76 33 77
REMARK SMILES IDX 41 78 34 79 40 80 35 81 36 82 37 83 38 84 39 85 62 86 63 87
REMARK SMILES IDX 71 88 64 89 70 90 65 91 66 92 67 93 68 94 69 95 48 96 49 97
REMARK SMILES IDX 57 98 50 99 56 100 51 101 52 102 53 103 54 104 55 105
REMARK H PARENT 13 6 93 35 20 42 76 61 46 72
REMARK Flexibility Score: inf
ROOT
ATOM      1  C   UNL     1       0.289  -5.886   8.801  1.00  0.00     0.021 C 
ENDROOT
BRANCH   1   2
ATOM      2  C   UNL     1      -0.491  -5.473  10.054  1.00  0.00     0.116 C 
BRANCH   2   3
ATOM      3  N   UNL     1      -0.090  -4.148  10.511  1.00  0.00    -0.355 N 
ATOM      4  C   UNL     1      -0.465  -2.865  10.304  1.00  0.00     0.233 C 
ATOM      5  O   UNL     1       0.346  -2.057  10.800  1.00  0.00    -0.274 OA
ATOM      6  H   UNL     1       0.662  -4.202  11.144  1.00  0.00     0.163 HD
BRANCH   4   7
ATOM      7  C   UNL     1      -1.746  -2.272   9.698  1.00  0.00     0.138 C 
ATOM      8  C   UNL     1      -1.530  -0.999   8.862  1.00  0.00     0.030 C 
BRANCH   7   9
ATOM      9  S   UNL     1      -3.184  -3.194   9.192  1.00  0.00    -0.109 SA
BRANCH   9  10
ATOM     10  C   UNL     1      -2.865  -4.250   7.868  1.00  0.00     0.052 A 
ATOM     11  C   UNL     1       4.169  -2.986   6.436  1.00  0.00     0.057 C 
ATOM     12  C   UNL     1       2.725  -3.238   6.145  1.00  0.00     0.007 A 
ATOM     13  S   UNL     1       1.545  -2.149   6.721  1.00  0.00    -0.120 S 
ATOM     14  C   UNL     1       2.157  -4.325   5.492  1.00  0.00    -0.022 A 
ATOM     15  C   UNL     1       0.286  -3.235   6.368  1.00  0.00     0.131 A 
ATOM     16  C   UNL     1       0.713  -4.303   5.621  1.00  0.00     0.080 A 
ATOM     17  C   UNL     1       2.975  -5.433   4.912  1.00  0.00     0.046 C 
ATOM     18  N   UNL     1      -0.916  -3.100   6.967  1.00  0.00    -0.218 NA
ATOM     19  C   UNL     1      -0.289  -5.315   5.280  1.00  0.00     0.266 A 
ATOM     20  C   UNL     1      -1.692  -4.141   6.926  1.00  0.00     0.155 A 
ATOM     21  N   UNL     1      -1.453  -5.255   6.089  1.00  0.00    -0.266 N 
ATOM     22  O   UNL     1      -0.084  -6.162   4.432  1.00  0.00    -0.268 OA
ATOM     23  C   UNL     1      -2.305  -6.370   6.106  1.00  0.00     0.108 A 
ATOM     24  C   UNL     1      -3.646  -5.337   7.803  1.00  0.00     0.032 A 
ATOM     25  C   UNL     1      -3.366  -6.439   6.926  1.00  0.00     0.041 A 
BRANCH  25  26
ATOM     26  C   UNL     1      -4.034  -7.758   7.165  1.00  0.00     0.198 C 
ATOM     27  O   UNL     1      -3.347  -8.771   7.284  1.00  0.00    -0.288 OA
BRANCH  26  28
ATOM     28  C   UNL     1      -5.487  -7.797   7.496  1.00  0.00     0.064 A 
ATOM     29  C   UNL     1      -6.381  -6.843   6.985  1.00  0.00     0.016 A 
ATOM     30  C   UNL     1      -5.967  -8.760   8.395  1.00  0.00     0.126 A 
ATOM     31  C   UNL     1      -7.713  -6.825   7.413  1.00  0.00     0.001 A 
ATOM     32  C   UNL     1      -7.297  -8.743   8.815  1.00  0.00     0.047 A 
ATOM     33  C   UNL     1      -8.168  -7.769   8.332  1.00  0.00     0.004 A 
BRANCH  30  34
ATOM     34  O   UNL     1      -5.181  -9.735   8.942  1.00  0.00    -0.507 OA
ATOM     35  H   UNL     1      -4.278  -9.799   8.700  1.00  0.00     0.293 HD
ENDBRANCH  30  34
ENDBRANCH  26  28
ENDBRANCH  25  26
ENDBRANCH   9  10
ENDBRANCH   7   9
ENDBRANCH   4   7
ENDBRANCH   2   3
ENDBRANCH   1   2
BRANCH   1  36
ATOM     36  C   UNL     1       1.663  -6.549   8.962  1.00  0.00     0.002 C 
BRANCH  36  37
ATOM     37  C   UNL     1       1.720  -8.084   8.865  1.00  0.00     0.002 C 
BRANCH  37  38
ATOM     38  C   UNL     1       0.991  -8.786   7.711  1.00  0.00     0.021 C 
BRANCH  38  39
ATOM     39  C   UNL     1       1.434  -8.447   6.293  1.00  0.00     0.116 C 
BRANCH  39  40
ATOM     40  N   UNL     1       2.779  -8.887   5.930  1.00  0.00    -0.352 N 
ATOM     41  C   UNL     1       3.190  -9.322   4.681  1.00  0.00     0.251 C 
ATOM     42  H   UNL     1       3.459  -8.873   6.642  1.00  0.00     0.163 HD
ATOM     43  O   UNL     1       4.371  -9.465   4.392  1.00  0.00    -0.269 OA
BRANCH  41  44
ATOM     44  C   UNL     1       2.128  -9.620   3.707  1.00  0.00     0.039 A 
ATOM     45  C   UNL     1       1.579  -8.577   2.958  1.00  0.00     0.014 A 
ATOM     46  C   UNL     1       1.504 -10.864   3.791  1.00  0.00     0.014 A 
ATOM     47  C   UNL     1       0.309  -8.726   2.413  1.00  0.00     0.010 A 
ATOM     48  C   UNL     1       0.246 -11.015   3.223  1.00  0.00     0.010 A 
ATOM     49  C   UNL     1      -0.380  -9.928   2.583  1.00  0.00    -0.014 A 
BRANCH  49  50
ATOM     50  C   UNL     1      -1.761 -10.012   2.064  1.00  0.00     0.031 A 
ATOM     51  C   UNL     1      -1.928 -11.108   1.074  1.00  0.00     0.074 A 
ATOM     52  C   UNL     1      -2.828  -9.837   2.877  1.00  0.00     0.049 A 
ATOM     53  N   UNL     1      -1.985 -12.341   1.477  1.00  0.00    -0.248 NA
ATOM     54  C   UNL     1      -1.737 -10.960  -0.363  1.00  0.00     0.031 C 
ATOM     55  C   UNL     1      -2.796 -10.069   4.329  1.00  0.00     0.029 A 
ATOM     56  N   UNL     1      -4.170  -9.719   2.586  1.00  0.00    -0.354 N 
ATOM     57  C   UNL     1      -1.748 -13.140   0.383  1.00  0.00     0.074 A 
ATOM     58  C   UNL     1      -1.630 -12.244  -0.746  1.00  0.00     0.031 C 
ATOM     59  C   UNL     1      -4.053 -10.292   4.755  1.00  0.00     0.029 A 
ATOM     60  C   UNL     1      -4.979 -10.038   3.667  1.00  0.00     0.049 A 
ATOM     61  H   UNL     1      -4.516  -9.440   1.708  1.00  0.00     0.167 HD
ATOM     62  C   UNL     1      -1.680 -14.493   0.499  1.00  0.00     0.031 A 
ATOM     63  C   UNL     1      -6.294 -10.373   3.631  1.00  0.00     0.031 A 
ATOM     64  C   UNL     1      -1.955 -15.057   1.803  1.00  0.00     0.049 A 
ATOM     65  C   UNL     1      -6.212 -11.876   3.564  1.00  0.00     0.074 A 
ATOM     66  C   UNL     1      -1.478 -16.055   2.629  1.00  0.00     0.029 A 
ATOM     67  N   UNL     1      -2.970 -14.461   2.503  1.00  0.00    -0.354 N 
ATOM     68  N   UNL     1      -5.916 -12.681   4.553  1.00  0.00    -0.248 NA
ATOM     69  C   UNL     1      -6.172 -12.516   2.237  1.00  0.00     0.031 C 
ATOM     70  C   UNL     1      -2.301 -16.067   3.807  1.00  0.00     0.029 A 
ATOM     71  C   UNL     1      -3.284 -15.098   3.669  1.00  0.00     0.049 A 
ATOM     72  H   UNL     1      -3.430 -13.648   2.194  1.00  0.00     0.167 HD
ATOM     73  C   UNL     1      -5.331 -13.783   3.940  1.00  0.00     0.074 A 
ATOM     74  C   UNL     1      -5.693 -13.717   2.540  1.00  0.00     0.031 C 
ATOM     75  C   UNL     1      -4.320 -14.513   4.498  1.00  0.00     0.031 A 
BRANCH  62  76
ATOM     76  C   UNL     1      -1.646 -15.344  -0.709  1.00  0.00    -0.014 A 
ATOM     77  C   UNL     1      -0.474 -15.656  -1.410  1.00  0.00     0.010 A 
ATOM     78  C   UNL     1      -2.875 -15.874  -1.141  1.00  0.00     0.010 A 
ATOM     79  C   UNL     1      -0.540 -16.492  -2.534  1.00  0.00     0.020 A 
ATOM     80  C   UNL     1      -2.946 -16.701  -2.258  1.00  0.00     0.020 A 
ATOM     81  C   UNL     1      -1.776 -17.006  -2.950  1.00  0.00     0.054 A 
BRANCH  81  82
ATOM     82  S   UNL     1      -1.839 -18.093  -4.400  1.00  0.00     0.124 S 
ATOM     83  O   UNL     1      -1.390 -17.204  -5.469  1.00  0.00    -0.237 OA
ATOM     84  O   UNL     1      -0.908 -19.158  -4.035  1.00  0.00    -0.237 OA
ATOM     85  O   UNL     1      -3.242 -18.494  -4.474  1.00  0.00    -0.744 OA
ENDBRANCH  81  82
ENDBRANCH  62  76
BRANCH  63  86
ATOM     86  C   UNL     1      -7.138  -9.507   2.752  1.00  0.00    -0.014 A 
ATOM     87  C   UNL     1      -7.981  -9.959   1.731  1.00  0.00     0.010 A 
ATOM     88  C   UNL     1      -7.022  -8.106   2.932  1.00  0.00     0.010 A 
ATOM     89  C   UNL     1      -8.474  -9.066   0.771  1.00  0.00     0.020 A 
ATOM     90  C   UNL     1      -7.535  -7.205   1.999  1.00  0.00     0.020 A 
ATOM     91  C   UNL     1      -8.195  -7.703   0.881  1.00  0.00     0.054 A 
BRANCH  91  92
ATOM     92  S   UNL     1      -8.616  -6.605  -0.496  1.00  0.00     0.124 S 
ATOM     93  O   UNL     1      -7.692  -7.065  -1.529  1.00  0.00    -0.237 OA
ATOM     94  O   UNL     1     -10.026  -6.907  -0.722  1.00  0.00    -0.237 OA
ATOM     95  O   UNL     1      -8.342  -5.271   0.033  1.00  0.00    -0.744 OA
ENDBRANCH  91  92
ENDBRANCH  63  86
BRANCH  75  96
ATOM     96  C   UNL     1      -4.227 -14.559   5.986  1.00  0.00    -0.014 A 
ATOM     97  C   UNL     1      -3.011 -14.334   6.652  1.00  0.00     0.010 A 
ATOM     98  C   UNL     1      -5.346 -14.975   6.730  1.00  0.00     0.010 A 
ATOM     99  C   UNL     1      -2.900 -14.582   8.023  1.00  0.00     0.020 A 
ATOM    100  C   UNL     1      -5.244 -15.217   8.099  1.00  0.00     0.020 A 
ATOM    101  C   UNL     1      -4.012 -15.049   8.731  1.00  0.00     0.054 A 
BRANCH 101 102
ATOM    102  S   UNL     1      -3.811 -15.498  10.475  1.00  0.00     0.124 S 
ATOM    103  O   UNL     1      -2.906 -16.643  10.395  1.00  0.00    -0.237 OA
ATOM    104  O   UNL     1      -3.238 -14.287  11.056  1.00  0.00    -0.237 OA
ATOM    105  O   UNL     1      -5.168 -15.815  10.915  1.00  0.00    -0.744 OA
ENDBRANCH 101 102
ENDBRANCH  75  96
ENDBRANCH  49  50
ENDBRANCH  41  44
ENDBRANCH  39  40
ENDBRANCH  38  39
ENDBRANCH  37  38
ENDBRANCH  36  37
ENDBRANCH   1  36
TORSDOF 21
