REMARK SMILES CC(C)[C@@H](NC(=O)/C(=C\c1ccccc1F)NC(=O)c1ccccc1)C(=O)NCCCCCCNC(=O)c1ccc(-c2c3nc(c(-c4ccc(S(=O)(=O)[O-])cc4)c4ccc([nH]4)c(-c4ccc(S(=O)(=O)[O-])cc4)c4nc(c(-c5ccc(S(=O)(=O)[O-])cc5)c5ccc2[nH]5)C=C4)C=C3)cc1
REMARK SMILES IDX 31 1 30 2 29 3 28 4 26 5 27 6 4 8 2 9 1 10 3 11 5 12 6 13
REMARK SMILES IDX 7 15 8 16 9 17 17 18 18 19 19 21 20 22 21 23 25 24 22 25
REMARK SMILES IDX 24 26 23 27 10 28 11 29 15 30 12 31 14 32 16 33 13 34 32 35
REMARK SMILES IDX 33 36 34 37 35 38 36 39 37 41 38 42 39 43 97 44 40 45 96 46
REMARK SMILES IDX 41 47 42 48 43 49 90 50 44 51 95 52 89 53 91 54 45 55 94 56
REMARK SMILES IDX 88 57 87 58 46 60 76 61 57 62 75 63 58 64 61 65 74 66 92 67
REMARK SMILES IDX 59 68 60 69 73 71 93 72 62 73 47 74 48 75 56 76 49 77 55 78
REMARK SMILES IDX 50 79 51 80 52 81 53 82 54 83 77 84 78 85 86 86 79 87 85 88
REMARK SMILES IDX 80 89 81 90 82 91 83 92 84 93 63 94 64 95 72 96 65 97 71 98
REMARK SMILES IDX 66 99 67 100 68 101 69 102 70 103
REMARK H PARENT 28 7 5 14 17 20 35 40 91 59 61 70
REMARK Flexibility Score: inf
ROOT
ATOM      1  C   UNL     1       0.802  -6.462   0.758  1.00  0.00     0.002 C 
ENDROOT
BRANCH   1   2
ATOM      2  C   UNL     1       1.406  -5.215   0.100  1.00  0.00     0.021 C 
BRANCH   2   3
ATOM      3  C   UNL     1       0.340  -4.200  -0.287  1.00  0.00     0.116 C 
BRANCH   3   4
ATOM      4  N   UNL     1      -0.085  -3.541   0.923  1.00  0.00    -0.354 N 
ATOM      5  C   UNL     1       0.056  -2.218   1.187  1.00  0.00     0.242 C 
ATOM      6  O   UNL     1       0.490  -1.901   2.296  1.00  0.00    -0.273 OA
ATOM      7  H   UNL     1      -0.513  -4.097   1.614  1.00  0.00     0.163 HD
BRANCH   5   8
ATOM      8  C   UNL     1      -0.142  -1.184   0.079  1.00  0.00     0.174 C 
BRANCH   8   9
ATOM      9  C   UNL     1       1.239  -0.881  -0.605  1.00  0.00     0.015 C 
ATOM     10  C   UNL     1       1.306   0.552  -1.142  1.00  0.00     0.010 C 
ATOM     11  C   UNL     1       2.452  -1.084   0.326  1.00  0.00     0.010 C 
ENDBRANCH   8   9
BRANCH   8  12
ATOM     12  N   UNL     1      -1.202  -1.560  -0.890  1.00  0.00    -0.339 N 
ATOM     13  C   UNL     1      -2.548  -1.677  -0.601  1.00  0.00     0.268 C 
ATOM     14  H   UNL     1      -0.922  -1.742  -1.817  1.00  0.00     0.164 HD
ATOM     15  O   UNL     1      -3.341  -0.919  -1.161  1.00  0.00    -0.268 OA
BRANCH  13  16
ATOM     16  C   UNL     1      -3.075  -2.876   0.163  1.00  0.00     0.107 C 
ATOM     17  C   UNL     1      -3.186  -2.923   1.511  1.00  0.00     0.043 C 
BRANCH  16  18
ATOM     18  N   UNL     1      -3.580  -3.987  -0.504  1.00  0.00    -0.317 N 
ATOM     19  C   UNL     1      -3.788  -4.335  -1.814  1.00  0.00     0.255 C 
ATOM     20  H   UNL     1      -3.855  -4.699   0.117  1.00  0.00     0.170 HD
ATOM     21  O   UNL     1      -4.317  -5.420  -2.062  1.00  0.00    -0.269 OA
BRANCH  19  22
ATOM     22  C   UNL     1      -3.424  -3.469  -2.932  1.00  0.00     0.040 A 
ATOM     23  C   UNL     1      -4.434  -2.778  -3.606  1.00  0.00     0.014 A 
ATOM     24  C   UNL     1      -2.102  -3.422  -3.375  1.00  0.00     0.014 A 
ATOM     25  C   UNL     1      -4.100  -1.969  -4.689  1.00  0.00     0.001 A 
ATOM     26  C   UNL     1      -1.772  -2.604  -4.454  1.00  0.00     0.001 A 
ATOM     27  C   UNL     1      -2.769  -1.871  -5.101  1.00  0.00     0.000 A 
ENDBRANCH  19  22
ENDBRANCH  16  18
BRANCH  17  28
ATOM     28  C   UNL     1      -2.739  -1.989   2.549  1.00  0.00     0.012 A 
ATOM     29  C   UNL     1      -2.011  -2.528   3.626  1.00  0.00     0.011 A 
ATOM     30  C   UNL     1      -2.946  -0.612   2.511  1.00  0.00     0.130 A 
ATOM     31  C   UNL     1      -1.379  -1.688   4.546  1.00  0.00     0.001 A 
ATOM     32  C   UNL     1      -2.327   0.230   3.433  1.00  0.00     0.040 A 
ATOM     33  F   UNL     1      -3.724  -0.066   1.568  1.00  0.00    -0.206 F 
ATOM     34  C   UNL     1      -1.512  -0.306   4.429  1.00  0.00     0.003 A 
ENDBRANCH  17  28
ENDBRANCH  13  16
ENDBRANCH   8  12
ENDBRANCH   5   8
ENDBRANCH   3   4
ENDBRANCH   2   3
ENDBRANCH   1   2
BRANCH   1  35
ATOM     35  C   UNL     1      -0.162  -7.242  -0.141  1.00  0.00     0.002 C 
BRANCH  35  36
ATOM     36  C   UNL     1       0.380  -7.538  -1.540  1.00  0.00     0.021 C 
BRANCH  36  37
ATOM     37  C   UNL     1       1.755  -8.190  -1.549  1.00  0.00     0.116 C 
BRANCH  37  38
ATOM     38  N   UNL     1       1.756  -9.483  -0.893  1.00  0.00    -0.352 N 
ATOM     39  C   UNL     1       2.385 -10.633  -1.302  1.00  0.00     0.251 C 
ATOM     40  H   UNL     1       1.244  -9.544  -0.055  1.00  0.00     0.163 HD
ATOM     41  O   UNL     1       2.180 -11.694  -0.729  1.00  0.00    -0.269 OA
BRANCH  39  42
ATOM     42  C   UNL     1       3.287 -10.564  -2.470  1.00  0.00     0.039 A 
ATOM     43  C   UNL     1       3.093 -11.461  -3.520  1.00  0.00     0.014 A 
ATOM     44  C   UNL     1       4.283  -9.585  -2.542  1.00  0.00     0.014 A 
ATOM     45  C   UNL     1       3.875 -11.348  -4.670  1.00  0.00     0.010 A 
ATOM     46  C   UNL     1       5.010  -9.428  -3.718  1.00  0.00     0.010 A 
ATOM     47  C   UNL     1       4.821 -10.315  -4.788  1.00  0.00    -0.014 A 
BRANCH  47  48
ATOM     48  C   UNL     1       5.630 -10.159  -6.022  1.00  0.00     0.031 A 
ATOM     49  C   UNL     1       7.123 -10.337  -5.969  1.00  0.00     0.074 A 
ATOM     50  C   UNL     1       5.029  -9.814  -7.178  1.00  0.00     0.049 A 
ATOM     51  N   UNL     1       8.003 -10.209  -6.929  1.00  0.00    -0.248 NA
ATOM     52  C   UNL     1       7.707 -10.680  -4.661  1.00  0.00     0.031 C 
ATOM     53  C   UNL     1       3.593  -9.577  -7.349  1.00  0.00     0.029 A 
ATOM     54  N   UNL     1       5.551  -9.601  -8.429  1.00  0.00    -0.354 N 
ATOM     55  C   UNL     1       9.241 -10.441  -6.340  1.00  0.00     0.074 A 
ATOM     56  C   UNL     1       9.004 -10.662  -4.931  1.00  0.00     0.031 C 
ATOM     57  C   UNL     1       3.346  -9.283  -8.636  1.00  0.00     0.029 A 
ATOM     58  C   UNL     1       4.606  -9.269  -9.372  1.00  0.00     0.049 A 
ATOM     59  H   UNL     1       6.511  -9.678  -8.632  1.00  0.00     0.167 HD
ATOM     60  C   UNL     1      10.462 -10.486  -6.923  1.00  0.00     0.031 A 
ATOM     61  C   UNL     1       4.740  -8.981 -10.681  1.00  0.00     0.031 A 
ATOM     62  C   UNL     1      10.691 -10.274  -8.327  1.00  0.00     0.049 A 
ATOM     63  C   UNL     1       6.109  -9.024 -11.304  1.00  0.00     0.074 A 
ATOM     64  C   UNL     1      11.884 -10.350  -9.025  1.00  0.00     0.029 A 
ATOM     65  N   UNL     1       9.709  -9.941  -9.248  1.00  0.00    -0.354 N 
ATOM     66  N   UNL     1       7.260  -9.308 -10.743  1.00  0.00    -0.248 NA
ATOM     67  C   UNL     1       6.195  -8.719 -12.739  1.00  0.00     0.031 C 
ATOM     68  C   UNL     1      11.631 -10.009 -10.357  1.00  0.00     0.029 A 
ATOM     69  C   UNL     1      10.272  -9.783 -10.503  1.00  0.00     0.049 A 
ATOM     70  H   UNL     1       8.753  -9.834  -9.040  1.00  0.00     0.167 HD
ATOM     71  C   UNL     1       8.204  -9.243 -11.762  1.00  0.00     0.074 A 
ATOM     72  C   UNL     1       7.486  -8.908 -12.975  1.00  0.00     0.031 C 
ATOM     73  C   UNL     1       9.543  -9.447 -11.700  1.00  0.00     0.031 A 
BRANCH  60  74
ATOM     74  C   UNL     1      11.646 -10.769  -6.035  1.00  0.00    -0.014 A 
ATOM     75  C   UNL     1      11.829 -12.035  -5.447  1.00  0.00     0.010 A 
ATOM     76  C   UNL     1      12.606  -9.766  -5.808  1.00  0.00     0.010 A 
ATOM     77  C   UNL     1      12.923 -12.277  -4.612  1.00  0.00     0.020 A 
ATOM     78  C   UNL     1      13.718 -10.014  -4.998  1.00  0.00     0.020 A 
ATOM     79  C   UNL     1      13.859 -11.262  -4.390  1.00  0.00     0.054 A 
BRANCH  79  80
ATOM     80  S   UNL     1      15.277 -11.609  -3.314  1.00  0.00     0.124 S 
ATOM     81  O   UNL     1      14.652 -11.638  -1.994  1.00  0.00    -0.237 OA
ATOM     82  O   UNL     1      15.750 -12.898  -3.812  1.00  0.00    -0.237 OA
ATOM     83  O   UNL     1      16.177 -10.484  -3.552  1.00  0.00    -0.744 OA
ENDBRANCH  79  80
ENDBRANCH  60  74
BRANCH  61  84
ATOM     84  C   UNL     1       3.539  -8.644 -11.494  1.00  0.00    -0.014 A 
ATOM     85  C   UNL     1       3.061  -9.537 -12.468  1.00  0.00     0.010 A 
ATOM     86  C   UNL     1       2.857  -7.431 -11.285  1.00  0.00     0.010 A 
ATOM     87  C   UNL     1       1.934  -9.217 -13.232  1.00  0.00     0.020 A 
ATOM     88  C   UNL     1       1.713  -7.120 -12.026  1.00  0.00     0.020 A 
ATOM     89  C   UNL     1       1.266  -8.011 -13.004  1.00  0.00     0.054 A 
BRANCH  89  90
ATOM     90  S   UNL     1      -0.223  -7.639 -13.972  1.00  0.00     0.124 S 
ATOM     91  O   UNL     1       0.337  -7.331 -15.283  1.00  0.00    -0.237 OA
ATOM     92  O   UNL     1      -0.977  -8.887 -13.881  1.00  0.00    -0.237 OA
ATOM     93  O   UNL     1      -0.817  -6.508 -13.262  1.00  0.00    -0.744 OA
ENDBRANCH  89  90
ENDBRANCH  61  84
BRANCH  73  94
ATOM     94  C   UNL     1      10.321  -9.344 -12.986  1.00  0.00    -0.014 A 
ATOM     95  C   UNL     1      10.550  -8.103 -13.604  1.00  0.00     0.010 A 
ATOM     96  C   UNL     1      10.881 -10.506 -13.550  1.00  0.00     0.010 A 
ATOM     97  C   UNL     1      11.300  -8.029 -14.781  1.00  0.00     0.020 A 
ATOM     98  C   UNL     1      11.656 -10.432 -14.709  1.00  0.00     0.020 A 
ATOM     99  C   UNL     1      11.849  -9.194 -15.325  1.00  0.00     0.054 A 
BRANCH  99 100
ATOM    100  S   UNL     1      12.859  -9.064 -16.826  1.00  0.00     0.124 S 
ATOM    101  O   UNL     1      11.850  -8.810 -17.851  1.00  0.00    -0.237 OA
ATOM    102  O   UNL     1      13.742  -7.941 -16.522  1.00  0.00    -0.237 OA
ATOM    103  O   UNL     1      13.521 -10.364 -16.913  1.00  0.00    -0.744 OA
ENDBRANCH  99 100
ENDBRANCH  73  94
ENDBRANCH  47  48
ENDBRANCH  39  42
ENDBRANCH  37  38
ENDBRANCH  36  37
ENDBRANCH  35  36
ENDBRANCH   1  35
TORSDOF 22
