REMARK SMILES CC(C)C[C@H](C(=O)NCCCCCCNC(=O)c1ccc(-c2c3nc(c(-c4ccc(S(=O)(=O)[O-])cc4)c4ccc([nH]4)c(-c4ccc(S(=O)(=O)[O-])cc4)c4nc(c(-c5ccc(S(=O)(=O)[O-])cc5)c5ccc2[nH]5)C=C4)C=C3)cc1)N1C(=O)/C(=C2\C(=O)Nc3ccc(Br)cc32)SC1=S
REMARK SMILES IDX 12 1 11 2 10 3 9 4 8 5 6 6 7 7 5 9 4 10 2 11 1 12 3 13 78 14
REMARK SMILES IDX 79 15 94 16 80 17 81 18 93 19 95 20 82 21 83 22 92 23 84 24
REMARK SMILES IDX 85 25 86 26 91 27 87 29 89 30 88 31 90 32 13 33 14 34 15 35
REMARK SMILES IDX 16 36 17 38 18 39 19 40 77 41 20 42 76 43 21 44 22 45 23 46
REMARK SMILES IDX 70 47 24 48 75 49 69 50 71 51 25 52 74 53 68 54 67 55 26 57
REMARK SMILES IDX 56 58 37 59 55 60 38 61 41 62 54 63 72 64 39 65 40 66 53 68
REMARK SMILES IDX 73 69 42 70 27 71 28 72 36 73 29 74 35 75 30 76 31 77 32 78
REMARK SMILES IDX 33 79 34 80 57 81 58 82 66 83 59 84 65 85 60 86 61 87 62 88
REMARK SMILES IDX 63 89 64 90 43 91 44 92 52 93 45 94 51 95 46 96 47 97 48 98
REMARK SMILES IDX 49 99 50 100
REMARK H PARENT 8 8 85 28 15 37 71 56 41 67
REMARK Flexibility Score: inf
ROOT
ATOM      1  C   UNL     1      -0.991   4.659   3.609  1.00  0.00     0.002 C 
ENDROOT
BRANCH   1   2
ATOM      2  C   UNL     1      -0.579   3.322   4.234  1.00  0.00     0.002 C 
BRANCH   2   3
ATOM      3  C   UNL     1      -1.634   2.202   4.224  1.00  0.00     0.021 C 
BRANCH   3   4
ATOM      4  C   UNL     1      -2.211   1.823   2.855  1.00  0.00     0.116 C 
BRANCH   4   5
ATOM      5  N   UNL     1      -1.169   1.530   1.892  1.00  0.00    -0.354 N 
ATOM      6  C   UNL     1      -0.989   0.491   1.039  1.00  0.00     0.243 C 
ATOM      7  O   UNL     1       0.037   0.514   0.346  1.00  0.00    -0.273 OA
ATOM      8  H   UNL     1      -0.460   2.211   1.850  1.00  0.00     0.163 HD
BRANCH   6   9
ATOM      9  C   UNL     1      -1.909  -0.749   0.988  1.00  0.00     0.181 C 
BRANCH   9  10
ATOM     10  C   UNL     1      -1.593  -1.549   2.289  1.00  0.00     0.038 C 
BRANCH  10  11
ATOM     11  C   UNL     1      -1.417  -3.082   2.148  1.00  0.00    -0.015 C 
ATOM     12  C   UNL     1      -0.357  -3.486   1.122  1.00  0.00     0.007 C 
ATOM     13  C   UNL     1      -1.051  -3.676   3.514  1.00  0.00     0.007 C 
ENDBRANCH  10  11
ENDBRANCH   9  10
BRANCH   9  14
ATOM     14  N   UNL     1      -3.345  -0.569   0.619  1.00  0.00    -0.280 N 
ATOM     15  C   UNL     1      -4.235  -1.603   0.887  1.00  0.00     0.267 C 
ATOM     16  C   UNL     1      -3.815   0.316  -0.341  1.00  0.00     0.149 C 
ATOM     17  O   UNL     1      -4.324  -2.231   1.931  1.00  0.00    -0.268 OA
ATOM     18  C   UNL     1      -5.250  -1.719  -0.200  1.00  0.00     0.093 C 
ATOM     19  S   UNL     1      -5.444  -0.145  -0.852  1.00  0.00    -0.053 SA
ATOM     20  S   UNL     1      -3.091   1.640  -1.046  1.00  0.00    -0.052 S 
ATOM     21  C   UNL     1      -5.819  -2.852  -0.639  1.00  0.00     0.069 C 
ATOM     22  C   UNL     1      -5.361  -4.219  -0.186  1.00  0.00     0.257 C 
ATOM     23  C   UNL     1      -6.896  -3.086  -1.625  1.00  0.00     0.013 A 
ATOM     24  O   UNL     1      -4.356  -4.518   0.426  1.00  0.00    -0.269 OA
ATOM     25  N   UNL     1      -6.245  -5.112  -0.765  1.00  0.00    -0.321 N 
ATOM     26  C   UNL     1      -7.135  -4.468  -1.613  1.00  0.00     0.049 A 
ATOM     27  C   UNL     1      -7.640  -2.279  -2.470  1.00  0.00     0.026 A 
ATOM     28  H   UNL     1      -6.242  -6.082  -0.597  1.00  0.00     0.170 HD
ATOM     29  C   UNL     1      -8.104  -5.080  -2.386  1.00  0.00     0.028 A 
ATOM     30  C   UNL     1      -8.620  -2.881  -3.272  1.00  0.00     0.018 A 
ATOM     31  C   UNL     1      -8.862  -4.264  -3.226  1.00  0.00     0.018 A 
ATOM     32  Br  UNL     1      -9.639  -1.810  -4.455  1.00  0.00    -0.051 Br
ENDBRANCH   9  14
ENDBRANCH   6   9
ENDBRANCH   4   5
ENDBRANCH   3   4
ENDBRANCH   2   3
ENDBRANCH   1   2
BRANCH   1  33
ATOM     33  C   UNL     1      -2.231   5.323   4.206  1.00  0.00     0.021 C 
BRANCH  33  34
ATOM     34  C   UNL     1      -2.180   5.598   5.706  1.00  0.00     0.116 C 
BRANCH  34  35
ATOM     35  N   UNL     1      -1.168   6.574   6.081  1.00  0.00    -0.352 N 
ATOM     36  C   UNL     1      -1.280   7.661   6.920  1.00  0.00     0.251 C 
ATOM     37  H   UNL     1      -0.279   6.439   5.679  1.00  0.00     0.163 HD
ATOM     38  O   UNL     1      -0.345   8.447   7.039  1.00  0.00    -0.269 OA
BRANCH  36  39
ATOM     39  C   UNL     1      -2.545   7.900   7.652  1.00  0.00     0.039 A 
ATOM     40  C   UNL     1      -3.114   9.177   7.629  1.00  0.00     0.014 A 
ATOM     41  C   UNL     1      -3.180   6.864   8.341  1.00  0.00     0.014 A 
ATOM     42  C   UNL     1      -4.360   9.396   8.225  1.00  0.00     0.010 A 
ATOM     43  C   UNL     1      -4.449   7.066   8.877  1.00  0.00     0.010 A 
ATOM     44  C   UNL     1      -5.057   8.331   8.817  1.00  0.00    -0.014 A 
BRANCH  44  45
ATOM     45  C   UNL     1      -6.427   8.496   9.370  1.00  0.00     0.031 A 
ATOM     46  C   UNL     1      -6.677   8.269  10.835  1.00  0.00     0.074 A 
ATOM     47  C   UNL     1      -7.464   8.725   8.540  1.00  0.00     0.049 A 
ATOM     48  N   UNL     1      -7.814   8.200  11.478  1.00  0.00    -0.248 NA
ATOM     49  C   UNL     1      -5.491   8.060  11.680  1.00  0.00     0.031 C 
ATOM     50  C   UNL     1      -7.363   8.923   7.093  1.00  0.00     0.029 A 
ATOM     51  N   UNL     1      -8.812   8.797   8.792  1.00  0.00    -0.354 N 
ATOM     52  C   UNL     1      -7.484   7.902  12.795  1.00  0.00     0.074 A 
ATOM     53  C   UNL     1      -6.043   7.773  12.849  1.00  0.00     0.031 C 
ATOM     54  C   UNL     1      -8.595   9.088   6.586  1.00  0.00     0.029 A 
ATOM     55  C   UNL     1      -9.576   8.964   7.661  1.00  0.00     0.049 A 
ATOM     56  H   UNL     1      -9.196   8.734   9.697  1.00  0.00     0.167 HD
ATOM     57  C   UNL     1      -8.304   7.755  13.864  1.00  0.00     0.031 A 
ATOM     58  C   UNL     1     -10.913   8.990   7.497  1.00  0.00     0.031 A 
ATOM     59  C   UNL     1      -9.734   7.897  13.809  1.00  0.00     0.049 A 
ATOM     60  C   UNL     1     -11.809   8.840   8.694  1.00  0.00     0.074 A 
ATOM     61  C   UNL     1     -10.645   7.836  14.849  1.00  0.00     0.029 A 
ATOM     62  N   UNL     1     -10.463   8.123  12.650  1.00  0.00    -0.354 N 
ATOM     63  N   UNL     1     -11.476   8.626   9.945  1.00  0.00    -0.248 NA
ATOM     64  C   UNL     1     -13.257   8.943   8.463  1.00  0.00     0.031 C 
ATOM     65  C   UNL     1     -11.929   7.979  14.312  1.00  0.00     0.029 A 
ATOM     66  C   UNL     1     -11.814   8.181  12.946  1.00  0.00     0.049 A 
ATOM     67  H   UNL     1     -10.076   8.226  11.751  1.00  0.00     0.167 HD
ATOM     68  C   UNL     1     -12.671   8.594  10.655  1.00  0.00     0.074 A 
ATOM     69  C   UNL     1     -13.735   8.813   9.695  1.00  0.00     0.031 C 
ATOM     70  C   UNL     1     -12.864   8.406  11.983  1.00  0.00     0.031 A 
BRANCH  57  71
ATOM     71  C   UNL     1      -7.662   7.394  15.177  1.00  0.00    -0.014 A 
ATOM     72  C   UNL     1      -6.851   8.310  15.871  1.00  0.00     0.010 A 
ATOM     73  C   UNL     1      -7.866   6.112  15.721  1.00  0.00     0.010 A 
ATOM     74  C   UNL     1      -6.197   7.927  17.045  1.00  0.00     0.020 A 
ATOM     75  C   UNL     1      -7.238   5.736  16.911  1.00  0.00     0.020 A 
ATOM     76  C   UNL     1      -6.383   6.637  17.549  1.00  0.00     0.054 A 
BRANCH  76  77
ATOM     77  S   UNL     1      -5.498   6.151  19.056  1.00  0.00     0.124 S 
ATOM     78  O   UNL     1      -4.149   5.917  18.546  1.00  0.00    -0.237 OA
ATOM     79  O   UNL     1      -5.649   7.325  19.913  1.00  0.00    -0.237 OA
ATOM     80  O   UNL     1      -6.210   4.958  19.507  1.00  0.00    -0.744 OA
ENDBRANCH  76  77
ENDBRANCH  57  71
BRANCH  58  81
ATOM     81  C   UNL     1     -11.472   9.169   6.130  1.00  0.00    -0.014 A 
ATOM     82  C   UNL     1     -12.009  10.406   5.735  1.00  0.00     0.010 A 
ATOM     83  C   UNL     1     -11.399   8.122   5.192  1.00  0.00     0.010 A 
ATOM     84  C   UNL     1     -12.454  10.597   4.423  1.00  0.00     0.020 A 
ATOM     85  C   UNL     1     -11.823   8.316   3.874  1.00  0.00     0.020 A 
ATOM     86  C   UNL     1     -12.349   9.553   3.498  1.00  0.00     0.054 A 
BRANCH  86  87
ATOM     87  S   UNL     1     -12.835   9.857   1.776  1.00  0.00     0.124 S 
ATOM     88  O   UNL     1     -14.292   9.850   1.865  1.00  0.00    -0.237 OA
ATOM     89  O   UNL     1     -12.224  11.155   1.499  1.00  0.00    -0.237 OA
ATOM     90  O   UNL     1     -12.245   8.733   1.052  1.00  0.00    -0.744 OA
ENDBRANCH  86  87
ENDBRANCH  58  81
BRANCH  70  91
ATOM     91  C   UNL     1     -14.275   8.460  12.504  1.00  0.00    -0.014 A 
ATOM     92  C   UNL     1     -15.158   7.381  12.328  1.00  0.00     0.010 A 
ATOM     93  C   UNL     1     -14.682   9.563  13.278  1.00  0.00     0.010 A 
ATOM     94  C   UNL     1     -16.425   7.405  12.917  1.00  0.00     0.020 A 
ATOM     95  C   UNL     1     -15.939   9.580  13.886  1.00  0.00     0.020 A 
ATOM     96  C   UNL     1     -16.805   8.501  13.699  1.00  0.00     0.054 A 
BRANCH  96  97
ATOM     97  S   UNL     1     -18.417   8.465  14.532  1.00  0.00     0.124 S 
ATOM     98  O   UNL     1     -19.337   8.718  13.426  1.00  0.00    -0.237 OA
ATOM     99  O   UNL     1     -18.461   7.116  15.090  1.00  0.00    -0.237 OA
ATOM    100  O   UNL     1     -18.320   9.538  15.519  1.00  0.00    -0.744 OA
ENDBRANCH  96  97
ENDBRANCH  70  91
ENDBRANCH  44  45
ENDBRANCH  36  39
ENDBRANCH  34  35
ENDBRANCH  33  34
ENDBRANCH   1  33
TORSDOF 19
