REMARK SMILES Cc1cc(C)cc(Oc2nc3ccccn3c(=O)c2/C=C2\SC(=S)N(CCC(=O)NCCCCCCNC(=O)c3ccc(-c4c5nc(c(-c6ccc(S(=O)(=O)[O-])cc6)c6ccc([nH]6)c(-c6ccc(S(=O)(=O)[O-])cc6)c6nc(c(-c7ccc(S(=O)(=O)[O-])cc7)c7ccc4[nH]7)C=C6)C=C5)cc3)C2=O)c1
REMARK SMILES IDX 32 1 31 2 30 3 28 4 29 5 27 7 26 8 25 9 20 10 21 11 22 12
REMARK SMILES IDX 100 13 23 14 101 15 24 16 19 17 9 18 10 19 11 20 17 21 12 22
REMARK SMILES IDX 16 23 18 24 13 25 15 26 14 27 8 28 7 29 1 30 2 31 3 32
REMARK SMILES IDX 102 33 4 34 5 35 6 36 33 37 34 38 35 39 36 40 37 41 38 42
REMARK SMILES IDX 39 44 40 45 41 46 99 47 42 48 98 49 43 50 44 51 45 52 92 53
REMARK SMILES IDX 46 54 97 55 91 56 93 57 47 58 96 59 90 60 89 61 48 63 78 64
REMARK SMILES IDX 59 65 77 66 60 67 63 68 76 69 94 70 61 71 62 72 75 74 95 75
REMARK SMILES IDX 64 76 49 77 50 78 58 79 51 80 57 81 52 82 53 83 54 84 55 85
REMARK SMILES IDX 56 86 79 87 80 88 88 89 81 90 87 91 82 92 83 93 84 94 85 95
REMARK SMILES IDX 86 96 65 97 66 98 74 99 67 100 73 101 68 102 69 103 70 104
REMARK SMILES IDX 71 105 72 106
REMARK H PARENT 30 6 37 43 93 62 63 73
REMARK Flexibility Score: inf
ROOT
ATOM      1  C   UNL     1       0.755  -1.253   3.253  1.00  0.00     0.021 C 
ENDROOT
BRANCH   1   2
ATOM      2  C   UNL     1       0.326   0.195   3.064  1.00  0.00     0.116 C 
BRANCH   2   3
ATOM      3  N   UNL     1       0.206   0.863   4.342  1.00  0.00    -0.356 N 
ATOM      4  C   UNL     1       1.131   1.578   5.045  1.00  0.00     0.221 C 
ATOM      5  O   UNL     1       0.890   1.824   6.229  1.00  0.00    -0.275 OA
ATOM      6  H   UNL     1      -0.677   0.791   4.769  1.00  0.00     0.163 HD
BRANCH   4   7
ATOM      7  C   UNL     1       2.390   2.124   4.389  1.00  0.00     0.122 C 
BRANCH   7   8
ATOM      8  C   UNL     1       3.676   1.352   4.729  1.00  0.00     0.137 C 
BRANCH   8   9
ATOM      9  N   UNL     1       4.175   0.560   3.593  1.00  0.00    -0.292 N 
ATOM     10  C   UNL     1       3.426  -2.303   1.643  1.00  0.00     0.041 C 
ATOM     11  C   UNL     1       4.111  -1.271   2.152  1.00  0.00     0.081 C 
ATOM     12  S   UNL     1       5.150  -0.195   1.323  1.00  0.00    -0.054 SA
ATOM     13  C   UNL     1       3.949  -0.801   3.552  1.00  0.00     0.266 C 
ATOM     14  C   UNL     1       4.927   1.055   2.545  1.00  0.00     0.148 C 
ATOM     15  O   UNL     1       3.660  -1.523   4.494  1.00  0.00    -0.268 OA
ATOM     16  S   UNL     1       5.538   2.594   2.352  1.00  0.00    -0.052 S 
BRANCH  10  17
ATOM     17  C   UNL     1       3.564  -2.837   0.294  1.00  0.00     0.104 A 
ATOM     18  C   UNL     1       2.658  -2.748  -0.735  1.00  0.00     0.234 A 
ATOM     19  N   UNL     1       2.713  -3.446  -1.910  1.00  0.00    -0.194 NA
ATOM     20  C   UNL     1       3.199  -4.617  -1.733  1.00  0.00     0.143 A 
ATOM     21  C   UNL     1       4.702  -3.844   0.251  1.00  0.00     0.269 A 
ATOM     22  C   UNL     1       2.386  -6.189  -2.514  1.00  0.00     0.048 A 
ATOM     23  N   UNL     1       4.374  -4.912  -0.529  1.00  0.00    -0.267 N 
ATOM     24  O   UNL     1       5.625  -3.818   1.061  1.00  0.00    -0.268 OA
ATOM     25  C   UNL     1       2.994  -7.821  -1.858  1.00  0.00     0.005 A 
ATOM     26  C   UNL     1       4.928  -6.472  -0.033  1.00  0.00     0.096 A 
ATOM     27  C   UNL     1       4.359  -7.780  -0.544  1.00  0.00     0.019 A 
BRANCH  18  28
ATOM     28  O   UNL     1       1.334  -2.332  -0.553  1.00  0.00    -0.438 OA
BRANCH  28  29
ATOM     29  C   UNL     1       0.903  -1.050  -0.736  1.00  0.00     0.130 A 
ATOM     30  C   UNL     1       2.505   2.249  -0.296  1.00  0.00     0.044 C 
ATOM     31  C   UNL     1       1.417   1.255  -0.527  1.00  0.00    -0.047 A 
ATOM     32  C   UNL     1       0.064   1.550  -0.309  1.00  0.00     0.007 A 
ATOM     33  C   UNL     1       1.808  -0.029  -0.867  1.00  0.00     0.050 A 
ATOM     34  C   UNL     1      -0.906   0.542  -0.366  1.00  0.00    -0.047 A 
ATOM     35  C   UNL     1      -2.352   0.889  -0.131  1.00  0.00     0.044 C 
ATOM     36  C   UNL     1      -0.470  -0.775  -0.561  1.00  0.00     0.050 A 
ENDBRANCH  28  29
ENDBRANCH  18  28
ENDBRANCH  10  17
ENDBRANCH   8   9
ENDBRANCH   7   8
ENDBRANCH   4   7
ENDBRANCH   2   3
ENDBRANCH   1   2
BRANCH   1  37
ATOM     37  C   UNL     1      -0.234  -2.366   3.635  1.00  0.00     0.002 C 
BRANCH  37  38
ATOM     38  C   UNL     1      -1.028  -3.031   2.494  1.00  0.00     0.002 C 
BRANCH  38  39
ATOM     39  C   UNL     1      -0.193  -3.679   1.383  1.00  0.00     0.021 C 
BRANCH  39  40
ATOM     40  C   UNL     1       0.515  -5.027   1.528  1.00  0.00     0.116 C 
BRANCH  40  41
ATOM     41  N   UNL     1      -0.224  -6.130   0.935  1.00  0.00    -0.352 N 
ATOM     42  C   UNL     1      -0.041  -6.974  -0.139  1.00  0.00     0.251 C 
ATOM     43  H   UNL     1      -1.059  -6.322   1.420  1.00  0.00     0.163 HD
ATOM     44  O   UNL     1      -0.975  -7.731  -0.415  1.00  0.00    -0.269 OA
BRANCH  42  45
ATOM     45  C   UNL     1       1.142  -7.042  -1.032  1.00  0.00     0.039 A 
ATOM     46  C   UNL     1       0.895  -7.785  -2.645  1.00  0.00     0.014 A 
ATOM     47  C   UNL     1       2.772  -6.348  -0.690  1.00  0.00     0.014 A 
ATOM     48  C   UNL     1       2.153  -7.841  -3.934  1.00  0.00     0.010 A 
ATOM     49  C   UNL     1       4.199  -6.379  -2.145  1.00  0.00     0.010 A 
ATOM     50  C   UNL     1       3.791  -7.153  -3.736  1.00  0.00    -0.014 A 
BRANCH  50  51
ATOM     51  C   UNL     1       4.768  -7.233  -4.820  1.00  0.00     0.031 A 
ATOM     52  C   UNL     1       5.914  -8.179  -4.683  1.00  0.00     0.074 A 
ATOM     53  C   UNL     1       4.562  -6.494  -5.921  1.00  0.00     0.049 A 
ATOM     54  N   UNL     1       6.837  -8.502  -5.544  1.00  0.00    -0.248 NA
ATOM     55  C   UNL     1       6.045  -8.862  -3.391  1.00  0.00     0.031 C 
ATOM     56  C   UNL     1       3.479  -5.524  -6.105  1.00  0.00     0.029 A 
ATOM     57  N   UNL     1       5.240  -6.462  -7.107  1.00  0.00    -0.354 N 
ATOM     58  C   UNL     1       7.632  -9.441  -4.896  1.00  0.00     0.074 A 
ATOM     59  C   UNL     1       7.155  -9.561  -3.544  1.00  0.00     0.031 C 
ATOM     60  C   UNL     1       3.534  -5.034  -7.354  1.00  0.00     0.029 A 
ATOM     61  C   UNL     1       4.674  -5.627  -8.041  1.00  0.00     0.049 A 
ATOM     62  H   UNL     1       6.056  -6.986  -7.276  1.00  0.00     0.167 HD
ATOM     63  C   UNL     1       8.635 -10.185  -5.409  1.00  0.00     0.031 A 
ATOM     64  C   UNL     1       5.046  -5.392  -9.312  1.00  0.00     0.031 A 
ATOM     65  C   UNL     1       9.077 -10.038  -6.764  1.00  0.00     0.049 A 
ATOM     66  C   UNL     1       6.224  -6.171  -9.838  1.00  0.00     0.074 A 
ATOM     67  C   UNL     1      10.086 -10.708  -7.426  1.00  0.00     0.029 A 
ATOM     68  N   UNL     1       8.518  -9.142  -7.667  1.00  0.00    -0.354 N 
ATOM     69  N   UNL     1       6.941  -7.092  -9.232  1.00  0.00    -0.248 NA
ATOM     70  C   UNL     1       6.629  -5.898 -11.219  1.00  0.00     0.031 C 
ATOM     71  C   UNL     1      10.186 -10.161  -8.709  1.00  0.00     0.029 A 
ATOM     72  C   UNL     1       9.180  -9.217  -8.874  1.00  0.00     0.049 A 
ATOM     73  H   UNL     1       7.761  -8.543  -7.474  1.00  0.00     0.167 HD
ATOM     74  C   UNL     1       7.862  -7.535 -10.172  1.00  0.00     0.074 A 
ATOM     75  C   UNL     1       7.581  -6.801 -11.394  1.00  0.00     0.031 C 
ATOM     76  C   UNL     1       8.854  -8.454 -10.053  1.00  0.00     0.031 A 
BRANCH  63  77
ATOM     77  C   UNL     1       9.298 -11.188  -4.504  1.00  0.00    -0.014 A 
ATOM     78  C   UNL     1       8.600 -12.316  -4.029  1.00  0.00     0.010 A 
ATOM     79  C   UNL     1      10.640 -11.011  -4.129  1.00  0.00     0.010 A 
ATOM     80  C   UNL     1       9.224 -13.232  -3.178  1.00  0.00     0.020 A 
ATOM     81  C   UNL     1      11.280 -11.943  -3.307  1.00  0.00     0.020 A 
ATOM     82  C   UNL     1      10.565 -13.045  -2.832  1.00  0.00     0.054 A 
BRANCH  82  83
ATOM     83  S   UNL     1      11.370 -14.290  -1.789  1.00  0.00     0.124 S 
ATOM     84  O   UNL     1      10.673 -14.117  -0.516  1.00  0.00    -0.237 OA
ATOM     85  O   UNL     1      11.079 -15.532  -2.500  1.00  0.00    -0.237 OA
ATOM     86  O   UNL     1      12.774 -13.888  -1.788  1.00  0.00    -0.744 OA
ENDBRANCH  82  83
ENDBRANCH  63  77
BRANCH  64  87
ATOM     87  C   UNL     1       4.314  -4.406 -10.156  1.00  0.00    -0.014 A 
ATOM     88  C   UNL     1       3.654  -4.800 -11.335  1.00  0.00     0.010 A 
ATOM     89  C   UNL     1       4.294  -3.046  -9.795  1.00  0.00     0.010 A 
ATOM     90  C   UNL     1       3.036  -3.851 -12.156  1.00  0.00     0.020 A 
ATOM     91  C   UNL     1       3.643  -2.099 -10.590  1.00  0.00     0.020 A 
ATOM     92  C   UNL     1       3.036  -2.506 -11.779  1.00  0.00     0.054 A 
BRANCH  92  93
ATOM     93  S   UNL     1       2.230  -1.293 -12.860  1.00  0.00     0.124 S 
ATOM     94  O   UNL     1       3.099  -1.305 -14.032  1.00  0.00    -0.237 OA
ATOM     95  O   UNL     1       0.903  -1.875 -13.047  1.00  0.00    -0.237 OA
ATOM     96  O   UNL     1       2.257  -0.060 -12.074  1.00  0.00    -0.744 OA
ENDBRANCH  92  93
ENDBRANCH  64  87
BRANCH  76  97
ATOM     97  C   UNL     1       9.661  -8.733 -11.288  1.00  0.00    -0.014 A 
ATOM     98  C   UNL     1      10.508  -7.760 -11.843  1.00  0.00     0.010 A 
ATOM     99  C   UNL     1       9.582 -10.006 -11.882  1.00  0.00     0.010 A 
ATOM    100  C   UNL     1      11.210  -8.033 -13.016  1.00  0.00     0.020 A 
ATOM    101  C   UNL     1      10.325 -10.300 -13.022  1.00  0.00     0.020 A 
ATOM    102  C   UNL     1      11.113  -9.302 -13.596  1.00  0.00     0.054 A 
BRANCH 102 103
ATOM    103  S   UNL     1      12.046  -9.631 -15.111  1.00  0.00     0.124 S 
ATOM    104  O   UNL     1      11.336  -8.809 -16.087  1.00  0.00    -0.237 OA
ATOM    105  O   UNL     1      13.389  -9.175 -14.761  1.00  0.00    -0.237 OA
ATOM    106  O   UNL     1      11.910 -11.074 -15.295  1.00  0.00    -0.744 OA
ENDBRANCH 102 103
ENDBRANCH  76  97
ENDBRANCH  50  51
ENDBRANCH  42  45
ENDBRANCH  40  41
ENDBRANCH  39  40
ENDBRANCH  38  39
ENDBRANCH  37  38
ENDBRANCH   1  37
TORSDOF 21
