REMARK SMILES COc1ncccc1COc1cc(C)sc1C(=O)NCCCCCCNC(=O)c1ccc(-c2c3nc(c(-c4ccc(S(=O)(=O)[O-])cc4)c4ccc([nH]4)c(-c4ccc(S(=O)(=O)[O-])cc4)c4nc(c(-c5ccc(S(=O)(=O)[O-])cc5)c5ccc2[nH]5)C=C4)C=C3)cc1
REMARK SMILES IDX 22 1 21 2 20 3 19 4 17 5 18 6 16 8 11 9 12 10 13 11 15 12
REMARK SMILES IDX 14 13 10 14 9 15 8 16 3 17 4 18 5 19 7 20 6 21 2 22 1 23
REMARK SMILES IDX 23 24 24 25 25 26 26 27 27 28 28 30 29 31 30 32 88 33 31 34
REMARK SMILES IDX 87 35 32 36 33 37 34 38 81 39 35 40 86 41 80 42 82 43 36 44
REMARK SMILES IDX 85 45 79 46 78 47 37 49 67 50 48 51 66 52 49 53 52 54 65 55
REMARK SMILES IDX 83 56 50 57 51 58 64 60 84 61 53 62 38 63 39 64 47 65 40 66
REMARK SMILES IDX 46 67 41 68 42 69 43 70 44 71 45 72 68 73 69 74 77 75 70 76
REMARK SMILES IDX 76 77 71 78 72 79 73 80 74 81 75 82 54 83 55 84 63 85 56 86
REMARK SMILES IDX 62 87 57 88 58 89 59 90 60 91 61 92
REMARK H PARENT 19 7 26 29 82 48 52 59
REMARK Flexibility Score: inf
ROOT
ATOM      1  C   UNL     1       6.007  -1.790  -1.223  1.00  0.00     0.002 C 
ENDROOT
BRANCH   1   2
ATOM      2  C   UNL     1       5.076  -0.836  -0.465  1.00  0.00     0.021 C 
BRANCH   2   3
ATOM      3  C   UNL     1       4.103  -1.561   0.469  1.00  0.00     0.116 C 
BRANCH   3   4
ATOM      4  N   UNL     1       4.641  -1.631   1.806  1.00  0.00    -0.351 N 
ATOM      5  C   UNL     1       4.474  -0.860   2.928  1.00  0.00     0.265 C 
ATOM      6  O   UNL     1       5.112  -1.290   3.899  1.00  0.00    -0.268 OA
ATOM      7  H   UNL     1       5.254  -2.389   1.942  1.00  0.00     0.163 HD
BRANCH   5   8
ATOM      8  C   UNL     1       3.620   0.327   3.012  1.00  0.00     0.134 A 
ATOM      9  C   UNL     1       3.042   1.225   2.120  1.00  0.00     0.143 A 
ATOM     10  C   UNL     1       2.201   2.175   2.783  1.00  0.00     0.062 A 
ATOM     11  C   UNL     1       2.228   2.073   4.151  1.00  0.00     0.006 A 
ATOM     12  S   UNL     1       3.234   0.805   4.647  1.00  0.00    -0.132 S 
ATOM     13  C   UNL     1       1.492   2.896   5.151  1.00  0.00     0.056 C 
BRANCH   9  14
ATOM     14  O   UNL     1       3.162   1.096   0.773  1.00  0.00    -0.487 OA
BRANCH  14  15
ATOM     15  C   UNL     1       3.360   2.294   0.006  1.00  0.00     0.271 C 
BRANCH  15  16
ATOM     16  C   UNL     1       2.149   3.169  -0.160  1.00  0.00     0.052 A 
ATOM     17  C   UNL     1       0.944   2.679  -0.652  1.00  0.00     0.219 A 
ATOM     18  N   UNL     1      -0.200   3.394  -0.695  1.00  0.00    -0.222 NA
ATOM     19  C   UNL     1      -0.134   4.673  -0.264  1.00  0.00     0.115 A 
ATOM     20  C   UNL     1       2.187   4.512   0.235  1.00  0.00     0.014 A 
ATOM     21  C   UNL     1       1.028   5.277   0.187  1.00  0.00     0.021 A 
BRANCH  17  22
ATOM     22  O   UNL     1       0.928   1.455  -1.272  1.00  0.00    -0.481 OA
ATOM     23  C   UNL     1       0.370   0.455  -0.428  1.00  0.00     0.280 C 
ENDBRANCH  17  22
ENDBRANCH  15  16
ENDBRANCH  14  15
ENDBRANCH   9  14
ENDBRANCH   5   8
ENDBRANCH   3   4
ENDBRANCH   2   3
ENDBRANCH   1   2
BRANCH   1  24
ATOM     24  C   UNL     1       5.294  -2.676  -2.253  1.00  0.00     0.002 C 
BRANCH  24  25
ATOM     25  C   UNL     1       4.554  -1.919  -3.361  1.00  0.00     0.021 C 
BRANCH  25  26
ATOM     26  C   UNL     1       5.450  -1.042  -4.233  1.00  0.00     0.116 C 
BRANCH  26  27
ATOM     27  N   UNL     1       6.461  -1.829  -4.925  1.00  0.00    -0.352 N 
ATOM     28  C   UNL     1       6.616  -2.067  -6.269  1.00  0.00     0.251 C 
ATOM     29  H   UNL     1       7.133  -2.253  -4.344  1.00  0.00     0.163 HD
ATOM     30  O   UNL     1       7.357  -2.965  -6.653  1.00  0.00    -0.269 OA
BRANCH  28  31
ATOM     31  C   UNL     1       5.878  -1.242  -7.249  1.00  0.00     0.039 A 
ATOM     32  C   UNL     1       5.230  -1.867  -8.316  1.00  0.00     0.014 A 
ATOM     33  C   UNL     1       5.831   0.148  -7.112  1.00  0.00     0.014 A 
ATOM     34  C   UNL     1       4.466  -1.104  -9.201  1.00  0.00     0.010 A 
ATOM     35  C   UNL     1       5.016   0.899  -7.954  1.00  0.00     0.010 A 
ATOM     36  C   UNL     1       4.315   0.278  -8.999  1.00  0.00    -0.014 A 
BRANCH  36  37
ATOM     37  C   UNL     1       3.385   1.082  -9.832  1.00  0.00     0.031 A 
ATOM     38  C   UNL     1       3.902   2.191 -10.705  1.00  0.00     0.074 A 
ATOM     39  C   UNL     1       2.058   0.861  -9.731  1.00  0.00     0.049 A 
ATOM     40  N   UNL     1       3.230   3.042 -11.438  1.00  0.00    -0.248 NA
ATOM     41  C   UNL     1       5.361   2.385 -10.745  1.00  0.00     0.031 C 
ATOM     42  C   UNL     1       1.432  -0.157  -8.883  1.00  0.00     0.029 A 
ATOM     43  N   UNL     1       0.995   1.488 -10.332  1.00  0.00    -0.354 N 
ATOM     44  C   UNL     1       4.178   3.879 -12.013  1.00  0.00     0.074 A 
ATOM     45  C   UNL     1       5.470   3.460 -11.513  1.00  0.00     0.031 C 
ATOM     46  C   UNL     1       0.100  -0.097  -9.031  1.00  0.00     0.029 A 
ATOM     47  C   UNL     1      -0.229   0.993  -9.944  1.00  0.00     0.049 A 
ATOM     48  H   UNL     1       1.098   2.222 -10.979  1.00  0.00     0.167 HD
ATOM     49  C   UNL     1       3.989   4.897 -12.887  1.00  0.00     0.031 A 
ATOM     50  C   UNL     1      -1.477   1.383 -10.267  1.00  0.00     0.031 A 
ATOM     51  C   UNL     1       2.700   5.307 -13.380  1.00  0.00     0.049 A 
ATOM     52  C   UNL     1      -1.659   2.533 -11.219  1.00  0.00     0.074 A 
ATOM     53  C   UNL     1       2.411   6.282 -14.320  1.00  0.00     0.029 A 
ATOM     54  N   UNL     1       1.486   4.778 -12.967  1.00  0.00    -0.354 N 
ATOM     55  N   UNL     1      -0.745   3.256 -11.821  1.00  0.00    -0.248 NA
ATOM     56  C   UNL     1      -3.041   2.918 -11.538  1.00  0.00     0.031 C 
ATOM     57  C   UNL     1       1.020   6.389 -14.424  1.00  0.00     0.029 A 
ATOM     58  C   UNL     1       0.444   5.434 -13.601  1.00  0.00     0.049 A 
ATOM     59  H   UNL     1       1.381   4.044 -12.320  1.00  0.00     0.167 HD
ATOM     60  C   UNL     1      -1.441   4.170 -12.604  1.00  0.00     0.074 A 
ATOM     61  C   UNL     1      -2.851   3.892 -12.418  1.00  0.00     0.031 C 
ATOM     62  C   UNL     1      -0.956   5.153 -13.401  1.00  0.00     0.031 A 
BRANCH  49  63
ATOM     63  C   UNL     1       5.203   5.654 -13.360  1.00  0.00    -0.014 A 
ATOM     64  C   UNL     1       6.142   5.061 -14.223  1.00  0.00     0.010 A 
ATOM     65  C   UNL     1       5.373   7.001 -12.988  1.00  0.00     0.010 A 
ATOM     66  C   UNL     1       7.244   5.790 -14.679  1.00  0.00     0.020 A 
ATOM     67  C   UNL     1       6.458   7.742 -13.465  1.00  0.00     0.020 A 
ATOM     68  C   UNL     1       7.395   7.127 -14.297  1.00  0.00     0.054 A 
BRANCH  68  69
ATOM     69  S   UNL     1       8.815   8.057 -14.935  1.00  0.00     0.124 S 
ATOM     70  O   UNL     1       9.926   7.449 -14.206  1.00  0.00    -0.237 OA
ATOM     71  O   UNL     1       8.771   7.767 -16.366  1.00  0.00    -0.237 OA
ATOM     72  O   UNL     1       8.517   9.440 -14.572  1.00  0.00    -0.744 OA
ENDBRANCH  68  69
ENDBRANCH  49  63
BRANCH  50  73
ATOM     73  C   UNL     1      -2.651   0.685  -9.674  1.00  0.00    -0.014 A 
ATOM     74  C   UNL     1      -3.492  -0.110 -10.473  1.00  0.00     0.010 A 
ATOM     75  C   UNL     1      -2.930   0.804  -8.300  1.00  0.00     0.010 A 
ATOM     76  C   UNL     1      -4.599  -0.755  -9.914  1.00  0.00     0.020 A 
ATOM     77  C   UNL     1      -4.018   0.135  -7.731  1.00  0.00     0.020 A 
ATOM     78  C   UNL     1      -4.853  -0.630  -8.545  1.00  0.00     0.054 A 
BRANCH  78  79
ATOM     79  S   UNL     1      -6.269  -1.515  -7.835  1.00  0.00     0.124 S 
ATOM     80  O   UNL     1      -7.397  -0.742  -8.345  1.00  0.00    -0.237 OA
ATOM     81  O   UNL     1      -6.115  -2.855  -8.394  1.00  0.00    -0.237 OA
ATOM     82  O   UNL     1      -6.045  -1.420  -6.394  1.00  0.00    -0.744 OA
ENDBRANCH  78  79
ENDBRANCH  50  73
BRANCH  62  83
ATOM     83  C   UNL     1      -1.955   5.997 -14.148  1.00  0.00    -0.014 A 
ATOM     84  C   UNL     1      -2.755   6.939 -13.476  1.00  0.00     0.010 A 
ATOM     85  C   UNL     1      -2.048   5.893 -15.548  1.00  0.00     0.010 A 
ATOM     86  C   UNL     1      -3.648   7.743 -14.189  1.00  0.00     0.020 A 
ATOM     87  C   UNL     1      -2.917   6.718 -16.267  1.00  0.00     0.020 A 
ATOM     88  C   UNL     1      -3.720   7.630 -15.581  1.00  0.00     0.054 A 
BRANCH  88  89
ATOM     89  S   UNL     1      -4.845   8.728 -16.486  1.00  0.00     0.124 S 
ATOM     90  O   UNL     1      -6.153   8.183 -16.132  1.00  0.00    -0.237 OA
ATOM     91  O   UNL     1      -4.536  10.039 -15.920  1.00  0.00    -0.237 OA
ATOM     92  O   UNL     1      -4.454   8.551 -17.883  1.00  0.00    -0.744 OA
ENDBRANCH  88  89
ENDBRANCH  62  83
ENDBRANCH  36  37
ENDBRANCH  28  31
ENDBRANCH  26  27
ENDBRANCH  25  26
ENDBRANCH  24  25
ENDBRANCH   1  24
TORSDOF 20
