REMARK SMILES O=C(C[C@H]1C(=O)N[NH+]=C2c3ccc(F)cc3N=CN21)NCCCCCCNC(=O)c1ccc(-c2c3nc(c(-c4ccc(S(=O)(=O)[O-])cc4)c4ccc([nH]4)c(-c4ccc(S(=O)(=O)[O-])cc4)c4nc(c(-c5ccc(S(=O)(=O)[O-])cc5)c5ccc2[nH]5)C=C4)C=C3)cc1
REMARK SMILES IDX 24 1 23 2 22 3 21 4 20 5 1 6 2 7 3 9 4 10 5 11 19 12 6 13
REMARK SMILES IDX 7 14 9 15 18 16 8 17 10 19 17 20 11 22 16 23 12 24 15 25
REMARK SMILES IDX 13 26 14 27 25 28 26 29 27 30 28 31 29 33 30 34 31 35 89 36
REMARK SMILES IDX 32 37 88 38 33 39 34 40 35 41 82 42 36 43 87 44 81 45 83 46
REMARK SMILES IDX 37 47 86 48 80 49 79 50 38 52 68 53 49 54 67 55 50 56 53 57
REMARK SMILES IDX 66 58 84 59 51 60 52 61 65 63 85 64 54 65 39 66 40 67 48 68
REMARK SMILES IDX 41 69 47 70 42 71 43 72 44 73 45 74 46 75 69 76 70 77 78 78
REMARK SMILES IDX 71 79 77 80 72 81 73 82 74 83 75 84 76 85 55 86 56 87 64 88
REMARK SMILES IDX 57 89 63 90 58 91 59 92 60 93 61 94 62 95
REMARK H PARENT 20 8 7 18 8 21 27 32 83 51 53 62
REMARK Flexibility Score: inf
ROOT
ATOM      1  C   UNL     1       3.428   4.207  -1.771  1.00  0.00     0.002 C 
ENDROOT
BRANCH   1   2
ATOM      2  C   UNL     1       2.393   3.359  -2.520  1.00  0.00     0.002 C 
BRANCH   2   3
ATOM      3  C   UNL     1       2.886   2.723  -3.825  1.00  0.00     0.021 C 
BRANCH   3   4
ATOM      4  C   UNL     1       3.966   1.659  -3.634  1.00  0.00     0.116 C 
BRANCH   4   5
ATOM      5  N   UNL     1       3.399   0.396  -3.188  1.00  0.00    -0.356 N 
ATOM      6  O   UNL     1       5.239  -0.842  -3.763  1.00  0.00    -0.275 OA
ATOM      7  C   UNL     1       4.070  -0.785  -3.396  1.00  0.00     0.224 C 
ATOM      8  H   UNL     1       2.526   0.387  -2.733  1.00  0.00     0.163 HD
BRANCH   7   9
ATOM      9  C   UNL     1       3.255  -2.035  -3.175  1.00  0.00     0.160 C 
BRANCH   9  10
ATOM     10  C   UNL     1       3.190  -2.428  -1.696  1.00  0.00     0.284 C 
ATOM     11  C   UNL     1       1.769  -2.910  -1.421  1.00  0.00     0.300 C 
ATOM     12  N   UNL     1       4.210  -3.433  -1.355  1.00  0.00    -0.203 N 
ATOM     13  O   UNL     1       0.793  -2.172  -1.577  1.00  0.00    -0.267 OA
ATOM     14  N   UNL     1       1.598  -4.210  -1.029  1.00  0.00    -0.193 N 
ATOM     15  C   UNL     1       3.809  -4.717  -1.017  1.00  0.00     0.309 C 
ATOM     16  C   UNL     1       5.544  -3.086  -1.387  1.00  0.00     0.317 C 
ATOM     17  N   UNL     1       2.585  -5.122  -0.855  1.00  0.00    -0.169 N 
ATOM     18  H   UNL     1       0.676  -4.510  -0.860  1.00  0.00     0.216 HD
ATOM     19  C   UNL     1       4.913  -5.710  -0.831  1.00  0.00     0.092 A 
ATOM     20  N   UNL     1       6.545  -3.885  -1.206  1.00  0.00    -0.216 NA
ATOM     21  H   UNL     1       2.382  -6.054  -0.614  1.00  0.00     0.340 HD
ATOM     22  C   UNL     1       4.654  -7.062  -0.569  1.00  0.00     0.022 A 
ATOM     23  C   UNL     1       6.232  -5.239  -0.973  1.00  0.00     0.085 A 
ATOM     24  C   UNL     1       5.719  -7.957  -0.480  1.00  0.00     0.040 A 
ATOM     25  C   UNL     1       7.285  -6.150  -0.883  1.00  0.00     0.068 A 
ATOM     26  C   UNL     1       7.021  -7.495  -0.648  1.00  0.00     0.125 A 
ATOM     27  F   UNL     1       8.038  -8.366  -0.585  1.00  0.00    -0.207 F 
ENDBRANCH   9  10
ENDBRANCH   7   9
ENDBRANCH   4   5
ENDBRANCH   3   4
ENDBRANCH   2   3
ENDBRANCH   1   2
BRANCH   1  28
ATOM     28  C   UNL     1       4.060   5.345  -2.576  1.00  0.00     0.021 C 
BRANCH  28  29
ATOM     29  C   UNL     1       3.077   6.371  -3.132  1.00  0.00     0.116 C 
BRANCH  29  30
ATOM     30  N   UNL     1       2.420   7.146  -2.089  1.00  0.00    -0.352 N 
ATOM     31  C   UNL     1       2.305   8.512  -1.961  1.00  0.00     0.251 C 
ATOM     32  H   UNL     1       1.997   6.618  -1.373  1.00  0.00     0.163 HD
ATOM     33  O   UNL     1       1.835   8.997  -0.935  1.00  0.00    -0.269 OA
BRANCH  31  34
ATOM     34  C   UNL     1       2.785   9.394  -3.049  1.00  0.00     0.039 A 
ATOM     35  C   UNL     1       2.470   9.117  -4.380  1.00  0.00     0.014 A 
ATOM     36  C   UNL     1       3.590  10.492  -2.733  1.00  0.00     0.014 A 
ATOM     37  C   UNL     1       3.096   9.828  -5.398  1.00  0.00     0.010 A 
ATOM     38  C   UNL     1       4.155  11.258  -3.759  1.00  0.00     0.010 A 
ATOM     39  C   UNL     1       3.955  10.900  -5.101  1.00  0.00    -0.014 A 
BRANCH  39  40
ATOM     40  C   UNL     1       4.639  11.618  -6.210  1.00  0.00     0.031 A 
ATOM     41  C   UNL     1       6.137  11.558  -6.359  1.00  0.00     0.074 A 
ATOM     42  C   UNL     1       3.899  12.271  -7.128  1.00  0.00     0.049 A 
ATOM     43  N   UNL     1       6.890  12.089  -7.289  1.00  0.00    -0.248 NA
ATOM     44  C   UNL     1       6.889  10.806  -5.340  1.00  0.00     0.031 C 
ATOM     45  C   UNL     1       2.438  12.377  -7.106  1.00  0.00     0.029 A 
ATOM     46  N   UNL     1       4.263  12.935  -8.273  1.00  0.00    -0.354 N 
ATOM     47  C   UNL     1       8.198  11.745  -6.966  1.00  0.00     0.074 A 
ATOM     48  C   UNL     1       8.143  10.987  -5.735  1.00  0.00     0.031 C 
ATOM     49  C   UNL     1       2.028  13.009  -8.215  1.00  0.00     0.029 A 
ATOM     50  C   UNL     1       3.195  13.414  -8.995  1.00  0.00     0.049 A 
ATOM     51  H   UNL     1       5.200  13.057  -8.551  1.00  0.00     0.167 HD
ATOM     52  C   UNL     1       9.338  12.020  -7.643  1.00  0.00     0.031 A 
ATOM     53  C   UNL     1       3.148  14.107 -10.150  1.00  0.00     0.031 A 
ATOM     54  C   UNL     1       9.386  12.765  -8.875  1.00  0.00     0.049 A 
ATOM     55  C   UNL     1       4.430  14.448 -10.854  1.00  0.00     0.074 A 
ATOM     56  C   UNL     1      10.498  13.087  -9.634  1.00  0.00     0.029 A 
ATOM     57  N   UNL     1       8.287  13.296  -9.531  1.00  0.00    -0.354 N 
ATOM     58  N   UNL     1       5.656  14.117 -10.527  1.00  0.00    -0.248 NA
ATOM     59  C   UNL     1       4.328  15.256 -12.077  1.00  0.00     0.031 C 
ATOM     60  C   UNL     1      10.078  13.862 -10.717  1.00  0.00     0.029 A 
ATOM     61  C   UNL     1       8.696  13.965 -10.672  1.00  0.00     0.049 A 
ATOM     62  H   UNL     1       7.353  13.210  -9.230  1.00  0.00     0.167 HD
ATOM     63  C   UNL     1       6.472  14.674 -11.505  1.00  0.00     0.074 A 
ATOM     64  C   UNL     1       5.599  15.341 -12.449  1.00  0.00     0.031 C 
ATOM     65  C   UNL     1       7.823  14.636 -11.602  1.00  0.00     0.031 A 
BRANCH  52  66
ATOM     66  C   UNL     1      10.643  11.517  -7.083  1.00  0.00    -0.014 A 
ATOM     67  C   UNL     1      11.595  12.432  -6.595  1.00  0.00     0.010 A 
ATOM     68  C   UNL     1      10.982  10.154  -7.157  1.00  0.00     0.010 A 
ATOM     69  C   UNL     1      12.870  12.000  -6.221  1.00  0.00     0.020 A 
ATOM     70  C   UNL     1      12.248   9.714  -6.759  1.00  0.00     0.020 A 
ATOM     71  C   UNL     1      13.192  10.644  -6.315  1.00  0.00     0.054 A 
BRANCH  71  72
ATOM     72  S   UNL     1      14.860  10.104  -5.849  1.00  0.00     0.124 S 
ATOM     73  O   UNL     1      15.654  10.527  -6.998  1.00  0.00    -0.237 OA
ATOM     74  O   UNL     1      15.100  10.839  -4.609  1.00  0.00    -0.237 OA
ATOM     75  O   UNL     1      14.716   8.658  -5.685  1.00  0.00    -0.744 OA
ENDBRANCH  71  72
ENDBRANCH  52  66
BRANCH  53  76
ATOM     76  C   UNL     1       1.823  14.502 -10.700  1.00  0.00    -0.014 A 
ATOM     77  C   UNL     1       1.023  15.439 -10.019  1.00  0.00     0.010 A 
ATOM     78  C   UNL     1       1.308  13.869 -11.845  1.00  0.00     0.010 A 
ATOM     79  C   UNL     1      -0.288  15.686 -10.430  1.00  0.00     0.020 A 
ATOM     80  C   UNL     1       0.005  14.137 -12.278  1.00  0.00     0.020 A 
ATOM     81  C   UNL     1      -0.795  15.018 -11.546  1.00  0.00     0.054 A 
BRANCH  81  82
ATOM     82  S   UNL     1      -2.523  15.301 -12.022  1.00  0.00     0.124 S 
ATOM     83  O   UNL     1      -3.237  14.479 -11.048  1.00  0.00    -0.237 OA
ATOM     84  O   UNL     1      -2.670  16.744 -11.856  1.00  0.00    -0.237 OA
ATOM     85  O   UNL     1      -2.578  14.826 -13.402  1.00  0.00    -0.744 OA
ENDBRANCH  81  82
ENDBRANCH  53  76
BRANCH  65  86
ATOM     86  C   UNL     1       8.472  15.345 -12.761  1.00  0.00    -0.014 A 
ATOM     87  C   UNL     1       9.118  14.598 -13.764  1.00  0.00     0.010 A 
ATOM     88  C   UNL     1       8.565  16.747 -12.783  1.00  0.00     0.010 A 
ATOM     89  C   UNL     1       9.879  15.239 -14.745  1.00  0.00     0.020 A 
ATOM     90  C   UNL     1       9.303  17.393 -13.779  1.00  0.00     0.020 A 
ATOM     91  C   UNL     1       9.977  16.632 -14.738  1.00  0.00     0.054 A 
BRANCH  91  92
ATOM     92  S   UNL     1      11.005  17.445 -15.993  1.00  0.00     0.124 S 
ATOM     93  O   UNL     1      12.353  17.209 -15.486  1.00  0.00    -0.237 OA
ATOM     94  O   UNL     1      10.655  16.721 -17.213  1.00  0.00    -0.237 OA
ATOM     95  O   UNL     1      10.557  18.835 -15.954  1.00  0.00    -0.744 OA
ENDBRANCH  91  92
ENDBRANCH  65  86
ENDBRANCH  39  40
ENDBRANCH  31  34
ENDBRANCH  29  30
ENDBRANCH  28  29
ENDBRANCH   1  28
TORSDOF 17
