REMARK SMILES C[C@@H](C(=O)NCCCCCCNC(=O)c1ccc(-c2c3nc(c(-c4ccc(S(=O)(=O)[O-])cc4)c4ccc([nH]4)c(-c4ccc(S(=O)(=O)[O-])cc4)c4nc(c(-c5ccc(S(=O)(=O)[O-])cc5)c5ccc2[nH]5)C=C4)C=C3)cc1)c1ccc(N[C@H]2CCC[C@@H]2O)cc1F
REMARK SMILES IDX 8 1 7 2 6 3 5 4 3 5 4 6 2 8 1 9 75 10 76 11 87 12 77 13
REMARK SMILES IDX 86 14 88 15 78 16 79 17 80 19 81 20 84 21 82 22 83 23 85 24
REMARK SMILES IDX 9 26 10 27 11 28 12 29 13 30 14 32 15 33 16 34 74 35 17 36
REMARK SMILES IDX 73 37 18 38 19 39 20 40 67 41 21 42 72 43 66 44 68 45 22 46
REMARK SMILES IDX 71 47 65 48 64 49 23 51 53 52 34 53 52 54 35 55 38 56 51 57
REMARK SMILES IDX 69 58 36 59 37 60 50 62 70 63 39 64 24 65 25 66 33 67 26 68
REMARK SMILES IDX 32 69 27 70 28 71 29 72 30 73 31 74 54 75 55 76 63 77 56 78
REMARK SMILES IDX 62 79 57 80 58 81 59 82 60 83 61 84 40 85 41 86 49 87 42 88
REMARK SMILES IDX 48 89 43 90 44 91 45 92 46 93 47 94
REMARK H PARENT 5 7 79 18 85 25 12 31 68 50 38 61
REMARK Flexibility Score: inf
ROOT
ATOM      1  C   UNL     1       5.044  -0.781  -2.704  1.00  0.00     0.002 C 
ENDROOT
BRANCH   1   2
ATOM      2  C   UNL     1       4.298  -0.277  -1.461  1.00  0.00     0.021 C 
BRANCH   2   3
ATOM      3  C   UNL     1       3.477   0.988  -1.712  1.00  0.00     0.116 C 
BRANCH   3   4
ATOM      4  N   UNL     1       2.379   0.701  -2.611  1.00  0.00    -0.356 N 
ATOM      5  C   UNL     1       1.061   0.488  -2.335  1.00  0.00     0.227 C 
ATOM      6  O   UNL     1       0.347   0.132  -3.275  1.00  0.00    -0.274 OA
ATOM      7  H   UNL     1       2.621   0.653  -3.564  1.00  0.00     0.163 HD
BRANCH   5   8
ATOM      8  C   UNL     1       0.525   0.779  -0.925  1.00  0.00     0.108 C 
ATOM      9  C   UNL     1       1.005  -0.212   0.140  1.00  0.00     0.023 C 
BRANCH   8  10
ATOM     10  C   UNL     1      -0.990   0.880  -0.918  1.00  0.00     0.000 A 
ATOM     11  C   UNL     1      -1.609   2.129  -0.831  1.00  0.00     0.009 A 
ATOM     12  C   UNL     1      -1.808  -0.247  -1.012  1.00  0.00     0.129 A 
ATOM     13  C   UNL     1      -3.005   2.229  -0.806  1.00  0.00     0.026 A 
ATOM     14  C   UNL     1      -3.196  -0.141  -0.987  1.00  0.00     0.065 A 
ATOM     15  F   UNL     1      -1.268  -1.470  -1.114  1.00  0.00    -0.207 F 
ATOM     16  C   UNL     1      -3.828   1.103  -0.888  1.00  0.00     0.037 A 
BRANCH  16  17
ATOM     17  N   UNL     1      -5.205   1.135  -0.829  1.00  0.00    -0.380 N 
ATOM     18  H   UNL     1      -5.646   0.255  -0.822  1.00  0.00     0.160 HD
BRANCH  17  19
ATOM     19  C   UNL     1      -6.104   2.282  -0.774  1.00  0.00     0.107 C 
ATOM     20  C   UNL     1      -5.915   3.169   0.461  1.00  0.00     0.027 C 
ATOM     21  C   UNL     1      -6.014   3.208  -2.000  1.00  0.00     0.136 C 
ATOM     22  C   UNL     1      -5.894   4.608  -0.056  1.00  0.00     0.005 C 
ATOM     23  C   UNL     1      -6.490   4.546  -1.455  1.00  0.00     0.034 C 
BRANCH  21  24
ATOM     24  O   UNL     1      -6.864   2.771  -3.054  1.00  0.00    -0.391 OA
ATOM     25  H   UNL     1      -7.779   2.723  -2.734  1.00  0.00     0.211 HD
ENDBRANCH  21  24
ENDBRANCH  17  19
ENDBRANCH  16  17
ENDBRANCH   8  10
ENDBRANCH   5   8
ENDBRANCH   3   4
ENDBRANCH   2   3
ENDBRANCH   1   2
BRANCH   1  26
ATOM     26  C   UNL     1       5.997   0.237  -3.337  1.00  0.00     0.002 C 
BRANCH  26  27
ATOM     27  C   UNL     1       7.033   0.825  -2.377  1.00  0.00     0.021 C 
BRANCH  27  28
ATOM     28  C   UNL     1       7.946  -0.210  -1.730  1.00  0.00     0.116 C 
BRANCH  28  29
ATOM     29  N   UNL     1       8.763  -0.900  -2.715  1.00  0.00    -0.352 N 
ATOM     30  C   UNL     1      10.122  -1.069  -2.743  1.00  0.00     0.251 C 
ATOM     31  H   UNL     1       8.270  -1.302  -3.467  1.00  0.00     0.163 HD
ATOM     32  O   UNL     1      10.667  -1.488  -3.765  1.00  0.00    -0.269 OA
BRANCH  30  33
ATOM     33  C   UNL     1      10.931  -0.736  -1.553  1.00  0.00     0.039 A 
ATOM     34  C   UNL     1      12.135  -0.049  -1.723  1.00  0.00     0.014 A 
ATOM     35  C   UNL     1      10.511  -1.113  -0.274  1.00  0.00     0.014 A 
ATOM     36  C   UNL     1      12.897   0.297  -0.605  1.00  0.00     0.010 A 
ATOM     37  C   UNL     1      11.232  -0.699   0.843  1.00  0.00     0.010 A 
ATOM     38  C   UNL     1      12.440  -0.004   0.689  1.00  0.00    -0.014 A 
BRANCH  38  39
ATOM     39  C   UNL     1      13.223   0.386   1.889  1.00  0.00     0.031 A 
ATOM     40  C   UNL     1      13.791  -0.672   2.797  1.00  0.00     0.074 A 
ATOM     41  C   UNL     1      13.383   1.691   2.187  1.00  0.00     0.049 A 
ATOM     42  N   UNL     1      14.481  -0.528   3.900  1.00  0.00    -0.248 NA
ATOM     43  C   UNL     1      13.530  -2.074   2.432  1.00  0.00     0.031 C 
ATOM     44  C   UNL     1      12.850   2.810   1.406  1.00  0.00     0.029 A 
ATOM     45  N   UNL     1      14.043   2.297   3.226  1.00  0.00    -0.354 N 
ATOM     46  C   UNL     1      14.721  -1.816   4.367  1.00  0.00     0.074 A 
ATOM     47  C   UNL     1      14.056  -2.724   3.459  1.00  0.00     0.031 C 
ATOM     48  C   UNL     1      13.238   3.964   1.972  1.00  0.00     0.029 A 
ATOM     49  C   UNL     1      14.008   3.670   3.175  1.00  0.00     0.049 A 
ATOM     50  H   UNL     1      14.498   1.795   3.940  1.00  0.00     0.167 HD
ATOM     51  C   UNL     1      15.445  -2.209   5.442  1.00  0.00     0.031 A 
ATOM     52  C   UNL     1      14.539   4.590   4.004  1.00  0.00     0.031 A 
ATOM     53  C   UNL     1      16.112  -1.301   6.338  1.00  0.00     0.049 A 
ATOM     54  C   UNL     1      15.327   4.130   5.201  1.00  0.00     0.074 A 
ATOM     55  C   UNL     1      16.917  -1.599   7.423  1.00  0.00     0.029 A 
ATOM     56  N   UNL     1      16.047   0.082   6.255  1.00  0.00    -0.354 N 
ATOM     57  N   UNL     1      15.600   2.907   5.588  1.00  0.00    -0.248 NA
ATOM     58  C   UNL     1      15.889   5.177   6.064  1.00  0.00     0.031 C 
ATOM     59  C   UNL     1      17.293  -0.396   8.031  1.00  0.00     0.029 A 
ATOM     60  C   UNL     1      16.776   0.652   7.286  1.00  0.00     0.049 A 
ATOM     61  H   UNL     1      15.556   0.585   5.566  1.00  0.00     0.167 HD
ATOM     62  C   UNL     1      16.394   3.037   6.722  1.00  0.00     0.074 A 
ATOM     63  C   UNL     1      16.567   4.458   6.949  1.00  0.00     0.031 C 
ATOM     64  C   UNL     1      16.936   2.069   7.501  1.00  0.00     0.031 A 
BRANCH  51  65
ATOM     65  C   UNL     1      15.540  -3.689   5.713  1.00  0.00    -0.014 A 
ATOM     66  C   UNL     1      16.249  -4.546   4.851  1.00  0.00     0.010 A 
ATOM     67  C   UNL     1      14.929  -4.229   6.860  1.00  0.00     0.010 A 
ATOM     68  C   UNL     1      16.300  -5.920   5.100  1.00  0.00     0.020 A 
ATOM     69  C   UNL     1      15.005  -5.599   7.131  1.00  0.00     0.020 A 
ATOM     70  C   UNL     1      15.672  -6.438   6.237  1.00  0.00     0.054 A 
BRANCH  70  71
ATOM     71  S   UNL     1      15.758  -8.225   6.539  1.00  0.00     0.124 S 
ATOM     72  O   UNL     1      14.852  -8.746   5.518  1.00  0.00    -0.237 OA
ATOM     73  O   UNL     1      17.174  -8.517   6.329  1.00  0.00    -0.237 OA
ATOM     74  O   UNL     1      15.293  -8.367   7.916  1.00  0.00    -0.744 OA
ENDBRANCH  70  71
ENDBRANCH  51  65
BRANCH  52  75
ATOM     75  C   UNL     1      14.369   6.041   3.713  1.00  0.00    -0.014 A 
ATOM     76  C   UNL     1      15.468   6.817   3.304  1.00  0.00     0.010 A 
ATOM     77  C   UNL     1      13.107   6.651   3.832  1.00  0.00     0.010 A 
ATOM     78  C   UNL     1      15.312   8.181   3.038  1.00  0.00     0.020 A 
ATOM     79  C   UNL     1      12.942   8.008   3.539  1.00  0.00     0.020 A 
ATOM     80  C   UNL     1      14.049   8.767   3.155  1.00  0.00     0.054 A 
BRANCH  80  81
ATOM     81  S   UNL     1      13.862  10.527   2.756  1.00  0.00     0.124 S 
ATOM     82  O   UNL     1      14.509  11.167   3.897  1.00  0.00    -0.237 OA
ATOM     83  O   UNL     1      14.567  10.638   1.482  1.00  0.00    -0.237 OA
ATOM     84  O   UNL     1      12.414  10.707   2.675  1.00  0.00    -0.744 OA
ENDBRANCH  80  81
ENDBRANCH  52  75
BRANCH  64  85
ATOM     85  C   UNL     1      17.802   2.511   8.652  1.00  0.00    -0.014 A 
ATOM     86  C   UNL     1      17.253   3.127   9.790  1.00  0.00     0.010 A 
ATOM     87  C   UNL     1      19.187   2.264   8.608  1.00  0.00     0.010 A 
ATOM     88  C   UNL     1      18.078   3.523  10.846  1.00  0.00     0.020 A 
ATOM     89  C   UNL     1      20.011   2.630   9.675  1.00  0.00     0.020 A 
ATOM     90  C   UNL     1      19.452   3.273  10.781  1.00  0.00     0.054 A 
BRANCH  90  91
ATOM     91  S   UNL     1      20.496   3.766  12.180  1.00  0.00     0.124 S 
ATOM     92  O   UNL     1      20.542   5.218  12.027  1.00  0.00    -0.237 OA
ATOM     93  O   UNL     1      19.741   3.278  13.331  1.00  0.00    -0.237 OA
ATOM     94  O   UNL     1      21.759   3.074  11.931  1.00  0.00    -0.744 OA
ENDBRANCH  90  91
ENDBRANCH  64  85
ENDBRANCH  38  39
ENDBRANCH  30  33
ENDBRANCH  28  29
ENDBRANCH  27  28
ENDBRANCH  26  27
ENDBRANCH   1  26
TORSDOF 20
