REMARK SMILES CCc1cc(Nc2ccc(C(=O)NCCCCCCNC(=O)c3ccc(-c4c5nc(c(-c6ccc(S(=O)(=O)[O-])cc6)c6ccc([nH]6)c(-c6ccc(S(=O)(=O)[O-])cc6)c6nc(c(-c7ccc(S(=O)(=O)[O-])cc7)c7ccc4[nH]7)C=C6)C=C5)cc3)cc2)nc(C(C)C)n1
REMARK SMILES IDX 16 1 15 2 14 3 13 4 11 5 12 6 10 8 7 9 8 10 84 11 9 12 83 13
REMARK SMILES IDX 6 14 5 16 3 17 4 18 90 19 86 20 85 21 2 22 1 23 87 24 88 25
REMARK SMILES IDX 89 26 17 27 18 28 19 29 20 30 21 31 22 33 23 34 24 35 82 36
REMARK SMILES IDX 25 37 81 38 26 39 27 40 28 41 75 42 29 43 80 44 74 45 76 46
REMARK SMILES IDX 30 47 79 48 73 49 72 50 31 52 61 53 42 54 60 55 43 56 46 57
REMARK SMILES IDX 59 58 77 59 44 60 45 61 58 63 78 64 47 65 32 66 33 67 41 68
REMARK SMILES IDX 34 69 40 70 35 71 36 72 37 73 38 74 39 75 62 76 63 77 71 78
REMARK SMILES IDX 64 79 70 80 65 81 66 82 67 83 68 84 69 85 48 86 49 87 57 88
REMARK SMILES IDX 50 89 56 90 51 91 52 92 53 93 54 94 55 95
REMARK H PARENT 13 7 6 15 20 32 76 51 46 62
REMARK Flexibility Score: inf
ROOT
ATOM      1  C   UNL     1       0.086  11.860  -5.463  1.00  0.00     0.002 C 
ENDROOT
BRANCH   1   2
ATOM      2  C   UNL     1      -0.090  10.636  -4.554  1.00  0.00     0.021 C 
BRANCH   2   3
ATOM      3  C   UNL     1       1.191  10.264  -3.804  1.00  0.00     0.116 C 
BRANCH   3   4
ATOM      4  N   UNL     1       1.379  11.174  -2.688  1.00  0.00    -0.352 N 
ATOM      5  C   UNL     1       1.166  11.042  -1.341  1.00  0.00     0.251 C 
ATOM      6  O   UNL     1       1.374  12.023  -0.626  1.00  0.00    -0.269 OA
ATOM      7  H   UNL     1       1.727  12.057  -2.950  1.00  0.00     0.163 HD
BRANCH   5   8
ATOM      8  C   UNL     1       0.785   9.751  -0.707  1.00  0.00     0.039 A 
ATOM      9  C   UNL     1       0.454   7.240   0.515  1.00  0.00     0.040 A 
ATOM     10  C   UNL     1       1.088   8.272   1.204  1.00  0.00     0.027 A 
ATOM     11  C   UNL     1      -0.144   7.518  -0.719  1.00  0.00     0.027 A 
ATOM     12  C   UNL     1       1.275   9.512   0.586  1.00  0.00     0.016 A 
ATOM     13  C   UNL     1      -0.004   8.774  -1.313  1.00  0.00     0.016 A 
BRANCH   9  14
ATOM     14  N   UNL     1       0.342   5.965   1.093  1.00  0.00    -0.340 N 
ATOM     15  H   UNL     1      -0.125   5.887   1.956  1.00  0.00     0.168 HD
BRANCH  14  16
ATOM     16  C   UNL     1       0.859   4.790   0.509  1.00  0.00     0.134 A 
ATOM     17  C   UNL     1       1.016   2.438   0.411  1.00  0.00     0.046 A 
ATOM     18  C   UNL     1       0.468   3.562   1.002  1.00  0.00     0.071 A 
ATOM     19  N   UNL     1       1.939   2.526  -0.564  1.00  0.00    -0.238 NA
ATOM     20  C   UNL     1       2.287   3.757  -0.975  1.00  0.00     0.133 A 
ATOM     21  N   UNL     1       1.774   4.891  -0.472  1.00  0.00    -0.216 NA
BRANCH  17  22
ATOM     22  C   UNL     1       0.592   1.068   0.881  1.00  0.00     0.053 C 
ATOM     23  C   UNL     1       1.074  -0.078   0.000  1.00  0.00     0.011 C 
ENDBRANCH  17  22
BRANCH  20  24
ATOM     24  C   UNL     1       3.346   3.889  -2.047  1.00  0.00     0.051 C 
ATOM     25  C   UNL     1       4.691   3.365  -1.545  1.00  0.00     0.016 C 
ATOM     26  C   UNL     1       2.924   3.178  -3.331  1.00  0.00     0.016 C 
ENDBRANCH  20  24
ENDBRANCH  14  16
ENDBRANCH   9  14
ENDBRANCH   5   8
ENDBRANCH   3   4
ENDBRANCH   2   3
ENDBRANCH   1   2
BRANCH   1  27
ATOM     27  C   UNL     1       1.086  11.665  -6.609  1.00  0.00     0.002 C 
BRANCH  27  28
ATOM     28  C   UNL     1       0.793  10.467  -7.515  1.00  0.00     0.021 C 
BRANCH  28  29
ATOM     29  C   UNL     1      -0.545  10.555  -8.238  1.00  0.00     0.116 C 
BRANCH  29  30
ATOM     30  N   UNL     1      -0.560  11.647  -9.201  1.00  0.00    -0.352 N 
ATOM     31  C   UNL     1      -0.842  11.600 -10.545  1.00  0.00     0.251 C 
ATOM     32  H   UNL     1      -0.340  12.537  -8.841  1.00  0.00     0.163 HD
ATOM     33  O   UNL     1      -0.586  12.551 -11.269  1.00  0.00    -0.269 OA
BRANCH  31  34
ATOM     34  C   UNL     1      -1.450  10.373 -11.101  1.00  0.00     0.039 A 
ATOM     35  C   UNL     1      -0.923   9.813 -12.266  1.00  0.00     0.014 A 
ATOM     36  C   UNL     1      -2.530   9.772 -10.449  1.00  0.00     0.014 A 
ATOM     37  C   UNL     1      -1.449   8.613 -12.750  1.00  0.00     0.010 A 
ATOM     38  C   UNL     1      -2.999   8.541 -10.888  1.00  0.00     0.010 A 
ATOM     39  C   UNL     1      -2.472   7.954 -12.049  1.00  0.00    -0.014 A 
BRANCH  39  40
ATOM     40  C   UNL     1      -3.039   6.664 -12.516  1.00  0.00     0.031 A 
ATOM     41  C   UNL     1      -4.492   6.590 -12.902  1.00  0.00     0.074 A 
ATOM     42  C   UNL     1      -2.279   5.551 -12.511  1.00  0.00     0.049 A 
ATOM     43  N   UNL     1      -5.212   5.543 -13.209  1.00  0.00    -0.248 NA
ATOM     44  C   UNL     1      -5.240   7.859 -12.911  1.00  0.00     0.031 C 
ATOM     45  C   UNL     1      -0.865   5.489 -12.133  1.00  0.00     0.029 A 
ATOM     46  N   UNL     1      -2.597   4.252 -12.820  1.00  0.00    -0.354 N 
ATOM     47  C   UNL     1      -6.500   6.022 -13.422  1.00  0.00     0.074 A 
ATOM     48  C   UNL     1      -6.473   7.444 -13.158  1.00  0.00     0.031 C 
ATOM     49  C   UNL     1      -0.434   4.222 -12.251  1.00  0.00     0.029 A 
ATOM     50  C   UNL     1      -1.549   3.375 -12.663  1.00  0.00     0.049 A 
ATOM     51  H   UNL     1      -3.491   3.974 -13.124  1.00  0.00     0.167 HD
ATOM     52  C   UNL     1      -7.602   5.343 -13.819  1.00  0.00     0.031 A 
ATOM     53  C   UNL     1      -1.496   2.037 -12.819  1.00  0.00     0.031 A 
ATOM     54  C   UNL     1      -7.618   3.932 -14.095  1.00  0.00     0.049 A 
ATOM     55  C   UNL     1      -2.738   1.300 -13.245  1.00  0.00     0.074 A 
ATOM     56  C   UNL     1      -8.669   3.157 -14.550  1.00  0.00     0.029 A 
ATOM     57  N   UNL     1      -6.530   3.084 -13.943  1.00  0.00    -0.354 N 
ATOM     58  N   UNL     1      -3.936   1.777 -13.488  1.00  0.00    -0.248 NA
ATOM     59  C   UNL     1      -2.619  -0.153 -13.428  1.00  0.00     0.031 C 
ATOM     60  C   UNL     1      -8.233   1.830 -14.622  1.00  0.00     0.029 A 
ATOM     61  C   UNL     1      -6.891   1.790 -14.278  1.00  0.00     0.049 A 
ATOM     62  H   UNL     1      -5.635   3.361 -13.642  1.00  0.00     0.167 HD
ATOM     63  C   UNL     1      -4.702   0.688 -13.891  1.00  0.00     0.074 A 
ATOM     64  C   UNL     1      -3.832  -0.469 -13.863  1.00  0.00     0.031 C 
ATOM     65  C   UNL     1      -6.007   0.652 -14.258  1.00  0.00     0.031 A 
BRANCH  52  66
ATOM     66  C   UNL     1      -8.884   6.120 -13.970  1.00  0.00    -0.014 A 
ATOM     67  C   UNL     1      -9.041   7.077 -14.989  1.00  0.00     0.010 A 
ATOM     68  C   UNL     1      -9.960   5.867 -13.100  1.00  0.00     0.010 A 
ATOM     69  C   UNL     1     -10.233   7.797 -15.108  1.00  0.00     0.020 A 
ATOM     70  C   UNL     1     -11.166   6.561 -13.236  1.00  0.00     0.020 A 
ATOM     71  C   UNL     1     -11.287   7.536 -14.228  1.00  0.00     0.054 A 
BRANCH  71  72
ATOM     72  S   UNL     1     -12.829   8.471 -14.419  1.00  0.00     0.124 S 
ATOM     73  O   UNL     1     -12.438   9.796 -13.945  1.00  0.00    -0.237 OA
ATOM     74  O   UNL     1     -13.089   8.369 -15.853  1.00  0.00    -0.237 OA
ATOM     75  O   UNL     1     -13.776   7.758 -13.565  1.00  0.00    -0.744 OA
ENDBRANCH  71  72
ENDBRANCH  52  66
BRANCH  53  76
ATOM     76  C   UNL     1      -0.219   1.309 -12.583  1.00  0.00    -0.014 A 
ATOM     77  C   UNL     1       0.484   0.735 -13.657  1.00  0.00     0.010 A 
ATOM     78  C   UNL     1       0.308   1.192 -11.284  1.00  0.00     0.010 A 
ATOM     79  C   UNL     1       1.676   0.039 -13.435  1.00  0.00     0.020 A 
ATOM     80  C   UNL     1       1.516   0.524 -11.061  1.00  0.00     0.020 A 
ATOM     81  C   UNL     1       2.186  -0.059 -12.137  1.00  0.00     0.054 A 
BRANCH  81  82
ATOM     82  S   UNL     1       3.758  -0.928 -11.880  1.00  0.00     0.124 S 
ATOM     83  O   UNL     1       3.373  -2.320 -12.085  1.00  0.00    -0.237 OA
ATOM     84  O   UNL     1       4.611  -0.347 -12.914  1.00  0.00    -0.237 OA
ATOM     85  O   UNL     1       4.123  -0.574 -10.510  1.00  0.00    -0.744 OA
ENDBRANCH  81  82
ENDBRANCH  53  76
BRANCH  65  86
ATOM     86  C   UNL     1      -6.569  -0.668 -14.718  1.00  0.00    -0.014 A 
ATOM     87  C   UNL     1      -6.821  -1.715 -13.816  1.00  0.00     0.010 A 
ATOM     88  C   UNL     1      -6.921  -0.828 -16.071  1.00  0.00     0.010 A 
ATOM     89  C   UNL     1      -7.396  -2.908 -14.264  1.00  0.00     0.020 A 
ATOM     90  C   UNL     1      -7.524  -2.006 -16.517  1.00  0.00     0.020 A 
ATOM     91  C   UNL     1      -7.748  -3.044 -15.611  1.00  0.00     0.054 A 
BRANCH  91  92
ATOM     92  S   UNL     1      -8.550  -4.577 -16.153  1.00  0.00     0.124 S 
ATOM     93  O   UNL     1      -7.445  -5.531 -16.110  1.00  0.00    -0.237 OA
ATOM     94  O   UNL     1      -9.587  -4.770 -15.142  1.00  0.00    -0.237 OA
ATOM     95  O   UNL     1      -9.044  -4.257 -17.490  1.00  0.00    -0.744 OA
ENDBRANCH  91  92
ENDBRANCH  65  86
ENDBRANCH  39  40
ENDBRANCH  31  34
ENDBRANCH  29  30
ENDBRANCH  28  29
ENDBRANCH  27  28
ENDBRANCH   1  27
TORSDOF 20
