REMARK SMILES CC(C)Cc1ccc(S(=O)(=O)Nc2cnc(N3CCCC3)c(C(=O)NCCCCCCNC(=O)c3ccc(-c4c5nc(c(-c6ccc(S(=O)(=O)[O-])cc6)c6ccc([nH]6)c(-c6ccc(S(=O)(=O)[O-])cc6)c6nc(c(-c7ccc(S(=O)(=O)[O-])cc7)c7ccc4[nH]7)C=C6)C=C5)cc3)c2)cc1
REMARK SMILES IDX 27 1 26 2 25 3 23 4 24 5 22 7 13 8 14 9 95 10 15 11 16 12
REMARK SMILES IDX 12 13 9 15 10 16 11 17 8 18 5 19 6 20 97 21 7 22 96 23 4 24
REMARK SMILES IDX 2 25 1 26 3 27 17 28 18 29 21 30 19 31 20 32 28 33 29 34
REMARK SMILES IDX 30 35 31 36 32 37 33 38 34 40 35 41 36 42 94 43 37 44 93 45
REMARK SMILES IDX 38 46 39 47 40 48 87 49 41 50 92 51 86 52 88 53 42 54 91 55
REMARK SMILES IDX 85 56 84 57 43 59 73 60 54 61 72 62 55 63 58 64 71 65 89 66
REMARK SMILES IDX 56 67 57 68 70 70 90 71 59 72 44 73 45 74 53 75 46 76 52 77
REMARK SMILES IDX 47 78 48 79 49 80 50 81 51 82 74 83 75 84 83 85 76 86 82 87
REMARK SMILES IDX 77 88 78 89 79 90 80 91 81 92 60 93 61 94 69 95 62 96 68 97
REMARK SMILES IDX 63 98 64 99 65 100 66 101 67 102
REMARK H PARENT 25 6 12 14 32 39 88 58 58 69
REMARK Flexibility Score: inf
ROOT
ATOM      1  C   UNL     1      -6.050   1.569  -0.756  1.00  0.00     0.021 C 
ENDROOT
BRANCH   1   2
ATOM      2  C   UNL     1      -4.940   0.680  -1.309  1.00  0.00     0.116 C 
BRANCH   2   3
ATOM      3  N   UNL     1      -5.491  -0.581  -1.756  1.00  0.00    -0.352 N 
ATOM      4  C   UNL     1      -5.837  -1.156  -2.950  1.00  0.00     0.255 C 
ATOM      5  O   UNL     1      -6.369  -2.256  -2.797  1.00  0.00    -0.269 OA
ATOM      6  H   UNL     1      -5.663  -1.187  -1.000  1.00  0.00     0.163 HD
BRANCH   4   7
ATOM      7  C   UNL     1      -5.527  -0.585  -4.312  1.00  0.00     0.084 A 
ATOM      8  C   UNL     1      -4.384   1.119  -5.598  1.00  0.00     0.068 A 
ATOM      9  C   UNL     1      -4.344   0.225  -6.651  1.00  0.00     0.140 A 
ATOM     10  C   UNL     1      -5.110   0.745  -4.474  1.00  0.00     0.046 A 
ATOM     11  N   UNL     1      -4.872  -1.012  -6.601  1.00  0.00    -0.236 NA
ATOM     12  C   UNL     1      -5.451  -1.432  -5.443  1.00  0.00     0.141 A 
BRANCH   8  13
ATOM     13  N   UNL     1      -3.616   2.315  -5.693  1.00  0.00    -0.278 N 
ATOM     14  H   UNL     1      -3.491   2.709  -6.587  1.00  0.00     0.180 HD
BRANCH  13  15
ATOM     15  S   UNL     1      -2.906   3.100  -4.387  1.00  0.00     0.261 S 
ATOM     16  O   UNL     1      -3.981   3.612  -3.558  1.00  0.00    -0.201 OA
ATOM     17  O   UNL     1      -1.909   3.971  -4.962  1.00  0.00    -0.201 OA
BRANCH  15  18
ATOM     18  C   UNL     1      -2.033   1.897  -3.398  1.00  0.00     0.087 A 
ATOM     19  C   UNL     1      -1.105  -0.023  -1.572  1.00  0.00    -0.048 A 
ATOM     20  C   UNL     1      -1.273   1.308  -1.172  1.00  0.00     0.005 A 
ATOM     21  C   UNL     1      -1.330  -0.363  -2.914  1.00  0.00     0.005 A 
ATOM     22  C   UNL     1      -1.742   2.263  -2.077  1.00  0.00     0.022 A 
ATOM     23  C   UNL     1      -1.775   0.596  -3.832  1.00  0.00     0.022 A 
BRANCH  19  24
ATOM     24  C   UNL     1      -0.718  -1.082  -0.564  1.00  0.00     0.038 C 
BRANCH  24  25
ATOM     25  C   UNL     1       0.786  -1.405  -0.521  1.00  0.00    -0.013 C 
ATOM     26  C   UNL     1       1.607  -0.239   0.034  1.00  0.00     0.008 C 
ATOM     27  C   UNL     1       1.022  -2.651   0.338  1.00  0.00     0.008 C 
ENDBRANCH  24  25
ENDBRANCH  19  24
ENDBRANCH  15  18
ENDBRANCH  13  15
ENDBRANCH   8  13
BRANCH  12  28
ATOM     28  N   UNL     1      -5.902  -2.714  -5.482  1.00  0.00    -0.356 N 
ATOM     29  C   UNL     1      -7.286  -3.108  -5.298  1.00  0.00     0.118 C 
ATOM     30  C   UNL     1      -5.088  -3.802  -5.991  1.00  0.00     0.118 C 
ATOM     31  C   UNL     1      -7.138  -4.592  -4.980  1.00  0.00     0.023 C 
ATOM     32  C   UNL     1      -6.017  -5.020  -5.922  1.00  0.00     0.023 C 
ENDBRANCH  12  28
ENDBRANCH   4   7
ENDBRANCH   2   3
ENDBRANCH   1   2
BRANCH   1  33
ATOM     33  C   UNL     1      -6.601   1.072   0.589  1.00  0.00     0.002 C 
BRANCH  33  34
ATOM     34  C   UNL     1      -5.560   0.952   1.709  1.00  0.00     0.002 C 
BRANCH  34  35
ATOM     35  C   UNL     1      -4.714   2.206   1.946  1.00  0.00     0.021 C 
BRANCH  35  36
ATOM     36  C   UNL     1      -5.520   3.457   2.281  1.00  0.00     0.116 C 
BRANCH  36  37
ATOM     37  N   UNL     1      -6.230   3.322   3.541  1.00  0.00    -0.352 N 
ATOM     38  C   UNL     1      -6.320   4.218   4.576  1.00  0.00     0.251 C 
ATOM     39  H   UNL     1      -6.712   2.473   3.670  1.00  0.00     0.163 HD
ATOM     40  O   UNL     1      -6.811   3.874   5.647  1.00  0.00    -0.269 OA
BRANCH  38  41
ATOM     41  C   UNL     1      -5.805   5.593   4.402  1.00  0.00     0.039 A 
ATOM     42  C   UNL     1      -4.999   6.143   5.402  1.00  0.00     0.014 A 
ATOM     43  C   UNL     1      -6.128   6.340   3.264  1.00  0.00     0.014 A 
ATOM     44  C   UNL     1      -4.481   7.430   5.243  1.00  0.00     0.010 A 
ATOM     45  C   UNL     1      -5.571   7.603   3.085  1.00  0.00     0.010 A 
ATOM     46  C   UNL     1      -4.749   8.162   4.076  1.00  0.00    -0.014 A 
BRANCH  46  47
ATOM     47  C   UNL     1      -4.198   9.525   3.882  1.00  0.00     0.031 A 
ATOM     48  C   UNL     1      -5.121  10.712   3.870  1.00  0.00     0.074 A 
ATOM     49  C   UNL     1      -2.880   9.689   3.657  1.00  0.00     0.049 A 
ATOM     50  N   UNL     1      -4.843  11.970   3.642  1.00  0.00    -0.248 NA
ATOM     51  C   UNL     1      -6.546  10.446   4.125  1.00  0.00     0.031 C 
ATOM     52  C   UNL     1      -1.887   8.613   3.611  1.00  0.00     0.029 A 
ATOM     53  N   UNL     1      -2.152  10.825   3.413  1.00  0.00    -0.354 N 
ATOM     54  C   UNL     1      -6.059  12.642   3.702  1.00  0.00     0.074 A 
ATOM     55  C   UNL     1      -7.079  11.648   3.956  1.00  0.00     0.031 C 
ATOM     56  C   UNL     1      -0.677   9.144   3.369  1.00  0.00     0.029 A 
ATOM     57  C   UNL     1      -0.813  10.589   3.213  1.00  0.00     0.049 A 
ATOM     58  H   UNL     1      -2.550  11.725   3.384  1.00  0.00     0.167 HD
ATOM     59  C   UNL     1      -6.303  13.967   3.569  1.00  0.00     0.031 A 
ATOM     60  C   UNL     1       0.192  11.440   2.930  1.00  0.00     0.031 A 
ATOM     61  C   UNL     1      -5.286  14.957   3.336  1.00  0.00     0.049 A 
ATOM     62  C   UNL     1      -0.099  12.909   2.809  1.00  0.00     0.074 A 
ATOM     63  C   UNL     1      -5.427  16.330   3.236  1.00  0.00     0.029 A 
ATOM     64  N   UNL     1      -3.938  14.679   3.171  1.00  0.00    -0.354 N 
ATOM     65  N   UNL     1      -1.249  13.531   2.915  1.00  0.00    -0.248 NA
ATOM     66  C   UNL     1       1.044  13.793   2.540  1.00  0.00     0.031 C 
ATOM     67  C   UNL     1      -4.166  16.881   2.983  1.00  0.00     0.029 A 
ATOM     68  C   UNL     1      -3.236  15.854   2.962  1.00  0.00     0.049 A 
ATOM     69  H   UNL     1      -3.539  13.780   3.199  1.00  0.00     0.167 HD
ATOM     70  C   UNL     1      -0.964  14.881   2.748  1.00  0.00     0.074 A 
ATOM     71  C   UNL     1       0.466  14.987   2.543  1.00  0.00     0.031 C 
ATOM     72  C   UNL     1      -1.812  15.939   2.764  1.00  0.00     0.031 A 
BRANCH  59  73
ATOM     73  C   UNL     1      -7.735  14.416   3.668  1.00  0.00    -0.014 A 
ATOM     74  C   UNL     1      -8.402  14.436   4.906  1.00  0.00     0.010 A 
ATOM     75  C   UNL     1      -8.417  14.838   2.513  1.00  0.00     0.010 A 
ATOM     76  C   UNL     1      -9.742  14.827   4.981  1.00  0.00     0.020 A 
ATOM     77  C   UNL     1      -9.751  15.251   2.587  1.00  0.00     0.020 A 
ATOM     78  C   UNL     1     -10.410  15.223   3.818  1.00  0.00     0.054 A 
BRANCH  78  79
ATOM     79  S   UNL     1     -12.148  15.731   3.939  1.00  0.00     0.124 S 
ATOM     80  O   UNL     1     -12.831  14.442   4.023  1.00  0.00    -0.237 OA
ATOM     81  O   UNL     1     -12.168  16.532   5.160  1.00  0.00    -0.237 OA
ATOM     82  O   UNL     1     -12.375  16.478   2.704  1.00  0.00    -0.744 OA
ENDBRANCH  78  79
ENDBRANCH  59  73
BRANCH  60  83
ATOM     83  C   UNL     1       1.575  10.920   2.766  1.00  0.00    -0.014 A 
ATOM     84  C   UNL     1       2.528  11.108   3.781  1.00  0.00     0.010 A 
ATOM     85  C   UNL     1       1.937  10.214   1.605  1.00  0.00     0.010 A 
ATOM     86  C   UNL     1       3.825  10.608   3.635  1.00  0.00     0.020 A 
ATOM     87  C   UNL     1       3.228   9.695   1.464  1.00  0.00     0.020 A 
ATOM     88  C   UNL     1       4.166   9.904   2.477  1.00  0.00     0.054 A 
BRANCH  88  89
ATOM     89  S   UNL     1       5.835   9.204   2.333  1.00  0.00     0.124 S 
ATOM     90  O   UNL     1       6.621  10.371   1.947  1.00  0.00    -0.237 OA
ATOM     91  O   UNL     1       6.083   8.690   3.678  1.00  0.00    -0.237 OA
ATOM     92  O   UNL     1       5.684   8.178   1.304  1.00  0.00    -0.744 OA
ENDBRANCH  88  89
ENDBRANCH  60  83
BRANCH  72  93
ATOM     93  C   UNL     1      -1.212  17.305   2.586  1.00  0.00    -0.014 A 
ATOM     94  C   UNL     1      -0.808  17.759   1.318  1.00  0.00     0.010 A 
ATOM     95  C   UNL     1      -1.102  18.165   3.693  1.00  0.00     0.010 A 
ATOM     96  C   UNL     1      -0.282  19.044   1.165  1.00  0.00     0.020 A 
ATOM     97  C   UNL     1      -0.594  19.457   3.541  1.00  0.00     0.020 A 
ATOM     98  C   UNL     1      -0.175  19.884   2.279  1.00  0.00     0.054 A 
BRANCH  98  99
ATOM     99  S   UNL     1       0.465  21.566   2.052  1.00  0.00     0.124 S 
ATOM    100  O   UNL     1       1.905  21.335   1.980  1.00  0.00    -0.237 OA
ATOM    101  O   UNL     1      -0.166  21.989   0.804  1.00  0.00    -0.237 OA
ATOM    102  O   UNL     1       0.005  22.273   3.245  1.00  0.00    -0.744 OA
ENDBRANCH  98  99
ENDBRANCH  72  93
ENDBRANCH  46  47
ENDBRANCH  38  41
ENDBRANCH  36  37
ENDBRANCH  35  36
ENDBRANCH  34  35
ENDBRANCH  33  34
ENDBRANCH   1  33
TORSDOF 22
