REMARK SMILES O=C(NCCCCCCNC(=O)c1cn(-c2cc(Cl)ncn2)cn1)c1ccc(-c2c3nc(c(-c4ccc(S(=O)(=O)[O-])cc4)c4ccc([nH]4)c(-c4ccc(S(=O)(=O)[O-])cc4)c4nc(c(-c5ccc(S(=O)(=O)[O-])cc5)c5ccc2[nH]5)C=C4)C=C3)cc1
REMARK SMILES IDX 5 1 4 2 3 3 1 4 2 5 25 7 26 8 84 9 27 10 83 11 28 12 29 13
REMARK SMILES IDX 30 14 77 15 31 16 82 17 76 18 78 19 32 20 81 21 75 22 74 23
REMARK SMILES IDX 33 25 63 26 44 27 62 28 45 29 48 30 61 31 79 32 46 33 47 34
REMARK SMILES IDX 60 36 80 37 49 38 34 39 35 40 43 41 36 42 42 43 37 44 38 45
REMARK SMILES IDX 39 46 40 47 41 48 64 49 65 50 73 51 66 52 72 53 67 54 68 55
REMARK SMILES IDX 69 56 70 57 71 58 50 59 51 60 59 61 52 62 58 63 53 64 54 65
REMARK SMILES IDX 55 66 56 67 57 68 6 69 7 70 8 71 9 72 10 73 11 74 12 76
REMARK SMILES IDX 13 77 14 78 24 79 15 80 23 81 16 82 17 83 22 84 18 85 21 86
REMARK SMILES IDX 19 87 20 88
REMARK H PARENT 3 6 78 24 48 35 10 75
REMARK Flexibility Score: inf
ROOT
ATOM      1  C   UNL     1       4.750  -0.762   2.218  1.00  0.00     0.021 C 
ENDROOT
BRANCH   1   2
ATOM      2  C   UNL     1       4.598  -0.836   0.700  1.00  0.00     0.116 C 
BRANCH   2   3
ATOM      3  N   UNL     1       3.234  -0.982   0.236  1.00  0.00    -0.352 N 
ATOM      4  O   UNL     1       1.188  -0.596  -0.501  1.00  0.00    -0.269 OA
ATOM      5  C   UNL     1       2.190  -0.121   0.039  1.00  0.00     0.251 C 
ATOM      6  H   UNL     1       3.006  -1.913   0.012  1.00  0.00     0.163 HD
BRANCH   5   7
ATOM      7  C   UNL     1       2.159   1.298   0.485  1.00  0.00     0.039 A 
ATOM      8  C   UNL     1       3.271   2.090   0.776  1.00  0.00     0.014 A 
ATOM      9  C   UNL     1       0.877   1.867   0.612  1.00  0.00     0.014 A 
ATOM     10  C   UNL     1       3.107   3.389   1.257  1.00  0.00     0.010 A 
ATOM     11  C   UNL     1       0.707   3.165   1.078  1.00  0.00     0.010 A 
ATOM     12  C   UNL     1       1.824   3.918   1.428  1.00  0.00    -0.014 A 
BRANCH  12  13
ATOM     13  C   UNL     1       1.690   5.322   1.813  1.00  0.00     0.031 A 
ATOM     14  C   UNL     1       2.142   6.301   0.782  1.00  0.00     0.074 A 
ATOM     15  C   UNL     1       1.043   5.739   2.920  1.00  0.00     0.049 A 
ATOM     16  N   UNL     1       3.096   7.170   0.866  1.00  0.00    -0.248 NA
ATOM     17  C   UNL     1       1.513   6.232  -0.547  1.00  0.00     0.031 C 
ATOM     18  C   UNL     1       0.273   4.927   3.866  1.00  0.00     0.029 A 
ATOM     19  N   UNL     1       0.834   7.011   3.366  1.00  0.00    -0.354 N 
ATOM     20  C   UNL     1       3.066   7.892  -0.326  1.00  0.00     0.074 A 
ATOM     21  C   UNL     1       2.179   7.178  -1.209  1.00  0.00     0.031 C 
ATOM     22  C   UNL     1      -0.503   5.739   4.619  1.00  0.00     0.029 A 
ATOM     23  C   UNL     1      -0.188   7.123   4.304  1.00  0.00     0.049 A 
ATOM     24  H   UNL     1       1.359   7.782   3.052  1.00  0.00     0.167 HD
ATOM     25  C   UNL     1       3.604   9.140  -0.438  1.00  0.00     0.031 A 
ATOM     26  C   UNL     1      -0.779   8.267   4.736  1.00  0.00     0.031 A 
ATOM     27  C   UNL     1       4.471   9.456   0.664  1.00  0.00     0.049 A 
ATOM     28  C   UNL     1       0.138   9.389   4.428  1.00  0.00     0.074 A 
ATOM     29  C   UNL     1       5.636   8.924   1.179  1.00  0.00     0.029 A 
ATOM     30  N   UNL     1       3.964  10.278   1.642  1.00  0.00    -0.354 N 
ATOM     31  N   UNL     1       1.294   9.555   5.005  1.00  0.00    -0.248 NA
ATOM     32  C   UNL     1      -0.041  10.103   3.173  1.00  0.00     0.031 C 
ATOM     33  C   UNL     1       5.512   9.070   2.591  1.00  0.00     0.029 A 
ATOM     34  C   UNL     1       4.310   9.732   2.849  1.00  0.00     0.049 A 
ATOM     35  H   UNL     1       3.449  11.105   1.500  1.00  0.00     0.167 HD
ATOM     36  C   UNL     1       2.127  10.024   4.000  1.00  0.00     0.074 A 
ATOM     37  C   UNL     1       1.228  10.440   2.926  1.00  0.00     0.031 C 
ATOM     38  C   UNL     1       3.470   9.777   4.026  1.00  0.00     0.031 A 
BRANCH  25  39
ATOM     39  C   UNL     1       3.047  10.222  -1.334  1.00  0.00    -0.014 A 
ATOM     40  C   UNL     1       3.723  11.458  -1.409  1.00  0.00     0.010 A 
ATOM     41  C   UNL     1       1.742  10.175  -1.864  1.00  0.00     0.010 A 
ATOM     42  C   UNL     1       3.092  12.605  -1.910  1.00  0.00     0.020 A 
ATOM     43  C   UNL     1       1.120  11.301  -2.408  1.00  0.00     0.020 A 
ATOM     44  C   UNL     1       1.786  12.519  -2.390  1.00  0.00     0.054 A 
BRANCH  44  45
ATOM     45  S   UNL     1       0.935  14.027  -2.919  1.00  0.00     0.124 S 
ATOM     46  O   UNL     1       0.806  14.754  -1.660  1.00  0.00    -0.237 OA
ATOM     47  O   UNL     1       1.876  14.591  -3.883  1.00  0.00    -0.237 OA
ATOM     48  O   UNL     1      -0.315  13.532  -3.490  1.00  0.00    -0.744 OA
ENDBRANCH  44  45
ENDBRANCH  25  39
BRANCH  26  49
ATOM     49  C   UNL     1      -2.201   8.484   5.108  1.00  0.00    -0.014 A 
ATOM     50  C   UNL     1      -2.613   9.662   5.762  1.00  0.00     0.010 A 
ATOM     51  C   UNL     1      -3.204   7.658   4.561  1.00  0.00     0.010 A 
ATOM     52  C   UNL     1      -3.970  10.029   5.809  1.00  0.00     0.020 A 
ATOM     53  C   UNL     1      -4.558   8.012   4.611  1.00  0.00     0.020 A 
ATOM     54  C   UNL     1      -4.933   9.211   5.213  1.00  0.00     0.054 A 
BRANCH  54  55
ATOM     55  S   UNL     1      -6.657   9.779   5.110  1.00  0.00     0.124 S 
ATOM     56  O   UNL     1      -7.102   9.678   6.496  1.00  0.00    -0.237 OA
ATOM     57  O   UNL     1      -6.515  11.135   4.588  1.00  0.00    -0.237 OA
ATOM     58  O   UNL     1      -7.278   8.828   4.189  1.00  0.00    -0.744 OA
ENDBRANCH  54  55
ENDBRANCH  26  49
BRANCH  38  59
ATOM     59  C   UNL     1       4.089   9.272   5.308  1.00  0.00    -0.014 A 
ATOM     60  C   UNL     1       3.723   8.064   5.934  1.00  0.00     0.010 A 
ATOM     61  C   UNL     1       5.194   9.981   5.812  1.00  0.00     0.010 A 
ATOM     62  C   UNL     1       4.432   7.594   7.050  1.00  0.00     0.020 A 
ATOM     63  C   UNL     1       5.915   9.509   6.909  1.00  0.00     0.020 A 
ATOM     64  C   UNL     1       5.526   8.321   7.529  1.00  0.00     0.054 A 
BRANCH  64  65
ATOM     65  S   UNL     1       6.475   7.680   8.937  1.00  0.00     0.124 S 
ATOM     66  O   UNL     1       5.536   7.825  10.045  1.00  0.00    -0.237 OA
ATOM     67  O   UNL     1       6.766   6.306   8.533  1.00  0.00    -0.237 OA
ATOM     68  O   UNL     1       7.643   8.558   8.998  1.00  0.00    -0.744 OA
ENDBRANCH  64  65
ENDBRANCH  38  59
ENDBRANCH  12  13
ENDBRANCH   5   7
ENDBRANCH   2   3
ENDBRANCH   1   2
BRANCH   1  69
ATOM     69  C   UNL     1       4.245  -1.992   2.981  1.00  0.00     0.002 C 
BRANCH  69  70
ATOM     70  C   UNL     1       4.816  -3.342   2.533  1.00  0.00     0.002 C 
BRANCH  70  71
ATOM     71  C   UNL     1       6.345  -3.451   2.532  1.00  0.00     0.021 C 
BRANCH  71  72
ATOM     72  C   UNL     1       7.008  -3.245   3.894  1.00  0.00     0.116 C 
BRANCH  72  73
ATOM     73  N   UNL     1       6.681  -4.313   4.825  1.00  0.00    -0.351 N 
ATOM     74  C   UNL     1       7.524  -5.225   5.418  1.00  0.00     0.271 C 
ATOM     75  H   UNL     1       5.729  -4.395   5.062  1.00  0.00     0.163 HD
ATOM     76  O   UNL     1       7.049  -6.164   6.059  1.00  0.00    -0.267 OA
BRANCH  74  77
ATOM     77  C   UNL     1       8.961  -5.021   5.266  1.00  0.00     0.146 A 
ATOM     78  C   UNL     1       9.689  -3.935   5.724  1.00  0.00     0.128 A 
ATOM     79  N   UNL     1       9.786  -5.886   4.577  1.00  0.00    -0.231 NA
ATOM     80  N   UNL     1      10.950  -4.083   5.197  1.00  0.00    -0.290 N 
ATOM     81  C   UNL     1      10.955  -5.288   4.535  1.00  0.00     0.206 A 
BRANCH  80  82
ATOM     82  C   UNL     1      12.029  -3.165   5.238  1.00  0.00     0.142 A 
ATOM     83  C   UNL     1      12.086  -2.212   6.230  1.00  0.00     0.088 A 
ATOM     84  N   UNL     1      12.955  -3.262   4.256  1.00  0.00    -0.219 NA
ATOM     85  C   UNL     1      13.165  -1.367   6.151  1.00  0.00     0.134 A 
ATOM     86  C   UNL     1      13.921  -2.333   4.256  1.00  0.00     0.226 A 
ATOM     87  Cl  UNL     1      13.451  -0.198   7.374  1.00  0.00    -0.062 Cl
ATOM     88  N   UNL     1      14.088  -1.385   5.177  1.00  0.00    -0.224 NA
ENDBRANCH  80  82
ENDBRANCH  74  77
ENDBRANCH  72  73
ENDBRANCH  71  72
ENDBRANCH  70  71
ENDBRANCH  69  70
ENDBRANCH   1  69
TORSDOF 17
