REMARK SMILES C[C@@]12CCC[C@](C)(C(=O)NCCCCCCNC(=O)c3ccc(-c4c5nc(c(-c6ccc(S(=O)(=O)[O-])cc6)c6ccc([nH]6)c(-c6ccc(S(=O)(=O)[O-])cc6)c6nc(c(-c7ccc(S(=O)(=O)[O-])cc7)c7ccc4[nH]7)C=C6)C=C5)cc3)[C@H]1CC[C@@]13C=C(CO)[C@@H](CC[C@@H]12)C3
REMARK SMILES IDX 14 1 13 2 12 3 11 4 10 5 8 6 9 7 6 9 1 10 2 11 3 12 80 13
REMARK SMILES IDX 91 14 4 15 81 16 83 17 90 18 5 19 7 20 82 21 84 22 92 23
REMARK SMILES IDX 89 24 85 25 88 26 86 27 87 28 15 30 16 31 17 32 18 33 19 35
REMARK SMILES IDX 20 36 21 37 79 38 22 39 78 40 23 41 24 42 25 43 72 44 26 45
REMARK SMILES IDX 77 46 71 47 73 48 27 49 76 50 70 51 69 52 28 54 58 55 39 56
REMARK SMILES IDX 57 57 40 58 43 59 56 60 74 61 41 62 42 63 55 65 75 66 44 67
REMARK SMILES IDX 29 68 30 69 38 70 31 71 37 72 32 73 33 74 34 75 35 76 36 77
REMARK SMILES IDX 59 78 60 79 68 80 61 81 67 82 62 83 63 84 64 85 65 86 66 87
REMARK SMILES IDX 45 88 46 89 54 90 47 91 53 92 48 93 49 94 50 95 51 96 52 97
REMARK H PARENT 10 8 87 29 17 34 73 53 43 64
REMARK Flexibility Score: inf
ROOT
ATOM      1  C   UNL     1       0.962  -1.213   6.317  1.00  0.00     0.002 C 
ENDROOT
BRANCH   1   2
ATOM      2  C   UNL     1      -0.292  -1.170   5.441  1.00  0.00     0.002 C 
BRANCH   2   3
ATOM      3  C   UNL     1      -0.022  -0.709   4.016  1.00  0.00     0.021 C 
BRANCH   3   4
ATOM      4  C   UNL     1       0.709  -1.762   3.187  1.00  0.00     0.116 C 
BRANCH   4   5
ATOM      5  N   UNL     1      -0.254  -2.614   2.509  1.00  0.00    -0.356 N 
ATOM      6  C   UNL     1      -0.576  -2.777   1.193  1.00  0.00     0.226 C 
ATOM      7  O   UNL     1      -1.573  -3.466   0.958  1.00  0.00    -0.274 OA
ATOM      8  H   UNL     1      -0.777  -3.184   3.119  1.00  0.00     0.163 HD
BRANCH   6   9
ATOM      9  C   UNL     1       0.314  -2.216   0.055  1.00  0.00     0.050 C 
ATOM     10  C   UNL     1       2.497  -0.338  -0.972  1.00  0.00     0.012 C 
ATOM     11  C   UNL     1       0.996  -0.123  -1.381  1.00  0.00    -0.025 C 
ATOM     12  C   UNL     1       0.677  -0.919  -2.670  1.00  0.00     0.007 C 
ATOM     13  C   UNL     1       0.070  -0.652  -0.247  1.00  0.00     0.010 C 
ATOM     14  C   UNL     1       0.866   1.409  -1.666  1.00  0.00     0.005 C 
ATOM     15  C   UNL     1       0.674  -2.438  -2.510  1.00  0.00     0.002 C 
ATOM     16  C   UNL     1      -0.012   0.330   0.936  1.00  0.00     0.006 C 
ATOM     17  C   UNL     1       0.712   2.351  -0.407  1.00  0.00    -0.008 C 
ATOM     18  C   UNL     1       0.130   2.066  -2.826  1.00  0.00     0.006 C 
ATOM     19  C   UNL     1      -0.114  -2.917  -1.285  1.00  0.00     0.017 C 
ATOM     20  C   UNL     1       1.730  -2.802   0.349  1.00  0.00     0.022 C 
ATOM     21  C   UNL     1      -0.292   1.790   0.578  1.00  0.00     0.012 C 
ATOM     22  C   UNL     1       2.127   2.629   0.003  1.00  0.00    -0.018 C 
ATOM     23  C   UNL     1       0.376   3.825  -0.778  1.00  0.00     0.019 C 
ATOM     24  C   UNL     1       0.959   3.383  -3.103  1.00  0.00     0.008 C 
ATOM     25  C   UNL     1       2.636   3.464  -0.933  1.00  0.00    -0.045 C 
ATOM     26  C   UNL     1       1.495   4.080  -1.789  1.00  0.00     0.018 C 
BRANCH  25  27
ATOM     27  C   UNL     1       4.091   3.721  -1.118  1.00  0.00     0.187 C 
BRANCH  27  28
ATOM     28  O   UNL     1       4.750   2.495  -1.428  1.00  0.00    -0.392 OA
ATOM     29  H   UNL     1       4.620   1.866  -0.701  1.00  0.00     0.211 HD
ENDBRANCH  27  28
ENDBRANCH  25  27
ENDBRANCH   6   9
ENDBRANCH   4   5
ENDBRANCH   3   4
ENDBRANCH   2   3
ENDBRANCH   1   2
BRANCH   1  30
ATOM     30  C   UNL     1       1.721   0.113   6.423  1.00  0.00     0.021 C 
BRANCH  30  31
ATOM     31  C   UNL     1       0.852   1.310   6.802  1.00  0.00     0.116 C 
BRANCH  31  32
ATOM     32  N   UNL     1       0.142   1.076   8.051  1.00  0.00    -0.352 N 
ATOM     33  C   UNL     1       0.284   1.711   9.252  1.00  0.00     0.251 C 
ATOM     34  H   UNL     1      -0.534   0.361   8.027  1.00  0.00     0.163 HD
ATOM     35  O   UNL     1      -0.183   1.205  10.278  1.00  0.00    -0.269 OA
BRANCH  33  36
ATOM     36  C   UNL     1       0.999   2.997   9.317  1.00  0.00     0.039 A 
ATOM     37  C   UNL     1       1.937   3.208  10.330  1.00  0.00     0.014 A 
ATOM     38  C   UNL     1       0.735   3.997   8.375  1.00  0.00     0.014 A 
ATOM     39  C   UNL     1       2.645   4.409  10.369  1.00  0.00     0.010 A 
ATOM     40  C   UNL     1       1.496   5.160   8.371  1.00  0.00     0.010 A 
ATOM     41  C   UNL     1       2.451   5.383   9.374  1.00  0.00    -0.014 A 
BRANCH  41  42
ATOM     42  C   UNL     1       3.233   6.643   9.371  1.00  0.00     0.031 A 
ATOM     43  C   UNL     1       2.537   7.964   9.551  1.00  0.00     0.074 A 
ATOM     44  C   UNL     1       4.562   6.599   9.152  1.00  0.00     0.049 A 
ATOM     45  N   UNL     1       3.043   9.171   9.536  1.00  0.00    -0.248 NA
ATOM     46  C   UNL     1       1.078   7.928   9.751  1.00  0.00     0.031 C 
ATOM     47  C   UNL     1       5.344   5.380   8.925  1.00  0.00     0.029 A 
ATOM     48  N   UNL     1       5.491   7.606   9.080  1.00  0.00    -0.354 N 
ATOM     49  C   UNL     1       1.968  10.034   9.710  1.00  0.00     0.074 A 
ATOM     50  C   UNL     1       0.776   9.218   9.774  1.00  0.00     0.031 C 
ATOM     51  C   UNL     1       6.636   5.710   8.771  1.00  0.00     0.029 A 
ATOM     52  C   UNL     1       6.770   7.161   8.843  1.00  0.00     0.049 A 
ATOM     53  H   UNL     1       5.264   8.558   9.189  1.00  0.00     0.167 HD
ATOM     54  C   UNL     1       1.974  11.383   9.828  1.00  0.00     0.031 A 
ATOM     55  C   UNL     1       7.921   7.844   8.692  1.00  0.00     0.031 A 
ATOM     56  C   UNL     1       3.165  12.189   9.768  1.00  0.00     0.049 A 
ATOM     57  C   UNL     1       7.900   9.344   8.806  1.00  0.00     0.074 A 
ATOM     58  C   UNL     1       3.286  13.558   9.927  1.00  0.00     0.029 A 
ATOM     59  N   UNL     1       4.441  11.701   9.525  1.00  0.00    -0.354 N 
ATOM     60  N   UNL     1       6.882  10.138   9.039  1.00  0.00    -0.248 NA
ATOM     61  C   UNL     1       9.185  10.039   8.647  1.00  0.00     0.031 C 
ATOM     62  C   UNL     1       4.625  13.905   9.721  1.00  0.00     0.029 A 
ATOM     63  C   UNL     1       5.350  12.745   9.501  1.00  0.00     0.049 A 
ATOM     64  H   UNL     1       4.666  10.752   9.390  1.00  0.00     0.167 HD
ATOM     65  C   UNL     1       7.408  11.425   9.082  1.00  0.00     0.074 A 
ATOM     66  C   UNL     1       8.836  11.299   8.869  1.00  0.00     0.031 C 
ATOM     67  C   UNL     1       6.768  12.603   9.283  1.00  0.00     0.031 A 
BRANCH  54  68
ATOM     68  C   UNL     1       0.649  12.074  10.025  1.00  0.00    -0.014 A 
ATOM     69  C   UNL     1      -0.081  11.923  11.218  1.00  0.00     0.010 A 
ATOM     70  C   UNL     1       0.143  12.917   9.018  1.00  0.00     0.010 A 
ATOM     71  C   UNL     1      -1.310  12.567  11.384  1.00  0.00     0.020 A 
ATOM     72  C   UNL     1      -1.070  13.588   9.193  1.00  0.00     0.020 A 
ATOM     73  C   UNL     1      -1.798  13.395  10.369  1.00  0.00     0.054 A 
BRANCH  73  74
ATOM     74  S   UNL     1      -3.385  14.236  10.622  1.00  0.00     0.124 S 
ATOM     75  O   UNL     1      -4.331  13.127  10.522  1.00  0.00    -0.237 OA
ATOM     76  O   UNL     1      -3.231  14.813  11.955  1.00  0.00    -0.237 OA
ATOM     77  O   UNL     1      -3.443  15.204   9.529  1.00  0.00    -0.744 OA
ENDBRANCH  73  74
ENDBRANCH  54  68
BRANCH  55  78
ATOM     78  C   UNL     1       9.191   7.113   8.429  1.00  0.00    -0.014 A 
ATOM     79  C   UNL     1      10.203   7.060   9.404  1.00  0.00     0.010 A 
ATOM     80  C   UNL     1       9.391   6.452   7.203  1.00  0.00     0.010 A 
ATOM     81  C   UNL     1      11.397   6.379   9.152  1.00  0.00     0.020 A 
ATOM     82  C   UNL     1      10.570   5.744   6.958  1.00  0.00     0.020 A 
ATOM     83  C   UNL     1      11.571   5.722   7.930  1.00  0.00     0.054 A 
BRANCH  83  84
ATOM     84  S   UNL     1      13.109   4.802   7.644  1.00  0.00     0.124 S 
ATOM     85  O   UNL     1      14.078   5.878   7.468  1.00  0.00    -0.237 OA
ATOM     86  O   UNL     1      13.242   4.022   8.872  1.00  0.00    -0.237 OA
ATOM     87  O   UNL     1      12.819   4.017   6.446  1.00  0.00    -0.744 OA
ENDBRANCH  83  84
ENDBRANCH  55  78
BRANCH  67  88
ATOM     88  C   UNL     1       7.609  13.853   9.313  1.00  0.00    -0.014 A 
ATOM     89  C   UNL     1       8.199  14.366   8.145  1.00  0.00     0.010 A 
ATOM     90  C   UNL     1       7.764  14.553  10.524  1.00  0.00     0.010 A 
ATOM     91  C   UNL     1       8.957  15.539   8.193  1.00  0.00     0.020 A 
ATOM     92  C   UNL     1       8.493  15.744  10.570  1.00  0.00     0.020 A 
ATOM     93  C   UNL     1       9.097  16.221   9.406  1.00  0.00     0.054 A 
BRANCH  93  94
ATOM     94  S   UNL     1      10.048  17.766   9.432  1.00  0.00     0.124 S 
ATOM     95  O   UNL     1      11.417  17.282   9.279  1.00  0.00    -0.237 OA
ATOM     96  O   UNL     1       9.507  18.493   8.287  1.00  0.00    -0.237 OA
ATOM     97  O   UNL     1       9.734  18.345  10.736  1.00  0.00    -0.744 OA
ENDBRANCH  93  94
ENDBRANCH  67  88
ENDBRANCH  41  42
ENDBRANCH  33  36
ENDBRANCH  31  32
ENDBRANCH  30  31
ENDBRANCH   1  30
TORSDOF 18
