REMARK SMILES C[C@@H](C(=O)NCCCCCCNC(=O)c1ccc(-c2c3nc(c(-c4ccc(S(=O)(=O)[O-])cc4)c4ccc([nH]4)c(-c4ccc(S(=O)(=O)[O-])cc4)c4nc(c(-c5ccc(S(=O)(=O)[O-])cc5)c5ccc2[nH]5)C=C4)C=C3)cc1)n1ccc(C(=O)N2CC[NH+](Cc3cccc(F)c3)CC2)n1
REMARK SMILES IDX 8 1 7 2 6 3 5 4 3 5 4 6 2 8 1 9 75 10 76 11 95 12 77 13
REMARK SMILES IDX 78 14 79 15 80 16 81 17 82 18 94 19 83 20 93 21 84 22 85 24
REMARK SMILES IDX 86 25 87 26 92 27 88 28 90 29 89 30 91 31 9 32 10 33 11 34
REMARK SMILES IDX 12 35 13 36 14 38 15 39 16 40 74 41 17 42 73 43 18 44 19 45
REMARK SMILES IDX 20 46 67 47 21 48 72 49 66 50 68 51 22 52 71 53 65 54 64 55
REMARK SMILES IDX 23 57 53 58 34 59 52 60 35 61 38 62 51 63 69 64 36 65 37 66
REMARK SMILES IDX 50 68 70 69 39 70 24 71 25 72 33 73 26 74 32 75 27 76 28 77
REMARK SMILES IDX 29 78 30 79 31 80 54 81 55 82 63 83 56 84 62 85 57 86 58 87
REMARK SMILES IDX 59 88 60 89 61 90 40 91 41 92 49 93 42 94 48 95 43 96 44 97
REMARK SMILES IDX 45 98 46 99 47 100
REMARK H PARENT 5 7 84 23 12 37 68 56 38 67
REMARK Flexibility Score: inf
ROOT
ATOM      1  C   UNL     1       5.048  -0.206  -2.849  1.00  0.00     0.002 C 
ENDROOT
BRANCH   1   2
ATOM      2  C   UNL     1       4.317   0.036  -1.522  1.00  0.00     0.021 C 
BRANCH   2   3
ATOM      3  C   UNL     1       3.367   1.235  -1.528  1.00  0.00     0.116 C 
BRANCH   3   4
ATOM      4  N   UNL     1       2.280   1.034  -2.469  1.00  0.00    -0.354 N 
ATOM      5  C   UNL     1       0.975   0.692  -2.245  1.00  0.00     0.244 C 
ATOM      6  O   UNL     1       0.285   0.445  -3.237  1.00  0.00    -0.273 OA
ATOM      7  H   UNL     1       2.519   1.165  -3.415  1.00  0.00     0.163 HD
BRANCH   5   8
ATOM      8  C   UNL     1       0.442   0.624  -0.817  1.00  0.00     0.193 C 
ATOM      9  C   UNL     1       0.877  -0.651  -0.097  1.00  0.00     0.044 C 
BRANCH   8  10
ATOM     10  N   UNL     1      -1.014   0.779  -0.802  1.00  0.00    -0.260 N 
ATOM     11  C   UNL     1      -1.960  -0.170  -1.070  1.00  0.00     0.110 A 
ATOM     12  N   UNL     1      -1.541   1.948  -0.384  1.00  0.00    -0.167 NA
ATOM     13  C   UNL     1      -3.171   0.410  -0.788  1.00  0.00     0.056 A 
ATOM     14  C   UNL     1      -2.873   1.740  -0.388  1.00  0.00     0.150 A 
BRANCH  14  15
ATOM     15  C   UNL     1      -3.844   2.748   0.064  1.00  0.00     0.274 C 
ATOM     16  O   UNL     1      -4.824   2.404   0.736  1.00  0.00    -0.267 OA
ATOM     17  N   UNL     1      -3.646   4.088  -0.299  1.00  0.00    -0.326 N 
ATOM     18  C   UNL     1      -4.579   5.058   0.260  1.00  0.00     0.181 C 
ATOM     19  C   UNL     1      -2.973   4.467  -1.546  1.00  0.00     0.181 C 
ATOM     20  C   UNL     1      -4.116   6.519   0.145  1.00  0.00     0.284 C 
ATOM     21  C   UNL     1      -2.570   5.951  -1.625  1.00  0.00     0.284 C 
ATOM     22  N   UNL     1      -3.563   6.920  -1.151  1.00  0.00    -0.328 N 
ATOM     23  H   UNL     1      -3.049   7.785  -0.981  1.00  0.00     0.348 HD
BRANCH  22  24
ATOM     24  C   UNL     1      -4.510   7.432  -2.140  1.00  0.00     0.299 C 
BRANCH  24  25
ATOM     25  C   UNL     1      -5.491   6.461  -2.755  1.00  0.00     0.009 A 
ATOM     26  C   UNL     1      -5.181   5.783  -3.945  1.00  0.00     0.010 A 
ATOM     27  C   UNL     1      -6.738   6.227  -2.157  1.00  0.00     0.048 A 
ATOM     28  C   UNL     1      -6.070   4.854  -4.494  1.00  0.00     0.004 A 
ATOM     29  C   UNL     1      -7.614   5.297  -2.708  1.00  0.00     0.123 A 
ATOM     30  C   UNL     1      -7.288   4.603  -3.866  1.00  0.00     0.039 A 
ATOM     31  F   UNL     1      -8.787   5.062  -2.107  1.00  0.00    -0.207 F 
ENDBRANCH  24  25
ENDBRANCH  22  24
ENDBRANCH  14  15
ENDBRANCH   8  10
ENDBRANCH   5   8
ENDBRANCH   3   4
ENDBRANCH   2   3
ENDBRANCH   1   2
BRANCH   1  32
ATOM     32  C   UNL     1       5.949   0.939  -3.322  1.00  0.00     0.002 C 
BRANCH  32  33
ATOM     33  C   UNL     1       7.022   1.389  -2.326  1.00  0.00     0.021 C 
BRANCH  33  34
ATOM     34  C   UNL     1       7.975   0.294  -1.852  1.00  0.00     0.116 C 
BRANCH  34  35
ATOM     35  N   UNL     1       8.774  -0.257  -2.934  1.00  0.00    -0.352 N 
ATOM     36  C   UNL     1      10.108  -0.574  -2.943  1.00  0.00     0.251 C 
ATOM     37  H   UNL     1       8.291  -0.426  -3.775  1.00  0.00     0.163 HD
ATOM     38  O   UNL     1      10.653  -0.896  -4.002  1.00  0.00    -0.269 OA
BRANCH  36  39
ATOM     39  C   UNL     1      10.901  -0.506  -1.698  1.00  0.00     0.039 A 
ATOM     40  C   UNL     1      12.140   0.143  -1.722  1.00  0.00     0.014 A 
ATOM     41  C   UNL     1      10.441  -1.094  -0.515  1.00  0.00     0.014 A 
ATOM     42  C   UNL     1      12.892   0.252  -0.549  1.00  0.00     0.010 A 
ATOM     43  C   UNL     1      11.174  -0.952   0.663  1.00  0.00     0.010 A 
ATOM     44  C   UNL     1      12.404  -0.276   0.656  1.00  0.00    -0.014 A 
BRANCH  44  45
ATOM     45  C   UNL     1      13.164  -0.122   1.921  1.00  0.00     0.031 A 
ATOM     46  C   UNL     1      13.803  -1.316   2.573  1.00  0.00     0.074 A 
ATOM     47  C   UNL     1      13.223   1.082   2.521  1.00  0.00     0.049 A 
ATOM     48  N   UNL     1      14.441  -1.389   3.713  1.00  0.00    -0.248 NA
ATOM     49  C   UNL     1      13.693  -2.598   1.859  1.00  0.00     0.031 C 
ATOM     50  C   UNL     1      12.611   2.313   2.014  1.00  0.00     0.029 A 
ATOM     51  N   UNL     1      13.816   1.465   3.697  1.00  0.00    -0.354 N 
ATOM     52  C   UNL     1      14.785  -2.725   3.869  1.00  0.00     0.074 A 
ATOM     53  C   UNL     1      14.270  -3.431   2.715  1.00  0.00     0.031 C 
ATOM     54  C   UNL     1      12.869   3.315   2.870  1.00  0.00     0.029 A 
ATOM     55  C   UNL     1      13.643   2.796   3.994  1.00  0.00     0.049 A 
ATOM     56  H   UNL     1      14.319   0.846   4.274  1.00  0.00     0.167 HD
ATOM     57  C   UNL     1      15.473  -3.312   4.878  1.00  0.00     0.031 A 
ATOM     58  C   UNL     1      14.054   3.517   5.053  1.00  0.00     0.031 A 
ATOM     59  C   UNL     1      16.007  -2.613   6.015  1.00  0.00     0.049 A 
ATOM     60  C   UNL     1      14.853   2.854   6.138  1.00  0.00     0.074 A 
ATOM     61  C   UNL     1      16.762  -3.117   7.061  1.00  0.00     0.029 A 
ATOM     62  N   UNL     1      15.849  -1.257   6.253  1.00  0.00    -0.354 N 
ATOM     63  N   UNL     1      15.205   1.596   6.245  1.00  0.00    -0.248 NA
ATOM     64  C   UNL     1      15.317   3.711   7.238  1.00  0.00     0.031 C 
ATOM     65  C   UNL     1      17.043  -2.067   7.943  1.00  0.00     0.029 A 
ATOM     66  C   UNL     1      16.485  -0.907   7.432  1.00  0.00     0.049 A 
ATOM     67  H   UNL     1      15.357  -0.635   5.670  1.00  0.00     0.167 HD
ATOM     68  C   UNL     1      15.945   1.512   7.418  1.00  0.00     0.074 A 
ATOM     69  C   UNL     1      15.998   2.846   7.980  1.00  0.00     0.031 C 
ATOM     70  C   UNL     1      16.529   0.424   7.978  1.00  0.00     0.031 A 
BRANCH  57  71
ATOM     71  C   UNL     1      15.673  -4.799   4.793  1.00  0.00    -0.014 A 
ATOM     72  C   UNL     1      16.629  -5.350   3.921  1.00  0.00     0.010 A 
ATOM     73  C   UNL     1      14.905  -5.654   5.603  1.00  0.00     0.010 A 
ATOM     74  C   UNL     1      16.782  -6.735   3.828  1.00  0.00     0.020 A 
ATOM     75  C   UNL     1      15.068  -7.039   5.526  1.00  0.00     0.020 A 
ATOM     76  C   UNL     1      15.992  -7.572   4.622  1.00  0.00     0.054 A 
BRANCH  76  77
ATOM     77  S   UNL     1      16.201  -9.369   4.489  1.00  0.00     0.124 S 
ATOM     78  O   UNL     1      15.392  -9.677   3.312  1.00  0.00    -0.237 OA
ATOM     79  O   UNL     1      17.644  -9.519   4.315  1.00  0.00    -0.237 OA
ATOM     80  O   UNL     1      15.676  -9.870   5.757  1.00  0.00    -0.744 OA
ENDBRANCH  76  77
ENDBRANCH  57  71
BRANCH  58  81
ATOM     81  C   UNL     1      13.728   4.964   5.124  1.00  0.00    -0.014 A 
ATOM     82  C   UNL     1      14.696   5.924   4.785  1.00  0.00     0.010 A 
ATOM     83  C   UNL     1      12.438   5.383   5.492  1.00  0.00     0.010 A 
ATOM     84  C   UNL     1      14.379   7.285   4.815  1.00  0.00     0.020 A 
ATOM     85  C   UNL     1      12.114   6.742   5.508  1.00  0.00     0.020 A 
ATOM     86  C   UNL     1      13.089   7.685   5.175  1.00  0.00     0.054 A 
BRANCH  86  87
ATOM     87  S   UNL     1      12.666   9.450   5.130  1.00  0.00     0.124 S 
ATOM     88  O   UNL     1      13.149   9.910   6.428  1.00  0.00    -0.237 OA
ATOM     89  O   UNL     1      13.411   9.931   3.969  1.00  0.00    -0.237 OA
ATOM     90  O   UNL     1      11.213   9.441   4.965  1.00  0.00    -0.744 OA
ENDBRANCH  86  87
ENDBRANCH  58  81
BRANCH  70  91
ATOM     91  C   UNL     1      17.290   0.636   9.255  1.00  0.00    -0.014 A 
ATOM     92  C   UNL     1      16.618   0.746  10.484  1.00  0.00     0.010 A 
ATOM     93  C   UNL     1      18.695   0.677   9.229  1.00  0.00     0.010 A 
ATOM     94  C   UNL     1      17.340   0.917  11.668  1.00  0.00     0.020 A 
ATOM     95  C   UNL     1      19.420   0.834  10.413  1.00  0.00     0.020 A 
ATOM     96  C   UNL     1      18.737   0.966  11.624  1.00  0.00     0.054 A 
BRANCH  96  97
ATOM     97  S   UNL     1      19.663   1.143  13.175  1.00  0.00     0.124 S 
ATOM     98  O   UNL     1      19.612   2.585  13.394  1.00  0.00    -0.237 OA
ATOM     99  O   UNL     1      18.887   0.336  14.114  1.00  0.00    -0.237 OA
ATOM    100  O   UNL     1      20.982   0.606  12.847  1.00  0.00    -0.744 OA
ENDBRANCH  96  97
ENDBRANCH  70  91
ENDBRANCH  44  45
ENDBRANCH  36  39
ENDBRANCH  34  35
ENDBRANCH  33  34
ENDBRANCH  32  33
ENDBRANCH   1  32
TORSDOF 20
