REMARK SMILES CCCc1cc(OC(F)(F)F)cc2c1O[C@H](C(F)(F)F)C(C(=O)NCCCCCCNC(=O)c1ccc(-c3c4nc(c(-c5ccc(S(=O)(=O)[O-])cc5)c5ccc([nH]5)c(-c5ccc(S(=O)(=O)[O-])cc5)c5nc(c(-c6ccc(S(=O)(=O)[O-])cc6)c6ccc3[nH]6)C=C5)C=C4)cc1)=C2
REMARK SMILES IDX 28 1 27 2 26 3 25 4 24 5 22 6 23 7 21 9 4 10 5 11 14 12 6 13
REMARK SMILES IDX 13 14 15 15 12 16 94 17 16 18 3 19 2 20 1 21 7 22 8 23 9 24
REMARK SMILES IDX 10 25 11 26 17 27 18 28 19 29 20 30 29 31 30 32 31 33 32 34
REMARK SMILES IDX 33 36 34 37 35 38 93 39 36 40 92 41 37 42 38 43 39 44 86 45
REMARK SMILES IDX 40 46 91 47 85 48 87 49 41 50 90 51 84 52 83 53 42 55 72 56
REMARK SMILES IDX 53 57 71 58 54 59 57 60 70 61 88 62 55 63 56 64 69 66 89 67
REMARK SMILES IDX 58 68 43 69 44 70 52 71 45 72 51 73 46 74 47 75 48 76 49 77
REMARK SMILES IDX 50 78 73 79 74 80 82 81 75 82 81 83 76 84 77 85 78 86 79 87
REMARK SMILES IDX 80 88 59 89 60 90 68 91 61 92 67 93 62 94 63 95 64 96 65 97
REMARK SMILES IDX 66 98
REMARK H PARENT 24 8 31 35 87 54 57 65
REMARK Flexibility Score: inf
ROOT
ATOM      1  C   UNL     1      -2.408   2.340  11.478  1.00  0.00     0.002 C 
ENDROOT
BRANCH   1   2
ATOM      2  C   UNL     1      -3.317   1.950  10.305  1.00  0.00     0.002 C 
BRANCH   2   3
ATOM      3  C   UNL     1      -2.605   1.875   8.948  1.00  0.00     0.021 C 
BRANCH   3   4
ATOM      4  C   UNL     1      -1.523   0.792   8.911  1.00  0.00     0.116 C 
BRANCH   4   5
ATOM      5  N   UNL     1      -2.130  -0.493   8.619  1.00  0.00    -0.352 N 
ATOM      6  C   UNL     1      -2.310  -1.180   7.464  1.00  0.00     0.251 C 
ATOM      7  O   UNL     1      -2.937  -2.238   7.514  1.00  0.00    -0.270 OA
ATOM      8  H   UNL     1      -2.480  -0.956   9.414  1.00  0.00     0.163 HD
BRANCH   6   9
ATOM      9  C   UNL     1      -1.676  -0.781   6.178  1.00  0.00     0.067 C 
ATOM     10  C   UNL     1       0.756  -0.326   2.785  1.00  0.00    -0.002 A 
ATOM     11  C   UNL     1       1.231   0.963   2.480  1.00  0.00     0.054 A 
ATOM     12  C   UNL     1      -0.116  -0.483   3.873  1.00  0.00     0.131 A 
ATOM     13  C   UNL     1       0.787   2.083   3.179  1.00  0.00     0.130 A 
ATOM     14  C   UNL     1      -0.540   0.632   4.603  1.00  0.00     0.021 A 
ATOM     15  O   UNL     1      -0.452  -1.758   4.234  1.00  0.00    -0.475 OA
ATOM     16  C   UNL     1      -0.097   1.910   4.243  1.00  0.00     0.058 A 
ATOM     17  C   UNL     1      -1.335   0.460   5.811  1.00  0.00     0.025 C 
ATOM     18  C   UNL     1      -1.522  -1.929   5.198  1.00  0.00     0.314 C 
BRANCH  10  19
ATOM     19  C   UNL     1       1.203  -1.491   1.928  1.00  0.00     0.039 C 
BRANCH  19  20
ATOM     20  C   UNL     1       0.509  -1.559   0.559  1.00  0.00     0.001 C 
ATOM     21  C   UNL     1       0.898  -0.442  -0.403  1.00  0.00     0.004 C 
ENDBRANCH  19  20
ENDBRANCH  10  19
BRANCH  13  22
ATOM     22  O   UNL     1       1.156   3.375   2.943  1.00  0.00    -0.406 OA
BRANCH  22  23
ATOM     23  C   UNL     1       1.770   3.656   1.695  1.00  0.00     0.573 C 
ATOM     24  F   UNL     1       3.004   3.111   1.629  1.00  0.00    -0.132 F 
ATOM     25  F   UNL     1       1.022   3.194   0.668  1.00  0.00    -0.132 F 
ATOM     26  F   UNL     1       1.890   4.994   1.558  1.00  0.00    -0.132 F 
ENDBRANCH  22  23
ENDBRANCH  13  22
BRANCH  18  27
ATOM     27  C   UNL     1      -2.855  -2.244   4.478  1.00  0.00     0.429 C 
ATOM     28  F   UNL     1      -3.767  -1.248   4.595  1.00  0.00    -0.167 F 
ATOM     29  F   UNL     1      -2.673  -2.439   3.146  1.00  0.00    -0.167 F 
ATOM     30  F   UNL     1      -3.428  -3.377   4.950  1.00  0.00    -0.167 F 
ENDBRANCH  18  27
ENDBRANCH   6   9
ENDBRANCH   4   5
ENDBRANCH   3   4
ENDBRANCH   2   3
ENDBRANCH   1   2
BRANCH   1  31
ATOM     31  C   UNL     1      -1.645   3.652  11.283  1.00  0.00     0.021 C 
BRANCH  31  32
ATOM     32  C   UNL     1      -2.548   4.871  11.149  1.00  0.00     0.116 C 
BRANCH  32  33
ATOM     33  N   UNL     1      -3.274   5.128  12.385  1.00  0.00    -0.352 N 
ATOM     34  C   UNL     1      -3.277   6.265  13.155  1.00  0.00     0.251 C 
ATOM     35  H   UNL     1      -3.837   4.389  12.711  1.00  0.00     0.163 HD
ATOM     36  O   UNL     1      -3.725   6.244  14.293  1.00  0.00    -0.269 OA
BRANCH  34  37
ATOM     37  C   UNL     1      -2.723   7.510  12.586  1.00  0.00     0.039 A 
ATOM     38  C   UNL     1      -1.845   8.285  13.348  1.00  0.00     0.014 A 
ATOM     39  C   UNL     1      -3.070   7.896  11.289  1.00  0.00     0.014 A 
ATOM     40  C   UNL     1      -1.273   9.428  12.785  1.00  0.00     0.010 A 
ATOM     41  C   UNL     1      -2.441   8.988  10.706  1.00  0.00     0.010 A 
ATOM     42  C   UNL     1      -1.548   9.773  11.452  1.00  0.00    -0.014 A 
BRANCH  42  43
ATOM     43  C   UNL     1      -0.959  10.974  10.810  1.00  0.00     0.031 A 
ATOM     44  C   UNL     1      -1.870  12.075  10.339  1.00  0.00     0.074 A 
ATOM     45  C   UNL     1       0.365  11.032  10.565  1.00  0.00     0.049 A 
ATOM     46  N   UNL     1      -1.589  13.128   9.617  1.00  0.00    -0.248 NA
ATOM     47  C   UNL     1      -3.293  11.958  10.702  1.00  0.00     0.031 C 
ATOM     48  C   UNL     1       1.347  10.019  10.958  1.00  0.00     0.029 A 
ATOM     49  N   UNL     1       1.109  11.978   9.907  1.00  0.00    -0.354 N 
ATOM     50  C   UNL     1      -2.800  13.778   9.413  1.00  0.00     0.074 A 
ATOM     51  C   UNL     1      -3.824  12.978  10.046  1.00  0.00     0.031 C 
ATOM     52  C   UNL     1       2.565  10.405  10.544  1.00  0.00     0.029 A 
ATOM     53  C   UNL     1       2.445  11.663   9.812  1.00  0.00     0.049 A 
ATOM     54  H   UNL     1       0.724  12.805   9.537  1.00  0.00     0.167 HD
ATOM     55  C   UNL     1      -3.036  14.946   8.770  1.00  0.00     0.031 A 
ATOM     56  C   UNL     1       3.454  12.303   9.190  1.00  0.00     0.031 A 
ATOM     57  C   UNL     1      -2.008  15.743   8.159  1.00  0.00     0.049 A 
ATOM     58  C   UNL     1       3.166  13.590   8.461  1.00  0.00     0.074 A 
ATOM     59  C   UNL     1      -2.133  16.966   7.525  1.00  0.00     0.029 A 
ATOM     60  N   UNL     1      -0.665  15.398   8.108  1.00  0.00    -0.354 N 
ATOM     61  N   UNL     1       2.021  14.213   8.315  1.00  0.00    -0.248 NA
ATOM     62  C   UNL     1       4.304  14.265   7.822  1.00  0.00     0.031 C 
ATOM     63  C   UNL     1      -0.875  17.334   7.041  1.00  0.00     0.029 A 
ATOM     64  C   UNL     1       0.046  16.377   7.437  1.00  0.00     0.049 A 
ATOM     65  H   UNL     1      -0.277  14.579   8.492  1.00  0.00     0.167 HD
ATOM     66  C   UNL     1       2.310  15.376   7.608  1.00  0.00     0.074 A 
ATOM     67  C   UNL     1       3.735  15.367   7.352  1.00  0.00     0.031 C 
ATOM     68  C   UNL     1       1.470  16.365   7.215  1.00  0.00     0.031 A 
BRANCH  55  69
ATOM     69  C   UNL     1      -4.462  15.423   8.686  1.00  0.00    -0.014 A 
ATOM     70  C   UNL     1      -5.157  15.854   9.831  1.00  0.00     0.010 A 
ATOM     71  C   UNL     1      -5.105  15.478   7.436  1.00  0.00     0.010 A 
ATOM     72  C   UNL     1      -6.481  16.287   9.735  1.00  0.00     0.020 A 
ATOM     73  C   UNL     1      -6.420  15.942   7.330  1.00  0.00     0.020 A 
ATOM     74  C   UNL     1      -7.105  16.326   8.484  1.00  0.00     0.054 A 
BRANCH  74  75
ATOM     75  S   UNL     1      -8.818  16.913   8.388  1.00  0.00     0.124 S 
ATOM     76  O   UNL     1      -9.550  15.805   8.997  1.00  0.00    -0.237 OA
ATOM     77  O   UNL     1      -8.778  18.145   9.171  1.00  0.00    -0.237 OA
ATOM     78  O   UNL     1      -9.043  17.094   6.956  1.00  0.00    -0.744 OA
ENDBRANCH  74  75
ENDBRANCH  55  69
BRANCH  56  79
ATOM     79  C   UNL     1       4.833  11.742   9.235  1.00  0.00    -0.014 A 
ATOM     80  C   UNL     1       5.843  12.387   9.970  1.00  0.00     0.010 A 
ATOM     81  C   UNL     1       5.142  10.550   8.553  1.00  0.00     0.010 A 
ATOM     82  C   UNL     1       7.139  11.865  10.006  1.00  0.00     0.020 A 
ATOM     83  C   UNL     1       6.429  10.008   8.611  1.00  0.00     0.020 A 
ATOM     84  C   UNL     1       7.423  10.676   9.328  1.00  0.00     0.054 A 
BRANCH  84  85
ATOM     85  S   UNL     1       9.101   9.992   9.428  1.00  0.00     0.124 S 
ATOM     86  O   UNL     1       9.859  10.928   8.603  1.00  0.00    -0.237 OA
ATOM     87  O   UNL     1       9.376  10.044  10.861  1.00  0.00    -0.237 OA
ATOM     88  O   UNL     1       8.955   8.647   8.877  1.00  0.00    -0.744 OA
ENDBRANCH  84  85
ENDBRANCH  56  79
BRANCH  68  89
ATOM     89  C   UNL     1       2.064  17.567   6.531  1.00  0.00    -0.014 A 
ATOM     90  C   UNL     1       2.510  17.512   5.200  1.00  0.00     0.010 A 
ATOM     91  C   UNL     1       2.062  18.803   7.206  1.00  0.00     0.010 A 
ATOM     92  C   UNL     1       2.948  18.674   4.557  1.00  0.00     0.020 A 
ATOM     93  C   UNL     1       2.473  19.969   6.558  1.00  0.00     0.020 A 
ATOM     94  C   UNL     1       2.917  19.896   5.237  1.00  0.00     0.054 A 
BRANCH  94  95
ATOM     95  S   UNL     1       3.400  21.402   4.349  1.00  0.00     0.124 S 
ATOM     96  O   UNL     1       4.846  21.236   4.232  1.00  0.00    -0.237 OA
ATOM     97  O   UNL     1       2.651  21.290   3.100  1.00  0.00    -0.237 OA
ATOM     98  O   UNL     1       2.967  22.482   5.233  1.00  0.00    -0.744 OA
ENDBRANCH  94  95
ENDBRANCH  68  89
ENDBRANCH  42  43
ENDBRANCH  34  37
ENDBRANCH  32  33
ENDBRANCH  31  32
ENDBRANCH   1  31
TORSDOF 21
