REMARK SMILES CCn1c(N2CCC[C@H](C(=O)NCCCCCCNC(=O)c3ccc(-c4c5nc(c(-c6ccc(S(=O)(=O)[O-])cc6)c6ccc([nH]6)c(-c6ccc(S(=O)(=O)[O-])cc6)c6nc(c(-c7ccc(S(=O)(=O)[O-])cc7)c7ccc4[nH]7)C=C6)C=C5)cc3)C2)nc2cc(C)ccc21
REMARK SMILES IDX 16 1 15 2 14 3 13 4 12 5 10 6 11 7 9 9 5 10 6 11 82 12 7 13
REMARK SMILES IDX 8 14 4 15 3 16 90 17 83 18 84 19 89 20 85 21 88 22 86 23
REMARK SMILES IDX 87 24 2 25 1 26 17 27 18 28 19 29 20 30 21 32 22 33 23 34
REMARK SMILES IDX 81 35 24 36 80 37 25 38 26 39 27 40 74 41 28 42 79 43 73 44
REMARK SMILES IDX 75 45 29 46 78 47 72 48 71 49 30 51 60 52 41 53 59 54 42 55
REMARK SMILES IDX 45 56 58 57 76 58 43 59 44 60 57 62 77 63 46 64 31 65 32 66
REMARK SMILES IDX 40 67 33 68 39 69 34 70 35 71 36 72 37 73 38 74 61 75 62 76
REMARK SMILES IDX 70 77 63 78 69 79 64 80 65 81 66 82 67 83 68 84 47 85 48 86
REMARK SMILES IDX 56 87 49 88 55 89 50 90 51 91 52 92 53 93 54 94
REMARK H PARENT 12 8 19 31 75 50 45 61
REMARK Flexibility Score: inf
ROOT
ATOM      1  C   UNL     1       2.123   4.120   6.278  1.00  0.00     0.002 C 
ENDROOT
BRANCH   1   2
ATOM      2  C   UNL     1       1.178   5.274   5.911  1.00  0.00     0.002 C 
BRANCH   2   3
ATOM      3  C   UNL     1       0.720   5.307   4.454  1.00  0.00     0.021 C 
BRANCH   3   4
ATOM      4  C   UNL     1      -0.033   4.054   4.026  1.00  0.00     0.116 C 
BRANCH   4   5
ATOM      5  N   UNL     1      -1.454   4.228   3.853  1.00  0.00    -0.356 N 
ATOM      6  C   UNL     1      -2.240   3.778   2.840  1.00  0.00     0.224 C 
ATOM      7  O   UNL     1      -3.451   3.677   3.082  1.00  0.00    -0.275 OA
ATOM      8  H   UNL     1      -1.914   4.739   4.558  1.00  0.00     0.163 HD
BRANCH   6   9
ATOM      9  C   UNL     1      -1.733   3.451   1.427  1.00  0.00     0.098 C 
ATOM     10  N   UNL     1       0.385   2.143   1.384  1.00  0.00    -0.341 N 
ATOM     11  C   UNL     1       1.145   3.170   0.680  1.00  0.00     0.119 C 
ATOM     12  C   UNL     1      -1.063   2.093   1.251  1.00  0.00     0.133 C 
ATOM     13  C   UNL     1       0.497   4.558   0.719  1.00  0.00     0.022 C 
ATOM     14  C   UNL     1      -1.028   4.588   0.690  1.00  0.00     0.017 C 
BRANCH  10  15
ATOM     15  C   UNL     1       1.009   1.309   2.262  1.00  0.00     0.206 A 
ATOM     16  N   UNL     1       1.044  -0.064   2.107  1.00  0.00    -0.310 N 
ATOM     17  C   UNL     1       1.572  -0.609   3.259  1.00  0.00     0.070 A 
ATOM     18  N   UNL     1       1.592   1.661   3.386  1.00  0.00    -0.213 NA
ATOM     19  C   UNL     1       1.869   0.492   4.052  1.00  0.00     0.091 A 
ATOM     20  C   UNL     1       1.812  -1.921   3.689  1.00  0.00     0.029 A 
ATOM     21  C   UNL     1       2.364   0.294   5.353  1.00  0.00     0.034 A 
ATOM     22  C   UNL     1       2.321  -2.097   4.983  1.00  0.00     0.006 A 
ATOM     23  C   UNL     1       2.580  -1.011   5.825  1.00  0.00    -0.049 A 
ATOM     24  C   UNL     1       3.073  -1.231   7.226  1.00  0.00     0.044 C 
BRANCH  16  25
ATOM     25  C   UNL     1       0.579  -0.825   0.965  1.00  0.00     0.122 C 
ATOM     26  C   UNL     1       1.202  -0.414  -0.360  1.00  0.00     0.028 C 
ENDBRANCH  16  25
ENDBRANCH  10  15
ENDBRANCH   6   9
ENDBRANCH   4   5
ENDBRANCH   3   4
ENDBRANCH   2   3
ENDBRANCH   1   2
BRANCH   1  27
ATOM     27  C   UNL     1       3.424   4.013   5.469  1.00  0.00     0.021 C 
BRANCH  27  28
ATOM     28  C   UNL     1       4.264   5.287   5.443  1.00  0.00     0.116 C 
BRANCH  28  29
ATOM     29  N   UNL     1       4.480   5.863   6.752  1.00  0.00    -0.352 N 
ATOM     30  C   UNL     1       5.363   5.674   7.780  1.00  0.00     0.251 C 
ATOM     31  H   UNL     1       3.825   6.570   6.955  1.00  0.00     0.163 HD
ATOM     32  O   UNL     1       5.219   6.408   8.747  1.00  0.00    -0.269 OA
BRANCH  30  33
ATOM     33  C   UNL     1       6.414   4.619   7.824  1.00  0.00     0.039 A 
ATOM     34  C   UNL     1       6.769   3.764   6.782  1.00  0.00     0.014 A 
ATOM     35  C   UNL     1       7.053   4.466   9.071  1.00  0.00     0.014 A 
ATOM     36  C   UNL     1       7.643   2.705   7.016  1.00  0.00     0.010 A 
ATOM     37  C   UNL     1       7.941   3.426   9.303  1.00  0.00     0.010 A 
ATOM     38  C   UNL     1       8.184   2.509   8.291  1.00  0.00    -0.014 A 
BRANCH  38  39
ATOM     39  C   UNL     1       9.092   1.386   8.496  1.00  0.00     0.031 A 
ATOM     40  C   UNL     1      10.323   1.437   7.660  1.00  0.00     0.074 A 
ATOM     41  C   UNL     1       8.893   0.428   9.426  1.00  0.00     0.049 A 
ATOM     42  N   UNL     1      10.679   0.617   6.728  1.00  0.00    -0.248 NA
ATOM     43  C   UNL     1      11.191   2.620   7.778  1.00  0.00     0.031 C 
ATOM     44  C   UNL     1       7.880   0.380  10.484  1.00  0.00     0.029 A 
ATOM     45  N   UNL     1       9.639  -0.683   9.680  1.00  0.00    -0.354 N 
ATOM     46  C   UNL     1      11.907   1.073   6.257  1.00  0.00     0.074 A 
ATOM     47  C   UNL     1      12.100   2.380   6.832  1.00  0.00     0.031 C 
ATOM     48  C   UNL     1       8.229  -0.555  11.400  1.00  0.00     0.029 A 
ATOM     49  C   UNL     1       9.391  -1.278  10.913  1.00  0.00     0.049 A 
ATOM     50  H   UNL     1      10.299  -1.038   9.042  1.00  0.00     0.167 HD
ATOM     51  C   UNL     1      12.764   0.259   5.580  1.00  0.00     0.031 A 
ATOM     52  C   UNL     1      10.120  -2.260  11.508  1.00  0.00     0.031 A 
ATOM     53  C   UNL     1      12.102  -0.922   5.095  1.00  0.00     0.049 A 
ATOM     54  C   UNL     1      10.883  -2.938  10.431  1.00  0.00     0.074 A 
ATOM     55  C   UNL     1      11.085  -1.155   4.192  1.00  0.00     0.029 A 
ATOM     56  N   UNL     1      12.209  -2.062   5.855  1.00  0.00    -0.354 N 
ATOM     57  N   UNL     1      10.321  -3.630   9.479  1.00  0.00    -0.248 NA
ATOM     58  C   UNL     1      12.225  -2.455  10.151  1.00  0.00     0.031 C 
ATOM     59  C   UNL     1      10.320  -2.206   4.771  1.00  0.00     0.029 A 
ATOM     60  C   UNL     1      10.958  -2.616   5.945  1.00  0.00     0.049 A 
ATOM     61  H   UNL     1      13.034  -2.417   6.260  1.00  0.00     0.167 HD
ATOM     62  C   UNL     1      11.037  -3.300   8.338  1.00  0.00     0.074 A 
ATOM     63  C   UNL     1      12.244  -2.631   8.827  1.00  0.00     0.031 C 
ATOM     64  C   UNL     1      10.467  -3.347   7.098  1.00  0.00     0.031 A 
BRANCH  51  65
ATOM     65  C   UNL     1      14.265   0.371   5.646  1.00  0.00    -0.014 A 
ATOM     66  C   UNL     1      14.937   1.153   6.607  1.00  0.00     0.010 A 
ATOM     67  C   UNL     1      15.053  -0.521   4.888  1.00  0.00     0.010 A 
ATOM     68  C   UNL     1      16.317   1.068   6.800  1.00  0.00     0.020 A 
ATOM     69  C   UNL     1      16.434  -0.645   5.102  1.00  0.00     0.020 A 
ATOM     70  C   UNL     1      17.057   0.159   6.053  1.00  0.00     0.054 A 
BRANCH  70  71
ATOM     71  S   UNL     1      18.827   0.018   6.394  1.00  0.00     0.124 S 
ATOM     72  O   UNL     1      19.323   1.314   5.940  1.00  0.00    -0.237 OA
ATOM     73  O   UNL     1      18.851  -0.197   7.838  1.00  0.00    -0.237 OA
ATOM     74  O   UNL     1      19.242  -1.127   5.588  1.00  0.00    -0.744 OA
ENDBRANCH  70  71
ENDBRANCH  51  65
BRANCH  52  75
ATOM     75  C   UNL     1      10.565  -2.312  12.930  1.00  0.00    -0.014 A 
ATOM     76  C   UNL     1      10.704  -1.115  13.662  1.00  0.00     0.010 A 
ATOM     77  C   UNL     1      11.164  -3.474  13.460  1.00  0.00     0.010 A 
ATOM     78  C   UNL     1      11.478  -1.057  14.827  1.00  0.00     0.020 A 
ATOM     79  C   UNL     1      11.942  -3.424  14.633  1.00  0.00     0.020 A 
ATOM     80  C   UNL     1      12.125  -2.204  15.286  1.00  0.00     0.054 A 
BRANCH  80  81
ATOM     81  S   UNL     1      13.274  -2.041  16.686  1.00  0.00     0.124 S 
ATOM     82  O   UNL     1      14.345  -1.233  16.108  1.00  0.00    -0.237 OA
ATOM     83  O   UNL     1      12.455  -1.367  17.690  1.00  0.00    -0.237 OA
ATOM     84  O   UNL     1      13.633  -3.420  17.005  1.00  0.00    -0.744 OA
ENDBRANCH  80  81
ENDBRANCH  52  75
BRANCH  64  85
ATOM     85  C   UNL     1       9.109  -4.000   6.926  1.00  0.00    -0.014 A 
ATOM     86  C   UNL     1       8.992  -4.963   5.906  1.00  0.00     0.010 A 
ATOM     87  C   UNL     1       7.931  -3.547   7.554  1.00  0.00     0.010 A 
ATOM     88  C   UNL     1       7.744  -5.423   5.485  1.00  0.00     0.020 A 
ATOM     89  C   UNL     1       6.671  -4.030   7.154  1.00  0.00     0.020 A 
ATOM     90  C   UNL     1       6.587  -4.944   6.100  1.00  0.00     0.054 A 
BRANCH  90  91
ATOM     91  S   UNL     1       4.988  -5.532   5.476  1.00  0.00     0.124 S 
ATOM     92  O   UNL     1       4.892  -4.869   4.177  1.00  0.00    -0.237 OA
ATOM     93  O   UNL     1       5.174  -6.980   5.420  1.00  0.00    -0.237 OA
ATOM     94  O   UNL     1       4.024  -5.073   6.473  1.00  0.00    -0.744 OA
ENDBRANCH  90  91
ENDBRANCH  64  85
ENDBRANCH  38  39
ENDBRANCH  30  33
ENDBRANCH  28  29
ENDBRANCH  27  28
ENDBRANCH   1  27
TORSDOF 18
