REMARK SMILES O=C(NCCCCCCNC(=O)[C@@H]1CCCC[C@H]1C(=O)Nc1ccc(NC(=O)c2ccco2)cc1)c1ccc(-c2c3nc(c(-c4ccc(S(=O)(=O)[O-])cc4)c4ccc([nH]4)c(-c4ccc(S(=O)(=O)[O-])cc4)c4nc(c(-c5ccc(S(=O)(=O)[O-])cc5)c5ccc2[nH]5)C=C4)C=C3)cc1
REMARK SMILES IDX 7 1 6 2 5 3 4 4 3 5 1 6 2 7 36 9 37 10 95 11 38 12 94 13
REMARK SMILES IDX 39 14 40 15 41 16 88 17 42 18 93 19 87 20 89 21 43 22 92 23
REMARK SMILES IDX 86 24 85 25 44 27 74 28 55 29 73 30 56 31 59 32 72 33 90 34
REMARK SMILES IDX 57 35 58 36 71 38 91 39 60 40 45 41 46 42 54 43 47 44 53 45
REMARK SMILES IDX 48 46 49 47 50 48 51 49 52 50 75 51 76 52 84 53 77 54 83 55
REMARK SMILES IDX 78 56 79 57 80 58 81 59 82 60 61 61 62 62 70 63 63 64 69 65
REMARK SMILES IDX 64 66 65 67 66 68 67 69 68 70 8 71 9 72 10 73 11 74 12 76
REMARK SMILES IDX 13 77 14 78 18 79 15 80 17 81 16 82 19 83 20 84 21 85 22 87
REMARK SMILES IDX 23 88 35 89 24 90 34 91 25 92 26 93 27 94 28 96 29 97 30 98
REMARK SMILES IDX 33 99 31 100 32 101
REMARK H PARENT 3 8 89 26 59 37 10 75 21 86 26 95
REMARK Flexibility Score: inf
ROOT
ATOM      1  C   UNL     1       4.849   4.250  -0.185  1.00  0.00     0.002 C 
ENDROOT
BRANCH   1   2
ATOM      2  C   UNL     1       4.057   3.564  -1.302  1.00  0.00     0.002 C 
BRANCH   2   3
ATOM      3  C   UNL     1       4.479   2.122  -1.587  1.00  0.00     0.021 C 
BRANCH   3   4
ATOM      4  C   UNL     1       4.393   1.201  -0.376  1.00  0.00     0.116 C 
BRANCH   4   5
ATOM      5  N   UNL     1       3.016   0.994   0.039  1.00  0.00    -0.352 N 
ATOM      6  O   UNL     1       1.101  -0.180   0.259  1.00  0.00    -0.269 OA
ATOM      7  C   UNL     1       2.322  -0.186   0.131  1.00  0.00     0.251 C 
ATOM      8  H   UNL     1       2.516   1.805   0.287  1.00  0.00     0.163 HD
BRANCH   7   9
ATOM      9  C   UNL     1       3.061  -1.464   0.065  1.00  0.00     0.039 A 
ATOM     10  C   UNL     1       4.234  -1.635   0.807  1.00  0.00     0.014 A 
ATOM     11  C   UNL     1       2.575  -2.499  -0.737  1.00  0.00     0.014 A 
ATOM     12  C   UNL     1       4.978  -2.798   0.662  1.00  0.00     0.010 A 
ATOM     13  C   UNL     1       3.284  -3.700  -0.818  1.00  0.00     0.010 A 
ATOM     14  C   UNL     1       4.498  -3.853  -0.131  1.00  0.00    -0.014 A 
BRANCH  14  15
ATOM     15  C   UNL     1       5.238  -5.139  -0.150  1.00  0.00     0.031 A 
ATOM     16  C   UNL     1       5.888  -5.649  -1.404  1.00  0.00     0.074 A 
ATOM     17  C   UNL     1       5.329  -5.838   0.999  1.00  0.00     0.049 A 
ATOM     18  N   UNL     1       6.579  -6.746  -1.580  1.00  0.00    -0.248 NA
ATOM     19  C   UNL     1       5.742  -4.830  -2.618  1.00  0.00     0.031 C 
ATOM     20  C   UNL     1       4.729  -5.441   2.277  1.00  0.00     0.029 A 
ATOM     21  N   UNL     1       5.969  -7.015   1.287  1.00  0.00    -0.354 N 
ATOM     22  C   UNL     1       6.935  -6.762  -2.923  1.00  0.00     0.074 A 
ATOM     23  C   UNL     1       6.367  -5.573  -3.523  1.00  0.00     0.031 C 
ATOM     24  C   UNL     1       5.068  -6.332   3.219  1.00  0.00     0.029 A 
ATOM     25  C   UNL     1       5.850  -7.396   2.602  1.00  0.00     0.049 A 
ATOM     26  H   UNL     1       6.466  -7.537   0.617  1.00  0.00     0.167 HD
ATOM     27  C   UNL     1       7.670  -7.684  -3.591  1.00  0.00     0.031 A 
ATOM     28  C   UNL     1       6.301  -8.491   3.243  1.00  0.00     0.031 A 
ATOM     29  C   UNL     1       8.227  -8.867  -2.985  1.00  0.00     0.049 A 
ATOM     30  C   UNL     1       7.087  -9.509   2.471  1.00  0.00     0.074 A 
ATOM     31  C   UNL     1       9.008  -9.848  -3.572  1.00  0.00     0.029 A 
ATOM     32  N   UNL     1       8.058  -9.233  -1.658  1.00  0.00    -0.354 N 
ATOM     33  N   UNL     1       7.439  -9.489   1.207  1.00  0.00    -0.248 NA
ATOM     34  C   UNL     1       7.537 -10.695   3.208  1.00  0.00     0.031 C 
ATOM     35  C   UNL     1       9.269 -10.832  -2.612  1.00  0.00     0.029 A 
ATOM     36  C   UNL     1       8.700 -10.435  -1.412  1.00  0.00     0.049 A 
ATOM     37  H   UNL     1       7.556  -8.714  -0.988  1.00  0.00     0.167 HD
ATOM     38  C   UNL     1       8.168 -10.653   1.002  1.00  0.00     0.074 A 
ATOM     39  C   UNL     1       8.223 -11.343   2.276  1.00  0.00     0.031 C 
ATOM     40  C   UNL     1       8.739 -11.110  -0.139  1.00  0.00     0.031 A 
BRANCH  27  41
ATOM     41  C   UNL     1       7.895  -7.468  -5.066  1.00  0.00    -0.014 A 
ATOM     42  C   UNL     1       8.767  -6.469  -5.531  1.00  0.00     0.010 A 
ATOM     43  C   UNL     1       7.268  -8.316  -5.997  1.00  0.00     0.010 A 
ATOM     44  C   UNL     1       8.981  -6.299  -6.903  1.00  0.00     0.020 A 
ATOM     45  C   UNL     1       7.498  -8.165  -7.368  1.00  0.00     0.020 A 
ATOM     46  C   UNL     1       8.342  -7.146  -7.813  1.00  0.00     0.054 A 
BRANCH  46  47
ATOM     47  S   UNL     1       8.656  -6.917  -9.585  1.00  0.00     0.124 S 
ATOM     48  O   UNL     1       7.908  -5.693  -9.866  1.00  0.00    -0.237 OA
ATOM     49  O   UNL     1      10.110  -6.789  -9.639  1.00  0.00    -0.237 OA
ATOM     50  O   UNL     1       8.116  -8.130 -10.194  1.00  0.00    -0.744 OA
ENDBRANCH  46  47
ENDBRANCH  27  41
BRANCH  28  51
ATOM     51  C   UNL     1       5.999  -8.676   4.687  1.00  0.00    -0.014 A 
ATOM     52  C   UNL     1       7.017  -8.578   5.651  1.00  0.00     0.010 A 
ATOM     53  C   UNL     1       4.678  -8.921   5.107  1.00  0.00     0.010 A 
ATOM     54  C   UNL     1       6.722  -8.736   7.008  1.00  0.00     0.020 A 
ATOM     55  C   UNL     1       4.375  -9.049   6.464  1.00  0.00     0.020 A 
ATOM     56  C   UNL     1       5.402  -8.968   7.406  1.00  0.00     0.054 A 
BRANCH  56  57
ATOM     57  S   UNL     1       5.032  -9.116   9.175  1.00  0.00     0.124 S 
ATOM     58  O   UNL     1       5.530 -10.454   9.477  1.00  0.00    -0.237 OA
ATOM     59  O   UNL     1       5.794  -8.011   9.751  1.00  0.00    -0.237 OA
ATOM     60  O   UNL     1       3.580  -8.958   9.235  1.00  0.00    -0.744 OA
ENDBRANCH  56  57
ENDBRANCH  28  51
BRANCH  40  61
ATOM     61  C   UNL     1       9.499 -12.405  -0.053  1.00  0.00    -0.014 A 
ATOM     62  C   UNL     1       8.830 -13.635   0.078  1.00  0.00     0.010 A 
ATOM     63  C   UNL     1      10.903 -12.392  -0.144  1.00  0.00     0.010 A 
ATOM     64  C   UNL     1       9.554 -14.827   0.148  1.00  0.00     0.020 A 
ATOM     65  C   UNL     1      11.628 -13.585  -0.101  1.00  0.00     0.020 A 
ATOM     66  C   UNL     1      10.949 -14.794   0.059  1.00  0.00     0.054 A 
BRANCH  66  67
ATOM     67  S   UNL     1      11.866 -16.358   0.112  1.00  0.00     0.124 S 
ATOM     68  O   UNL     1      11.790 -16.706   1.529  1.00  0.00    -0.237 OA
ATOM     69  O   UNL     1      11.094 -17.213  -0.787  1.00  0.00    -0.237 OA
ATOM     70  O   UNL     1      13.196 -15.996  -0.371  1.00  0.00    -0.744 OA
ENDBRANCH  66  67
ENDBRANCH  40  61
ENDBRANCH  14  15
ENDBRANCH   7   9
ENDBRANCH   4   5
ENDBRANCH   3   4
ENDBRANCH   2   3
ENDBRANCH   1   2
BRANCH   1  71
ATOM     71  C   UNL     1       6.374   4.188  -0.351  1.00  0.00     0.021 C 
BRANCH  71  72
ATOM     72  C   UNL     1       6.880   4.927  -1.592  1.00  0.00     0.116 C 
BRANCH  72  73
ATOM     73  N   UNL     1       6.737   6.351  -1.385  1.00  0.00    -0.356 N 
ATOM     74  C   UNL     1       7.598   7.208  -0.772  1.00  0.00     0.223 C 
ATOM     75  H   UNL     1       5.909   6.753  -1.733  1.00  0.00     0.163 HD
ATOM     76  O   UNL     1       7.121   8.240  -0.303  1.00  0.00    -0.275 OA
BRANCH  74  77
ATOM     77  C   UNL     1       9.097   6.904  -0.751  1.00  0.00     0.091 C 
ATOM     78  C   UNL     1       9.515   5.819   0.252  1.00  0.00     0.014 C 
ATOM     79  C   UNL     1       9.890   8.206  -0.519  1.00  0.00     0.091 C 
ATOM     80  C   UNL     1      11.024   5.586   0.193  1.00  0.00     0.001 C 
ATOM     81  C   UNL     1      11.408   7.995  -0.417  1.00  0.00     0.014 C 
ATOM     82  C   UNL     1      11.776   6.861   0.538  1.00  0.00     0.001 C 
BRANCH  79  83
ATOM     83  C   UNL     1       9.550   9.396  -1.435  1.00  0.00     0.228 C 
ATOM     84  O   UNL     1       9.139  10.449  -0.924  1.00  0.00    -0.274 OA
ATOM     85  N   UNL     1       9.811   9.470  -2.773  1.00  0.00    -0.326 N 
ATOM     86  H   UNL     1       9.461  10.282  -3.208  1.00  0.00     0.169 HD
BRANCH  85  87
ATOM     87  C   UNL     1      10.483   8.604  -3.635  1.00  0.00     0.041 A 
ATOM     88  C   UNL     1      11.563   9.115  -4.345  1.00  0.00     0.028 A 
ATOM     89  C   UNL     1      10.099   7.293  -3.872  1.00  0.00     0.028 A 
ATOM     90  C   UNL     1      12.374   8.262  -5.099  1.00  0.00     0.028 A 
ATOM     91  C   UNL     1      10.939   6.426  -4.579  1.00  0.00     0.028 A 
ATOM     92  C   UNL     1      12.137   6.890  -5.128  1.00  0.00     0.041 A 
BRANCH  92  93
ATOM     93  N   UNL     1      13.009   5.926  -5.664  1.00  0.00    -0.319 N 
ATOM     94  C   UNL     1      14.321   5.978  -6.097  1.00  0.00     0.291 C 
ATOM     95  H   UNL     1      12.603   5.033  -5.749  1.00  0.00     0.170 HD
ATOM     96  O   UNL     1      14.809   4.938  -6.542  1.00  0.00    -0.265 OA
BRANCH  94  97
ATOM     97  C   UNL     1      15.079   7.199  -5.989  1.00  0.00     0.191 A 
ATOM     98  C   UNL     1      15.598   7.885  -4.904  1.00  0.00     0.056 A 
ATOM     99  O   UNL     1      15.353   7.888  -7.138  1.00  0.00    -0.459 OA
ATOM    100  C   UNL     1      16.168   9.077  -5.418  1.00  0.00     0.043 A 
ATOM    101  C   UNL     1      16.003   9.024  -6.781  1.00  0.00     0.196 A 
ENDBRANCH  94  97
ENDBRANCH  92  93
ENDBRANCH  85  87
ENDBRANCH  79  83
ENDBRANCH  74  77
ENDBRANCH  72  73
ENDBRANCH  71  72
ENDBRANCH   1  71
TORSDOF 20
