REMARK SMILES C[C@@H](C(=O)NCCCCCCNC(=O)c1ccc(-c2c3nc(c(-c4ccc(S(=O)(=O)[O-])cc4)c4ccc([nH]4)c(-c4ccc(S(=O)(=O)[O-])cc4)c4nc(c(-c5ccc(S(=O)(=O)[O-])cc5)c5ccc2[nH]5)C=C4)C=C3)cc1)c1cc(/C=C/S(C)(=O)=O)cc(C(=O)c2ccccc2)c1
REMARK SMILES IDX 8 1 7 2 6 3 5 4 3 5 4 6 2 8 1 9 75 10 76 11 94 12 77 13
REMARK SMILES IDX 85 14 84 15 78 16 79 17 80 18 81 19 82 20 83 21 86 22 87 23
REMARK SMILES IDX 88 24 89 25 93 26 90 27 92 28 91 29 9 30 10 31 11 32 12 33
REMARK SMILES IDX 13 34 14 36 15 37 16 38 74 39 17 40 73 41 18 42 19 43 20 44
REMARK SMILES IDX 67 45 21 46 72 47 66 48 68 49 22 50 71 51 65 52 64 53 23 55
REMARK SMILES IDX 53 56 34 57 52 58 35 59 38 60 51 61 69 62 36 63 37 64 50 66
REMARK SMILES IDX 70 67 39 68 24 69 25 70 33 71 26 72 32 73 27 74 28 75 29 76
REMARK SMILES IDX 30 77 31 78 54 79 55 80 63 81 56 82 62 83 57 84 58 85 59 86
REMARK SMILES IDX 60 87 61 88 40 89 41 90 49 91 42 92 48 93 43 94 44 95 45 96
REMARK SMILES IDX 46 97 47 98
REMARK H PARENT 5 7 12 35 68 54 38 65
REMARK Flexibility Score: inf
ROOT
ATOM      1  C   UNL     1       5.013   0.816  -2.731  1.00  0.00     0.002 C 
ENDROOT
BRANCH   1   2
ATOM      2  C   UNL     1       4.239   0.536  -1.437  1.00  0.00     0.021 C 
BRANCH   2   3
ATOM      3  C   UNL     1       3.436   1.740  -0.939  1.00  0.00     0.116 C 
BRANCH   3   4
ATOM      4  N   UNL     1       2.332   2.004  -1.839  1.00  0.00    -0.356 N 
ATOM      5  C   UNL     1       1.021   1.644  -1.725  1.00  0.00     0.227 C 
ATOM      6  O   UNL     1       0.300   1.808  -2.711  1.00  0.00    -0.274 OA
ATOM      7  H   UNL     1       2.560   2.516  -2.647  1.00  0.00     0.163 HD
BRANCH   5   8
ATOM      8  C   UNL     1       0.498   1.122  -0.381  1.00  0.00     0.105 C 
ATOM      9  C   UNL     1       1.040  -0.278  -0.045  1.00  0.00     0.023 C 
BRANCH   8  10
ATOM     10  C   UNL     1      -1.027   1.177  -0.307  1.00  0.00    -0.035 A 
ATOM     11  C   UNL     1      -1.682   2.396  -0.070  1.00  0.00     0.012 A 
ATOM     12  C   UNL     1      -1.803   0.025  -0.448  1.00  0.00     0.016 A 
ATOM     13  C   UNL     1      -3.078   2.463   0.088  1.00  0.00    -0.024 A 
ATOM     14  C   UNL     1      -3.175   0.043  -0.197  1.00  0.00     0.023 A 
ATOM     15  C   UNL     1      -3.813   1.265   0.045  1.00  0.00     0.020 A 
BRANCH  13  16
ATOM     16  C   UNL     1      -3.794   3.729   0.346  1.00  0.00     0.020 C 
ATOM     17  C   UNL     1      -3.229   4.946   0.400  1.00  0.00     0.106 C 
BRANCH  17  18
ATOM     18  S   UNL     1      -4.190   6.346   0.768  1.00  0.00     0.168 S 
ATOM     19  C   UNL     1      -3.361   6.964   2.213  1.00  0.00     0.163 C 
ATOM     20  O   UNL     1      -3.992   7.326  -0.286  1.00  0.00    -0.225 OA
ATOM     21  O   UNL     1      -5.526   5.960   1.174  1.00  0.00    -0.225 OA
ENDBRANCH  17  18
ENDBRANCH  13  16
BRANCH  14  22
ATOM     22  C   UNL     1      -3.946  -1.236  -0.170  1.00  0.00     0.193 C 
ATOM     23  O   UNL     1      -5.167  -1.233  -0.277  1.00  0.00    -0.289 OA
BRANCH  22  24
ATOM     24  C   UNL     1      -3.229  -2.534  -0.030  1.00  0.00     0.022 A 
ATOM     25  C   UNL     1      -3.466  -3.534  -0.976  1.00  0.00     0.012 A 
ATOM     26  C   UNL     1      -2.281  -2.736   0.984  1.00  0.00     0.012 A 
ATOM     27  C   UNL     1      -2.720  -4.713  -0.938  1.00  0.00     0.001 A 
ATOM     28  C   UNL     1      -1.532  -3.914   1.012  1.00  0.00     0.001 A 
ATOM     29  C   UNL     1      -1.747  -4.897   0.046  1.00  0.00     0.000 A 
ENDBRANCH  22  24
ENDBRANCH  14  22
ENDBRANCH   8  10
ENDBRANCH   5   8
ENDBRANCH   3   4
ENDBRANCH   2   3
ENDBRANCH   1   2
BRANCH   1  30
ATOM     30  C   UNL     1       5.998   1.985  -2.638  1.00  0.00     0.002 C 
BRANCH  30  31
ATOM     31  C   UNL     1       7.021   1.863  -1.506  1.00  0.00     0.021 C 
BRANCH  31  32
ATOM     32  C   UNL     1       7.913   0.630  -1.605  1.00  0.00     0.116 C 
BRANCH  32  33
ATOM     33  N   UNL     1       8.725   0.653  -2.811  1.00  0.00    -0.352 N 
ATOM     34  C   UNL     1      10.088   0.573  -2.940  1.00  0.00     0.251 C 
ATOM     35  H   UNL     1       8.226   0.740  -3.655  1.00  0.00     0.163 HD
ATOM     36  O   UNL     1      10.618   0.852  -4.011  1.00  0.00    -0.269 OA
BRANCH  34  37
ATOM     37  C   UNL     1      10.913   0.163  -1.783  1.00  0.00     0.039 A 
ATOM     38  C   UNL     1      12.103   0.846  -1.527  1.00  0.00     0.014 A 
ATOM     39  C   UNL     1      10.520  -0.899  -0.962  1.00  0.00     0.014 A 
ATOM     40  C   UNL     1      12.874   0.495  -0.418  1.00  0.00     0.010 A 
ATOM     41  C   UNL     1      11.248  -1.193   0.188  1.00  0.00     0.010 A 
ATOM     42  C   UNL     1      12.438  -0.506   0.467  1.00  0.00    -0.014 A 
BRANCH  42  43
ATOM     43  C   UNL     1      13.221  -0.842   1.684  1.00  0.00     0.031 A 
ATOM     44  C   UNL     1      13.819  -2.213   1.850  1.00  0.00     0.074 A 
ATOM     45  C   UNL     1      13.367   0.082   2.655  1.00  0.00     0.049 A 
ATOM     46  N   UNL     1      14.515  -2.692   2.849  1.00  0.00    -0.248 NA
ATOM     47  C   UNL     1      13.588  -3.181   0.764  1.00  0.00     0.031 C 
ATOM     48  C   UNL     1      12.800   1.433   2.632  1.00  0.00     0.029 A 
ATOM     49  N   UNL     1      14.039   0.028   3.850  1.00  0.00    -0.354 N 
ATOM     50  C   UNL     1      14.808  -4.008   2.511  1.00  0.00     0.074 A 
ATOM     51  C   UNL     1      14.155  -4.276   1.249  1.00  0.00     0.031 C 
ATOM     52  C   UNL     1      13.174   2.087   3.743  1.00  0.00     0.029 A 
ATOM     53  C   UNL     1      13.969   1.193   4.578  1.00  0.00     0.049 A 
ATOM     54  H   UNL     1      14.526  -0.771   4.158  1.00  0.00     0.167 HD
ATOM     55  C   UNL     1      15.576  -4.906   3.174  1.00  0.00     0.031 A 
ATOM     56  C   UNL     1      14.479   1.505   5.785  1.00  0.00     0.031 A 
ATOM     57  C   UNL     1      16.222  -4.639   4.433  1.00  0.00     0.049 A 
ATOM     58  C   UNL     1      15.301   0.479   6.518  1.00  0.00     0.074 A 
ATOM     59  C   UNL     1      17.041  -5.473   5.173  1.00  0.00     0.029 A 
ATOM     60  N   UNL     1      16.125  -3.448   5.136  1.00  0.00    -0.354 N 
ATOM     61  N   UNL     1      15.613  -0.742   6.152  1.00  0.00    -0.248 NA
ATOM     62  C   UNL     1      15.853   0.878   7.819  1.00  0.00     0.031 C 
ATOM     63  C   UNL     1      17.395  -4.807   6.351  1.00  0.00     0.029 A 
ATOM     64  C   UNL     1      16.853  -3.532   6.311  1.00  0.00     0.049 A 
ATOM     65  H   UNL     1      15.614  -2.659   4.844  1.00  0.00     0.167 HD
ATOM     66  C   UNL     1      16.423  -1.244   7.165  1.00  0.00     0.074 A 
ATOM     67  C   UNL     1      16.570  -0.188   8.144  1.00  0.00     0.031 C 
ATOM     68  C   UNL     1      16.992  -2.470   7.276  1.00  0.00     0.031 A 
BRANCH  55  69
ATOM     69  C   UNL     1      15.769  -6.261   2.543  1.00  0.00    -0.014 A 
ATOM     70  C   UNL     1      16.523  -6.405   1.363  1.00  0.00     0.010 A 
ATOM     71  C   UNL     1      15.240  -7.409   3.158  1.00  0.00     0.010 A 
ATOM     72  C   UNL     1      16.713  -7.666   0.792  1.00  0.00     0.020 A 
ATOM     73  C   UNL     1      15.454  -8.677   2.607  1.00  0.00     0.020 A 
ATOM     74  C   UNL     1      16.178  -8.794   1.419  1.00  0.00     0.054 A 
BRANCH  74  75
ATOM     75  S   UNL     1      16.472 -10.421   0.672  1.00  0.00     0.124 S 
ATOM     76  O   UNL     1      15.643 -10.354  -0.529  1.00  0.00    -0.237 OA
ATOM     77  O   UNL     1      17.914 -10.409   0.441  1.00  0.00    -0.237 OA
ATOM     78  O   UNL     1      16.014 -11.360   1.692  1.00  0.00    -0.744 OA
ENDBRANCH  74  75
ENDBRANCH  55  69
BRANCH  56  79
ATOM     79  C   UNL     1      14.225   2.847   6.382  1.00  0.00    -0.014 A 
ATOM     80  C   UNL     1      15.274   3.765   6.571  1.00  0.00     0.010 A 
ATOM     81  C   UNL     1      12.925   3.205   6.784  1.00  0.00     0.010 A 
ATOM     82  C   UNL     1      15.034   4.998   7.185  1.00  0.00     0.020 A 
ATOM     83  C   UNL     1      12.675   4.451   7.365  1.00  0.00     0.020 A 
ATOM     84  C   UNL     1      13.736   5.332   7.580  1.00  0.00     0.054 A 
BRANCH  84  85
ATOM     85  S   UNL     1      13.442   6.944   8.358  1.00  0.00     0.124 S 
ATOM     86  O   UNL     1      14.041   6.758   9.675  1.00  0.00    -0.237 OA
ATOM     87  O   UNL     1      14.148   7.858   7.463  1.00  0.00    -0.237 OA
ATOM     88  O   UNL     1      11.986   7.070   8.344  1.00  0.00    -0.744 OA
ENDBRANCH  84  85
ENDBRANCH  56  79
BRANCH  68  89
ATOM     89  C   UNL     1      17.862  -2.722   8.481  1.00  0.00    -0.014 A 
ATOM     90  C   UNL     1      17.316  -2.827   9.772  1.00  0.00     0.010 A 
ATOM     91  C   UNL     1      19.249  -2.892   8.309  1.00  0.00     0.010 A 
ATOM     92  C   UNL     1      18.145  -3.054  10.874  1.00  0.00     0.020 A 
ATOM     93  C   UNL     1      20.076  -3.154   9.403  1.00  0.00     0.020 A 
ATOM     94  C   UNL     1      19.520  -3.215  10.682  1.00  0.00     0.054 A 
BRANCH  94  95
ATOM     95  S   UNL     1      20.569  -3.538  12.126  1.00  0.00     0.124 S 
ATOM     96  O   UNL     1      20.573  -2.240  12.795  1.00  0.00    -0.237 OA
ATOM     97  O   UNL     1      19.843  -4.600  12.817  1.00  0.00    -0.237 OA
ATOM     98  O   UNL     1      21.847  -3.942  11.543  1.00  0.00    -0.744 OA
ENDBRANCH  94  95
ENDBRANCH  68  89
ENDBRANCH  42  43
ENDBRANCH  34  37
ENDBRANCH  32  33
ENDBRANCH  31  32
ENDBRANCH  30  31
ENDBRANCH   1  30
TORSDOF 21
