REMARK SMILES CCCOC(=O)c1c(NC(=O)[C@@H]2CC=CC[C@H]2C(=O)NCCCCCCNC(=O)c2ccc(-c3c4nc(c(-c5ccc(S(=O)(=O)[O-])cc5)c5ccc([nH]5)c(-c5ccc(S(=O)(=O)[O-])cc5)c5nc(c(-c6ccc(S(=O)(=O)[O-])cc6)c6ccc3[nH]6)C=C5)C=C4)cc2)sc2c1CCCC2
REMARK SMILES IDX 22 1 21 2 20 3 18 4 19 5 17 7 12 8 13 9 14 10 16 11 15 12
REMARK SMILES IDX 10 13 9 14 11 16 8 17 7 18 92 19 90 20 91 21 93 22 96 23
REMARK SMILES IDX 94 24 95 25 5 26 6 27 4 28 3 29 2 30 1 31 23 32 24 33 25 34
REMARK SMILES IDX 26 35 27 36 28 37 29 39 30 40 31 41 89 42 32 43 88 44 33 45
REMARK SMILES IDX 34 46 35 47 82 48 36 49 87 50 81 51 83 52 37 53 86 54 80 55
REMARK SMILES IDX 79 56 38 58 68 59 49 60 67 61 50 62 53 63 66 64 84 65 51 66
REMARK SMILES IDX 52 67 65 69 85 70 54 71 39 72 40 73 48 74 41 75 47 76 42 77
REMARK SMILES IDX 43 78 44 79 45 80 46 81 69 82 70 83 78 84 71 85 77 86 72 87
REMARK SMILES IDX 73 88 74 89 75 90 76 91 55 92 56 93 64 94 57 95 63 96 58 97
REMARK SMILES IDX 59 98 60 99 61 100 62 101
REMARK H PARENT 20 6 9 15 27 38 83 57 53 68
REMARK Flexibility Score: inf
ROOT
ATOM      1  C   UNL     1       0.130   3.795   2.028  1.00  0.00     0.021 C 
ENDROOT
BRANCH   1   2
ATOM      2  C   UNL     1       0.227   2.891   0.792  1.00  0.00     0.116 C 
BRANCH   2   3
ATOM      3  N   UNL     1       1.573   2.697   0.282  1.00  0.00    -0.356 N 
ATOM      4  C   UNL     1       2.077   1.647  -0.431  1.00  0.00     0.224 C 
ATOM      5  O   UNL     1       2.733   1.962  -1.435  1.00  0.00    -0.275 OA
ATOM      6  H   UNL     1       2.209   3.422   0.477  1.00  0.00     0.163 HD
BRANCH   4   7
ATOM      7  C   UNL     1       1.978   0.150  -0.050  1.00  0.00     0.095 C 
ATOM      8  C   UNL     1       1.308  -0.253   1.277  1.00  0.00     0.095 C 
ATOM      9  C   UNL     1       1.170  -1.778   1.435  1.00  0.00     0.041 C 
ATOM     10  C   UNL     1       0.587  -2.435   0.228  1.00  0.00    -0.030 C 
ATOM     11  C   UNL     1       1.496  -0.659  -1.282  1.00  0.00     0.041 C 
ATOM     12  C   UNL     1       0.741  -1.927  -0.999  1.00  0.00    -0.030 C 
BRANCH   8  13
ATOM     13  C   UNL     1       2.133   0.204   2.447  1.00  0.00     0.229 C 
ATOM     14  N   UNL     1       1.605   0.562   3.636  1.00  0.00    -0.317 N 
ATOM     15  H   UNL     1       2.303   0.646   4.326  1.00  0.00     0.170 HD
ATOM     16  O   UNL     1       3.370   0.189   2.386  1.00  0.00    -0.274 OA
BRANCH  14  17
ATOM     17  C   UNL     1       0.362   0.842   4.150  1.00  0.00     0.110 A 
ATOM     18  C   UNL     1      -0.990   0.869   3.834  1.00  0.00     0.098 A 
ATOM     19  C   UNL     1      -1.740   1.530   4.894  1.00  0.00    -0.017 A 
ATOM     20  S   UNL     1       0.652   1.406   5.755  1.00  0.00    -0.122 S 
ATOM     21  C   UNL     1      -0.964   1.804   5.998  1.00  0.00     0.011 A 
ATOM     22  C   UNL     1      -3.215   1.835   4.883  1.00  0.00     0.038 C 
ATOM     23  C   UNL     1      -1.445   2.411   7.279  1.00  0.00     0.047 C 
ATOM     24  C   UNL     1      -3.607   2.790   6.017  1.00  0.00     0.005 C 
ATOM     25  C   UNL     1      -2.978   2.363   7.347  1.00  0.00     0.006 C 
BRANCH  18  26
ATOM     26  C   UNL     1      -1.696   0.367   2.658  1.00  0.00     0.341 C 
ATOM     27  O   UNL     1      -1.820  -0.818   2.401  1.00  0.00    -0.246 OA
BRANCH  26  28
ATOM     28  O   UNL     1      -2.293   1.389   1.972  1.00  0.00    -0.462 OA
BRANCH  28  29
ATOM     29  C   UNL     1      -3.311   1.085   0.995  1.00  0.00     0.233 C 
BRANCH  29  30
ATOM     30  C   UNL     1      -2.775   1.182  -0.429  1.00  0.00     0.038 C 
ATOM     31  C   UNL     1      -1.899   0.008  -0.799  1.00  0.00     0.007 C 
ENDBRANCH  29  30
ENDBRANCH  28  29
ENDBRANCH  26  28
ENDBRANCH  18  26
ENDBRANCH  14  17
ENDBRANCH   8  13
ENDBRANCH   4   7
ENDBRANCH   2   3
ENDBRANCH   1   2
BRANCH   1  32
ATOM     32  C   UNL     1      -0.144   5.280   1.756  1.00  0.00     0.002 C 
BRANCH  32  33
ATOM     33  C   UNL     1      -1.463   5.616   1.043  1.00  0.00     0.002 C 
BRANCH  33  34
ATOM     34  C   UNL     1      -2.763   5.179   1.729  1.00  0.00     0.021 C 
BRANCH  34  35
ATOM     35  C   UNL     1      -3.004   5.705   3.143  1.00  0.00     0.116 C 
BRANCH  35  36
ATOM     36  N   UNL     1      -2.986   7.156   3.226  1.00  0.00    -0.352 N 
ATOM     37  C   UNL     1      -3.898   8.038   3.757  1.00  0.00     0.251 C 
ATOM     38  H   UNL     1      -2.188   7.579   2.835  1.00  0.00     0.163 HD
ATOM     39  O   UNL     1      -3.731   9.244   3.590  1.00  0.00    -0.269 OA
BRANCH  37  40
ATOM     40  C   UNL     1      -5.083   7.561   4.508  1.00  0.00     0.039 A 
ATOM     41  C   UNL     1      -6.308   8.210   4.317  1.00  0.00     0.014 A 
ATOM     42  C   UNL     1      -4.994   6.518   5.433  1.00  0.00     0.014 A 
ATOM     43  C   UNL     1      -7.447   7.775   5.003  1.00  0.00     0.010 A 
ATOM     44  C   UNL     1      -6.145   6.035   6.057  1.00  0.00     0.010 A 
ATOM     45  C   UNL     1      -7.384   6.661   5.855  1.00  0.00    -0.014 A 
BRANCH  45  46
ATOM     46  C   UNL     1      -8.602   6.146   6.540  1.00  0.00     0.031 A 
ATOM     47  C   UNL     1      -8.691   6.147   8.044  1.00  0.00     0.074 A 
ATOM     48  C   UNL     1      -9.611   5.629   5.811  1.00  0.00     0.049 A 
ATOM     49  N   UNL     1      -9.652   5.704   8.815  1.00  0.00    -0.248 NA
ATOM     50  C   UNL     1      -7.539   6.693   8.780  1.00  0.00     0.031 C 
ATOM     51  C   UNL     1      -9.638   5.536   4.349  1.00  0.00     0.029 A 
ATOM     52  N   UNL     1     -10.809   5.080   6.198  1.00  0.00    -0.354 N 
ATOM     53  C   UNL     1      -9.217   5.903  10.120  1.00  0.00     0.074 A 
ATOM     54  C   UNL     1      -7.882   6.454  10.037  1.00  0.00     0.031 C 
ATOM     55  C   UNL     1     -10.804   4.995   3.964  1.00  0.00     0.029 A 
ATOM     56  C   UNL     1     -11.589   4.657   5.147  1.00  0.00     0.049 A 
ATOM     57  H   UNL     1     -11.084   4.996   7.140  1.00  0.00     0.167 HD
ATOM     58  C   UNL     1      -9.873   5.669  11.283  1.00  0.00     0.031 A 
ATOM     59  C   UNL     1     -12.797   4.059   5.131  1.00  0.00     0.031 A 
ATOM     60  C   UNL     1     -11.203   5.121  11.362  1.00  0.00     0.049 A 
ATOM     61  C   UNL     1     -13.499   3.787   6.434  1.00  0.00     0.074 A 
ATOM     62  C   UNL     1     -11.974   4.894  12.489  1.00  0.00     0.029 A 
ATOM     63  N   UNL     1     -11.956   4.705  10.274  1.00  0.00    -0.354 N 
ATOM     64  N   UNL     1     -13.096   4.044   7.655  1.00  0.00    -0.248 NA
ATOM     65  C   UNL     1     -14.824   3.158   6.354  1.00  0.00     0.031 C 
ATOM     66  C   UNL     1     -13.164   4.278  12.088  1.00  0.00     0.029 A 
ATOM     67  C   UNL     1     -13.169   4.194  10.705  1.00  0.00     0.049 A 
ATOM     68  H   UNL     1     -11.671   4.765   9.334  1.00  0.00     0.167 HD
ATOM     69  C   UNL     1     -14.133   3.637   8.489  1.00  0.00     0.074 A 
ATOM     70  C   UNL     1     -15.184   3.130   7.630  1.00  0.00     0.031 C 
ATOM     71  C   UNL     1     -14.208   3.684   9.843  1.00  0.00     0.031 A 
BRANCH  58  72
ATOM     72  C   UNL     1      -9.149   5.985  12.569  1.00  0.00    -0.014 A 
ATOM     73  C   UNL     1      -8.838   7.310  12.928  1.00  0.00     0.010 A 
ATOM     74  C   UNL     1      -8.798   4.943  13.446  1.00  0.00     0.010 A 
ATOM     75  C   UNL     1      -8.139   7.580  14.108  1.00  0.00     0.020 A 
ATOM     76  C   UNL     1      -8.131   5.211  14.645  1.00  0.00     0.020 A 
ATOM     77  C   UNL     1      -7.786   6.527  14.957  1.00  0.00     0.054 A 
BRANCH  77  78
ATOM     78  S   UNL     1      -6.881   6.908  16.483  1.00  0.00     0.124 S 
ATOM     79  O   UNL     1      -5.568   7.286  15.966  1.00  0.00    -0.237 OA
ATOM     80  O   UNL     1      -7.668   7.997  17.057  1.00  0.00    -0.237 OA
ATOM     81  O   UNL     1      -6.917   5.654  17.230  1.00  0.00    -0.744 OA
ENDBRANCH  77  78
ENDBRANCH  58  72
BRANCH  59  82
ATOM     82  C   UNL     1     -13.423   3.690   3.830  1.00  0.00    -0.014 A 
ATOM     83  C   UNL     1     -14.559   4.372   3.361  1.00  0.00     0.010 A 
ATOM     84  C   UNL     1     -12.865   2.668   3.039  1.00  0.00     0.010 A 
ATOM     85  C   UNL     1     -15.132   4.033   2.131  1.00  0.00     0.020 A 
ATOM     86  C   UNL     1     -13.415   2.349   1.795  1.00  0.00     0.020 A 
ATOM     87  C   UNL     1     -14.551   3.028   1.352  1.00  0.00     0.054 A 
BRANCH  87  88
ATOM     88  S   UNL     1     -15.270   2.655  -0.272  1.00  0.00     0.124 S 
ATOM     89  O   UNL     1     -16.523   2.003   0.093  1.00  0.00    -0.237 OA
ATOM     90  O   UNL     1     -15.395   3.981  -0.871  1.00  0.00    -0.237 OA
ATOM     91  O   UNL     1     -14.271   1.789  -0.896  1.00  0.00    -0.744 OA
ENDBRANCH  87  88
ENDBRANCH  59  82
BRANCH  71  92
ATOM     92  C   UNL     1     -15.487   3.212  10.486  1.00  0.00    -0.014 A 
ATOM     93  C   UNL     1     -15.850   1.853  10.493  1.00  0.00     0.010 A 
ATOM     94  C   UNL     1     -16.314   4.144  11.142  1.00  0.00     0.010 A 
ATOM     95  C   UNL     1     -17.035   1.442  11.111  1.00  0.00     0.020 A 
ATOM     96  C   UNL     1     -17.481   3.732  11.789  1.00  0.00     0.020 A 
ATOM     97  C   UNL     1     -17.843   2.384  11.756  1.00  0.00     0.054 A 
BRANCH  97  98
ATOM     98  S   UNL     1     -19.355   1.818  12.582  1.00  0.00     0.124 S 
ATOM     99  O   UNL     1     -20.214   1.486  11.449  1.00  0.00    -0.237 OA
ATOM    100  O   UNL     1     -18.882   0.681  13.367  1.00  0.00    -0.237 OA
ATOM    101  O   UNL     1     -19.777   2.977  13.365  1.00  0.00    -0.744 OA
ENDBRANCH  97  98
ENDBRANCH  71  92
ENDBRANCH  45  46
ENDBRANCH  37  40
ENDBRANCH  35  36
ENDBRANCH  34  35
ENDBRANCH  33  34
ENDBRANCH  32  33
ENDBRANCH   1  32
TORSDOF 22
