REMARK SMILES C=CCc1cc([C@H]([NH3+])C(=O)NCCCCCCNC(=O)c2ccc(-c3c4nc(c(-c5ccc(S(=O)(=O)[O-])cc5)c5ccc([nH]5)c(-c5ccc(S(=O)(=O)[O-])cc5)c5nc(c(-c6ccc(S(=O)(=O)[O-])cc6)c6ccc3[nH]6)C=C5)C=C4)cc2)cc(OC)c1OCC
REMARK SMILES IDX 14 1 13 2 12 3 11 4 9 5 10 6 7 8 6 9 4 10 5 11 85 12 82 13
REMARK SMILES IDX 81 14 3 15 2 16 1 17 86 18 87 19 88 20 83 21 84 22 8 23
REMARK SMILES IDX 15 27 16 28 17 29 18 30 19 31 20 33 21 34 22 35 80 36 23 37
REMARK SMILES IDX 79 38 24 39 25 40 26 41 73 42 27 43 78 44 72 45 74 46 28 47
REMARK SMILES IDX 77 48 71 49 70 50 29 52 59 53 40 54 58 55 41 56 44 57 57 58
REMARK SMILES IDX 75 59 42 60 43 61 56 63 76 64 45 65 30 66 31 67 39 68 32 69
REMARK SMILES IDX 38 70 33 71 34 72 35 73 36 74 37 75 60 76 61 77 69 78 62 79
REMARK SMILES IDX 68 80 63 81 64 82 65 83 66 84 67 85 46 86 47 87 55 88 48 89
REMARK SMILES IDX 54 90 49 91 50 92 51 93 52 94 53 95
REMARK H PARENT 11 7 8 24 8 25 8 26 18 32 74 51 44 62
REMARK Flexibility Score: inf
ROOT
ATOM      1  C   UNL     1      -4.817   2.221   3.351  1.00  0.00     0.002 C 
ENDROOT
BRANCH   1   2
ATOM      2  C   UNL     1      -3.657   1.242   3.134  1.00  0.00     0.021 C 
BRANCH   2   3
ATOM      3  C   UNL     1      -2.829   0.968   4.385  1.00  0.00     0.116 C 
BRANCH   3   4
ATOM      4  N   UNL     1      -3.625   0.333   5.420  1.00  0.00    -0.351 N 
ATOM      5  C   UNL     1      -3.396  -0.812   6.127  1.00  0.00     0.283 C 
ATOM      6  O   UNL     1      -4.212  -1.110   7.006  1.00  0.00    -0.268 OA
ATOM      7  H   UNL     1      -4.461   0.801   5.646  1.00  0.00     0.163 HD
BRANCH   5   8
ATOM      8  C   UNL     1      -2.207  -1.745   5.787  1.00  0.00     0.302 C 
BRANCH   8   9
ATOM      9  C   UNL     1      -0.820  -1.133   5.944  1.00  0.00     0.023 A 
ATOM     10  C   UNL     1       1.569  -1.163   5.301  1.00  0.00     0.002 A 
ATOM     11  C   UNL     1       0.275  -1.736   5.315  1.00  0.00     0.018 A 
ATOM     12  C   UNL     1       1.797   0.020   6.033  1.00  0.00     0.164 A 
ATOM     13  C   UNL     1       0.697   0.636   6.677  1.00  0.00     0.161 A 
ATOM     14  C   UNL     1      -0.575   0.038   6.663  1.00  0.00     0.061 A 
BRANCH  10  15
ATOM     15  C   UNL     1       2.530  -1.819   4.329  1.00  0.00     0.066 C 
BRANCH  15  16
ATOM     16  C   UNL     1       2.555  -1.090   3.013  1.00  0.00    -0.030 C 
ATOM     17  C   UNL     1       3.656  -0.639   2.401  1.00  0.00     0.004 C 
ENDBRANCH  15  16
ENDBRANCH  10  15
BRANCH  12  18
ATOM     18  O   UNL     1       2.981   0.685   6.167  1.00  0.00    -0.490 OA
BRANCH  18  19
ATOM     19  C   UNL     1       4.249   0.048   6.147  1.00  0.00     0.226 C 
ATOM     20  C   UNL     1       4.419  -1.051   7.183  1.00  0.00     0.049 C 
ENDBRANCH  18  19
ENDBRANCH  12  18
BRANCH  13  21
ATOM     21  O   UNL     1       0.701   1.821   7.380  1.00  0.00    -0.493 OA
ATOM     22  C   UNL     1       1.633   2.822   6.981  1.00  0.00     0.278 C 
ENDBRANCH  13  21
ENDBRANCH   8   9
BRANCH   8  23
ATOM     23  N   UNL     1      -2.419  -2.316   4.428  1.00  0.00    -0.343 N 
ATOM     24  H   UNL     1      -2.416  -1.564   3.739  1.00  0.00     0.345 HD
ATOM     25  H   UNL     1      -3.316  -2.800   4.399  1.00  0.00     0.345 HD
ATOM     26  H   UNL     1      -1.670  -2.975   4.216  1.00  0.00     0.345 HD
ENDBRANCH   8  23
ENDBRANCH   5   8
ENDBRANCH   3   4
ENDBRANCH   2   3
ENDBRANCH   1   2
BRANCH   1  27
ATOM     27  C   UNL     1      -4.421   3.572   3.954  1.00  0.00     0.002 C 
BRANCH  27  28
ATOM     28  C   UNL     1      -3.336   4.329   3.185  1.00  0.00     0.021 C 
BRANCH  28  29
ATOM     29  C   UNL     1      -3.670   4.605   1.724  1.00  0.00     0.116 C 
BRANCH  29  30
ATOM     30  N   UNL     1      -4.851   5.443   1.582  1.00  0.00    -0.352 N 
ATOM     31  C   UNL     1      -5.002   6.606   0.870  1.00  0.00     0.251 C 
ATOM     32  H   UNL     1      -5.652   5.132   2.062  1.00  0.00     0.163 HD
ATOM     33  O   UNL     1      -6.012   7.291   1.016  1.00  0.00    -0.269 OA
BRANCH  31  34
ATOM     34  C   UNL     1      -3.934   7.040  -0.054  1.00  0.00     0.039 A 
ATOM     35  C   UNL     1      -3.510   8.370  -0.027  1.00  0.00     0.014 A 
ATOM     36  C   UNL     1      -3.343   6.129  -0.935  1.00  0.00     0.014 A 
ATOM     37  C   UNL     1      -2.451   8.773  -0.843  1.00  0.00     0.010 A 
ATOM     38  C   UNL     1      -2.239   6.514  -1.689  1.00  0.00     0.010 A 
ATOM     39  C   UNL     1      -1.783   7.840  -1.654  1.00  0.00    -0.014 A 
BRANCH  39  40
ATOM     40  C   UNL     1      -0.607   8.230  -2.472  1.00  0.00     0.031 A 
ATOM     41  C   UNL     1      -0.665   8.132  -3.973  1.00  0.00     0.074 A 
ATOM     42  C   UNL     1       0.535   8.610  -1.863  1.00  0.00     0.049 A 
ATOM     43  N   UNL     1       0.279   8.357  -4.851  1.00  0.00    -0.248 NA
ATOM     44  C   UNL     1      -1.943   7.700  -4.565  1.00  0.00     0.031 C 
ATOM     45  C   UNL     1       0.729   8.711  -0.414  1.00  0.00     0.029 A 
ATOM     46  N   UNL     1       1.751   8.973  -2.385  1.00  0.00    -0.354 N 
ATOM     47  C   UNL     1      -0.284   8.080  -6.092  1.00  0.00     0.074 A 
ATOM     48  C   UNL     1      -1.634   7.621  -5.851  1.00  0.00     0.031 C 
ATOM     49  C   UNL     1       1.980   9.133  -0.166  1.00  0.00     0.029 A 
ATOM     50  C   UNL     1       2.691   9.286  -1.431  1.00  0.00     0.049 A 
ATOM     51  H   UNL     1       1.934   9.007  -3.352  1.00  0.00     0.167 HD
ATOM     52  C   UNL     1       0.267   8.212  -7.321  1.00  0.00     0.031 A 
ATOM     53  C   UNL     1       3.985   9.643  -1.557  1.00  0.00     0.031 A 
ATOM     54  C   UNL     1       1.608   8.679  -7.556  1.00  0.00     0.049 A 
ATOM     55  C   UNL     1       4.580   9.762  -2.934  1.00  0.00     0.074 A 
ATOM     56  C   UNL     1       2.240   8.900  -8.767  1.00  0.00     0.029 A 
ATOM     57  N   UNL     1       2.524   8.993  -6.564  1.00  0.00    -0.354 N 
ATOM     58  N   UNL     1       4.011   9.559  -4.098  1.00  0.00    -0.248 NA
ATOM     59  C   UNL     1       5.990  10.169  -3.016  1.00  0.00     0.031 C 
ATOM     60  C   UNL     1       3.558   9.288  -8.508  1.00  0.00     0.029 A 
ATOM     61  C   UNL     1       3.725   9.378  -7.135  1.00  0.00     0.049 A 
ATOM     62  H   UNL     1       2.347   8.948  -5.596  1.00  0.00     0.167 HD
ATOM     63  C   UNL     1       4.983   9.846  -5.050  1.00  0.00     0.074 A 
ATOM     64  C   UNL     1       6.171  10.249  -4.327  1.00  0.00     0.031 C 
ATOM     65  C   UNL     1       4.899   9.782  -6.402  1.00  0.00     0.031 A 
BRANCH  52  66
ATOM     66  C   UNL     1      -0.577   7.841  -8.513  1.00  0.00    -0.014 A 
ATOM     67  C   UNL     1      -1.689   8.617  -8.889  1.00  0.00     0.010 A 
ATOM     68  C   UNL     1      -0.220   6.733  -9.303  1.00  0.00     0.010 A 
ATOM     69  C   UNL     1      -2.447   8.271 -10.010  1.00  0.00     0.020 A 
ATOM     70  C   UNL     1      -0.958   6.402 -10.443  1.00  0.00     0.020 A 
ATOM     71  C   UNL     1      -2.076   7.166 -10.781  1.00  0.00     0.054 A 
BRANCH  71  72
ATOM     72  S   UNL     1      -3.059   6.764 -12.252  1.00  0.00     0.124 S 
ATOM     73  O   UNL     1      -4.298   6.266 -11.659  1.00  0.00    -0.237 OA
ATOM     74  O   UNL     1      -3.161   8.054 -12.929  1.00  0.00    -0.237 OA
ATOM     75  O   UNL     1      -2.254   5.761 -12.945  1.00  0.00    -0.744 OA
ENDBRANCH  71  72
ENDBRANCH  52  66
BRANCH  53  76
ATOM     76  C   UNL     1       4.807   9.915  -0.344  1.00  0.00    -0.014 A 
ATOM     77  C   UNL     1       5.258  11.216  -0.059  1.00  0.00     0.010 A 
ATOM     78  C   UNL     1       5.147   8.868   0.532  1.00  0.00     0.010 A 
ATOM     79  C   UNL     1       6.055  11.460   1.063  1.00  0.00     0.020 A 
ATOM     80  C   UNL     1       5.917   9.114   1.673  1.00  0.00     0.020 A 
ATOM     81  C   UNL     1       6.379  10.407   1.923  1.00  0.00     0.054 A 
BRANCH  81  82
ATOM     82  S   UNL     1       7.386  10.754   3.392  1.00  0.00     0.124 S 
ATOM     83  O   UNL     1       8.702  10.993   2.808  1.00  0.00    -0.237 OA
ATOM     84  O   UNL     1       6.721  11.924   3.959  1.00  0.00    -0.237 OA
ATOM     85  O   UNL     1       7.264   9.532   4.185  1.00  0.00    -0.744 OA
ENDBRANCH  81  82
ENDBRANCH  53  76
BRANCH  65  86
ATOM     86  C   UNL     1       6.109  10.199  -7.197  1.00  0.00    -0.014 A 
ATOM     87  C   UNL     1       7.269   9.406  -7.237  1.00  0.00     0.010 A 
ATOM     88  C   UNL     1       6.055  11.374  -7.970  1.00  0.00     0.010 A 
ATOM     89  C   UNL     1       8.364   9.796  -8.014  1.00  0.00     0.020 A 
ATOM     90  C   UNL     1       7.135  11.750  -8.772  1.00  0.00     0.020 A 
ATOM     91  C   UNL     1       8.288  10.964  -8.779  1.00  0.00     0.054 A 
BRANCH  91  92
ATOM     92  S   UNL     1       9.703  11.418  -9.819  1.00  0.00     0.124 S 
ATOM     93  O   UNL     1      10.684  11.847  -8.827  1.00  0.00    -0.237 OA
ATOM     94  O   UNL     1      10.009  10.165 -10.506  1.00  0.00    -0.237 OA
ATOM     95  O   UNL     1       9.178  12.479 -10.676  1.00  0.00    -0.744 OA
ENDBRANCH  91  92
ENDBRANCH  65  86
ENDBRANCH  39  40
ENDBRANCH  31  34
ENDBRANCH  29  30
ENDBRANCH  28  29
ENDBRANCH  27  28
ENDBRANCH   1  27
TORSDOF 23
