REMARK SMILES Cc1cc2c(c(C)c1Br)C=C(C(=O)NCCCCCCNC(=O)c1ccc(-c3c4nc(c(-c5ccc(S(=O)(=O)[O-])cc5)c5ccc([nH]5)c(-c5ccc(S(=O)(=O)[O-])cc5)c5nc(c(-c6ccc(S(=O)(=O)[O-])cc6)c6ccc3[nH]6)C=C5)C=C4)cc1)[C@@H](C(F)(F)F)O2
REMARK SMILES IDX 18 1 17 2 16 3 15 4 14 5 12 6 13 7 11 9 1 10 2 11 3 12 8 13
REMARK SMILES IDX 4 14 6 15 9 16 5 17 89 18 7 19 10 20 84 21 85 22 86 23 87 24
REMARK SMILES IDX 88 25 19 26 20 27 21 28 22 29 23 31 24 32 25 33 83 34 26 35
REMARK SMILES IDX 82 36 27 37 28 38 29 39 76 40 30 41 81 42 75 43 77 44 31 45
REMARK SMILES IDX 80 46 74 47 73 48 32 50 62 51 43 52 61 53 44 54 47 55 60 56
REMARK SMILES IDX 78 57 45 58 46 59 59 61 79 62 48 63 33 64 34 65 42 66 35 67
REMARK SMILES IDX 41 68 36 69 37 70 38 71 39 72 40 73 63 74 64 75 72 76 65 77
REMARK SMILES IDX 71 78 66 79 67 80 68 81 69 82 70 83 49 84 50 85 58 86 51 87
REMARK SMILES IDX 57 88 52 89 53 90 54 91 55 92 56 93
REMARK H PARENT 14 8 21 30 77 49 47 60
REMARK Flexibility Score: inf
ROOT
ATOM      1  C   UNL     1       1.744 -11.989  -0.282  1.00  0.00     0.002 C 
ENDROOT
BRANCH   1   2
ATOM      2  C   UNL     1       0.431 -11.311   0.133  1.00  0.00     0.002 C 
BRANCH   2   3
ATOM      3  C   UNL     1       0.559  -9.842   0.545  1.00  0.00     0.021 C 
BRANCH   3   4
ATOM      4  C   UNL     1       1.201  -8.961  -0.521  1.00  0.00     0.116 C 
BRANCH   4   5
ATOM      5  N   UNL     1       0.231  -8.515  -1.505  1.00  0.00    -0.352 N 
ATOM      6  C   UNL     1      -0.245  -7.335  -1.964  1.00  0.00     0.251 C 
ATOM      7  O   UNL     1      -1.092  -7.423  -2.860  1.00  0.00    -0.270 OA
ATOM      8  H   UNL     1      -0.196  -9.277  -1.961  1.00  0.00     0.163 HD
BRANCH   6   9
ATOM      9  C   UNL     1       0.173  -5.986  -1.475  1.00  0.00     0.067 C 
ATOM     10  C   UNL     1       0.969   0.299  -0.003  1.00  0.00     0.046 C 
ATOM     11  C   UNL     1       0.528  -1.008  -0.604  1.00  0.00    -0.033 A 
ATOM     12  C   UNL     1       1.100  -2.164  -0.065  1.00  0.00     0.051 A 
ATOM     13  C   UNL     1      -0.452  -1.146  -1.611  1.00  0.00     0.024 A 
ATOM     14  C   UNL     1       0.744  -3.422  -0.532  1.00  0.00     0.128 A 
ATOM     15  C   UNL     1      -0.817  -2.428  -2.106  1.00  0.00    -0.026 A 
ATOM     16  Br  UNL     1      -1.308   0.431  -2.277  1.00  0.00    -0.050 Br
ATOM     17  C   UNL     1      -0.207  -3.577  -1.541  1.00  0.00     0.021 A 
ATOM     18  O   UNL     1       1.353  -4.461   0.103  1.00  0.00    -0.475 OA
ATOM     19  C   UNL     1      -1.839  -2.613  -3.205  1.00  0.00     0.046 C 
ATOM     20  C   UNL     1      -0.555  -4.949  -1.931  1.00  0.00     0.026 C 
ATOM     21  C   UNL     1       1.342  -5.743  -0.569  1.00  0.00     0.314 C 
BRANCH  21  22
ATOM     22  C   UNL     1       2.697  -5.958  -1.267  1.00  0.00     0.429 C 
ATOM     23  F   UNL     1       3.688  -6.080  -0.351  1.00  0.00    -0.167 F 
ATOM     24  F   UNL     1       2.725  -7.086  -2.014  1.00  0.00    -0.167 F 
ATOM     25  F   UNL     1       3.022  -4.934  -2.088  1.00  0.00    -0.167 F 
ENDBRANCH  21  22
ENDBRANCH   6   9
ENDBRANCH   4   5
ENDBRANCH   3   4
ENDBRANCH   2   3
ENDBRANCH   1   2
BRANCH   1  26
ATOM     26  C   UNL     1       2.912 -11.807   0.691  1.00  0.00     0.021 C 
BRANCH  26  27
ATOM     27  C   UNL     1       2.633 -12.289   2.110  1.00  0.00     0.116 C 
BRANCH  27  28
ATOM     28  N   UNL     1       2.330 -13.710   2.146  1.00  0.00    -0.352 N 
ATOM     29  C   UNL     1       2.981 -14.715   2.814  1.00  0.00     0.251 C 
ATOM     30  H   UNL     1       1.549 -13.990   1.616  1.00  0.00     0.163 HD
ATOM     31  O   UNL     1       2.729 -15.889   2.559  1.00  0.00    -0.269 OA
BRANCH  29  32
ATOM     32  C   UNL     1       3.994 -14.373   3.833  1.00  0.00     0.039 A 
ATOM     33  C   UNL     1       5.220 -15.039   3.819  1.00  0.00     0.014 A 
ATOM     34  C   UNL     1       3.727 -13.397   4.799  1.00  0.00     0.014 A 
ATOM     35  C   UNL     1       6.201 -14.692   4.749  1.00  0.00     0.010 A 
ATOM     36  C   UNL     1       4.731 -13.004   5.679  1.00  0.00     0.010 A 
ATOM     37  C   UNL     1       5.972 -13.656   5.670  1.00  0.00    -0.014 A 
BRANCH  37  38
ATOM     38  C   UNL     1       7.014 -13.265   6.651  1.00  0.00     0.031 A 
ATOM     39  C   UNL     1       6.783 -13.494   8.120  1.00  0.00     0.074 A 
ATOM     40  C   UNL     1       8.155 -12.689   6.223  1.00  0.00     0.049 A 
ATOM     41  N   UNL     1       7.564 -13.209   9.130  1.00  0.00    -0.248 NA
ATOM     42  C   UNL     1       5.502 -14.110   8.508  1.00  0.00     0.031 C 
ATOM     43  C   UNL     1       8.483 -12.397   4.825  1.00  0.00     0.029 A 
ATOM     44  N   UNL     1       9.254 -12.254   6.918  1.00  0.00    -0.354 N 
ATOM     45  C   UNL     1       6.873 -13.611  10.267  1.00  0.00     0.074 A 
ATOM     46  C   UNL     1       5.585 -14.103   9.831  1.00  0.00     0.031 C 
ATOM     47  C   UNL     1       9.718 -11.873   4.764  1.00  0.00     0.029 A 
ATOM     48  C   UNL     1      10.253 -11.753   6.117  1.00  0.00     0.049 A 
ATOM     49  H   UNL     1       9.322 -12.296   7.900  1.00  0.00     0.167 HD
ATOM     50  C   UNL     1       7.286 -13.603  11.556  1.00  0.00     0.031 A 
ATOM     51  C   UNL     1      11.465 -11.257   6.436  1.00  0.00     0.031 A 
ATOM     52  C   UNL     1       8.572 -13.124  11.985  1.00  0.00     0.049 A 
ATOM     53  C   UNL     1      11.879 -11.213   7.882  1.00  0.00     0.074 A 
ATOM     54  C   UNL     1       9.094 -13.099  13.266  1.00  0.00     0.029 A 
ATOM     55  N   UNL     1       9.539 -12.594  11.146  1.00  0.00    -0.354 N 
ATOM     56  N   UNL     1      11.226 -11.636   8.938  1.00  0.00    -0.248 NA
ATOM     57  C   UNL     1      13.195 -10.631   8.179  1.00  0.00     0.031 C 
ATOM     58  C   UNL     1      10.359 -12.508  13.208  1.00  0.00     0.029 A 
ATOM     59  C   UNL     1      10.648 -12.218  11.884  1.00  0.00     0.049 A 
ATOM     60  H   UNL     1       9.451 -12.499  10.170  1.00  0.00     0.167 HD
ATOM     61  C   UNL     1      12.062 -11.391  10.022  1.00  0.00     0.074 A 
ATOM     62  C   UNL     1      13.274 -10.800   9.492  1.00  0.00     0.031 C 
ATOM     63  C   UNL     1      11.845 -11.633  11.338  1.00  0.00     0.031 A 
BRANCH  50  64
ATOM     64  C   UNL     1       6.345 -14.148  12.595  1.00  0.00    -0.014 A 
ATOM     65  C   UNL     1       6.088 -15.529  12.677  1.00  0.00     0.010 A 
ATOM     66  C   UNL     1       5.764 -13.286  13.543  1.00  0.00     0.010 A 
ATOM     67  C   UNL     1       5.250 -16.035  13.673  1.00  0.00     0.020 A 
ATOM     68  C   UNL     1       4.945 -13.792  14.557  1.00  0.00     0.020 A 
ATOM     69  C   UNL     1       4.687 -15.164  14.609  1.00  0.00     0.054 A 
BRANCH  69  70
ATOM     70  S   UNL     1       3.643 -15.860  15.919  1.00  0.00     0.124 S 
ATOM     71  O   UNL     1       2.463 -16.285  15.169  1.00  0.00    -0.237 OA
ATOM     72  O   UNL     1       4.473 -16.939  16.447  1.00  0.00    -0.237 OA
ATOM     73  O   UNL     1       3.430 -14.737  16.828  1.00  0.00    -0.744 OA
ENDBRANCH  69  70
ENDBRANCH  50  64
BRANCH  51  74
ATOM     74  C   UNL     1      12.386 -10.784   5.365  1.00  0.00    -0.014 A 
ATOM     75  C   UNL     1      13.560 -11.499   5.072  1.00  0.00     0.010 A 
ATOM     76  C   UNL     1      12.095  -9.618   4.633  1.00  0.00     0.010 A 
ATOM     77  C   UNL     1      14.437 -11.047   4.081  1.00  0.00     0.020 A 
ATOM     78  C   UNL     1      12.955  -9.178   3.622  1.00  0.00     0.020 A 
ATOM     79  C   UNL     1      14.127  -9.890   3.361  1.00  0.00     0.054 A 
BRANCH  79  80
ATOM     80  S   UNL     1      15.263  -9.345   2.055  1.00  0.00     0.124 S 
ATOM     81  O   UNL     1      16.410  -8.876   2.826  1.00  0.00    -0.237 OA
ATOM     82  O   UNL     1      15.473 -10.572   1.290  1.00  0.00    -0.237 OA
ATOM     83  O   UNL     1      14.509  -8.306   1.357  1.00  0.00    -0.744 OA
ENDBRANCH  79  80
ENDBRANCH  51  74
BRANCH  63  84
ATOM     84  C   UNL     1      12.943 -11.276  12.304  1.00  0.00    -0.014 A 
ATOM     85  C   UNL     1      13.209  -9.936  12.632  1.00  0.00     0.010 A 
ATOM     86  C   UNL     1      13.654 -12.299  12.958  1.00  0.00     0.010 A 
ATOM     87  C   UNL     1      14.180  -9.624  13.586  1.00  0.00     0.020 A 
ATOM     88  C   UNL     1      14.606 -11.992  13.933  1.00  0.00     0.020 A 
ATOM     89  C   UNL     1      14.868 -10.654  14.236  1.00  0.00     0.054 A 
BRANCH  89  90
ATOM     90  S   UNL     1      16.072 -10.219  15.520  1.00  0.00     0.124 S 
ATOM     91  O   UNL     1      17.156  -9.635  14.736  1.00  0.00    -0.237 OA
ATOM     92  O   UNL     1      15.323  -9.281  16.354  1.00  0.00    -0.237 OA
ATOM     93  O   UNL     1      16.381 -11.498  16.155  1.00  0.00    -0.744 OA
ENDBRANCH  89  90
ENDBRANCH  63  84
ENDBRANCH  37  38
ENDBRANCH  29  32
ENDBRANCH  27  28
ENDBRANCH  26  27
ENDBRANCH   1  26
TORSDOF 17
