REMARK SMILES NS(=O)(=O)c1ccc(/N=N/c2ccc(O)c(C(=O)NCCCCCCNC(=O)c3ccc(-c4c5nc(c(-c6ccc(S(=O)(=O)[O-])cc6)c6ccc([nH]6)c(-c6ccc(S(=O)(=O)[O-])cc6)c6nc(c(-c7ccc(S(=O)(=O)[O-])cc7)c7ccc4[nH]7)C=C6)C=C5)cc3)c2)cc1
REMARK SMILES IDX 22 1 21 2 20 3 19 4 17 5 18 6 16 8 11 9 12 10 89 11 13 12
REMARK SMILES IDX 14 13 10 14 9 15 8 16 5 17 6 18 91 19 7 20 90 21 2 22 3 23
REMARK SMILES IDX 4 24 1 25 15 28 23 30 24 31 25 32 26 33 27 34 28 36 29 37
REMARK SMILES IDX 30 38 88 39 31 40 87 41 32 42 33 43 34 44 81 45 35 46 86 47
REMARK SMILES IDX 80 48 82 49 36 50 85 51 79 52 78 53 37 55 67 56 48 57 66 58
REMARK SMILES IDX 49 59 52 60 65 61 83 62 50 63 51 64 64 66 84 67 53 68 38 69
REMARK SMILES IDX 39 70 47 71 40 72 46 73 41 74 42 75 43 76 44 77 45 78 68 79
REMARK SMILES IDX 69 80 77 81 70 82 76 83 71 84 72 85 73 86 74 87 75 88 54 89
REMARK SMILES IDX 55 90 63 91 56 92 62 93 57 94 58 95 59 96 60 97 61 98
REMARK H PARENT 19 7 1 26 1 27 15 29 26 35 82 54 52 65
REMARK Flexibility Score: inf
ROOT
ATOM      1  C   UNL     1       6.749  -5.796   6.160  1.00  0.00     0.002 C 
ENDROOT
BRANCH   1   2
ATOM      2  C   UNL     1       6.097  -4.462   6.521  1.00  0.00     0.021 C 
BRANCH   2   3
ATOM      3  C   UNL     1       4.790  -4.532   7.303  1.00  0.00     0.116 C 
BRANCH   3   4
ATOM      4  N   UNL     1       4.920  -5.094   8.638  1.00  0.00    -0.352 N 
ATOM      5  C   UNL     1       4.372  -4.698   9.838  1.00  0.00     0.255 C 
ATOM      6  O   UNL     1       4.697  -5.289  10.870  1.00  0.00    -0.269 OA
ATOM      7  H   UNL     1       5.497  -5.889   8.694  1.00  0.00     0.163 HD
BRANCH   5   8
ATOM      8  C   UNL     1       3.466  -3.525   9.961  1.00  0.00     0.083 A 
ATOM      9  C   UNL     1       1.971  -1.894   8.933  1.00  0.00     0.087 A 
ATOM     10  C   UNL     1       2.045  -1.115  10.092  1.00  0.00     0.034 A 
ATOM     11  C   UNL     1       2.603  -3.147   8.932  1.00  0.00     0.048 A 
ATOM     12  C   UNL     1       2.777  -1.554  11.200  1.00  0.00     0.049 A 
ATOM     13  C   UNL     1       3.498  -2.745  11.125  1.00  0.00     0.128 A 
BRANCH   9  14
ATOM     14  N   UNL     1       1.331  -1.371   7.782  1.00  0.00    -0.151 NA
ATOM     15  N   UNL     1       1.940  -1.735   6.749  1.00  0.00    -0.151 NA
BRANCH  15  16
ATOM     16  C   UNL     1       1.504  -1.083   5.584  1.00  0.00     0.086 A 
ATOM     17  C   UNL     1       0.898   0.151   3.139  1.00  0.00     0.082 A 
ATOM     18  C   UNL     1       0.821  -1.239   3.249  1.00  0.00     0.024 A 
ATOM     19  C   UNL     1       1.276   0.930   4.237  1.00  0.00     0.024 A 
ATOM     20  C   UNL     1       1.130  -1.849   4.470  1.00  0.00     0.031 A 
ATOM     21  C   UNL     1       1.577   0.310   5.453  1.00  0.00     0.031 A 
BRANCH  17  22
ATOM     22  S   UNL     1       0.542   0.948   1.597  1.00  0.00     0.238 S 
ATOM     23  O   UNL     1       1.261   2.199   1.558  1.00  0.00    -0.207 OA
ATOM     24  O   UNL     1      -0.880   0.854   1.368  1.00  0.00    -0.207 OA
BRANCH  22  25
ATOM     25  N   UNL     1       1.290  -0.035   0.461  1.00  0.00    -0.225 NA
ATOM     26  H   UNL     1       1.138   0.347  -0.473  1.00  0.00     0.137 HD
ATOM     27  H   UNL     1       0.895  -0.975   0.511  1.00  0.00     0.137 HD
ENDBRANCH  22  25
ENDBRANCH  17  22
ENDBRANCH  15  16
ENDBRANCH   9  14
BRANCH  13  28
ATOM     28  O   UNL     1       4.229  -3.086  12.233  1.00  0.00    -0.507 OA
ATOM     29  H   UNL     1       4.220  -2.533  12.989  1.00  0.00     0.293 HD
ENDBRANCH  13  28
ENDBRANCH   5   8
ENDBRANCH   3   4
ENDBRANCH   2   3
ENDBRANCH   1   2
BRANCH   1  30
ATOM     30  C   UNL     1       5.868  -6.809   5.425  1.00  0.00     0.002 C 
BRANCH  30  31
ATOM     31  C   UNL     1       5.136  -6.299   4.181  1.00  0.00     0.021 C 
BRANCH  31  32
ATOM     32  C   UNL     1       6.010  -5.640   3.119  1.00  0.00     0.116 C 
BRANCH  32  33
ATOM     33  N   UNL     1       7.010  -6.543   2.574  1.00  0.00    -0.352 N 
ATOM     34  C   UNL     1       7.231  -6.922   1.272  1.00  0.00     0.251 C 
ATOM     35  H   UNL     1       7.619  -6.943   3.236  1.00  0.00     0.163 HD
ATOM     36  O   UNL     1       8.025  -7.825   1.023  1.00  0.00    -0.269 OA
BRANCH  34  37
ATOM     37  C   UNL     1       6.491  -6.264   0.173  1.00  0.00     0.039 A 
ATOM     38  C   UNL     1       5.892  -7.059  -0.808  1.00  0.00     0.014 A 
ATOM     39  C   UNL     1       6.379  -4.872   0.112  1.00  0.00     0.014 A 
ATOM     40  C   UNL     1       5.110  -6.463  -1.801  1.00  0.00     0.010 A 
ATOM     41  C   UNL     1       5.546  -4.285  -0.839  1.00  0.00     0.010 A 
ATOM     42  C   UNL     1       4.893  -5.075  -1.797  1.00  0.00    -0.014 A 
BRANCH  42  43
ATOM     43  C   UNL     1       3.947  -4.440  -2.752  1.00  0.00     0.031 A 
ATOM     44  C   UNL     1       4.438  -3.440  -3.764  1.00  0.00     0.074 A 
ATOM     45  C   UNL     1       2.629  -4.707  -2.653  1.00  0.00     0.049 A 
ATOM     46  N   UNL     1       3.747  -2.730  -4.619  1.00  0.00    -0.248 NA
ATOM     47  C   UNL     1       5.887  -3.188  -3.804  1.00  0.00     0.031 C 
ATOM     48  C   UNL     1       2.023  -5.629  -1.688  1.00  0.00     0.029 A 
ATOM     49  N   UNL     1       1.557  -4.222  -3.362  1.00  0.00    -0.354 N 
ATOM     50  C   UNL     1       4.673  -1.939  -5.290  1.00  0.00     0.074 A 
ATOM     51  C   UNL     1       5.968  -2.224  -4.712  1.00  0.00     0.031 C 
ATOM     52  C   UNL     1       0.694  -5.657  -1.880  1.00  0.00     0.029 A 
ATOM     53  C   UNL     1       0.346  -4.723  -2.945  1.00  0.00     0.049 A 
ATOM     54  H   UNL     1       1.648  -3.576  -4.100  1.00  0.00     0.167 HD
ATOM     55  C   UNL     1       4.463  -1.065  -6.303  1.00  0.00     0.031 A 
ATOM     56  C   UNL     1      -0.908  -4.451  -3.357  1.00  0.00     0.031 A 
ATOM     57  C   UNL     1       3.173  -0.792  -6.881  1.00  0.00     0.049 A 
ATOM     58  C   UNL     1      -1.115  -3.458  -4.467  1.00  0.00     0.074 A 
ATOM     59  C   UNL     1       2.870   0.029  -7.954  1.00  0.00     0.029 A 
ATOM     60  N   UNL     1       1.974  -1.325  -6.435  1.00  0.00    -0.354 N 
ATOM     61  N   UNL     1      -0.217  -2.774  -5.136  1.00  0.00    -0.248 NA
ATOM     62  C   UNL     1      -2.502  -3.200  -4.880  1.00  0.00     0.031 C 
ATOM     63  C   UNL     1       1.481   0.048  -8.111  1.00  0.00     0.029 A 
ATOM     64  C   UNL     1       0.924  -0.815  -7.181  1.00  0.00     0.049 A 
ATOM     65  H   UNL     1       1.881  -1.970  -5.697  1.00  0.00     0.167 HD
ATOM     66  C   UNL     1      -0.930  -2.024  -6.065  1.00  0.00     0.074 A 
ATOM     67  C   UNL     1      -2.329  -2.350  -5.883  1.00  0.00     0.031 C 
ATOM     68  C   UNL     1      -0.466  -1.142  -6.985  1.00  0.00     0.031 A 
BRANCH  55  69
ATOM     69  C   UNL     1       5.655  -0.322  -6.850  1.00  0.00    -0.014 A 
ATOM     70  C   UNL     1       6.644  -0.981  -7.603  1.00  0.00     0.010 A 
ATOM     71  C   UNL     1       5.751   1.070  -6.666  1.00  0.00     0.010 A 
ATOM     72  C   UNL     1       7.723  -0.268  -8.132  1.00  0.00     0.020 A 
ATOM     73  C   UNL     1       6.814   1.792  -7.217  1.00  0.00     0.020 A 
ATOM     74  C   UNL     1       7.801   1.115  -7.936  1.00  0.00     0.054 A 
BRANCH  74  75
ATOM     75  S   UNL     1       9.193   2.018  -8.667  1.00  0.00     0.124 S 
ATOM     76  O   UNL     1      10.309   1.575  -7.834  1.00  0.00    -0.237 OA
ATOM     77  O   UNL     1       9.204   1.528 -10.043  1.00  0.00    -0.237 OA
ATOM     78  O   UNL     1       8.819   3.421  -8.510  1.00  0.00    -0.744 OA
ENDBRANCH  74  75
ENDBRANCH  55  69
BRANCH  56  79
ATOM     79  C   UNL     1      -2.068  -5.119  -2.704  1.00  0.00    -0.014 A 
ATOM     80  C   UNL     1      -2.842  -6.061  -3.403  1.00  0.00     0.010 A 
ATOM     81  C   UNL     1      -2.401  -4.816  -1.370  1.00  0.00     0.010 A 
ATOM     82  C   UNL     1      -3.938  -6.673  -2.788  1.00  0.00     0.020 A 
ATOM     83  C   UNL     1      -3.477  -5.449  -0.742  1.00  0.00     0.020 A 
ATOM     84  C   UNL     1      -4.247  -6.365  -1.460  1.00  0.00     0.054 A 
BRANCH  84  85
ATOM     85  S   UNL     1      -5.643  -7.208  -0.666  1.00  0.00     0.124 S 
ATOM     86  O   UNL     1      -6.787  -6.567  -1.306  1.00  0.00    -0.237 OA
ATOM     87  O   UNL     1      -5.414  -8.604  -1.028  1.00  0.00    -0.237 OA
ATOM     88  O   UNL     1      -5.464  -6.903   0.752  1.00  0.00    -0.744 OA
ENDBRANCH  84  85
ENDBRANCH  56  79
BRANCH  68  89
ATOM     89  C   UNL     1      -1.476  -0.473  -7.880  1.00  0.00    -0.014 A 
ATOM     90  C   UNL     1      -2.345   0.515  -7.383  1.00  0.00     0.010 A 
ATOM     91  C   UNL     1      -1.508  -0.787  -9.251  1.00  0.00     0.010 A 
ATOM     92  C   UNL     1      -3.242   1.161  -8.238  1.00  0.00     0.020 A 
ATOM     93  C   UNL     1      -2.382  -0.123 -10.114  1.00  0.00     0.020 A 
ATOM     94  C   UNL     1      -3.252   0.841  -9.599  1.00  0.00     0.054 A 
BRANCH  94  95
ATOM     95  S   UNL     1      -4.384   1.738 -10.696  1.00  0.00     0.124 S 
ATOM     96  O   UNL     1      -5.680   1.187 -10.312  1.00  0.00    -0.237 OA
ATOM     97  O   UNL     1      -4.155   3.131 -10.320  1.00  0.00    -0.237 OA
ATOM     98  O   UNL     1      -3.926   1.378 -12.037  1.00  0.00    -0.744 OA
ENDBRANCH  94  95
ENDBRANCH  68  89
ENDBRANCH  42  43
ENDBRANCH  34  37
ENDBRANCH  32  33
ENDBRANCH  31  32
ENDBRANCH  30  31
ENDBRANCH   1  30
TORSDOF 21
