REMARK SMILES CC[NH+](CC)C[C@H](F)C(=O)NCCCCCCNC(=O)c1ccc(-c2c3nc(c(-c4ccc(S(=O)(=O)[O-])cc4)c4ccc([nH]4)c(-c4ccc(S(=O)(=O)[O-])cc4)c4nc(c(-c5ccc(S(=O)(=O)[O-])cc5)c5ccc2[nH]5)C=C4)C=C3)cc1
REMARK SMILES IDX 14 1 13 2 12 3 11 4 9 5 10 6 7 8 8 9 6 10 3 11 2 13 1 14
REMARK SMILES IDX 4 15 5 16 15 17 16 18 17 19 18 20 19 21 20 23 21 24 22 25
REMARK SMILES IDX 80 26 23 27 79 28 24 29 25 30 26 31 73 32 27 33 78 34 72 35
REMARK SMILES IDX 74 36 28 37 77 38 71 39 70 40 29 42 59 43 40 44 58 45 41 46
REMARK SMILES IDX 44 47 57 48 75 49 42 50 43 51 56 53 76 54 45 55 30 56 31 57
REMARK SMILES IDX 39 58 32 59 38 60 33 61 34 62 35 63 36 64 37 65 60 66 61 67
REMARK SMILES IDX 69 68 62 69 68 70 63 71 64 72 65 73 66 74 67 75 46 76 47 77
REMARK SMILES IDX 55 78 48 79 54 80 49 81 50 82 51 83 52 84 53 85
REMARK H PARENT 11 7 3 12 18 22 74 41 44 52
REMARK Flexibility Score: inf
ROOT
ATOM      1  C   UNL     1       6.623  -1.562   0.452  1.00  0.00     0.002 C 
ENDROOT
BRANCH   1   2
ATOM      2  C   UNL     1       5.128  -1.761   0.166  1.00  0.00     0.021 C 
BRANCH   2   3
ATOM      3  C   UNL     1       4.415  -0.518  -0.355  1.00  0.00     0.116 C 
BRANCH   3   4
ATOM      4  N   UNL     1       4.933  -0.131  -1.651  1.00  0.00    -0.353 N 
ATOM      5  C   UNL     1       4.260   0.327  -2.744  1.00  0.00     0.260 C 
ATOM      6  O   UNL     1       4.902   0.470  -3.790  1.00  0.00    -0.271 OA
ATOM      7  H   UNL     1       5.909  -0.210  -1.758  1.00  0.00     0.163 HD
BRANCH   5   8
ATOM      8  C   UNL     1       2.791   0.708  -2.655  1.00  0.00     0.309 C 
ATOM      9  F   UNL     1       2.038  -0.306  -2.116  1.00  0.00    -0.230 F 
BRANCH   8  10
ATOM     10  C   UNL     1       2.511   1.986  -1.836  1.00  0.00     0.310 C 
BRANCH  10  11
ATOM     11  N   UNL     1       3.169   3.282  -2.094  1.00  0.00    -0.333 N 
ATOM     12  H   UNL     1       2.752   3.849  -1.355  1.00  0.00     0.348 HD
BRANCH  11  13
ATOM     13  C   UNL     1       4.604   3.364  -1.809  1.00  0.00     0.258 C 
ATOM     14  C   UNL     1       4.951   3.227  -0.328  1.00  0.00     0.071 C 
ENDBRANCH  11  13
BRANCH  11  15
ATOM     15  C   UNL     1       2.789   3.939  -3.348  1.00  0.00     0.258 C 
ATOM     16  C   UNL     1       3.266   3.310  -4.651  1.00  0.00     0.071 C 
ENDBRANCH  11  15
ENDBRANCH  10  11
ENDBRANCH   8  10
ENDBRANCH   5   8
ENDBRANCH   3   4
ENDBRANCH   2   3
ENDBRANCH   1   2
BRANCH   1  17
ATOM     17  C   UNL     1       6.959  -0.447   1.448  1.00  0.00     0.002 C 
BRANCH  17  18
ATOM     18  C   UNL     1       6.249  -0.547   2.799  1.00  0.00     0.021 C 
BRANCH  18  19
ATOM     19  C   UNL     1       6.391  -1.893   3.498  1.00  0.00     0.116 C 
BRANCH  19  20
ATOM     20  N   UNL     1       7.775  -2.239   3.770  1.00  0.00    -0.352 N 
ATOM     21  C   UNL     1       8.322  -2.765   4.915  1.00  0.00     0.251 C 
ATOM     22  H   UNL     1       8.407  -2.074   3.034  1.00  0.00     0.163 HD
ATOM     23  O   UNL     1       9.536  -2.858   5.032  1.00  0.00    -0.269 OA
BRANCH  21  24
ATOM     24  C   UNL     1       7.428  -3.190   6.016  1.00  0.00     0.039 A 
ATOM     25  C   UNL     1       7.739  -2.804   7.321  1.00  0.00     0.014 A 
ATOM     26  C   UNL     1       6.283  -3.949   5.758  1.00  0.00     0.014 A 
ATOM     27  C   UNL     1       6.872  -3.138   8.363  1.00  0.00     0.010 A 
ATOM     28  C   UNL     1       5.380  -4.210   6.785  1.00  0.00     0.010 A 
ATOM     29  C   UNL     1       5.670  -3.817   8.100  1.00  0.00    -0.014 A 
BRANCH  29  30
ATOM     30  C   UNL     1       4.714  -4.133   9.192  1.00  0.00     0.031 A 
ATOM     31  C   UNL     1       4.407  -5.566   9.536  1.00  0.00     0.074 A 
ATOM     32  C   UNL     1       4.091  -3.131   9.844  1.00  0.00     0.049 A 
ATOM     33  N   UNL     1       3.581  -6.039  10.433  1.00  0.00    -0.248 NA
ATOM     34  C   UNL     1       5.100  -6.603   8.754  1.00  0.00     0.031 C 
ATOM     35  C   UNL     1       4.273  -1.702   9.576  1.00  0.00     0.029 A 
ATOM     36  N   UNL     1       3.176  -3.161  10.867  1.00  0.00    -0.354 N 
ATOM     37  C   UNL     1       3.649  -7.423  10.318  1.00  0.00     0.074 A 
ATOM     38  C   UNL     1       4.549  -7.712   9.224  1.00  0.00     0.031 C 
ATOM     39  C   UNL     1       3.521  -0.994  10.434  1.00  0.00     0.029 A 
ATOM     40  C   UNL     1       2.771  -1.914  11.282  1.00  0.00     0.049 A 
ATOM     41  H   UNL     1       2.841  -3.997  11.265  1.00  0.00     0.167 HD
ATOM     42  C   UNL     1       3.038  -8.369  11.070  1.00  0.00     0.031 A 
ATOM     43  C   UNL     1       1.891  -1.552  12.236  1.00  0.00     0.031 A 
ATOM     44  C   UNL     1       2.145  -8.077  12.161  1.00  0.00     0.049 A 
ATOM     45  C   UNL     1       1.206  -2.622  13.043  1.00  0.00     0.074 A 
ATOM     46  C   UNL     1       1.508  -8.962  13.012  1.00  0.00     0.029 A 
ATOM     47  N   UNL     1       1.762  -6.802  12.550  1.00  0.00    -0.354 N 
ATOM     48  N   UNL     1       1.333  -3.925  12.961  1.00  0.00    -0.248 NA
ATOM     49  C   UNL     1       0.272  -2.171  14.084  1.00  0.00     0.031 C 
ATOM     50  C   UNL     1       0.695  -8.226  13.879  1.00  0.00     0.029 A 
ATOM     51  C   UNL     1       0.879  -6.878  13.614  1.00  0.00     0.049 A 
ATOM     52  H   UNL     1       2.072  -5.966  12.132  1.00  0.00     0.167 HD
ATOM     53  C   UNL     1       0.520  -4.449  13.960  1.00  0.00     0.074 A 
ATOM     54  C   UNL     1      -0.079  -3.321  14.644  1.00  0.00     0.031 C 
ATOM     55  C   UNL     1       0.291  -5.745  14.285  1.00  0.00     0.031 A 
BRANCH  42  56
ATOM     56  C   UNL     1       3.315  -9.812  10.735  1.00  0.00    -0.014 A 
ATOM     57  C   UNL     1       4.585 -10.378  10.951  1.00  0.00     0.010 A 
ATOM     58  C   UNL     1       2.284 -10.626  10.231  1.00  0.00     0.010 A 
ATOM     59  C   UNL     1       4.830 -11.716  10.630  1.00  0.00     0.020 A 
ATOM     60  C   UNL     1       2.516 -11.973   9.940  1.00  0.00     0.020 A 
ATOM     61  C   UNL     1       3.793 -12.505  10.125  1.00  0.00     0.054 A 
BRANCH  61  62
ATOM     62  S   UNL     1       4.136 -14.244   9.740  1.00  0.00     0.124 S 
ATOM     63  O   UNL     1       4.975 -14.129   8.549  1.00  0.00    -0.237 OA
ATOM     64  O   UNL     1       4.817 -14.710  10.944  1.00  0.00    -0.237 OA
ATOM     65  O   UNL     1       2.812 -14.817   9.514  1.00  0.00    -0.744 OA
ENDBRANCH  61  62
ENDBRANCH  42  56
BRANCH  43  66
ATOM     66  C   UNL     1       1.613  -0.110  12.488  1.00  0.00    -0.014 A 
ATOM     67  C   UNL     1       2.021   0.500  13.688  1.00  0.00     0.010 A 
ATOM     68  C   UNL     1       0.935   0.662  11.527  1.00  0.00     0.010 A 
ATOM     69  C   UNL     1       1.731   1.846  13.933  1.00  0.00     0.020 A 
ATOM     70  C   UNL     1       0.673   2.016  11.754  1.00  0.00     0.020 A 
ATOM     71  C   UNL     1       1.059   2.596  12.964  1.00  0.00     0.054 A 
BRANCH  71  72
ATOM     72  S   UNL     1       0.726   4.349  13.289  1.00  0.00     0.124 S 
ATOM     73  O   UNL     1      -0.327   4.276  14.297  1.00  0.00    -0.237 OA
ATOM     74  O   UNL     1       2.021   4.834  13.759  1.00  0.00    -0.237 OA
ATOM     75  O   UNL     1       0.311   4.865  11.986  1.00  0.00    -0.744 OA
ENDBRANCH  71  72
ENDBRANCH  43  66
BRANCH  55  76
ATOM     76  C   UNL     1      -0.612  -6.017  15.461  1.00  0.00    -0.014 A 
ATOM     77  C   UNL     1      -1.995  -5.774  15.396  1.00  0.00     0.010 A 
ATOM     78  C   UNL     1      -0.067  -6.569  16.636  1.00  0.00     0.010 A 
ATOM     79  C   UNL     1      -2.811  -6.040  16.500  1.00  0.00     0.020 A 
ATOM     80  C   UNL     1      -0.884  -6.867  17.728  1.00  0.00     0.020 A 
ATOM     81  C   UNL     1      -2.249  -6.585  17.659  1.00  0.00     0.054 A 
BRANCH  81  82
ATOM     82  S   UNL     1      -3.335  -6.952  19.064  1.00  0.00     0.124 S 
ATOM     83  O   UNL     1      -3.645  -5.617  19.567  1.00  0.00    -0.237 OA
ATOM     84  O   UNL     1      -4.446  -7.660  18.433  1.00  0.00    -0.237 OA
ATOM     85  O   UNL     1      -2.502  -7.770  19.943  1.00  0.00    -0.744 OA
ENDBRANCH  81  82
ENDBRANCH  55  76
ENDBRANCH  29  30
ENDBRANCH  21  24
ENDBRANCH  19  20
ENDBRANCH  18  19
ENDBRANCH  17  18
ENDBRANCH   1  17
TORSDOF 20
