REMARK SMILES C[C@H]1[C@H](C(=O)NCCCCCCNC(=O)c2ccc(-c3c4nc(c(-c5ccc(S(=O)(=O)[O-])cc5)c5ccc([nH]5)c(-c5ccc(S(=O)(=O)[O-])cc5)c5nc(c(-c6ccc(S(=O)(=O)[O-])cc6)c6ccc3[nH]6)C=C5)C=C4)cc2)CCN1S(=O)(=O)C(F)(F)F
REMARK SMILES IDX 10 1 9 2 8 3 7 4 6 5 4 6 5 7 3 9 1 10 2 11 78 12 76 13 77 14
REMARK SMILES IDX 79 15 80 16 81 17 82 18 83 19 84 20 85 21 11 22 12 23 13 24
REMARK SMILES IDX 14 25 15 27 16 28 17 29 75 30 18 31 74 32 19 33 20 34 21 35
REMARK SMILES IDX 68 36 22 37 73 38 67 39 69 40 23 41 72 42 66 43 65 44 24 46
REMARK SMILES IDX 54 47 35 48 53 49 36 50 39 51 52 52 70 53 37 54 38 55 51 57
REMARK SMILES IDX 71 58 40 59 25 60 26 61 34 62 27 63 33 64 28 65 29 66 30 67
REMARK SMILES IDX 31 68 32 69 55 70 56 71 64 72 57 73 63 74 58 75 59 76 60 77
REMARK SMILES IDX 61 78 62 79 41 80 42 81 50 82 43 83 49 84 44 85 45 86 46 87
REMARK SMILES IDX 47 88 48 89
REMARK H PARENT 6 8 13 26 69 45 39 56
REMARK Flexibility Score: inf
ROOT
ATOM      1  C   UNL     1      -1.631   1.237   6.078  1.00  0.00     0.002 C 
ENDROOT
BRANCH   1   2
ATOM      2  C   UNL     1      -0.230   1.369   5.467  1.00  0.00     0.002 C 
BRANCH   2   3
ATOM      3  C   UNL     1      -0.038   0.659   4.125  1.00  0.00     0.021 C 
BRANCH   3   4
ATOM      4  C   UNL     1      -0.970   1.157   3.022  1.00  0.00     0.116 C 
BRANCH   4   5
ATOM      5  N   UNL     1      -0.401   2.259   2.272  1.00  0.00    -0.356 N 
ATOM      6  C   UNL     1      -0.019   2.335   0.968  1.00  0.00     0.224 C 
ATOM      7  O   UNL     1       0.425   3.416   0.570  1.00  0.00    -0.275 OA
ATOM      8  H   UNL     1      -0.270   3.086   2.789  1.00  0.00     0.163 HD
BRANCH   6   9
ATOM      9  C   UNL     1      -0.102   1.153   0.006  1.00  0.00     0.098 C 
ATOM     10  C   UNL     1       2.053  -0.121  -0.302  1.00  0.00     0.026 C 
ATOM     11  C   UNL     1       0.727  -0.056   0.458  1.00  0.00     0.082 C 
ATOM     12  N   UNL     1      -0.059  -1.272   0.095  1.00  0.00    -0.190 NA
ATOM     13  C   UNL     1      -1.501   0.622  -0.261  1.00  0.00     0.032 C 
ATOM     14  C   UNL     1      -1.277  -0.833  -0.645  1.00  0.00     0.104 C 
BRANCH  12  15
ATOM     15  S   UNL     1      -0.339  -2.504   1.259  1.00  0.00     0.314 S 
ATOM     16  O   UNL     1      -1.266  -1.930   2.223  1.00  0.00    -0.203 OA
ATOM     17  O   UNL     1      -0.768  -3.657   0.489  1.00  0.00    -0.203 OA
BRANCH  15  18
ATOM     18  C   UNL     1       1.300  -2.857   2.107  1.00  0.00     0.511 C 
ATOM     19  F   UNL     1       2.159  -3.553   1.314  1.00  0.00    -0.155 F 
ATOM     20  F   UNL     1       1.948  -1.712   2.474  1.00  0.00    -0.155 F 
ATOM     21  F   UNL     1       1.129  -3.576   3.253  1.00  0.00    -0.155 F 
ENDBRANCH  15  18
ENDBRANCH  12  15
ENDBRANCH   6   9
ENDBRANCH   4   5
ENDBRANCH   3   4
ENDBRANCH   2   3
ENDBRANCH   1   2
BRANCH   1  22
ATOM     22  C   UNL     1      -2.156  -0.194   6.233  1.00  0.00     0.021 C 
BRANCH  22  23
ATOM     23  C   UNL     1      -1.289  -1.111   7.093  1.00  0.00     0.116 C 
BRANCH  23  24
ATOM     24  N   UNL     1      -1.122  -0.593   8.442  1.00  0.00    -0.352 N 
ATOM     25  C   UNL     1      -1.462  -1.150   9.649  1.00  0.00     0.251 C 
ATOM     26  H   UNL     1      -0.700   0.295   8.498  1.00  0.00     0.163 HD
ATOM     27  O   UNL     1      -1.442  -0.457  10.663  1.00  0.00    -0.269 OA
BRANCH  25  28
ATOM     28  C   UNL     1      -1.859  -2.572   9.733  1.00  0.00     0.039 A 
ATOM     29  C   UNL     1      -2.942  -2.924  10.543  1.00  0.00     0.014 A 
ATOM     30  C   UNL     1      -1.145  -3.561   9.050  1.00  0.00     0.014 A 
ATOM     31  C   UNL     1      -3.344  -4.260  10.624  1.00  0.00     0.010 A 
ATOM     32  C   UNL     1      -1.586  -4.882   9.080  1.00  0.00     0.010 A 
ATOM     33  C   UNL     1      -2.687  -5.246   9.870  1.00  0.00    -0.014 A 
BRANCH  33  34
ATOM     34  C   UNL     1      -3.141  -6.660   9.893  1.00  0.00     0.031 A 
ATOM     35  C   UNL     1      -2.252  -7.736  10.453  1.00  0.00     0.074 A 
ATOM     36  C   UNL     1      -4.333  -6.983   9.352  1.00  0.00     0.049 A 
ATOM     37  N   UNL     1      -2.454  -9.028  10.509  1.00  0.00    -0.248 NA
ATOM     38  C   UNL     1      -0.955  -7.308  11.004  1.00  0.00     0.031 C 
ATOM     39  C   UNL     1      -5.271  -6.037   8.744  1.00  0.00     0.029 A 
ATOM     40  N   UNL     1      -4.956  -8.199   9.220  1.00  0.00    -0.354 N 
ATOM     41  C   UNL     1      -1.310  -9.568  11.084  1.00  0.00     0.074 A 
ATOM     42  C   UNL     1      -0.398  -8.469  11.317  1.00  0.00     0.031 C 
ATOM     43  C   UNL     1      -6.360  -6.704   8.327  1.00  0.00     0.029 A 
ATOM     44  C   UNL     1      -6.181  -8.127   8.600  1.00  0.00     0.049 A 
ATOM     45  H   UNL     1      -4.563  -9.043   9.540  1.00  0.00     0.167 HD
ATOM     46  C   UNL     1      -1.047 -10.858  11.404  1.00  0.00     0.031 A 
ATOM     47  C   UNL     1      -7.060  -9.096   8.279  1.00  0.00     0.031 A 
ATOM     48  C   UNL     1      -1.959 -11.947  11.176  1.00  0.00     0.049 A 
ATOM     49  C   UNL     1      -6.740 -10.523   8.631  1.00  0.00     0.074 A 
ATOM     50  C   UNL     1      -1.808 -13.281  11.514  1.00  0.00     0.029 A 
ATOM     51  N   UNL     1      -3.191 -11.832  10.549  1.00  0.00    -0.354 N 
ATOM     52  N   UNL     1      -5.679 -11.004   9.233  1.00  0.00    -0.248 NA
ATOM     53  C   UNL     1      -7.742 -11.535   8.270  1.00  0.00     0.031 C 
ATOM     54  C   UNL     1      -2.926 -13.980  11.047  1.00  0.00     0.029 A 
ATOM     55  C   UNL     1      -3.799 -13.073  10.468  1.00  0.00     0.049 A 
ATOM     56  H   UNL     1      -3.575 -10.991  10.211  1.00  0.00     0.167 HD
ATOM     57  C   UNL     1      -5.896 -12.373   9.344  1.00  0.00     0.074 A 
ATOM     58  C   UNL     1      -7.196 -12.639   8.761  1.00  0.00     0.031 C 
ATOM     59  C   UNL     1      -5.091 -13.324   9.880  1.00  0.00     0.031 A 
BRANCH  46  60
ATOM     60  C   UNL     1       0.289 -11.160  12.031  1.00  0.00    -0.014 A 
ATOM     61  C   UNL     1       0.589 -10.742  13.341  1.00  0.00     0.010 A 
ATOM     62  C   UNL     1       1.248 -11.898  11.313  1.00  0.00     0.010 A 
ATOM     63  C   UNL     1       1.838 -11.016  13.903  1.00  0.00     0.020 A 
ATOM     64  C   UNL     1       2.489 -12.198  11.884  1.00  0.00     0.020 A 
ATOM     65  C   UNL     1       2.783 -11.738  13.169  1.00  0.00     0.054 A 
BRANCH  65  66
ATOM     66  S   UNL     1       4.393 -12.088  13.928  1.00  0.00     0.124 S 
ATOM     67  O   UNL     1       5.042 -10.780  13.873  1.00  0.00    -0.237 OA
ATOM     68  O   UNL     1       4.024 -12.549  15.265  1.00  0.00    -0.237 OA
ATOM     69  O   UNL     1       4.973 -13.108  13.059  1.00  0.00    -0.744 OA
ENDBRANCH  65  66
ENDBRANCH  46  60
BRANCH  47  70
ATOM     70  C   UNL     1      -8.336  -8.743   7.598  1.00  0.00    -0.014 A 
ATOM     71  C   UNL     1      -9.557  -8.821   8.291  1.00  0.00     0.010 A 
ATOM     72  C   UNL     1      -8.334  -8.309   6.260  1.00  0.00     0.010 A 
ATOM     73  C   UNL     1     -10.755  -8.485   7.654  1.00  0.00     0.020 A 
ATOM     74  C   UNL     1      -9.527  -7.946   5.628  1.00  0.00     0.020 A 
ATOM     75  C   UNL     1     -10.732  -8.046   6.327  1.00  0.00     0.054 A 
BRANCH  75  76
ATOM     76  S   UNL     1     -12.293  -7.560   5.539  1.00  0.00     0.124 S 
ATOM     77  O   UNL     1     -12.927  -8.852   5.298  1.00  0.00    -0.237 OA
ATOM     78  O   UNL     1     -12.918  -6.729   6.564  1.00  0.00    -0.237 OA
ATOM     79  O   UNL     1     -11.861  -6.840   4.343  1.00  0.00    -0.744 OA
ENDBRANCH  75  76
ENDBRANCH  47  70
BRANCH  59  80
ATOM     80  C   UNL     1      -5.603 -14.739   9.888  1.00  0.00    -0.014 A 
ATOM     81  C   UNL     1      -5.670 -15.496   8.704  1.00  0.00     0.010 A 
ATOM     82  C   UNL     1      -5.972 -15.338  11.106  1.00  0.00     0.010 A 
ATOM     83  C   UNL     1      -6.125 -16.817   8.735  1.00  0.00     0.020 A 
ATOM     84  C   UNL     1      -6.402 -16.667  11.145  1.00  0.00     0.020 A 
ATOM     85  C   UNL     1      -6.488 -17.394   9.956  1.00  0.00     0.054 A 
BRANCH  85  86
ATOM     86  S   UNL     1      -7.032 -19.124   9.977  1.00  0.00     0.124 S 
ATOM     87  O   UNL     1      -8.374 -19.028   9.411  1.00  0.00    -0.237 OA
ATOM     88  O   UNL     1      -6.039 -19.783   9.131  1.00  0.00    -0.237 OA
ATOM     89  O   UNL     1      -6.976 -19.488  11.391  1.00  0.00    -0.744 OA
ENDBRANCH  85  86
ENDBRANCH  59  80
ENDBRANCH  33  34
ENDBRANCH  25  28
ENDBRANCH  23  24
ENDBRANCH  22  23
ENDBRANCH   1  22
TORSDOF 18
