REMARK SMILES COc1ccc2cc([C@@H](O)[C@H](F)C(=O)NCCCCCCNC(=O)c3ccc(-c4c5nc(c(-c6ccc(S(=O)(=O)[O-])cc6)c6ccc([nH]6)c(-c6ccc(S(=O)(=O)[O-])cc6)c6nc(c(-c7ccc(S(=O)(=O)[O-])cc7)c7ccc4[nH]7)C=C6)C=C5)cc3)ccc2c1
REMARK SMILES IDX 18 1 17 2 16 3 15 4 13 5 14 6 11 8 12 9 9 10 8 11 3 12 4 13
REMARK SMILES IDX 88 14 5 15 87 16 6 17 86 18 7 19 85 20 2 21 1 22 10 23 19 25
REMARK SMILES IDX 20 26 21 27 22 28 23 29 24 31 25 32 26 33 84 34 27 35 83 36
REMARK SMILES IDX 28 37 29 38 30 39 77 40 31 41 82 42 76 43 78 44 32 45 81 46
REMARK SMILES IDX 75 47 74 48 33 50 63 51 44 52 62 53 45 54 48 55 61 56 79 57
REMARK SMILES IDX 46 58 47 59 60 61 80 62 49 63 34 64 35 65 43 66 36 67 42 68
REMARK SMILES IDX 37 69 38 70 39 71 40 72 41 73 64 74 65 75 73 76 66 77 72 78
REMARK SMILES IDX 67 79 68 80 69 81 70 82 71 83 50 84 51 85 59 86 52 87 58 88
REMARK SMILES IDX 53 89 54 90 55 91 56 92 57 93
REMARK H PARENT 15 7 10 24 22 30 78 49 48 60
REMARK Flexibility Score: inf
ROOT
ATOM      1  C   UNL     1      -0.877   6.030  12.050  1.00  0.00     0.002 C 
ENDROOT
BRANCH   1   2
ATOM      2  C   UNL     1      -0.941   5.360  10.674  1.00  0.00     0.021 C 
BRANCH   2   3
ATOM      3  C   UNL     1      -0.163   6.090   9.587  1.00  0.00     0.116 C 
BRANCH   3   4
ATOM      4  N   UNL     1       1.254   6.151   9.898  1.00  0.00    -0.353 N 
ATOM      5  C   UNL     1       2.303   5.750   9.124  1.00  0.00     0.257 C 
ATOM      6  O   UNL     1       3.445   5.891   9.567  1.00  0.00    -0.272 OA
ATOM      7  H   UNL     1       1.486   6.528  10.778  1.00  0.00     0.163 HD
BRANCH   5   8
ATOM      8  C   UNL     1       2.050   5.222   7.721  1.00  0.00     0.288 C 
ATOM      9  F   UNL     1       1.159   4.186   7.708  1.00  0.00    -0.234 F 
BRANCH   8  10
ATOM     10  C   UNL     1       1.574   6.386   6.819  1.00  0.00     0.188 C 
BRANCH  10  11
ATOM     11  C   UNL     1       2.563   6.667   5.712  1.00  0.00    -0.015 A 
ATOM     12  C   UNL     1       5.747   6.337   1.796  1.00  0.00     0.119 A 
ATOM     13  C   UNL     1       5.053   5.130   1.827  1.00  0.00     0.047 A 
ATOM     14  C   UNL     1       5.493   7.319   2.754  1.00  0.00     0.055 A 
ATOM     15  C   UNL     1       4.070   4.919   2.794  1.00  0.00     0.012 A 
ATOM     16  C   UNL     1       4.508   7.121   3.732  1.00  0.00    -0.015 A 
ATOM     17  C   UNL     1       3.787   5.906   3.747  1.00  0.00    -0.018 A 
ATOM     18  C   UNL     1       4.232   8.100   4.698  1.00  0.00     0.009 A 
ATOM     19  C   UNL     1       2.813   5.698   4.729  1.00  0.00     0.015 A 
ATOM     20  C   UNL     1       3.271   7.873   5.683  1.00  0.00     0.007 A 
BRANCH  12  21
ATOM     21  O   UNL     1       6.738   6.610   0.893  1.00  0.00    -0.497 OA
ATOM     22  C   UNL     1       6.354   6.327  -0.450  1.00  0.00     0.278 C 
ENDBRANCH  12  21
ENDBRANCH  10  11
BRANCH  10  23
ATOM     23  O   UNL     1       0.286   6.144   6.241  1.00  0.00    -0.385 OA
ATOM     24  H   UNL     1       0.334   5.372   5.655  1.00  0.00     0.211 HD
ENDBRANCH  10  23
ENDBRANCH   8  10
ENDBRANCH   5   8
ENDBRANCH   3   4
ENDBRANCH   2   3
ENDBRANCH   1   2
BRANCH   1  25
ATOM     25  C   UNL     1      -1.317   7.497  12.077  1.00  0.00     0.002 C 
BRANCH  25  26
ATOM     26  C   UNL     1      -2.715   7.763  11.515  1.00  0.00     0.021 C 
BRANCH  26  27
ATOM     27  C   UNL     1      -3.827   6.951  12.168  1.00  0.00     0.116 C 
BRANCH  27  28
ATOM     28  N   UNL     1      -3.946   7.229  13.590  1.00  0.00    -0.352 N 
ATOM     29  C   UNL     1      -5.057   7.585  14.312  1.00  0.00     0.251 C 
ATOM     30  H   UNL     1      -3.113   7.152  14.108  1.00  0.00     0.163 HD
ATOM     31  O   UNL     1      -4.938   7.968  15.474  1.00  0.00    -0.269 OA
BRANCH  29  32
ATOM     32  C   UNL     1      -6.392   7.527  13.680  1.00  0.00     0.039 A 
ATOM     33  C   UNL     1      -7.273   8.594  13.863  1.00  0.00     0.014 A 
ATOM     34  C   UNL     1      -6.769   6.427  12.905  1.00  0.00     0.014 A 
ATOM     35  C   UNL     1      -8.513   8.583  13.221  1.00  0.00     0.010 A 
ATOM     36  C   UNL     1      -7.970   6.455  12.202  1.00  0.00     0.010 A 
ATOM     37  C   UNL     1      -8.858   7.529  12.358  1.00  0.00    -0.014 A 
BRANCH  37  38
ATOM     38  C   UNL     1     -10.140   7.540  11.608  1.00  0.00     0.031 A 
ATOM     39  C   UNL     1     -11.169   6.469  11.844  1.00  0.00     0.074 A 
ATOM     40  C   UNL     1     -10.348   8.477  10.662  1.00  0.00     0.049 A 
ATOM     41  N   UNL     1     -12.324   6.291  11.255  1.00  0.00    -0.248 NA
ATOM     42  C   UNL     1     -10.845   5.447  12.851  1.00  0.00     0.031 C 
ATOM     43  C   UNL     1      -9.403   9.535  10.297  1.00  0.00     0.029 A 
ATOM     44  N   UNL     1     -11.415   8.681   9.823  1.00  0.00    -0.354 N 
ATOM     45  C   UNL     1     -12.854   5.129  11.805  1.00  0.00     0.074 A 
ATOM     46  C   UNL     1     -11.869   4.616  12.732  1.00  0.00     0.031 C 
ATOM     47  C   UNL     1      -9.939  10.286   9.323  1.00  0.00     0.029 A 
ATOM     48  C   UNL     1     -11.244   9.740   8.963  1.00  0.00     0.049 A 
ATOM     49  H   UNL     1     -12.226   8.123   9.836  1.00  0.00     0.167 HD
ATOM     50  C   UNL     1     -14.056   4.550  11.571  1.00  0.00     0.031 A 
ATOM     51  C   UNL     1     -12.038  10.213   7.982  1.00  0.00     0.031 A 
ATOM     52  C   UNL     1     -15.028   5.063  10.640  1.00  0.00     0.049 A 
ATOM     53  C   UNL     1     -13.369   9.560   7.737  1.00  0.00     0.074 A 
ATOM     54  C   UNL     1     -16.302   4.591  10.380  1.00  0.00     0.029 A 
ATOM     55  N   UNL     1     -14.827   6.152   9.805  1.00  0.00    -0.354 N 
ATOM     56  N   UNL     1     -13.894   8.516   8.332  1.00  0.00    -0.248 NA
ATOM     57  C   UNL     1     -14.221  10.157   6.700  1.00  0.00     0.031 C 
ATOM     58  C   UNL     1     -16.845   5.352   9.339  1.00  0.00     0.029 A 
ATOM     59  C   UNL     1     -15.940   6.346   9.002  1.00  0.00     0.049 A 
ATOM     60  H   UNL     1     -14.014   6.707   9.785  1.00  0.00     0.167 HD
ATOM     61  C   UNL     1     -15.148   8.341   7.756  1.00  0.00     0.074 A 
ATOM     62  C   UNL     1     -15.307   9.399   6.779  1.00  0.00     0.031 C 
ATOM     63  C   UNL     1     -16.082   7.392   8.018  1.00  0.00     0.031 A 
BRANCH  50  64
ATOM     64  C   UNL     1     -14.366   3.274  12.315  1.00  0.00    -0.014 A 
ATOM     65  C   UNL     1     -14.530   3.260  13.713  1.00  0.00     0.010 A 
ATOM     66  C   UNL     1     -14.494   2.067  11.604  1.00  0.00     0.010 A 
ATOM     67  C   UNL     1     -14.743   2.057  14.391  1.00  0.00     0.020 A 
ATOM     68  C   UNL     1     -14.744   0.866  12.274  1.00  0.00     0.020 A 
ATOM     69  C   UNL     1     -14.839   0.865  13.667  1.00  0.00     0.054 A 
BRANCH  69  70
ATOM     70  S   UNL     1     -15.093  -0.685  14.573  1.00  0.00     0.124 S 
ATOM     71  O   UNL     1     -13.787  -0.886  15.197  1.00  0.00    -0.237 OA
ATOM     72  O   UNL     1     -16.180  -0.347  15.488  1.00  0.00    -0.237 OA
ATOM     73  O   UNL     1     -15.438  -1.646  13.528  1.00  0.00    -0.744 OA
ENDBRANCH  69  70
ENDBRANCH  50  64
BRANCH  51  74
ATOM     74  C   UNL     1     -11.576  11.371   7.168  1.00  0.00    -0.014 A 
ATOM     75  C   UNL     1     -12.153  12.642   7.329  1.00  0.00     0.010 A 
ATOM     76  C   UNL     1     -10.501  11.216   6.273  1.00  0.00     0.010 A 
ATOM     77  C   UNL     1     -11.661  13.738   6.614  1.00  0.00     0.020 A 
ATOM     78  C   UNL     1      -9.987  12.314   5.579  1.00  0.00     0.020 A 
ATOM     79  C   UNL     1     -10.572  13.569   5.752  1.00  0.00     0.054 A 
BRANCH  79  80
ATOM     80  S   UNL     1      -9.886  15.025   4.912  1.00  0.00     0.124 S 
ATOM     81  O   UNL     1     -10.920  15.324   3.927  1.00  0.00    -0.237 OA
ATOM     82  O   UNL     1      -9.755  15.985   6.006  1.00  0.00    -0.237 OA
ATOM     83  O   UNL     1      -8.621  14.539   4.366  1.00  0.00    -0.744 OA
ENDBRANCH  79  80
ENDBRANCH  51  74
BRANCH  63  84
ATOM     84  C   UNL     1     -17.377   7.462   7.250  1.00  0.00    -0.014 A 
ATOM     85  C   UNL     1     -17.435   7.155   5.879  1.00  0.00     0.010 A 
ATOM     86  C   UNL     1     -18.567   7.785   7.929  1.00  0.00     0.010 A 
ATOM     87  C   UNL     1     -18.653   7.200   5.195  1.00  0.00     0.020 A 
ATOM     88  C   UNL     1     -19.791   7.799   7.256  1.00  0.00     0.020 A 
ATOM     89  C   UNL     1     -19.824   7.520   5.889  1.00  0.00     0.054 A 
BRANCH  89  90
ATOM     90  S   UNL     1     -21.398   7.528   4.988  1.00  0.00     0.124 S 
ATOM     91  O   UNL     1     -21.271   8.727   4.164  1.00  0.00    -0.237 OA
ATOM     92  O   UNL     1     -21.358   6.260   4.264  1.00  0.00    -0.237 OA
ATOM     93  O   UNL     1     -22.404   7.604   6.045  1.00  0.00    -0.744 OA
ENDBRANCH  89  90
ENDBRANCH  63  84
ENDBRANCH  37  38
ENDBRANCH  29  32
ENDBRANCH  27  28
ENDBRANCH  26  27
ENDBRANCH  25  26
ENDBRANCH   1  25
TORSDOF 20
