REMARK SMILES COc1ccc(-c2ncn(CC(=O)NCCCCCCNC(=O)c3ccc(-c4c5nc(c(-c6ccc(S(=O)(=O)[O-])cc6)c6ccc([nH]6)c(-c6ccc(S(=O)(=O)[O-])cc6)c6nc(c(-c7ccc(S(=O)(=O)[O-])cc7)c7ccc4[nH]7)C=C6)C=C5)cc3)c2-c2ccc(OC)cc2)cc1
REMARK SMILES IDX 17 1 16 2 15 3 14 4 12 5 13 6 11 8 10 9 7 10 8 11 84 12 9 13
REMARK SMILES IDX 6 14 3 15 4 16 94 17 5 18 93 19 2 20 1 21 85 22 86 23 92 24
REMARK SMILES IDX 87 25 91 26 88 27 89 28 90 29 18 30 19 31 20 32 21 33 22 34
REMARK SMILES IDX 23 36 24 37 25 38 83 39 26 40 82 41 27 42 28 43 29 44 76 45
REMARK SMILES IDX 30 46 81 47 75 48 77 49 31 50 80 51 74 52 73 53 32 55 62 56
REMARK SMILES IDX 43 57 61 58 44 59 47 60 60 61 78 62 45 63 46 64 59 66 79 67
REMARK SMILES IDX 48 68 33 69 34 70 42 71 35 72 41 73 36 74 37 75 38 76 39 77
REMARK SMILES IDX 40 78 63 79 64 80 72 81 65 82 71 83 66 84 67 85 68 86 69 87
REMARK SMILES IDX 70 88 49 89 50 90 58 91 51 92 57 93 52 94 53 95 54 96 55 97
REMARK SMILES IDX 56 98
REMARK H PARENT 14 7 21 35 77 54 47 65
REMARK Flexibility Score: inf
ROOT
ATOM      1  C   UNL     1      -1.987  -8.438  -6.174  1.00  0.00     0.002 C 
ENDROOT
BRANCH   1   2
ATOM      2  C   UNL     1      -0.543  -7.929  -6.081  1.00  0.00     0.021 C 
BRANCH   2   3
ATOM      3  C   UNL     1       0.174  -7.792  -7.423  1.00  0.00     0.116 C 
BRANCH   3   4
ATOM      4  N   UNL     1      -0.390  -6.745  -8.251  1.00  0.00    -0.355 N 
ATOM      5  C   UNL     1       0.147  -5.551  -8.632  1.00  0.00     0.239 C 
ATOM      6  O   UNL     1      -0.480  -4.888  -9.464  1.00  0.00    -0.273 OA
ATOM      7  H   UNL     1      -1.298  -6.922  -8.588  1.00  0.00     0.163 HD
BRANCH   5   8
ATOM      8  C   UNL     1       1.506  -5.099  -8.140  1.00  0.00     0.223 C 
BRANCH   8   9
ATOM      9  N   UNL     1       1.655  -5.064  -6.696  1.00  0.00    -0.321 N 
ATOM     10  C   UNL     1       1.582  -4.581  -4.576  1.00  0.00     0.096 A 
ATOM     11  N   UNL     1       2.563  -5.526  -4.721  1.00  0.00    -0.236 NA
ATOM     12  C   UNL     1       1.009  -4.245  -5.797  1.00  0.00     0.076 A 
ATOM     13  C   UNL     1       2.608  -5.768  -6.007  1.00  0.00     0.201 A 
BRANCH  10  14
ATOM     14  C   UNL     1       1.289  -3.885  -3.342  1.00  0.00     0.003 A 
ATOM     15  C   UNL     1       0.616  -2.114  -1.286  1.00  0.00     0.118 A 
ATOM     16  C   UNL     1      -0.340  -2.994  -1.796  1.00  0.00     0.047 A 
ATOM     17  C   UNL     1       1.933  -2.192  -1.741  1.00  0.00     0.047 A 
ATOM     18  C   UNL     1      -0.011  -3.874  -2.826  1.00  0.00     0.014 A 
ATOM     19  C   UNL     1       2.272  -3.083  -2.762  1.00  0.00     0.014 A 
BRANCH  15  20
ATOM     20  O   UNL     1       0.148  -1.256  -0.331  1.00  0.00    -0.497 OA
ATOM     21  C   UNL     1       0.915  -0.075  -0.119  1.00  0.00     0.278 C 
ENDBRANCH  15  20
ENDBRANCH  10  14
BRANCH  12  22
ATOM     22  C   UNL     1       0.073  -3.172  -6.125  1.00  0.00     0.001 A 
ATOM     23  C   UNL     1      -1.216  -3.437  -6.585  1.00  0.00     0.014 A 
ATOM     24  C   UNL     1       0.452  -1.843  -5.902  1.00  0.00     0.014 A 
ATOM     25  C   UNL     1      -2.093  -2.385  -6.864  1.00  0.00     0.047 A 
ATOM     26  C   UNL     1      -0.434  -0.792  -6.153  1.00  0.00     0.047 A 
ATOM     27  C   UNL     1      -1.710  -1.059  -6.644  1.00  0.00     0.118 A 
BRANCH  27  28
ATOM     28  O   UNL     1      -2.662  -0.125  -6.948  1.00  0.00    -0.497 OA
ATOM     29  C   UNL     1      -2.393   1.206  -6.525  1.00  0.00     0.278 C 
ENDBRANCH  27  28
ENDBRANCH  12  22
ENDBRANCH   8   9
ENDBRANCH   5   8
ENDBRANCH   3   4
ENDBRANCH   2   3
ENDBRANCH   1   2
BRANCH   1  30
ATOM     30  C   UNL     1      -2.205  -9.711  -7.006  1.00  0.00     0.002 C 
BRANCH  30  31
ATOM     31  C   UNL     1      -1.312 -10.914  -6.668  1.00  0.00     0.021 C 
BRANCH  31  32
ATOM     32  C   UNL     1      -1.550 -11.495  -5.283  1.00  0.00     0.116 C 
BRANCH  32  33
ATOM     33  N   UNL     1      -2.866 -12.118  -5.160  1.00  0.00    -0.352 N 
ATOM     34  C   UNL     1      -3.441 -12.701  -4.046  1.00  0.00     0.251 C 
ATOM     35  H   UNL     1      -3.415 -12.123  -5.978  1.00  0.00     0.163 HD
ATOM     36  O   UNL     1      -4.360 -13.495  -4.166  1.00  0.00    -0.269 OA
BRANCH  34  37
ATOM     37  C   UNL     1      -2.918 -12.348  -2.712  1.00  0.00     0.039 A 
ATOM     38  C   UNL     1      -2.773 -13.314  -1.711  1.00  0.00     0.014 A 
ATOM     39  C   UNL     1      -2.554 -11.026  -2.478  1.00  0.00     0.014 A 
ATOM     40  C   UNL     1      -2.178 -12.952  -0.503  1.00  0.00     0.010 A 
ATOM     41  C   UNL     1      -1.835 -10.707  -1.354  1.00  0.00     0.010 A 
ATOM     42  C   UNL     1      -1.691 -11.647  -0.337  1.00  0.00    -0.014 A 
BRANCH  42  43
ATOM     43  C   UNL     1      -0.921 -11.270   0.847  1.00  0.00     0.031 A 
ATOM     44  C   UNL     1       0.292 -12.097   1.102  1.00  0.00     0.074 A 
ATOM     45  C   UNL     1      -1.125 -10.105   1.503  1.00  0.00     0.049 A 
ATOM     46  N   UNL     1       0.528 -12.874   2.107  1.00  0.00    -0.248 NA
ATOM     47  C   UNL     1       1.319 -12.164   0.047  1.00  0.00     0.031 C 
ATOM     48  C   UNL     1      -2.071  -9.032   1.165  1.00  0.00     0.029 A 
ATOM     49  N   UNL     1      -0.418  -9.560   2.529  1.00  0.00    -0.354 N 
ATOM     50  C   UNL     1       1.824 -13.352   1.927  1.00  0.00     0.074 A 
ATOM     51  C   UNL     1       2.179 -13.042   0.565  1.00  0.00     0.031 C 
ATOM     52  C   UNL     1      -1.698  -7.889   1.780  1.00  0.00     0.029 A 
ATOM     53  C   UNL     1      -0.612  -8.190   2.693  1.00  0.00     0.049 A 
ATOM     54  H   UNL     1       0.180 -10.088   3.106  1.00  0.00     0.167 HD
ATOM     55  C   UNL     1       2.601 -13.738   2.979  1.00  0.00     0.031 A 
ATOM     56  C   UNL     1       0.093  -7.357   3.498  1.00  0.00     0.031 A 
ATOM     57  C   UNL     1       1.829 -13.877   4.188  1.00  0.00     0.049 A 
ATOM     58  C   UNL     1       0.770  -8.203   4.507  1.00  0.00     0.074 A 
ATOM     59  C   UNL     1       0.744 -14.638   4.571  1.00  0.00     0.029 A 
ATOM     60  N   UNL     1       1.914 -12.848   5.098  1.00  0.00    -0.354 N 
ATOM     61  N   UNL     1       0.133  -8.880   5.420  1.00  0.00    -0.248 NA
ATOM     62  C   UNL     1       2.130  -8.643   4.239  1.00  0.00     0.031 C 
ATOM     63  C   UNL     1      -0.041 -13.772   5.387  1.00  0.00     0.029 A 
ATOM     64  C   UNL     1       0.642 -12.561   5.517  1.00  0.00     0.049 A 
ATOM     65  H   UNL     1       2.739 -12.401   5.394  1.00  0.00     0.167 HD
ATOM     66  C   UNL     1       0.825 -10.077   5.517  1.00  0.00     0.074 A 
ATOM     67  C   UNL     1       2.106  -9.827   4.858  1.00  0.00     0.031 C 
ATOM     68  C   UNL     1       0.184 -11.232   5.866  1.00  0.00     0.031 A 
BRANCH  55  69
ATOM     69  C   UNL     1       4.106 -13.586   3.021  1.00  0.00    -0.014 A 
ATOM     70  C   UNL     1       4.807 -14.061   4.150  1.00  0.00     0.010 A 
ATOM     71  C   UNL     1       4.817 -12.749   2.137  1.00  0.00     0.010 A 
ATOM     72  C   UNL     1       6.120 -13.652   4.419  1.00  0.00     0.020 A 
ATOM     73  C   UNL     1       6.142 -12.373   2.370  1.00  0.00     0.020 A 
ATOM     74  C   UNL     1       6.773 -12.796   3.532  1.00  0.00     0.054 A 
BRANCH  74  75
ATOM     75  S   UNL     1       8.425 -12.182   3.941  1.00  0.00     0.124 S 
ATOM     76  O   UNL     1       8.152 -11.337   5.099  1.00  0.00    -0.237 OA
ATOM     77  O   UNL     1       9.155 -13.417   4.214  1.00  0.00    -0.237 OA
ATOM     78  O   UNL     1       8.837 -11.476   2.730  1.00  0.00    -0.744 OA
ENDBRANCH  74  75
ENDBRANCH  55  69
BRANCH  56  79
ATOM     79  C   UNL     1       0.442  -5.928   3.305  1.00  0.00    -0.014 A 
ATOM     80  C   UNL     1       0.951  -5.170   4.377  1.00  0.00     0.010 A 
ATOM     81  C   UNL     1       0.577  -5.397   2.007  1.00  0.00     0.010 A 
ATOM     82  C   UNL     1       1.650  -3.973   4.153  1.00  0.00     0.020 A 
ATOM     83  C   UNL     1       1.277  -4.204   1.778  1.00  0.00     0.020 A 
ATOM     84  C   UNL     1       1.834  -3.509   2.849  1.00  0.00     0.054 A 
BRANCH  84  85
ATOM     85  S   UNL     1       2.958  -2.108   2.550  1.00  0.00     0.124 S 
ATOM     86  O   UNL     1       2.085  -0.952   2.739  1.00  0.00    -0.237 OA
ATOM     87  O   UNL     1       3.986  -2.283   3.572  1.00  0.00    -0.237 OA
ATOM     88  O   UNL     1       3.425  -2.317   1.181  1.00  0.00    -0.744 OA
ENDBRANCH  84  85
ENDBRANCH  56  79
BRANCH  68  89
ATOM     89  C   UNL     1      -1.210 -11.134   6.444  1.00  0.00    -0.014 A 
ATOM     90  C   UNL     1      -2.312 -10.588   5.755  1.00  0.00     0.010 A 
ATOM     91  C   UNL     1      -1.439 -11.759   7.682  1.00  0.00     0.010 A 
ATOM     92  C   UNL     1      -3.602 -10.643   6.307  1.00  0.00     0.020 A 
ATOM     93  C   UNL     1      -2.722 -11.834   8.228  1.00  0.00     0.020 A 
ATOM     94  C   UNL     1      -3.797 -11.267   7.543  1.00  0.00     0.054 A 
BRANCH  94  95
ATOM     95  S   UNL     1      -5.471 -11.377   8.236  1.00  0.00     0.124 S 
ATOM     96  O   UNL     1      -5.765  -9.989   8.581  1.00  0.00    -0.237 OA
ATOM     97  O   UNL     1      -6.248 -11.928   7.127  1.00  0.00    -0.237 OA
ATOM     98  O   UNL     1      -5.317 -12.277   9.378  1.00  0.00    -0.744 OA
ENDBRANCH  94  95
ENDBRANCH  68  89
ENDBRANCH  42  43
ENDBRANCH  34  37
ENDBRANCH  32  33
ENDBRANCH  31  32
ENDBRANCH  30  31
ENDBRANCH   1  30
TORSDOF 21
