REMARK SMILES CC(=O)NS(=O)(=O)c1cc(-c2ccn(C(F)F)c(=O)c2)ccc1C(=O)NCCCCCCNC(=O)c1ccc(-c2c3nc(c(-c4ccc(S(=O)(=O)[O-])cc4)c4ccc([nH]4)c(-c4ccc(S(=O)(=O)[O-])cc4)c4nc(c(-c5ccc(S(=O)(=O)[O-])cc5)c5ccc2[nH]5)C=C4)C=C3)cc1
REMARK SMILES IDX 30 1 29 2 28 3 27 4 26 5 24 6 25 7 23 9 8 10 9 11 10 12
REMARK SMILES IDX 22 13 21 14 5 15 6 16 7 17 4 18 1 19 2 20 3 21 11 23 12 24
REMARK SMILES IDX 20 25 13 26 18 27 14 28 19 29 15 30 16 31 17 32 31 33 32 34
REMARK SMILES IDX 33 35 34 36 35 38 36 39 37 40 95 41 38 42 94 43 39 44 40 45
REMARK SMILES IDX 41 46 88 47 42 48 93 49 87 50 89 51 43 52 92 53 86 54 85 55
REMARK SMILES IDX 44 57 74 58 55 59 73 60 56 61 59 62 72 63 90 64 57 65 58 66
REMARK SMILES IDX 71 68 91 69 60 70 45 71 46 72 54 73 47 74 53 75 48 76 49 77
REMARK SMILES IDX 50 78 51 79 52 80 75 81 76 82 84 83 77 84 83 85 78 86 79 87
REMARK SMILES IDX 80 88 81 89 82 90 61 91 62 92 70 93 63 94 69 95 64 96 65 97
REMARK SMILES IDX 66 98 67 99 68 100
REMARK H PARENT 26 8 4 22 33 37 89 56 59 67
REMARK Flexibility Score: inf
ROOT
ATOM      1  C   UNL     1       3.150   7.288  -2.758  1.00  0.00     0.002 C 
ENDROOT
BRANCH   1   2
ATOM      2  C   UNL     1       1.950   6.839  -1.918  1.00  0.00     0.002 C 
BRANCH   2   3
ATOM      3  C   UNL     1       1.912   5.338  -1.616  1.00  0.00     0.021 C 
BRANCH   3   4
ATOM      4  C   UNL     1       2.700   4.915  -0.371  1.00  0.00     0.116 C 
BRANCH   4   5
ATOM      5  N   UNL     1       1.812   4.874   0.778  1.00  0.00    -0.352 N 
ATOM      6  C   UNL     1       1.385   3.845   1.567  1.00  0.00     0.252 C 
ATOM      7  O   UNL     1       0.588   4.074   2.477  1.00  0.00    -0.269 OA
ATOM      8  H   UNL     1       1.450   5.753   1.036  1.00  0.00     0.163 HD
BRANCH   6   9
ATOM      9  C   UNL     1       1.919   2.469   1.475  1.00  0.00     0.060 A 
ATOM     10  C   UNL     1       1.641   1.547   0.460  1.00  0.00     0.101 A 
ATOM     11  C   UNL     1       1.978   0.191   0.630  1.00  0.00     0.031 A 
ATOM     12  C   UNL     1       2.522  -0.263   1.837  1.00  0.00    -0.017 A 
ATOM     13  C   UNL     1       2.547   2.013   2.650  1.00  0.00     0.016 A 
ATOM     14  C   UNL     1       2.840   0.659   2.835  1.00  0.00     0.009 A 
BRANCH  10  15
ATOM     15  S   UNL     1       0.746   2.005  -0.991  1.00  0.00     0.264 S 
ATOM     16  O   UNL     1       1.733   2.345  -1.982  1.00  0.00    -0.201 OA
ATOM     17  O   UNL     1      -0.325   2.905  -0.620  1.00  0.00    -0.201 OA
BRANCH  15  18
ATOM     18  N   UNL     1       0.049   0.605  -1.541  1.00  0.00    -0.249 N 
ATOM     19  C   UNL     1      -1.703   0.285   0.217  1.00  0.00     0.115 C 
ATOM     20  C   UNL     1      -1.156   0.008  -1.153  1.00  0.00     0.230 C 
ATOM     21  O   UNL     1      -1.667  -0.817  -1.896  1.00  0.00    -0.274 OA
ATOM     22  H   UNL     1       0.554   0.126  -2.237  1.00  0.00     0.183 HD
ENDBRANCH  15  18
ENDBRANCH  10  15
BRANCH  12  23
ATOM     23  C   UNL     1       2.539  -1.709   2.118  1.00  0.00    -0.011 A 
ATOM     24  C   UNL     1       1.419  -2.343   2.789  1.00  0.00     0.027 A 
ATOM     25  C   UNL     1       3.565  -2.466   1.695  1.00  0.00     0.080 A 
ATOM     26  C   UNL     1       1.380  -3.669   2.949  1.00  0.00     0.095 A 
ATOM     27  C   UNL     1       3.554  -3.945   1.905  1.00  0.00     0.255 A 
ATOM     28  N   UNL     1       2.416  -4.466   2.503  1.00  0.00    -0.258 N 
ATOM     29  O   UNL     1       4.526  -4.596   1.537  1.00  0.00    -0.269 OA
BRANCH  28  30
ATOM     30  C   UNL     1       2.354  -5.897   2.668  1.00  0.00     0.451 C 
ATOM     31  F   UNL     1       2.487  -6.536   1.482  1.00  0.00    -0.185 F 
ATOM     32  F   UNL     1       3.333  -6.334   3.497  1.00  0.00    -0.185 F 
ENDBRANCH  28  30
ENDBRANCH  12  23
ENDBRANCH   6   9
ENDBRANCH   4   5
ENDBRANCH   3   4
ENDBRANCH   2   3
ENDBRANCH   1   2
BRANCH   1  33
ATOM     33  C   UNL     1       3.362   6.557  -4.093  1.00  0.00     0.021 C 
BRANCH  33  34
ATOM     34  C   UNL     1       2.127   6.372  -4.979  1.00  0.00     0.116 C 
BRANCH  34  35
ATOM     35  N   UNL     1       1.551   7.631  -5.411  1.00  0.00    -0.352 N 
ATOM     36  C   UNL     1       0.968   7.945  -6.615  1.00  0.00     0.251 C 
ATOM     37  H   UNL     1       1.582   8.361  -4.752  1.00  0.00     0.163 HD
ATOM     38  O   UNL     1       0.631   9.103  -6.847  1.00  0.00    -0.269 OA
BRANCH  36  39
ATOM     39  C   UNL     1       0.774   6.903  -7.650  1.00  0.00     0.039 A 
ATOM     40  C   UNL     1       1.223   7.165  -8.949  1.00  0.00     0.014 A 
ATOM     41  C   UNL     1       0.123   5.698  -7.364  1.00  0.00     0.014 A 
ATOM     42  C   UNL     1       1.072   6.200  -9.949  1.00  0.00     0.010 A 
ATOM     43  C   UNL     1      -0.020   4.730  -8.363  1.00  0.00     0.010 A 
ATOM     44  C   UNL     1       0.463   4.970  -9.659  1.00  0.00    -0.014 A 
BRANCH  44  45
ATOM     45  C   UNL     1       0.360   3.918 -10.697  1.00  0.00     0.031 A 
ATOM     46  C   UNL     1      -0.922   3.694 -11.442  1.00  0.00     0.074 A 
ATOM     47  C   UNL     1       1.426   3.138 -10.956  1.00  0.00     0.049 A 
ATOM     48  N   UNL     1      -1.212   2.766 -12.318  1.00  0.00    -0.248 NA
ATOM     49  C   UNL     1      -2.021   4.629 -11.160  1.00  0.00     0.031 C 
ATOM     50  C   UNL     1       2.730   3.245 -10.300  1.00  0.00     0.029 A 
ATOM     51  N   UNL     1       1.576   2.099 -11.838  1.00  0.00    -0.354 N 
ATOM     52  C   UNL     1      -2.536   2.982 -12.673  1.00  0.00     0.074 A 
ATOM     53  C   UNL     1      -2.986   4.144 -11.930  1.00  0.00     0.031 C 
ATOM     54  C   UNL     1       3.550   2.309 -10.808  1.00  0.00     0.029 A 
ATOM     55  C   UNL     1       2.826   1.532 -11.811  1.00  0.00     0.049 A 
ATOM     56  H   UNL     1       0.856   1.788 -12.433  1.00  0.00     0.167 HD
ATOM     57  C   UNL     1      -3.312   2.275 -13.529  1.00  0.00     0.031 A 
ATOM     58  C   UNL     1       3.334   0.499 -12.508  1.00  0.00     0.031 A 
ATOM     59  C   UNL     1      -2.875   1.134 -14.286  1.00  0.00     0.049 A 
ATOM     60  C   UNL     1       2.477  -0.230 -13.498  1.00  0.00     0.074 A 
ATOM     61  C   UNL     1      -3.604   0.342 -15.157  1.00  0.00     0.029 A 
ATOM     62  N   UNL     1      -1.585   0.628 -14.273  1.00  0.00    -0.354 N 
ATOM     63  N   UNL     1       1.216  -0.030 -13.795  1.00  0.00    -0.248 NA
ATOM     64  C   UNL     1       3.112  -1.325 -14.245  1.00  0.00     0.031 C 
ATOM     65  C   UNL     1      -2.749  -0.640 -15.678  1.00  0.00     0.029 A 
ATOM     66  C   UNL     1      -1.490  -0.456 -15.130  1.00  0.00     0.049 A 
ATOM     67  H   UNL     1      -0.844   0.987 -13.733  1.00  0.00     0.167 HD
ATOM     68  C   UNL     1       0.902  -0.981 -14.757  1.00  0.00     0.074 A 
ATOM     69  C   UNL     1       2.107  -1.747 -15.003  1.00  0.00     0.031 C 
ATOM     70  C   UNL     1      -0.285  -1.204 -15.371  1.00  0.00     0.031 A 
BRANCH  57  71
ATOM     71  C   UNL     1      -4.736   2.725 -13.662  1.00  0.00    -0.014 A 
ATOM     72  C   UNL     1      -5.091   3.705 -14.604  1.00  0.00     0.010 A 
ATOM     73  C   UNL     1      -5.722   2.186 -12.817  1.00  0.00     0.010 A 
ATOM     74  C   UNL     1      -6.407   4.171 -14.672  1.00  0.00     0.020 A 
ATOM     75  C   UNL     1      -7.038   2.648 -12.884  1.00  0.00     0.020 A 
ATOM     76  C   UNL     1      -7.367   3.654 -13.797  1.00  0.00     0.054 A 
BRANCH  76  77
ATOM     77  S   UNL     1      -9.070   4.277 -13.852  1.00  0.00     0.124 S 
ATOM     78  O   UNL     1      -9.050   5.293 -12.802  1.00  0.00    -0.237 OA
ATOM     79  O   UNL     1      -9.201   4.788 -15.214  1.00  0.00    -0.237 OA
ATOM     80  O   UNL     1      -9.868   3.089 -13.559  1.00  0.00    -0.744 OA
ENDBRANCH  76  77
ENDBRANCH  57  71
BRANCH  58  81
ATOM     81  C   UNL     1       4.740   0.095 -12.273  1.00  0.00    -0.014 A 
ATOM     82  C   UNL     1       5.774   0.661 -13.038  1.00  0.00     0.010 A 
ATOM     83  C   UNL     1       5.053  -0.800 -11.237  1.00  0.00     0.010 A 
ATOM     84  C   UNL     1       7.107   0.348 -12.761  1.00  0.00     0.020 A 
ATOM     85  C   UNL     1       6.385  -1.111 -10.955  1.00  0.00     0.020 A 
ATOM     86  C   UNL     1       7.404  -0.534 -11.719  1.00  0.00     0.054 A 
BRANCH  86  87
ATOM     87  S   UNL     1       9.133  -0.868 -11.279  1.00  0.00     0.124 S 
ATOM     88  O   UNL     1       9.379  -2.136 -11.956  1.00  0.00    -0.237 OA
ATOM     89  O   UNL     1       9.846   0.286 -11.822  1.00  0.00    -0.237 OA
ATOM     90  O   UNL     1       9.088  -0.928  -9.819  1.00  0.00    -0.744 OA
ENDBRANCH  86  87
ENDBRANCH  58  81
BRANCH  70  91
ATOM     91  C   UNL     1      -0.332  -2.326 -16.366  1.00  0.00    -0.014 A 
ATOM     92  C   UNL     1      -0.640  -3.631 -15.946  1.00  0.00     0.010 A 
ATOM     93  C   UNL     1      -0.085  -2.076 -17.726  1.00  0.00     0.010 A 
ATOM     94  C   UNL     1      -0.682  -4.678 -16.871  1.00  0.00     0.020 A 
ATOM     95  C   UNL     1      -0.128  -3.121 -18.654  1.00  0.00     0.020 A 
ATOM     96  C   UNL     1      -0.414  -4.418 -18.218  1.00  0.00     0.054 A 
BRANCH  96  97
ATOM     97  S   UNL     1      -0.494  -5.770 -19.426  1.00  0.00     0.124 S 
ATOM     98  O   UNL     1       0.888  -6.239 -19.447  1.00  0.00    -0.237 OA
ATOM     99  O   UNL     1      -1.461  -6.693 -18.835  1.00  0.00    -0.237 OA
ATOM    100  O   UNL     1      -0.948  -5.103 -20.645  1.00  0.00    -0.744 OA
ENDBRANCH  96  97
ENDBRANCH  70  91
ENDBRANCH  44  45
ENDBRANCH  36  39
ENDBRANCH  34  35
ENDBRANCH  33  34
ENDBRANCH   1  33
TORSDOF 20
