REMARK SMILES O=C(NCCCCCCNC(=O)[C@H]1CC=CC[C@@H]1C(=O)NC1CCCCC1)c1ccc(-c2c3nc(c(-c4ccc(S(=O)(=O)[O-])cc4)c4ccc([nH]4)c(-c4ccc(S(=O)(=O)[O-])cc4)c4nc(c(-c5ccc(S(=O)(=O)[O-])cc5)c5ccc2[nH]5)C=C4)C=C3)cc1
REMARK SMILES IDX 6 1 5 2 4 3 3 4 1 5 2 6 28 8 29 9 87 10 30 11 86 12 31 13
REMARK SMILES IDX 32 14 33 15 80 16 34 17 85 18 79 19 81 20 35 21 84 22 78 23
REMARK SMILES IDX 77 24 36 26 66 27 47 28 65 29 48 30 51 31 64 32 82 33 49 34
REMARK SMILES IDX 50 35 63 37 83 38 52 39 37 40 38 41 46 42 39 43 45 44 40 45
REMARK SMILES IDX 41 46 42 47 43 48 44 49 67 50 68 51 76 52 69 53 75 54 70 55
REMARK SMILES IDX 71 56 72 57 73 58 74 59 53 60 54 61 62 62 55 63 61 64 56 65
REMARK SMILES IDX 57 66 58 67 59 68 60 69 7 70 8 71 9 72 10 73 11 74 12 76
REMARK SMILES IDX 13 77 14 78 18 79 15 80 17 81 16 82 19 83 20 84 21 85 22 87
REMARK SMILES IDX 23 88 27 89 24 90 26 91 25 92
REMARK H PARENT 3 7 81 25 51 36 10 75 21 86
REMARK Flexibility Score: inf
ROOT
ATOM      1  C   UNL     1       4.176  -3.723   0.549  1.00  0.00     0.002 C 
ENDROOT
BRANCH   1   2
ATOM      2  C   UNL     1       4.705  -2.390   1.084  1.00  0.00     0.021 C 
BRANCH   2   3
ATOM      3  C   UNL     1       4.487  -1.202   0.154  1.00  0.00     0.116 C 
BRANCH   3   4
ATOM      4  N   UNL     1       3.083  -0.998  -0.162  1.00  0.00    -0.352 N 
ATOM      5  O   UNL     1       1.141   0.146  -0.262  1.00  0.00    -0.269 OA
ATOM      6  C   UNL     1       2.354   0.168  -0.127  1.00  0.00     0.251 C 
ATOM      7  H   UNL     1       2.587  -1.802  -0.439  1.00  0.00     0.163 HD
BRANCH   6   8
ATOM      8  C   UNL     1       3.066   1.442   0.099  1.00  0.00     0.039 A 
ATOM      9  C   UNL     1       4.226   1.737  -0.622  1.00  0.00     0.014 A 
ATOM     10  C   UNL     1       2.576   2.335   1.054  1.00  0.00     0.014 A 
ATOM     11  C   UNL     1       4.968   2.864  -0.296  1.00  0.00     0.010 A 
ATOM     12  C   UNL     1       3.281   3.511   1.321  1.00  0.00     0.010 A 
ATOM     13  C   UNL     1       4.495   3.771   0.666  1.00  0.00    -0.014 A 
BRANCH  13  14
ATOM     14  C   UNL     1       5.251   5.022   0.916  1.00  0.00     0.031 A 
ATOM     15  C   UNL     1       5.892   5.294   2.248  1.00  0.00     0.074 A 
ATOM     16  C   UNL     1       5.369   5.910  -0.090  1.00  0.00     0.049 A 
ATOM     17  N   UNL     1       6.604   6.327   2.620  1.00  0.00    -0.248 NA
ATOM     18  C   UNL     1       5.706   4.282   3.300  1.00  0.00     0.031 C 
ATOM     19  C   UNL     1       4.787   5.749  -1.426  1.00  0.00     0.029 A 
ATOM     20  N   UNL     1       6.031   7.107  -0.158  1.00  0.00    -0.354 N 
ATOM     21  C   UNL     1       6.933   6.104   3.951  1.00  0.00     0.074 A 
ATOM     22  C   UNL     1       6.322   4.847   4.329  1.00  0.00     0.031 C 
ATOM     23  C   UNL     1       5.162   6.780  -2.196  1.00  0.00     0.029 A 
ATOM     24  C   UNL     1       5.949   7.707  -1.392  1.00  0.00     0.049 A 
ATOM     25  H   UNL     1       6.518   7.500   0.602  1.00  0.00     0.167 HD
ATOM     26  C   UNL     1       7.676   6.878   4.780  1.00  0.00     0.031 A 
ATOM     27  C   UNL     1       6.438   8.882  -1.829  1.00  0.00     0.031 A 
ATOM     28  C   UNL     1       8.269   8.133   4.395  1.00  0.00     0.049 A 
ATOM     29  C   UNL     1       7.225   9.737  -0.881  1.00  0.00     0.074 A 
ATOM     30  C   UNL     1       9.063   8.979   5.151  1.00  0.00     0.029 A 
ATOM     31  N   UNL     1       8.125   8.730   3.151  1.00  0.00    -0.354 N 
ATOM     32  N   UNL     1       7.552   9.495   0.366  1.00  0.00    -0.248 NA
ATOM     33  C   UNL     1       7.708  11.023  -1.398  1.00  0.00     0.031 C 
ATOM     34  C   UNL     1       9.352  10.112   4.382  1.00  0.00     0.029 A 
ATOM     35  C   UNL     1       8.791   9.945   3.126  1.00  0.00     0.049 A 
ATOM     36  H   UNL     1       7.623   8.347   2.396  1.00  0.00     0.167 HD
ATOM     37  C   UNL     1       8.296  10.592   0.780  1.00  0.00     0.074 A 
ATOM     38  C   UNL     1       8.384  11.489  -0.356  1.00  0.00     0.031 C 
ATOM     39  C   UNL     1       8.857  10.833   1.991  1.00  0.00     0.031 A 
BRANCH  26  40
ATOM     40  C   UNL     1       7.853   6.403   6.200  1.00  0.00    -0.014 A 
ATOM     41  C   UNL     1       8.646   5.282   6.505  1.00  0.00     0.010 A 
ATOM     42  C   UNL     1       7.230   7.102   7.251  1.00  0.00     0.010 A 
ATOM     43  C   UNL     1       8.767   4.836   7.825  1.00  0.00     0.020 A 
ATOM     44  C   UNL     1       7.371   6.677   8.575  1.00  0.00     0.020 A 
ATOM     45  C   UNL     1       8.120   5.532   8.851  1.00  0.00     0.054 A 
BRANCH  45  46
ATOM     46  S   UNL     1       8.282   4.923  10.552  1.00  0.00     0.124 S 
ATOM     47  O   UNL     1       7.426   3.740  10.530  1.00  0.00    -0.237 OA
ATOM     48  O   UNL     1       9.714   4.659  10.664  1.00  0.00    -0.237 OA
ATOM     49  O   UNL     1       7.790   6.032  11.366  1.00  0.00    -0.744 OA
ENDBRANCH  45  46
ENDBRANCH  26  40
BRANCH  27  50
ATOM     50  C   UNL     1       6.188   9.300  -3.233  1.00  0.00    -0.014 A 
ATOM     51  C   UNL     1       7.231   9.299  -4.174  1.00  0.00     0.010 A 
ATOM     52  C   UNL     1       4.887   9.639  -3.651  1.00  0.00     0.010 A 
ATOM     53  C   UNL     1       6.979   9.629  -5.508  1.00  0.00     0.020 A 
ATOM     54  C   UNL     1       4.625   9.941  -4.989  1.00  0.00     0.020 A 
ATOM     55  C   UNL     1       5.676   9.941  -5.908  1.00  0.00     0.054 A 
BRANCH  55  56
ATOM     56  S   UNL     1       5.359  10.287  -7.661  1.00  0.00     0.124 S 
ATOM     57  O   UNL     1       5.936  11.618  -7.816  1.00  0.00    -0.237 OA
ATOM     58  O   UNL     1       6.075   9.203  -8.330  1.00  0.00    -0.237 OA
ATOM     59  O   UNL     1       3.903  10.217  -7.765  1.00  0.00    -0.744 OA
ENDBRANCH  55  56
ENDBRANCH  27  50
BRANCH  39  60
ATOM     60  C   UNL     1       9.639  12.110   2.140  1.00  0.00    -0.014 A 
ATOM     61  C   UNL     1       8.993  13.357   2.205  1.00  0.00     0.010 A 
ATOM     62  C   UNL     1      11.040  12.055   2.255  1.00  0.00     0.010 A 
ATOM     63  C   UNL     1       9.738  14.531   2.349  1.00  0.00     0.020 A 
ATOM     64  C   UNL     1      11.786  13.223   2.428  1.00  0.00     0.020 A 
ATOM     65  C   UNL     1      11.130  14.455   2.459  1.00  0.00     0.054 A 
BRANCH  65  66
ATOM     66  S   UNL     1      12.073  15.988   2.686  1.00  0.00     0.124 S 
ATOM     67  O   UNL     1      12.023  16.576   1.350  1.00  0.00    -0.237 OA
ATOM     68  O   UNL     1      11.304  16.689   3.711  1.00  0.00    -0.237 OA
ATOM     69  O   UNL     1      13.391  15.524   3.114  1.00  0.00    -0.744 OA
ENDBRANCH  65  66
ENDBRANCH  39  60
ENDBRANCH  13  14
ENDBRANCH   6   8
ENDBRANCH   3   4
ENDBRANCH   2   3
ENDBRANCH   1   2
BRANCH   1  70
ATOM     70  C   UNL     1       4.650  -4.087  -0.861  1.00  0.00     0.002 C 
BRANCH  70  71
ATOM     71  C   UNL     1       6.168  -4.183  -1.013  1.00  0.00     0.021 C 
BRANCH  71  72
ATOM     72  C   UNL     1       6.782  -5.356  -0.257  1.00  0.00     0.116 C 
BRANCH  72  73
ATOM     73  N   UNL     1       6.468  -6.616  -0.914  1.00  0.00    -0.356 N 
ATOM     74  C   UNL     1       7.242  -7.736  -1.054  1.00  0.00     0.224 C 
ATOM     75  H   UNL     1       5.571  -6.671  -1.314  1.00  0.00     0.163 HD
ATOM     76  O   UNL     1       6.839  -8.648  -1.772  1.00  0.00    -0.275 OA
BRANCH  74  77
ATOM     77  C   UNL     1       8.515  -7.829  -0.224  1.00  0.00     0.095 C 
ATOM     78  C   UNL     1       8.092  -8.297   1.167  1.00  0.00     0.041 C 
ATOM     79  C   UNL     1       9.614  -8.656  -0.872  1.00  0.00     0.095 C 
ATOM     80  C   UNL     1       8.244  -9.760   1.435  1.00  0.00    -0.030 C 
ATOM     81  C   UNL     1       9.429 -10.174  -0.719  1.00  0.00     0.041 C 
ATOM     82  C   UNL     1       8.841 -10.604   0.587  1.00  0.00    -0.030 C 
BRANCH  79  83
ATOM     83  C   UNL     1      11.087  -8.251  -0.681  1.00  0.00     0.224 C 
ATOM     84  O   UNL     1      11.881  -8.616  -1.569  1.00  0.00    -0.275 OA
ATOM     85  N   UNL     1      11.701  -7.576   0.314  1.00  0.00    -0.353 N 
ATOM     86  H   UNL     1      12.654  -7.485   0.086  1.00  0.00     0.163 HD
BRANCH  85  87
ATOM     87  C   UNL     1      11.467  -6.924   1.621  1.00  0.00     0.082 C 
ATOM     88  C   UNL     1      10.699  -5.601   1.541  1.00  0.00     0.025 C 
ATOM     89  C   UNL     1      11.112  -7.905   2.740  1.00  0.00     0.025 C 
ATOM     90  C   UNL     1      10.239  -5.046   2.882  1.00  0.00     0.002 C 
ATOM     91  C   UNL     1      10.476  -7.293   3.991  1.00  0.00     0.002 C 
ATOM     92  C   UNL     1       9.566  -6.093   3.752  1.00  0.00     0.000 C 
ENDBRANCH  85  87
ENDBRANCH  79  83
ENDBRANCH  74  77
ENDBRANCH  72  73
ENDBRANCH  71  72
ENDBRANCH  70  71
ENDBRANCH   1  70
TORSDOF 18
