REMARK SMILES O=C(NCCCCCCNC(=O)[C@H](CO)NC(=O)[C@H](Cc1c[nH]c2ccccc12)NC(=O)[C@H](Cc1ccc(O)cc1)NC(=O)c1ccc(F)cc1)c1ccc(-c2c3nc(c(-c4ccc(S(=O)(=O)[O-])cc4)c4ccc([nH]4)c(-c4ccc(S(=O)(=O)[O-])cc4)c4nc(c(-c5ccc(S(=O)(=O)[O-])cc5)c5ccc2[nH]5)C=C4)C=C3)cc1
REMARK SMILES IDX 8 1 7 2 6 3 5 4 4 5 3 6 1 7 2 8 52 10 53 11 111 12 54 13
REMARK SMILES IDX 110 14 55 15 56 16 57 17 104 18 58 19 109 20 103 21 105 22
REMARK SMILES IDX 59 23 108 24 102 25 101 26 60 28 90 29 71 30 89 31 72 32
REMARK SMILES IDX 75 33 88 34 106 35 73 36 74 37 87 39 107 40 76 41 61 42
REMARK SMILES IDX 62 43 70 44 63 45 69 46 64 47 65 48 66 49 67 50 68 51 91 52
REMARK SMILES IDX 92 53 100 54 93 55 99 56 94 57 95 58 96 59 97 60 98 61 77 62
REMARK SMILES IDX 78 63 86 64 79 65 85 66 80 67 81 68 82 69 83 70 84 71 9 72
REMARK SMILES IDX 10 73 11 74 12 76 13 77 16 78 17 79 18 81 19 82 30 83 31 84
REMARK SMILES IDX 32 86 33 87 42 88 43 89 44 91 45 92 46 93 51 94 47 95 50 96
REMARK SMILES IDX 48 97 49 98 34 99 35 100 36 101 41 102 37 103 40 104 38 105
REMARK SMILES IDX 39 106 20 108 21 109 22 110 29 111 23 112 24 113 28 114
REMARK SMILES IDX 25 116 27 117 26 118 14 119 15 120
REMARK H PARENT 3 9 105 27 75 38 10 75 16 80 30 85 42 90 39 107 23 115 15 121
REMARK Flexibility Score: inf
ROOT
ATOM      1  C   UNL     1      11.923   9.332  -0.110  1.00  0.00     0.021 C 
ENDROOT
BRANCH   1   2
ATOM      2  C   UNL     1      10.791   9.209  -1.125  1.00  0.00     0.002 C 
BRANCH   2   3
ATOM      3  C   UNL     1      11.004  10.024  -2.405  1.00  0.00     0.002 C 
BRANCH   3   4
ATOM      4  C   UNL     1      12.350   9.789  -3.094  1.00  0.00     0.021 C 
BRANCH   4   5
ATOM      5  C   UNL     1      12.624   8.328  -3.424  1.00  0.00     0.116 C 
BRANCH   5   6
ATOM      6  N   UNL     1      11.612   7.797  -4.320  1.00  0.00    -0.352 N 
ATOM      7  O   UNL     1      10.786   7.188  -6.328  1.00  0.00    -0.269 OA
ATOM      8  C   UNL     1      11.766   7.340  -5.600  1.00  0.00     0.251 C 
ATOM      9  H   UNL     1      10.696   7.761  -3.959  1.00  0.00     0.163 HD
BRANCH   8  10
ATOM     10  C   UNL     1      13.123   7.032  -6.089  1.00  0.00     0.039 A 
ATOM     11  C   UNL     1      14.008   6.316  -5.275  1.00  0.00     0.014 A 
ATOM     12  C   UNL     1      13.501   7.433  -7.371  1.00  0.00     0.014 A 
ATOM     13  C   UNL     1      15.304   6.079  -5.708  1.00  0.00     0.010 A 
ATOM     14  C   UNL     1      14.776   7.114  -7.840  1.00  0.00     0.010 A 
ATOM     15  C   UNL     1      15.682   6.431  -7.012  1.00  0.00    -0.014 A 
BRANCH  15  16
ATOM     16  C   UNL     1      16.965   5.922  -7.548  1.00  0.00     0.031 A 
ATOM     17  C   UNL     1      18.075   6.851  -7.939  1.00  0.00     0.074 A 
ATOM     18  C   UNL     1      17.093   4.588  -7.697  1.00  0.00     0.049 A 
ATOM     19  N   UNL     1      19.241   6.554  -8.451  1.00  0.00    -0.248 NA
ATOM     20  C   UNL     1      17.856   8.292  -7.739  1.00  0.00     0.031 C 
ATOM     21  C   UNL     1      16.061   3.599  -7.360  1.00  0.00     0.029 A 
ATOM     22  N   UNL     1      18.133   3.828  -8.165  1.00  0.00    -0.354 N 
ATOM     23  C   UNL     1      19.885   7.766  -8.662  1.00  0.00     0.074 A 
ATOM     24  C   UNL     1      18.980   8.807  -8.223  1.00  0.00     0.031 C 
ATOM     25  C   UNL     1      16.528   2.368  -7.607  1.00  0.00     0.029 A 
ATOM     26  C   UNL     1      17.857   2.481  -8.191  1.00  0.00     0.049 A 
ATOM     27  H   UNL     1      18.993   4.209  -8.454  1.00  0.00     0.167 HD
ATOM     28  C   UNL     1      21.116   7.980  -9.183  1.00  0.00     0.031 A 
ATOM     29  C   UNL     1      18.573   1.449  -8.674  1.00  0.00     0.031 A 
ATOM     30  C   UNL     1      22.001   6.927  -9.613  1.00  0.00     0.049 A 
ATOM     31  C   UNL     1      19.915   1.730  -9.283  1.00  0.00     0.074 A 
ATOM     32  C   UNL     1      23.297   7.040 -10.088  1.00  0.00     0.029 A 
ATOM     33  N   UNL     1      21.681   5.579  -9.645  1.00  0.00    -0.354 N 
ATOM     34  N   UNL     1      20.545   2.876  -9.387  1.00  0.00    -0.248 NA
ATOM     35  C   UNL     1      20.641   0.585  -9.846  1.00  0.00     0.031 C 
ATOM     36  C   UNL     1      23.730   5.771 -10.479  1.00  0.00     0.029 A 
ATOM     37  C   UNL     1      22.733   4.856 -10.183  1.00  0.00     0.049 A 
ATOM     38  H   UNL     1      20.831   5.192  -9.332  1.00  0.00     0.167 HD
ATOM     39  C   UNL     1      21.746   2.587 -10.021  1.00  0.00     0.074 A 
ATOM     40  C   UNL     1      21.770   1.155 -10.242  1.00  0.00     0.031 C 
ATOM     41  C   UNL     1      22.736   3.432 -10.398  1.00  0.00     0.031 A 
BRANCH  28  42
ATOM     42  C   UNL     1      21.588   9.399  -9.358  1.00  0.00    -0.014 A 
ATOM     43  C   UNL     1      21.991  10.178  -8.260  1.00  0.00     0.010 A 
ATOM     44  C   UNL     1      21.748   9.913 -10.659  1.00  0.00     0.010 A 
ATOM     45  C   UNL     1      22.543  11.447  -8.461  1.00  0.00     0.020 A 
ATOM     46  C   UNL     1      22.321  11.171 -10.865  1.00  0.00     0.020 A 
ATOM     47  C   UNL     1      22.713  11.932  -9.763  1.00  0.00     0.054 A 
BRANCH  47  48
ATOM     48  S   UNL     1      23.507  13.547  -9.994  1.00  0.00     0.124 S 
ATOM     49  O   UNL     1      22.484  14.460  -9.490  1.00  0.00    -0.237 OA
ATOM     50  O   UNL     1      24.707  13.432  -9.168  1.00  0.00    -0.237 OA
ATOM     51  O   UNL     1      23.748  13.615 -11.433  1.00  0.00    -0.744 OA
ENDBRANCH  47  48
ENDBRANCH  28  42
BRANCH  29  52
ATOM     52  C   UNL     1      18.003   0.074  -8.665  1.00  0.00    -0.014 A 
ATOM     53  C   UNL     1      18.588  -0.947  -7.898  1.00  0.00     0.010 A 
ATOM     54  C   UNL     1      16.870  -0.223  -9.448  1.00  0.00     0.010 A 
ATOM     55  C   UNL     1      18.078  -2.247  -7.947  1.00  0.00     0.020 A 
ATOM     56  C   UNL     1      16.334  -1.511  -9.469  1.00  0.00     0.020 A 
ATOM     57  C   UNL     1      16.956  -2.521  -8.736  1.00  0.00     0.054 A 
BRANCH  57  58
ATOM     58  S   UNL     1      16.311  -4.215  -8.784  1.00  0.00     0.124 S 
ATOM     59  O   UNL     1      17.317  -4.898  -9.591  1.00  0.00    -0.237 OA
ATOM     60  O   UNL     1      16.277  -4.580  -7.370  1.00  0.00    -0.237 OA
ATOM     61  O   UNL     1      15.001  -4.064  -9.413  1.00  0.00    -0.744 OA
ENDBRANCH  57  58
ENDBRANCH  29  52
BRANCH  41  62
ATOM     62  C   UNL     1      23.933   2.828 -11.081  1.00  0.00    -0.014 A 
ATOM     63  C   UNL     1      23.843   2.341 -12.397  1.00  0.00     0.010 A 
ATOM     64  C   UNL     1      25.174   2.803 -10.421  1.00  0.00     0.010 A 
ATOM     65  C   UNL     1      24.971   1.819 -13.034  1.00  0.00     0.020 A 
ATOM     66  C   UNL     1      26.311   2.312 -11.066  1.00  0.00     0.020 A 
ATOM     67  C   UNL     1      26.199   1.814 -12.366  1.00  0.00     0.054 A 
BRANCH  67  68
ATOM     68  S   UNL     1      27.660   1.193 -13.242  1.00  0.00     0.124 S 
ATOM     69  O   UNL     1      27.396  -0.243 -13.294  1.00  0.00    -0.237 OA
ATOM     70  O   UNL     1      27.587   1.893 -14.522  1.00  0.00    -0.237 OA
ATOM     71  O   UNL     1      28.774   1.590 -12.383  1.00  0.00    -0.744 OA
ENDBRANCH  67  68
ENDBRANCH  41  62
ENDBRANCH  15  16
ENDBRANCH   8  10
ENDBRANCH   5   6
ENDBRANCH   4   5
ENDBRANCH   3   4
ENDBRANCH   2   3
ENDBRANCH   1   2
BRANCH   1  72
ATOM     72  C   UNL     1      12.239  10.770   0.273  1.00  0.00     0.116 C 
BRANCH  72  73
ATOM     73  N   UNL     1      11.249  11.316   1.166  1.00  0.00    -0.354 N 
ATOM     74  C   UNL     1      11.403  11.837   2.413  1.00  0.00     0.244 C 
ATOM     75  H   UNL     1      10.326  11.311   0.824  1.00  0.00     0.163 HD
ATOM     76  O   UNL     1      10.368  12.119   3.029  1.00  0.00    -0.273 OA
BRANCH  74  77
ATOM     77  C   UNL     1      12.786  11.900   3.102  1.00  0.00     0.197 C 
BRANCH  77  78
ATOM     78  N   UNL     1      13.881  12.390   2.268  1.00  0.00    -0.340 N 
ATOM     79  C   UNL     1      15.097  11.845   1.977  1.00  0.00     0.243 C 
ATOM     80  H   UNL     1      13.712  13.261   1.843  1.00  0.00     0.164 HD
ATOM     81  O   UNL     1      15.916  12.622   1.477  1.00  0.00    -0.273 OA
BRANCH  79  82
ATOM     82  C   UNL     1      15.500  10.392   2.406  1.00  0.00     0.175 C 
BRANCH  82  83
ATOM     83  N   UNL     1      14.551   9.287   2.152  1.00  0.00    -0.342 N 
ATOM     84  C   UNL     1      13.969   8.295   2.878  1.00  0.00     0.243 C 
ATOM     85  H   UNL     1      14.265   9.263   1.210  1.00  0.00     0.164 HD
ATOM     86  O   UNL     1      13.447   7.404   2.196  1.00  0.00    -0.273 OA
BRANCH  84  87
ATOM     87  C   UNL     1      14.062   8.149   4.421  1.00  0.00     0.176 C 
BRANCH  87  88
ATOM     88  N   UNL     1      13.883   9.407   5.147  1.00  0.00    -0.340 N 
ATOM     89  C   UNL     1      14.649  10.120   6.022  1.00  0.00     0.251 C 
ATOM     90  H   UNL     1      13.016   9.835   4.962  1.00  0.00     0.164 HD
ATOM     91  O   UNL     1      14.062  11.011   6.639  1.00  0.00    -0.269 OA
BRANCH  89  92
ATOM     92  C   UNL     1      16.111   9.929   6.246  1.00  0.00     0.040 A 
ATOM     93  C   UNL     1      16.984   9.270   5.373  1.00  0.00     0.017 A 
ATOM     94  C   UNL     1      16.661  10.581   7.365  1.00  0.00     0.017 A 
ATOM     95  C   UNL     1      18.364   9.274   5.592  1.00  0.00     0.040 A 
ATOM     96  C   UNL     1      18.040  10.579   7.592  1.00  0.00     0.040 A 
ATOM     97  C   UNL     1      18.879   9.931   6.697  1.00  0.00     0.123 A 
ATOM     98  F   UNL     1      20.203   9.952   6.894  1.00  0.00    -0.207 F 
ENDBRANCH  89  92
ENDBRANCH  87  88
BRANCH  87  99
ATOM     99  C   UNL     1      12.990   7.147   4.936  1.00  0.00     0.070 C 
BRANCH  99 100
ATOM    100  C   UNL     1      13.615   5.865   5.431  1.00  0.00    -0.045 A 
ATOM    101  C   UNL     1      14.132   5.790   6.733  1.00  0.00     0.007 A 
ATOM    102  C   UNL     1      13.729   4.759   4.580  1.00  0.00     0.007 A 
ATOM    103  C   UNL     1      14.749   4.622   7.181  1.00  0.00     0.046 A 
ATOM    104  C   UNL     1      14.344   3.591   5.030  1.00  0.00     0.046 A 
ATOM    105  C   UNL     1      14.848   3.531   6.324  1.00  0.00     0.115 A 
BRANCH 105 106
ATOM    106  O   UNL     1      15.441   2.370   6.722  1.00  0.00    -0.508 OA
ATOM    107  H   UNL     1      15.792   2.295   7.587  1.00  0.00     0.293 HD
ENDBRANCH 105 106
ENDBRANCH  99 100
ENDBRANCH  87  99
ENDBRANCH  84  87
ENDBRANCH  82  83
BRANCH  82 108
ATOM    108  C   UNL     1      16.878  10.023   1.784  1.00  0.00     0.072 C 
BRANCH 108 109
ATOM    109  C   UNL     1      16.936   9.788   0.285  1.00  0.00    -0.020 A 
ATOM    110  C   UNL     1      16.047  10.192  -0.696  1.00  0.00     0.087 A 
ATOM    111  C   UNL     1      18.023   9.142  -0.409  1.00  0.00     0.003 A 
ATOM    112  N   UNL     1      16.533   9.811  -1.920  1.00  0.00    -0.361 N 
ATOM    113  C   UNL     1      17.738   9.174  -1.775  1.00  0.00     0.046 A 
ATOM    114  C   UNL     1      19.243   8.559  -0.003  1.00  0.00     0.010 A 
ATOM    115  H   UNL     1      16.081   9.971  -2.779  1.00  0.00     0.166 HD
ATOM    116  C   UNL     1      18.599   8.654  -2.751  1.00  0.00     0.026 A 
ATOM    117  C   UNL     1      20.120   8.040  -0.966  1.00  0.00     0.001 A 
ATOM    118  C   UNL     1      19.800   8.088  -2.319  1.00  0.00     0.002 A 
ENDBRANCH 108 109
ENDBRANCH  82 108
ENDBRANCH  79  82
ENDBRANCH  77  78
BRANCH  77 119
ATOM    119  C   UNL     1      12.674  12.775   4.367  1.00  0.00     0.191 C 
BRANCH 119 120
ATOM    120  O   UNL     1      12.152  14.072   4.057  1.00  0.00    -0.394 OA
ATOM    121  H   UNL     1      12.749  14.521   3.437  1.00  0.00     0.210 HD
ENDBRANCH 119 120
ENDBRANCH  77 119
ENDBRANCH  74  77
ENDBRANCH  72  73
ENDBRANCH   1  72
TORSDOF 29
