REMARK SMILES COCC[C@@]1(C(=O)NCCCCCCNC(=O)c2ccc(-c3c4nc(c(-c5ccc(S(=O)(=O)[O-])cc5)c5ccc([nH]5)c(-c5ccc(S(=O)(=O)[O-])cc5)c5nc(c(-c6ccc(S(=O)(=O)[O-])cc6)c6ccc3[nH]6)C=C5)C=C4)cc2)CCCN(C(=O)NCc2ccc(OC)cc2)C1
REMARK SMILES IDX 11 1 10 2 9 3 8 4 6 5 7 6 5 8 78 9 94 10 79 11 81 12 80 13
REMARK SMILES IDX 4 14 3 15 2 16 1 17 82 18 83 19 84 20 85 22 86 23 87 24
REMARK SMILES IDX 93 25 88 26 92 27 89 28 90 29 91 30 12 31 13 32 14 33 15 34
REMARK SMILES IDX 16 35 17 37 18 38 19 39 77 40 20 41 76 42 21 43 22 44 23 45
REMARK SMILES IDX 70 46 24 47 75 48 69 49 71 50 25 51 74 52 68 53 67 54 26 56
REMARK SMILES IDX 56 57 37 58 55 59 38 60 41 61 54 62 72 63 39 64 40 65 53 67
REMARK SMILES IDX 73 68 42 69 27 70 28 71 36 72 29 73 35 74 30 75 31 76 32 77
REMARK SMILES IDX 33 78 34 79 57 80 58 81 66 82 59 83 65 84 60 85 61 86 62 87
REMARK SMILES IDX 63 88 64 89 43 90 44 91 52 92 45 93 51 94 46 95 47 96 48 97
REMARK SMILES IDX 49 98 50 99
REMARK H PARENT 8 7 84 21 15 36 71 55 41 66
REMARK Flexibility Score: inf
ROOT
ATOM      1  C   UNL     1      -2.638   5.522  -2.144  1.00  0.00     0.002 C 
ENDROOT
BRANCH   1   2
ATOM      2  C   UNL     1      -1.716   5.295  -0.949  1.00  0.00     0.021 C 
BRANCH   2   3
ATOM      3  C   UNL     1      -1.581   3.860  -0.463  1.00  0.00     0.116 C 
BRANCH   3   4
ATOM      4  N   UNL     1      -0.636   3.045  -1.186  1.00  0.00    -0.356 N 
ATOM      5  C   UNL     1       0.178   2.051  -0.743  1.00  0.00     0.228 C 
ATOM      6  O   UNL     1       0.387   1.170  -1.592  1.00  0.00    -0.274 OA
ATOM      7  H   UNL     1      -0.571   3.237  -2.150  1.00  0.00     0.163 HD
BRANCH   5   8
ATOM      8  C   UNL     1       0.933   1.983   0.622  1.00  0.00     0.069 C 
ATOM      9  C   UNL     1       0.848   0.496   1.099  1.00  0.00     0.021 C 
ATOM     10  C   UNL     1       0.445   2.838   1.806  1.00  0.00     0.138 C 
ATOM     11  C   UNL     1      -0.562   0.142   1.605  1.00  0.00     0.023 C 
ATOM     12  N   UNL     1      -0.860   2.464   2.336  1.00  0.00    -0.324 N 
ATOM     13  C   UNL     1      -0.988   1.071   2.738  1.00  0.00     0.121 C 
BRANCH   8  14
ATOM     14  C   UNL     1       2.442   2.406   0.448  1.00  0.00     0.047 C 
BRANCH  14  15
ATOM     15  C   UNL     1       3.143   2.262  -0.905  1.00  0.00     0.161 C 
BRANCH  15  16
ATOM     16  O   UNL     1       3.445   3.537  -1.485  1.00  0.00    -0.385 OA
ATOM     17  C   UNL     1       2.313   4.210  -2.017  1.00  0.00     0.194 C 
ENDBRANCH  15  16
ENDBRANCH  14  15
ENDBRANCH   8  14
BRANCH  12  18
ATOM     18  C   UNL     1      -1.596   3.485   2.870  1.00  0.00     0.317 C 
ATOM     19  O   UNL     1      -1.087   4.559   3.199  1.00  0.00    -0.249 OA
ATOM     20  N   UNL     1      -2.931   3.434   2.894  1.00  0.00    -0.334 N 
ATOM     21  H   UNL     1      -3.320   4.203   3.371  1.00  0.00     0.165 HD
BRANCH  20  22
ATOM     22  C   UNL     1      -3.952   2.533   2.393  1.00  0.00     0.153 C 
BRANCH  22  23
ATOM     23  C   UNL     1      -5.009   2.402   3.458  1.00  0.00    -0.028 A 
ATOM     24  C   UNL     1      -5.657   3.553   3.937  1.00  0.00     0.009 A 
ATOM     25  C   UNL     1      -5.276   1.173   4.067  1.00  0.00     0.009 A 
ATOM     26  C   UNL     1      -6.467   3.489   5.067  1.00  0.00     0.047 A 
ATOM     27  C   UNL     1      -6.118   1.108   5.184  1.00  0.00     0.047 A 
ATOM     28  C   UNL     1      -6.687   2.271   5.707  1.00  0.00     0.118 A 
BRANCH  28  29
ATOM     29  O   UNL     1      -7.447   2.364   6.837  1.00  0.00    -0.497 OA
ATOM     30  C   UNL     1      -7.813   1.147   7.471  1.00  0.00     0.278 C 
ENDBRANCH  28  29
ENDBRANCH  22  23
ENDBRANCH  20  22
ENDBRANCH  12  18
ENDBRANCH   5   8
ENDBRANCH   3   4
ENDBRANCH   2   3
ENDBRANCH   1   2
BRANCH   1  31
ATOM     31  C   UNL     1      -4.046   4.922  -2.051  1.00  0.00     0.002 C 
BRANCH  31  32
ATOM     32  C   UNL     1      -4.822   5.169  -0.753  1.00  0.00     0.021 C 
BRANCH  32  33
ATOM     33  C   UNL     1      -5.043   6.625  -0.359  1.00  0.00     0.116 C 
BRANCH  33  34
ATOM     34  N   UNL     1      -5.806   7.358  -1.351  1.00  0.00    -0.352 N 
ATOM     35  C   UNL     1      -7.014   7.998  -1.256  1.00  0.00     0.251 C 
ATOM     36  H   UNL     1      -5.386   7.404  -2.241  1.00  0.00     0.163 HD
ATOM     37  O   UNL     1      -7.554   8.399  -2.290  1.00  0.00    -0.269 OA
BRANCH  35  38
ATOM     38  C   UNL     1      -7.690   8.205   0.047  1.00  0.00     0.039 A 
ATOM     39  C   UNL     1      -9.085   8.098   0.096  1.00  0.00     0.014 A 
ATOM     40  C   UNL     1      -6.989   8.575   1.198  1.00  0.00     0.014 A 
ATOM     41  C   UNL     1      -9.767   8.325   1.296  1.00  0.00     0.010 A 
ATOM     42  C   UNL     1      -7.663   8.736   2.411  1.00  0.00     0.010 A 
ATOM     43  C   UNL     1      -9.061   8.629   2.470  1.00  0.00    -0.014 A 
BRANCH  43  44
ATOM     44  C   UNL     1      -9.778   8.868   3.752  1.00  0.00     0.031 A 
ATOM     45  C   UNL     1      -9.755  10.232   4.393  1.00  0.00     0.074 A 
ATOM     46  C   UNL     1     -10.427   7.854   4.357  1.00  0.00     0.049 A 
ATOM     47  N   UNL     1     -10.297  10.623   5.519  1.00  0.00    -0.248 NA
ATOM     48  C   UNL     1      -9.011  11.287   3.688  1.00  0.00     0.031 C 
ATOM     49  C   UNL     1     -10.501   6.478   3.861  1.00  0.00     0.029 A 
ATOM     50  N   UNL     1     -11.149   7.824   5.525  1.00  0.00    -0.354 N 
ATOM     51  C   UNL     1      -9.947  11.962   5.664  1.00  0.00     0.074 A 
ATOM     52  C   UNL     1      -9.109  12.302   4.535  1.00  0.00     0.031 C 
ATOM     53  C   UNL     1     -11.248   5.746   4.703  1.00  0.00     0.029 A 
ATOM     54  C   UNL     1     -11.680   6.589   5.815  1.00  0.00     0.049 A 
ATOM     55  H   UNL     1     -11.275   8.613   6.100  1.00  0.00     0.167 HD
ATOM     56  C   UNL     1     -10.305  12.836   6.636  1.00  0.00     0.031 A 
ATOM     57  C   UNL     1     -12.429   6.179   6.857  1.00  0.00     0.031 A 
ATOM     58  C   UNL     1     -11.149  12.505   7.754  1.00  0.00     0.049 A 
ATOM     59  C   UNL     1     -12.818   7.169   7.921  1.00  0.00     0.074 A 
ATOM     60  C   UNL     1     -11.595  13.331   8.771  1.00  0.00     0.029 A 
ATOM     61  N   UNL     1     -11.678  11.248   8.000  1.00  0.00    -0.354 N 
ATOM     62  N   UNL     1     -12.514   8.442   8.014  1.00  0.00    -0.248 NA
ATOM     63  C   UNL     1     -13.665   6.669   9.013  1.00  0.00     0.031 C 
ATOM     64  C   UNL     1     -12.367  12.565   9.652  1.00  0.00     0.029 A 
ATOM     65  C   UNL     1     -12.440  11.273   9.156  1.00  0.00     0.049 A 
ATOM     66  H   UNL     1     -11.534  10.454   7.436  1.00  0.00     0.167 HD
ATOM     67  C   UNL     1     -13.158   8.901   9.158  1.00  0.00     0.074 A 
ATOM     68  C   UNL     1     -13.877   7.774   9.715  1.00  0.00     0.031 C 
ATOM     69  C   UNL     1     -13.155  10.145   9.697  1.00  0.00     0.031 A 
BRANCH  56  70
ATOM     70  C   UNL     1      -9.780  14.244   6.528  1.00  0.00    -0.014 A 
ATOM     71  C   UNL     1     -10.261  15.122   5.539  1.00  0.00     0.010 A 
ATOM     72  C   UNL     1      -8.815  14.706   7.442  1.00  0.00     0.010 A 
ATOM     73  C   UNL     1      -9.754  16.420   5.436  1.00  0.00     0.020 A 
ATOM     74  C   UNL     1      -8.325  16.013   7.359  1.00  0.00     0.020 A 
ATOM     75  C   UNL     1      -8.784  16.855   6.344  1.00  0.00     0.054 A 
BRANCH  75  76
ATOM     76  S   UNL     1      -8.150  18.549   6.196  1.00  0.00     0.124 S 
ATOM     77  O   UNL     1      -7.268  18.439   5.036  1.00  0.00    -0.237 OA
ATOM     78  O   UNL     1      -9.367  19.331   5.986  1.00  0.00    -0.237 OA
ATOM     79  O   UNL     1      -7.477  18.780   7.471  1.00  0.00    -0.744 OA
ENDBRANCH  75  76
ENDBRANCH  56  70
BRANCH  57  80
ATOM     80  C   UNL     1     -12.883   4.764   6.934  1.00  0.00    -0.014 A 
ATOM     81  C   UNL     1     -14.235   4.437   6.724  1.00  0.00     0.010 A 
ATOM     82  C   UNL     1     -11.966   3.736   7.213  1.00  0.00     0.010 A 
ATOM     83  C   UNL     1     -14.666   3.110   6.816  1.00  0.00     0.020 A 
ATOM     84  C   UNL     1     -12.388   2.405   7.281  1.00  0.00     0.020 A 
ATOM     85  C   UNL     1     -13.738   2.102   7.096  1.00  0.00     0.054 A 
BRANCH  85  86
ATOM     86  S   UNL     1     -14.307   0.380   7.170  1.00  0.00     0.124 S 
ATOM     87  O   UNL     1     -14.972   0.336   8.468  1.00  0.00    -0.237 OA
ATOM     88  O   UNL     1     -15.183   0.284   6.005  1.00  0.00    -0.237 OA
ATOM     89  O   UNL     1     -13.069  -0.391   7.074  1.00  0.00    -0.744 OA
ENDBRANCH  85  86
ENDBRANCH  57  80
BRANCH  69  90
ATOM     90  C   UNL     1     -13.991  10.366  10.929  1.00  0.00    -0.014 A 
ATOM     91  C   UNL     1     -13.599   9.855  12.179  1.00  0.00     0.010 A 
ATOM     92  C   UNL     1     -15.169  11.129  10.838  1.00  0.00     0.010 A 
ATOM     93  C   UNL     1     -14.392  10.071  13.310  1.00  0.00     0.020 A 
ATOM     94  C   UNL     1     -15.951  11.368  11.971  1.00  0.00     0.020 A 
ATOM     95  C   UNL     1     -15.566  10.823  13.197  1.00  0.00     0.054 A 
BRANCH  95  96
ATOM     96  S   UNL     1     -16.565  11.115  14.683  1.00  0.00     0.124 S 
ATOM     97  O   UNL     1     -17.238   9.831  14.853  1.00  0.00    -0.237 OA
ATOM     98  O   UNL     1     -15.558  11.436  15.692  1.00  0.00    -0.237 OA
ATOM     99  O   UNL     1     -17.432  12.228  14.303  1.00  0.00    -0.744 OA
ENDBRANCH  95  96
ENDBRANCH  69  90
ENDBRANCH  43  44
ENDBRANCH  35  38
ENDBRANCH  33  34
ENDBRANCH  32  33
ENDBRANCH  31  32
ENDBRANCH   1  31
TORSDOF 23
