REMARK SMILES Nc1nccc(N2CCC[C@@](Cc3ccc(F)cc3F)(C(=O)NCCCCCCNC(=O)c3ccc(-c4c5nc(c(-c6ccc(S(=O)(=O)[O-])cc6)c6ccc([nH]6)c(-c6ccc(S(=O)(=O)[O-])cc6)c6nc(c(-c7ccc(S(=O)(=O)[O-])cc7)c7ccc4[nH]7)C=C6)C=C5)cc3)C2)n1
REMARK SMILES IDX 27 1 26 2 25 3 24 4 23 5 21 6 22 7 11 9 7 10 8 11 93 12 9 13
REMARK SMILES IDX 10 14 6 15 2 16 3 17 94 18 4 19 5 20 1 21 12 24 13 25 14 26
REMARK SMILES IDX 19 27 15 28 18 29 20 30 16 31 17 32 28 33 29 34 30 35 31 36
REMARK SMILES IDX 32 38 33 39 34 40 92 41 35 42 91 43 36 44 37 45 38 46 85 47
REMARK SMILES IDX 39 48 90 49 84 50 86 51 40 52 89 53 83 54 82 55 41 57 71 58
REMARK SMILES IDX 52 59 70 60 53 61 56 62 69 63 87 64 54 65 55 66 68 68 88 69
REMARK SMILES IDX 57 70 42 71 43 72 51 73 44 74 50 75 45 76 46 77 47 78 48 79
REMARK SMILES IDX 49 80 72 81 73 82 81 83 74 84 80 85 75 86 76 87 77 88 78 89
REMARK SMILES IDX 79 90 58 91 59 92 67 93 60 94 66 95 61 96 62 97 63 98 64 99
REMARK SMILES IDX 65 100
REMARK H PARENT 23 8 1 22 1 23 30 37 86 56 56 67
REMARK Flexibility Score: inf
ROOT
ATOM      1  C   UNL     1       6.032  -7.452  -5.428  1.00  0.00     0.002 C 
ENDROOT
BRANCH   1   2
ATOM      2  C   UNL     1       5.339  -8.127  -4.236  1.00  0.00     0.002 C 
BRANCH   2   3
ATOM      3  C   UNL     1       5.343  -7.336  -2.924  1.00  0.00     0.021 C 
BRANCH   3   4
ATOM      4  C   UNL     1       4.853  -5.903  -3.063  1.00  0.00     0.116 C 
BRANCH   4   5
ATOM      5  N   UNL     1       3.416  -5.781  -3.168  1.00  0.00    -0.356 N 
ATOM      6  C   UNL     1       2.552  -4.835  -2.708  1.00  0.00     0.228 C 
ATOM      7  O   UNL     1       1.425  -4.869  -3.216  1.00  0.00    -0.274 OA
ATOM      8  H   UNL     1       2.985  -6.515  -3.661  1.00  0.00     0.163 HD
BRANCH   6   9
ATOM      9  C   UNL     1       2.917  -3.776  -1.642  1.00  0.00     0.071 C 
ATOM     10  N   UNL     1       1.786  -2.320  -0.013  1.00  0.00    -0.355 N 
ATOM     11  C   UNL     1       2.321  -2.909   1.197  1.00  0.00     0.118 C 
ATOM     12  C   UNL     1       1.534  -3.224  -1.130  1.00  0.00     0.135 C 
ATOM     13  C   UNL     1       3.667  -3.526   0.850  1.00  0.00     0.023 C 
ATOM     14  C   UNL     1       3.610  -4.413  -0.401  1.00  0.00     0.021 C 
BRANCH  10  15
ATOM     15  C   UNL     1       1.065  -1.148   0.079  1.00  0.00     0.134 A 
ATOM     16  C   UNL     1      -0.912  -0.006   0.009  1.00  0.00     0.221 A 
ATOM     17  N   UNL     1      -0.330   1.189   0.146  1.00  0.00    -0.222 NA
ATOM     18  N   UNL     1      -0.269  -1.176  -0.049  1.00  0.00    -0.196 NA
ATOM     19  C   UNL     1       1.007   1.184   0.250  1.00  0.00     0.119 A 
ATOM     20  C   UNL     1       1.755   0.036   0.244  1.00  0.00     0.067 A 
BRANCH  16  21
ATOM     21  N   UNL     1      -2.274  -0.031  -0.066  1.00  0.00    -0.368 N 
ATOM     22  H   UNL     1      -2.784   0.810  -0.027  1.00  0.00     0.159 HD
ATOM     23  H   UNL     1      -2.746  -0.889  -0.158  1.00  0.00     0.159 HD
ENDBRANCH  16  21
ENDBRANCH  10  15
BRANCH   9  24
ATOM     24  C   UNL     1       3.643  -2.542  -2.274  1.00  0.00     0.057 C 
BRANCH  24  25
ATOM     25  C   UNL     1       4.977  -2.697  -2.959  1.00  0.00    -0.011 A 
ATOM     26  C   UNL     1       5.047  -2.882  -4.350  1.00  0.00     0.010 A 
ATOM     27  C   UNL     1       6.174  -2.631  -2.233  1.00  0.00     0.129 A 
ATOM     28  C   UNL     1       6.284  -3.066  -4.973  1.00  0.00     0.040 A 
ATOM     29  C   UNL     1       7.408  -2.809  -2.847  1.00  0.00     0.078 A 
ATOM     30  F   UNL     1       6.142  -2.409  -0.913  1.00  0.00    -0.207 F 
ATOM     31  C   UNL     1       7.449  -3.042  -4.213  1.00  0.00     0.126 A 
ATOM     32  F   UNL     1       8.625  -3.272  -4.808  1.00  0.00    -0.207 F 
ENDBRANCH  24  25
ENDBRANCH   9  24
ENDBRANCH   6   9
ENDBRANCH   4   5
ENDBRANCH   3   4
ENDBRANCH   2   3
ENDBRANCH   1   2
BRANCH   1  33
ATOM     33  C   UNL     1       7.448  -6.928  -5.170  1.00  0.00     0.021 C 
BRANCH  33  34
ATOM     34  C   UNL     1       8.448  -7.976  -4.699  1.00  0.00     0.116 C 
BRANCH  34  35
ATOM     35  N   UNL     1       8.604  -9.056  -5.658  1.00  0.00    -0.352 N 
ATOM     36  C   UNL     1       9.751  -9.601  -6.172  1.00  0.00     0.251 C 
ATOM     37  H   UNL     1       7.765  -9.453  -5.985  1.00  0.00     0.163 HD
ATOM     38  O   UNL     1       9.678 -10.389  -7.117  1.00  0.00    -0.269 OA
BRANCH  36  39
ATOM     39  C   UNL     1      11.068  -9.236  -5.611  1.00  0.00     0.039 A 
ATOM     40  C   UNL     1      12.134  -9.008  -6.486  1.00  0.00     0.014 A 
ATOM     41  C   UNL     1      11.263  -9.140  -4.230  1.00  0.00     0.014 A 
ATOM     42  C   UNL     1      13.381  -8.639  -5.977  1.00  0.00     0.010 A 
ATOM     43  C   UNL     1      12.485  -8.697  -3.730  1.00  0.00     0.010 A 
ATOM     44  C   UNL     1      13.560  -8.456  -4.597  1.00  0.00    -0.014 A 
BRANCH  44  45
ATOM     45  C   UNL     1      14.869  -8.025  -4.042  1.00  0.00     0.031 A 
ATOM     46  C   UNL     1      15.638  -8.936  -3.123  1.00  0.00     0.074 A 
ATOM     47  C   UNL     1      15.339  -6.794  -4.324  1.00  0.00     0.049 A 
ATOM     48  N   UNL     1      16.778  -8.725  -2.517  1.00  0.00    -0.248 NA
ATOM     49  C   UNL     1      15.035 -10.246  -2.825  1.00  0.00     0.031 C 
ATOM     50  C   UNL     1      14.671  -5.805  -5.174  1.00  0.00     0.029 A 
ATOM     51  N   UNL     1      16.491  -6.163  -3.926  1.00  0.00    -0.354 N 
ATOM     52  C   UNL     1      17.016  -9.861  -1.750  1.00  0.00     0.074 A 
ATOM     53  C   UNL     1      15.880 -10.737  -1.931  1.00  0.00     0.031 C 
ATOM     54  C   UNL     1      15.443  -4.710  -5.266  1.00  0.00     0.029 A 
ATOM     55  C   UNL     1      16.636  -4.898  -4.447  1.00  0.00     0.049 A 
ATOM     56  H   UNL     1      17.151  -6.576  -3.324  1.00  0.00     0.167 HD
ATOM     57  C   UNL     1      18.090 -10.155  -0.979  1.00  0.00     0.031 A 
ATOM     58  C   UNL     1      17.619  -3.991  -4.284  1.00  0.00     0.031 A 
ATOM     59  C   UNL     1      19.224  -9.284  -0.815  1.00  0.00     0.049 A 
ATOM     60  C   UNL     1      18.795  -4.336  -3.411  1.00  0.00     0.074 A 
ATOM     61  C   UNL     1      20.393  -9.518  -0.113  1.00  0.00     0.029 A 
ATOM     62  N   UNL     1      19.328  -8.010  -1.353  1.00  0.00    -0.354 N 
ATOM     63  N   UNL     1      19.037  -5.445  -2.755  1.00  0.00    -0.248 NA
ATOM     64  C   UNL     1      19.835  -3.309  -3.267  1.00  0.00     0.031 C 
ATOM     65  C   UNL     1      21.177  -8.361  -0.174  1.00  0.00     0.029 A 
ATOM     66  C   UNL     1      20.527  -7.432  -0.971  1.00  0.00     0.049 A 
ATOM     67  H   UNL     1      18.650  -7.580  -1.923  1.00  0.00     0.167 HD
ATOM     68  C   UNL     1      20.274  -5.262  -2.146  1.00  0.00     0.074 A 
ATOM     69  C   UNL     1      20.733  -3.940  -2.522  1.00  0.00     0.031 C 
ATOM     70  C   UNL     1      20.970  -6.114  -1.352  1.00  0.00     0.031 A 
BRANCH  57  71
ATOM     71  C   UNL     1      18.078 -11.466  -0.235  1.00  0.00    -0.014 A 
ATOM     72  C   UNL     1      18.169 -12.696  -0.913  1.00  0.00     0.010 A 
ATOM     73  C   UNL     1      18.005 -11.467   1.170  1.00  0.00     0.010 A 
ATOM     74  C   UNL     1      18.136 -13.900  -0.204  1.00  0.00     0.020 A 
ATOM     75  C   UNL     1      18.004 -12.668   1.885  1.00  0.00     0.020 A 
ATOM     76  C   UNL     1      18.048 -13.878   1.191  1.00  0.00     0.054 A 
BRANCH  76  77
ATOM     77  S   UNL     1      18.016 -15.456   2.086  1.00  0.00     0.124 S 
ATOM     78  O   UNL     1      16.678 -15.951   1.773  1.00  0.00    -0.237 OA
ATOM     79  O   UNL     1      19.117 -16.194   1.473  1.00  0.00    -0.237 OA
ATOM     80  O   UNL     1      18.227 -15.070   3.478  1.00  0.00    -0.744 OA
ENDBRANCH  76  77
ENDBRANCH  57  71
BRANCH  58  81
ATOM     81  C   UNL     1      17.546  -2.680  -4.986  1.00  0.00    -0.014 A 
ATOM     82  C   UNL     1      18.430  -2.391  -6.041  1.00  0.00     0.010 A 
ATOM     83  C   UNL     1      16.586  -1.721  -4.617  1.00  0.00     0.010 A 
ATOM     84  C   UNL     1      18.368  -1.160  -6.701  1.00  0.00     0.020 A 
ATOM     85  C   UNL     1      16.501  -0.501  -5.295  1.00  0.00     0.020 A 
ATOM     86  C   UNL     1      17.401  -0.224  -6.326  1.00  0.00     0.054 A 
BRANCH  86  87
ATOM     87  S   UNL     1      17.306   1.345  -7.232  1.00  0.00     0.124 S 
ATOM     88  O   UNL     1      18.500   2.040  -6.761  1.00  0.00    -0.237 OA
ATOM     89  O   UNL     1      17.336   0.906  -8.625  1.00  0.00    -0.237 OA
ATOM     90  O   UNL     1      16.035   1.917  -6.794  1.00  0.00    -0.744 OA
ENDBRANCH  86  87
ENDBRANCH  58  81
BRANCH  70  91
ATOM     91  C   UNL     1      22.321  -5.661  -0.865  1.00  0.00    -0.014 A 
ATOM     92  C   UNL     1      22.450  -4.651   0.105  1.00  0.00     0.010 A 
ATOM     93  C   UNL     1      23.479  -6.297  -1.350  1.00  0.00     0.010 A 
ATOM     94  C   UNL     1      23.715  -4.263   0.555  1.00  0.00     0.020 A 
ATOM     95  C   UNL     1      24.742  -5.934  -0.879  1.00  0.00     0.020 A 
ATOM     96  C   UNL     1      24.853  -4.908   0.061  1.00  0.00     0.054 A 
BRANCH  96  97
ATOM     97  S   UNL     1      26.480  -4.416   0.694  1.00  0.00     0.124 S 
ATOM     98  O   UNL     1      26.674  -3.116   0.057  1.00  0.00    -0.237 OA
ATOM     99  O   UNL     1      26.264  -4.383   2.139  1.00  0.00    -0.237 OA
ATOM    100  O   UNL     1      27.369  -5.477   0.228  1.00  0.00    -0.744 OA
ENDBRANCH  96  97
ENDBRANCH  70  91
ENDBRANCH  44  45
ENDBRANCH  36  39
ENDBRANCH  34  35
ENDBRANCH  33  34
ENDBRANCH   1  33
TORSDOF 20
