REMARK SMILES Nc1oc2ccc(F)cc2c(=O)c1[C@@H]1[NH2+][C@H](C(=O)NCCCCCCNC(=O)c2ccc(-c3c4nc(c(-c5ccc(S(=O)(=O)[O-])cc5)c5ccc([nH]5)c(-c5ccc(S(=O)(=O)[O-])cc5)c5nc(c(-c6ccc(S(=O)(=O)[O-])cc6)c6ccc3[nH]6)C=C5)C=C4)cc2)CS1
REMARK SMILES IDX 23 1 22 2 21 3 20 4 19 5 17 6 18 7 16 9 14 10 15 11 90 12
REMARK SMILES IDX 89 15 13 16 2 17 3 18 4 19 11 20 5 21 10 22 12 23 6 24 9 25
REMARK SMILES IDX 7 26 8 27 1 28 24 31 25 32 26 33 27 34 28 36 29 37 30 38
REMARK SMILES IDX 88 39 31 40 87 41 32 42 33 43 34 44 81 45 35 46 86 47 80 48
REMARK SMILES IDX 82 49 36 50 85 51 79 52 78 53 37 55 67 56 48 57 66 58 49 59
REMARK SMILES IDX 52 60 65 61 83 62 50 63 51 64 64 66 84 67 53 68 38 69 39 70
REMARK SMILES IDX 47 71 40 72 46 73 41 74 42 75 43 76 44 77 45 78 68 79 69 80
REMARK SMILES IDX 77 81 70 82 76 83 71 84 72 85 73 86 74 87 75 88 54 89 55 90
REMARK SMILES IDX 63 91 56 92 62 93 57 94 58 95 59 96 60 97 61 98
REMARK H PARENT 19 8 15 13 15 14 1 29 1 30 26 35 82 54 52 65
REMARK Flexibility Score: inf
ROOT
ATOM      1  C   UNL     1      -3.972   0.053   1.138  1.00  0.00     0.002 C 
ENDROOT
BRANCH   1   2
ATOM      2  C   UNL     1      -3.341   1.122   2.047  1.00  0.00     0.002 C 
BRANCH   2   3
ATOM      3  C   UNL     1      -1.866   0.915   2.420  1.00  0.00     0.021 C 
BRANCH   3   4
ATOM      4  C   UNL     1      -0.907   0.866   1.229  1.00  0.00     0.116 C 
BRANCH   4   5
ATOM      5  N   UNL     1      -0.309   2.151   0.919  1.00  0.00    -0.351 N 
ATOM      6  C   UNL     1       0.980   2.590   0.953  1.00  0.00     0.279 C 
ATOM      7  O   UNL     1       1.176   3.721   0.482  1.00  0.00    -0.268 OA
ATOM      8  H   UNL     1      -0.957   2.833   0.630  1.00  0.00     0.163 HD
BRANCH   6   9
ATOM      9  C   UNL     1       2.200   1.780   1.447  1.00  0.00     0.283 C 
ATOM     10  C   UNL     1       2.593  -0.562   2.015  1.00  0.00     0.283 C 
ATOM     11  N   UNL     1       1.883   0.678   2.373  1.00  0.00    -0.320 N 
ATOM     12  S   UNL     1       3.850  -0.172   0.778  1.00  0.00    -0.087 SA
ATOM     13  H   UNL     1       2.154   0.952   3.317  1.00  0.00     0.348 HD
ATOM     14  H   UNL     1       0.880   0.496   2.317  1.00  0.00     0.348 HD
ATOM     15  C   UNL     1       3.010   1.326   0.240  1.00  0.00     0.151 C 
BRANCH  10  16
ATOM     16  C   UNL     1       1.595  -1.640   1.639  1.00  0.00     0.128 A 
ATOM     17  C   UNL     1       1.130  -2.018   0.424  1.00  0.00     0.205 A 
ATOM     18  O   UNL     1       0.098  -2.925   0.238  1.00  0.00    -0.440 OA
ATOM     19  C   UNL     1      -0.495  -3.511   1.315  1.00  0.00     0.140 A 
ATOM     20  C   UNL     1       0.993  -2.297   2.837  1.00  0.00     0.205 A 
ATOM     21  C   UNL     1      -1.549  -4.394   1.066  1.00  0.00     0.051 A 
ATOM     22  C   UNL     1      -0.086  -3.261   2.616  1.00  0.00     0.068 A 
ATOM     23  O   UNL     1       1.354  -2.037   3.982  1.00  0.00    -0.288 OA
ATOM     24  C   UNL     1      -2.167  -5.046   2.132  1.00  0.00     0.043 A 
ATOM     25  C   UNL     1      -0.700  -3.908   3.688  1.00  0.00     0.055 A 
ATOM     26  C   UNL     1      -1.724  -4.806   3.429  1.00  0.00     0.124 A 
ATOM     27  F   UNL     1      -2.290  -5.449   4.454  1.00  0.00    -0.207 F 
BRANCH  17  28
ATOM     28  N   UNL     1       1.563  -1.529  -0.772  1.00  0.00    -0.369 N 
ATOM     29  H   UNL     1       1.169  -1.860  -1.611  1.00  0.00     0.159 HD
ATOM     30  H   UNL     1       2.271  -0.845  -0.797  1.00  0.00     0.159 HD
ENDBRANCH  17  28
ENDBRANCH  10  16
ENDBRANCH   6   9
ENDBRANCH   4   5
ENDBRANCH   3   4
ENDBRANCH   2   3
ENDBRANCH   1   2
BRANCH   1  31
ATOM     31  C   UNL     1      -3.809  -1.402   1.587  1.00  0.00     0.021 C 
BRANCH  31  32
ATOM     32  C   UNL     1      -4.528  -1.778   2.883  1.00  0.00     0.116 C 
BRANCH  32  33
ATOM     33  N   UNL     1      -5.973  -1.846   2.715  1.00  0.00    -0.352 N 
ATOM     34  C   UNL     1      -6.848  -2.907   2.730  1.00  0.00     0.251 C 
ATOM     35  H   UNL     1      -6.401  -0.973   2.563  1.00  0.00     0.163 HD
ATOM     36  O   UNL     1      -8.009  -2.712   2.369  1.00  0.00    -0.269 OA
BRANCH  34  37
ATOM     37  C   UNL     1      -6.439  -4.275   3.144  1.00  0.00     0.039 A 
ATOM     38  C   UNL     1      -5.563  -4.503   4.202  1.00  0.00     0.014 A 
ATOM     39  C   UNL     1      -7.020  -5.379   2.503  1.00  0.00     0.014 A 
ATOM     40  C   UNL     1      -5.159  -5.806   4.510  1.00  0.00     0.010 A 
ATOM     41  C   UNL     1      -6.669  -6.689   2.869  1.00  0.00     0.010 A 
ATOM     42  C   UNL     1      -5.694  -6.924   3.848  1.00  0.00    -0.014 A 
BRANCH  42  43
ATOM     43  C   UNL     1      -5.224  -8.305   4.191  1.00  0.00     0.031 A 
ATOM     44  C   UNL     1      -4.610  -9.209   3.143  1.00  0.00     0.074 A 
ATOM     45  C   UNL     1      -5.293  -8.749   5.466  1.00  0.00     0.049 A 
ATOM     46  N   UNL     1      -4.156 -10.433   3.275  1.00  0.00    -0.248 NA
ATOM     47  C   UNL     1      -4.489  -8.680   1.775  1.00  0.00     0.031 C 
ATOM     48  C   UNL     1      -5.837  -7.991   6.594  1.00  0.00     0.029 A 
ATOM     49  N   UNL     1      -4.873  -9.929   6.038  1.00  0.00    -0.354 N 
ATOM     50  C   UNL     1      -3.721 -10.824   2.012  1.00  0.00     0.074 A 
ATOM     51  C   UNL     1      -3.987  -9.718   1.118  1.00  0.00     0.031 C 
ATOM     52  C   UNL     1      -5.645  -8.684   7.726  1.00  0.00     0.029 A 
ATOM     53  C   UNL     1      -5.046  -9.976   7.403  1.00  0.00     0.049 A 
ATOM     54  H   UNL     1      -4.486 -10.671   5.519  1.00  0.00     0.167 HD
ATOM     55  C   UNL     1      -3.142 -11.988   1.630  1.00  0.00     0.031 A 
ATOM     56  C   UNL     1      -4.774 -10.943   8.306  1.00  0.00     0.031 A 
ATOM     57  C   UNL     1      -2.844 -13.085   2.516  1.00  0.00     0.049 A 
ATOM     58  C   UNL     1      -4.180 -12.245   7.848  1.00  0.00     0.074 A 
ATOM     59  C   UNL     1      -2.237 -14.291   2.204  1.00  0.00     0.029 A 
ATOM     60  N   UNL     1      -3.114 -13.116   3.874  1.00  0.00    -0.354 N 
ATOM     61  N   UNL     1      -3.793 -12.593   6.646  1.00  0.00    -0.248 NA
ATOM     62  C   UNL     1      -3.997 -13.291   8.866  1.00  0.00     0.031 C 
ATOM     63  C   UNL     1      -2.197 -15.075   3.359  1.00  0.00     0.029 A 
ATOM     64  C   UNL     1      -2.713 -14.331   4.407  1.00  0.00     0.049 A 
ATOM     65  H   UNL     1      -3.528 -12.383   4.385  1.00  0.00     0.167 HD
ATOM     66  C   UNL     1      -3.322 -13.896   6.762  1.00  0.00     0.074 A 
ATOM     67  C   UNL     1      -3.442 -14.265   8.156  1.00  0.00     0.031 C 
ATOM     68  C   UNL     1      -2.842 -14.710   5.791  1.00  0.00     0.031 A 
BRANCH  55  69
ATOM     69  C   UNL     1      -2.769 -12.166   0.179  1.00  0.00    -0.014 A 
ATOM     70  C   UNL     1      -3.448 -13.121  -0.602  1.00  0.00     0.010 A 
ATOM     71  C   UNL     1      -1.652 -11.508  -0.365  1.00  0.00     0.010 A 
ATOM     72  C   UNL     1      -2.994 -13.443  -1.884  1.00  0.00     0.020 A 
ATOM     73  C   UNL     1      -1.212 -11.808  -1.658  1.00  0.00     0.020 A 
ATOM     74  C   UNL     1      -1.871 -12.793  -2.399  1.00  0.00     0.054 A 
BRANCH  74  75
ATOM     75  S   UNL     1      -1.269 -13.253  -4.048  1.00  0.00     0.124 S 
ATOM     76  O   UNL     1      -0.621 -14.536  -3.793  1.00  0.00    -0.237 OA
ATOM     77  O   UNL     1      -2.501 -13.311  -4.832  1.00  0.00    -0.237 OA
ATOM     78  O   UNL     1      -0.370 -12.156  -4.401  1.00  0.00    -0.744 OA
ENDBRANCH  74  75
ENDBRANCH  55  69
BRANCH  56  79
ATOM     79  C   UNL     1      -5.072 -10.699   9.746  1.00  0.00    -0.014 A 
ATOM     80  C   UNL     1      -6.402 -10.551  10.184  1.00  0.00     0.010 A 
ATOM     81  C   UNL     1      -4.027 -10.542  10.674  1.00  0.00     0.010 A 
ATOM     82  C   UNL     1      -6.679 -10.186  11.503  1.00  0.00     0.020 A 
ATOM     83  C   UNL     1      -4.302 -10.211  12.005  1.00  0.00     0.020 A 
ATOM     84  C   UNL     1      -5.626 -10.002  12.401  1.00  0.00     0.054 A 
BRANCH  84  85
ATOM     85  S   UNL     1      -6.002  -9.476  14.096  1.00  0.00     0.124 S 
ATOM     86  O   UNL     1      -6.254  -8.047  13.915  1.00  0.00    -0.237 OA
ATOM     87  O   UNL     1      -7.178 -10.282  14.428  1.00  0.00    -0.237 OA
ATOM     88  O   UNL     1      -4.793  -9.811  14.836  1.00  0.00    -0.744 OA
ENDBRANCH  84  85
ENDBRANCH  56  79
BRANCH  68  89
ATOM     89  C   UNL     1      -2.413 -16.104   6.173  1.00  0.00    -0.014 A 
ATOM     90  C   UNL     1      -1.056 -16.468   6.096  1.00  0.00     0.010 A 
ATOM     91  C   UNL     1      -3.368 -17.089   6.483  1.00  0.00     0.010 A 
ATOM     92  C   UNL     1      -0.664 -17.796   6.287  1.00  0.00     0.020 A 
ATOM     93  C   UNL     1      -2.977 -18.413   6.703  1.00  0.00     0.020 A 
ATOM     94  C   UNL     1      -1.629 -18.763   6.579  1.00  0.00     0.054 A 
BRANCH  94  95
ATOM     95  S   UNL     1      -1.107 -20.487   6.792  1.00  0.00     0.124 S 
ATOM     96  O   UNL     1      -0.882 -20.913   5.414  1.00  0.00    -0.237 OA
ATOM     97  O   UNL     1       0.093 -20.360   7.616  1.00  0.00    -0.237 OA
ATOM     98  O   UNL     1      -2.247 -21.111   7.460  1.00  0.00    -0.744 OA
ENDBRANCH  94  95
ENDBRANCH  68  89
ENDBRANCH  42  43
ENDBRANCH  34  37
ENDBRANCH  32  33
ENDBRANCH  31  32
ENDBRANCH   1  31
TORSDOF 18
