REMARK SMILES O=C(Cc1ccn(C(F)F)c(=O)c1)NCCCCCCNC(=O)c1ccc(-c2c3nc(c(-c4ccc(S(=O)(=O)[O-])cc4)c4ccc([nH]4)c(-c4ccc(S(=O)(=O)[O-])cc4)c4nc(c(-c5ccc(S(=O)(=O)[O-])cc5)c5ccc2[nH]5)C=C4)C=C3)cc1
REMARK SMILES IDX 18 1 17 2 16 3 15 4 14 5 1 6 2 7 3 9 4 10 5 11 13 12 6 13
REMARK SMILES IDX 11 14 7 15 12 16 8 17 9 18 10 19 19 20 20 21 21 22 22 23
REMARK SMILES IDX 23 25 24 26 25 27 83 28 26 29 82 30 27 31 28 32 29 33 76 34
REMARK SMILES IDX 30 35 81 36 75 37 77 38 31 39 80 40 74 41 73 42 32 44 62 45
REMARK SMILES IDX 43 46 61 47 44 48 47 49 60 50 78 51 45 52 46 53 59 55 79 56
REMARK SMILES IDX 48 57 33 58 34 59 42 60 35 61 41 62 36 63 37 64 38 65 39 66
REMARK SMILES IDX 40 67 63 68 64 69 72 70 65 71 71 72 66 73 67 74 68 75 69 76
REMARK SMILES IDX 70 77 49 78 50 79 58 80 51 81 57 82 52 83 53 84 54 85 55 86
REMARK SMILES IDX 56 87
REMARK H PARENT 14 8 21 24 77 43 47 54
REMARK Flexibility Score: inf
ROOT
ATOM      1  C   UNL     1       4.738   2.211  -3.494  1.00  0.00     0.002 C 
ENDROOT
BRANCH   1   2
ATOM      2  C   UNL     1       4.198   2.942  -2.261  1.00  0.00     0.002 C 
BRANCH   2   3
ATOM      3  C   UNL     1       2.687   2.813  -2.013  1.00  0.00     0.021 C 
BRANCH   3   4
ATOM      4  C   UNL     1       2.171   1.381  -1.861  1.00  0.00     0.116 C 
BRANCH   4   5
ATOM      5  N   UNL     1       2.884   0.676  -0.817  1.00  0.00    -0.356 N 
ATOM      6  O   UNL     1       1.052  -0.084   0.349  1.00  0.00    -0.275 OA
ATOM      7  C   UNL     1       2.268  -0.003   0.211  1.00  0.00     0.224 C 
ATOM      8  H   UNL     1       3.868   0.682  -0.843  1.00  0.00     0.163 HD
BRANCH   7   9
ATOM      9  C   UNL     1       3.243  -0.632   1.204  1.00  0.00     0.135 C 
BRANCH   9  10
ATOM     10  C   UNL     1       3.907  -1.856   0.628  1.00  0.00    -0.032 A 
ATOM     11  C   UNL     1       5.117  -1.688  -0.153  1.00  0.00     0.022 A 
ATOM     12  C   UNL     1       3.431  -3.096   0.834  1.00  0.00     0.076 A 
ATOM     13  C   UNL     1       5.689  -2.740  -0.750  1.00  0.00     0.095 A 
ATOM     14  C   UNL     1       4.095  -4.286   0.229  1.00  0.00     0.255 A 
ATOM     15  N   UNL     1       5.178  -4.014  -0.594  1.00  0.00    -0.258 N 
ATOM     16  O   UNL     1       3.655  -5.401   0.489  1.00  0.00    -0.269 OA
BRANCH  15  17
ATOM     17  C   UNL     1       5.806  -5.136  -1.242  1.00  0.00     0.451 C 
ATOM     18  F   UNL     1       6.399  -5.948  -0.333  1.00  0.00    -0.185 F 
ATOM     19  F   UNL     1       4.910  -5.872  -1.941  1.00  0.00    -0.185 F 
ENDBRANCH  15  17
ENDBRANCH   9  10
ENDBRANCH   7   9
ENDBRANCH   4   5
ENDBRANCH   3   4
ENDBRANCH   2   3
ENDBRANCH   1   2
BRANCH   1  20
ATOM     20  C   UNL     1       4.096   2.605  -4.824  1.00  0.00     0.021 C 
BRANCH  20  21
ATOM     21  C   UNL     1       4.147   4.092  -5.158  1.00  0.00     0.116 C 
BRANCH  21  22
ATOM     22  N   UNL     1       5.500   4.593  -5.356  1.00  0.00    -0.352 N 
ATOM     23  C   UNL     1       5.976   5.409  -6.358  1.00  0.00     0.251 C 
ATOM     24  H   UNL     1       6.162   4.310  -4.685  1.00  0.00     0.163 HD
ATOM     25  O   UNL     1       7.176   5.654  -6.441  1.00  0.00    -0.269 OA
BRANCH  23  26
ATOM     26  C   UNL     1       5.031   5.949  -7.361  1.00  0.00     0.039 A 
ATOM     27  C   UNL     1       3.834   6.545  -6.958  1.00  0.00     0.014 A 
ATOM     28  C   UNL     1       5.318   5.795  -8.720  1.00  0.00     0.014 A 
ATOM     29  C   UNL     1       2.852   6.820  -7.904  1.00  0.00     0.010 A 
ATOM     30  C   UNL     1       4.357   6.144  -9.674  1.00  0.00     0.010 A 
ATOM     31  C   UNL     1       3.094   6.604  -9.271  1.00  0.00    -0.014 A 
BRANCH  31  32
ATOM     32  C   UNL     1       2.002   6.834 -10.252  1.00  0.00     0.031 A 
ATOM     33  C   UNL     1       1.399   5.682 -11.014  1.00  0.00     0.074 A 
ATOM     34  C   UNL     1       1.498   8.075 -10.405  1.00  0.00     0.049 A 
ATOM     35  N   UNL     1       0.413   5.695 -11.876  1.00  0.00    -0.248 NA
ATOM     36  C   UNL     1       1.968   4.344 -10.779  1.00  0.00     0.031 C 
ATOM     37  C   UNL     1       1.975   9.266  -9.699  1.00  0.00     0.029 A 
ATOM     38  N   UNL     1       0.457   8.536 -11.170  1.00  0.00    -0.354 N 
ATOM     39  C   UNL     1       0.253   4.378 -12.293  1.00  0.00     0.074 A 
ATOM     40  C   UNL     1       1.260   3.594 -11.614  1.00  0.00     0.031 C 
ATOM     41  C   UNL     1       1.189  10.306 -10.014  1.00  0.00     0.029 A 
ATOM     42  C   UNL     1       0.194   9.874 -10.992  1.00  0.00     0.049 A 
ATOM     43  H   UNL     1      -0.054   7.963 -11.787  1.00  0.00     0.167 HD
ATOM     44  C   UNL     1      -0.660   3.868 -13.154  1.00  0.00     0.031 A 
ATOM     45  C   UNL     1      -0.738  10.672 -11.551  1.00  0.00     0.031 A 
ATOM     46  C   UNL     1      -1.672   4.647 -13.817  1.00  0.00     0.049 A 
ATOM     47  C   UNL     1      -1.704  10.093 -12.543  1.00  0.00     0.074 A 
ATOM     48  C   UNL     1      -2.645   4.210 -14.700  1.00  0.00     0.029 A 
ATOM     49  N   UNL     1      -1.849   6.014 -13.670  1.00  0.00    -0.354 N 
ATOM     50  N   UNL     1      -1.828   8.848 -12.934  1.00  0.00    -0.248 NA
ATOM     51  C   UNL     1      -2.650  11.023 -13.176  1.00  0.00     0.031 C 
ATOM     52  C   UNL     1      -3.377   5.321 -15.127  1.00  0.00     0.029 A 
ATOM     53  C   UNL     1      -2.900   6.440 -14.464  1.00  0.00     0.049 A 
ATOM     54  H   UNL     1      -1.308   6.595 -13.087  1.00  0.00     0.167 HD
ATOM     55  C   UNL     1      -2.868   8.843 -13.856  1.00  0.00     0.074 A 
ATOM     56  C   UNL     1      -3.352  10.204 -13.951  1.00  0.00     0.031 C 
ATOM     57  C   UNL     1      -3.368   7.800 -14.562  1.00  0.00     0.031 A 
BRANCH  44  58
ATOM     58  C   UNL     1      -0.620   2.390 -13.443  1.00  0.00    -0.014 A 
ATOM     59  C   UNL     1      -0.220   1.939 -14.714  1.00  0.00     0.010 A 
ATOM     60  C   UNL     1      -1.084   1.457 -12.499  1.00  0.00     0.010 A 
ATOM     61  C   UNL     1      -0.306   0.584 -15.046  1.00  0.00     0.020 A 
ATOM     62  C   UNL     1      -1.150   0.097 -12.820  1.00  0.00     0.020 A 
ATOM     63  C   UNL     1      -0.780  -0.327 -14.099  1.00  0.00     0.054 A 
BRANCH  63  64
ATOM     64  S   UNL     1      -0.894  -2.082 -14.547  1.00  0.00     0.124 S 
ATOM     65  O   UNL     1      -2.120  -2.118 -15.339  1.00  0.00    -0.237 OA
ATOM     66  O   UNL     1       0.345  -2.306 -15.289  1.00  0.00    -0.237 OA
ATOM     67  O   UNL     1      -0.963  -2.758 -13.254  1.00  0.00    -0.744 OA
ENDBRANCH  63  64
ENDBRANCH  44  58
BRANCH  45  68
ATOM     68  C   UNL     1      -0.790  12.104 -11.154  1.00  0.00    -0.014 A 
ATOM     69  C   UNL     1       0.249  12.980 -11.519  1.00  0.00     0.010 A 
ATOM     70  C   UNL     1      -1.823  12.573 -10.324  1.00  0.00     0.010 A 
ATOM     71  C   UNL     1       0.292  14.280 -11.011  1.00  0.00     0.020 A 
ATOM     72  C   UNL     1      -1.798  13.884  -9.835  1.00  0.00     0.020 A 
ATOM     73  C   UNL     1      -0.723  14.717 -10.156  1.00  0.00     0.054 A 
BRANCH  73  74
ATOM     74  S   UNL     1      -0.616  16.385  -9.452  1.00  0.00     0.124 S 
ATOM     75  O   UNL     1       0.342  16.189  -8.367  1.00  0.00    -0.237 OA
ATOM     76  O   UNL     1      -0.135  17.181 -10.579  1.00  0.00    -0.237 OA
ATOM     77  O   UNL     1      -1.987  16.667  -9.035  1.00  0.00    -0.744 OA
ENDBRANCH  73  74
ENDBRANCH  45  68
BRANCH  57  78
ATOM     78  C   UNL     1      -4.497   8.067 -15.520  1.00  0.00    -0.014 A 
ATOM     79  C   UNL     1      -5.785   7.576 -15.237  1.00  0.00     0.010 A 
ATOM     80  C   UNL     1      -4.253   8.682 -16.760  1.00  0.00     0.010 A 
ATOM     81  C   UNL     1      -6.801   7.661 -16.192  1.00  0.00     0.020 A 
ATOM     82  C   UNL     1      -5.273   8.791 -17.709  1.00  0.00     0.020 A 
ATOM     83  C   UNL     1      -6.533   8.256 -17.428  1.00  0.00     0.054 A 
BRANCH  83  84
ATOM     84  S   UNL     1      -7.851   8.324 -18.673  1.00  0.00     0.124 S 
ATOM     85  O   UNL     1      -7.836   6.966 -19.210  1.00  0.00    -0.237 OA
ATOM     86  O   UNL     1      -9.027   8.674 -17.880  1.00  0.00    -0.237 OA
ATOM     87  O   UNL     1      -7.399   9.365 -19.593  1.00  0.00    -0.744 OA
ENDBRANCH  83  84
ENDBRANCH  57  78
ENDBRANCH  31  32
ENDBRANCH  23  26
ENDBRANCH  21  22
ENDBRANCH  20  21
ENDBRANCH   1  20
TORSDOF 18
