REMARK SMILES CCN1C(=O)C[C@@H](C(=O)Nc2cccc(C(=O)NCCCCCCNC(=O)c3ccc(-c4c5nc(c(-c6ccc(S(=O)(=O)[O-])cc6)c6ccc([nH]6)c(-c6ccc(S(=O)(=O)[O-])cc6)c6nc(c(-c7ccc(S(=O)(=O)[O-])cc7)c7ccc4[nH]7)C=C6)C=C5)cc3)c2)S/C1=[NH+]/c1ccccc1
REMARK SMILES IDX 21 1 20 2 19 3 18 4 16 5 17 6 15 8 11 9 12 10 88 11 13 12
REMARK SMILES IDX 14 13 10 14 8 15 9 16 7 18 3 19 4 20 90 21 5 22 6 23 89 24
REMARK SMILES IDX 91 25 2 27 1 28 92 29 93 30 97 31 94 32 96 33 95 34 22 35
REMARK SMILES IDX 23 36 24 37 25 38 26 39 27 41 28 42 29 43 87 44 30 45 86 46
REMARK SMILES IDX 31 47 32 48 33 49 80 50 34 51 85 52 79 53 81 54 35 55 84 56
REMARK SMILES IDX 78 57 77 58 36 60 66 61 47 62 65 63 48 64 51 65 64 66 82 67
REMARK SMILES IDX 49 68 50 69 63 71 83 72 52 73 37 74 38 75 46 76 39 77 45 78
REMARK SMILES IDX 40 79 41 80 42 81 43 82 44 83 67 84 68 85 76 86 69 87 75 88
REMARK SMILES IDX 70 89 71 90 72 91 73 92 74 93 53 94 54 95 62 96 55 97 61 98
REMARK SMILES IDX 56 99 57 100 58 101 59 102 60 103
REMARK H PARENT 18 7 10 17 91 26 25 40 81 59 51 70
REMARK Flexibility Score: inf
ROOT
ATOM      1  C   UNL     1       3.332   6.347   2.943  1.00  0.00     0.002 C 
ENDROOT
BRANCH   1   2
ATOM      2  C   UNL     1       2.070   6.863   2.251  1.00  0.00     0.021 C 
BRANCH   2   3
ATOM      3  C   UNL     1       1.153   5.833   1.601  1.00  0.00     0.116 C 
BRANCH   3   4
ATOM      4  N   UNL     1       0.503   4.879   2.486  1.00  0.00    -0.352 N 
ATOM      5  C   UNL     1      -0.681   4.186   2.322  1.00  0.00     0.251 C 
ATOM      6  O   UNL     1      -1.018   3.364   3.173  1.00  0.00    -0.269 OA
ATOM      7  H   UNL     1       0.980   4.699   3.328  1.00  0.00     0.163 HD
BRANCH   5   8
ATOM      8  C   UNL     1      -1.596   4.435   1.168  1.00  0.00     0.041 A 
ATOM      9  C   UNL     1      -1.984   5.196  -1.106  1.00  0.00     0.041 A 
ATOM     10  C   UNL     1      -3.358   5.207  -0.859  1.00  0.00     0.026 A 
ATOM     11  C   UNL     1      -1.124   4.758  -0.106  1.00  0.00     0.040 A 
ATOM     12  C   UNL     1      -3.858   4.746   0.362  1.00  0.00     0.003 A 
ATOM     13  C   UNL     1      -2.978   4.370   1.379  1.00  0.00     0.014 A 
BRANCH   9  14
ATOM     14  N   UNL     1      -1.516   5.763  -2.302  1.00  0.00    -0.325 N 
ATOM     15  C   UNL     1      -0.326   5.681  -2.973  1.00  0.00     0.238 C 
ATOM     16  O   UNL     1      -0.022   6.665  -3.660  1.00  0.00    -0.273 OA
ATOM     17  H   UNL     1      -2.180   6.336  -2.750  1.00  0.00     0.169 HD
BRANCH  15  18
ATOM     18  C   UNL     1       0.551   4.415  -3.013  1.00  0.00     0.160 C 
ATOM     19  N   UNL     1       1.121   2.121  -1.230  1.00  0.00    -0.191 N 
ATOM     20  C   UNL     1       0.453   1.935  -2.425  1.00  0.00     0.311 C 
ATOM     21  C   UNL     1       2.106   3.074  -1.060  1.00  0.00     0.319 C 
ATOM     22  O   UNL     1       0.263   0.824  -2.921  1.00  0.00    -0.247 OA
ATOM     23  C   UNL     1      -0.231   3.129  -3.008  1.00  0.00     0.153 C 
ATOM     24  S   UNL     1       1.987   4.576  -1.954  1.00  0.00    -0.024 SA
ATOM     25  N   UNL     1       3.130   3.043  -0.269  1.00  0.00    -0.235 N 
ATOM     26  H   UNL     1       3.560   3.901  -0.049  1.00  0.00     0.313 HD
BRANCH  19  27
ATOM     27  C   UNL     1       0.666   1.302  -0.105  1.00  0.00     0.243 C 
ATOM     28  C   UNL     1       0.938  -0.191  -0.193  1.00  0.00     0.054 C 
ENDBRANCH  19  27
BRANCH  25  29
ATOM     29  C   UNL     1       3.675   1.885   0.297  1.00  0.00     0.125 A 
ATOM     30  C   UNL     1       3.775   1.737   1.685  1.00  0.00     0.051 A 
ATOM     31  C   UNL     1       4.322   0.952  -0.519  1.00  0.00     0.051 A 
ATOM     32  C   UNL     1       4.511   0.689   2.245  1.00  0.00     0.004 A 
ATOM     33  C   UNL     1       5.035  -0.114   0.035  1.00  0.00     0.004 A 
ATOM     34  C   UNL     1       5.140  -0.239   1.419  1.00  0.00     0.000 A 
ENDBRANCH  25  29
ENDBRANCH  15  18
ENDBRANCH   9  14
ENDBRANCH   5   8
ENDBRANCH   3   4
ENDBRANCH   2   3
ENDBRANCH   1   2
BRANCH   1  35
ATOM     35  C   UNL     1       4.213   5.388   2.145  1.00  0.00     0.002 C 
BRANCH  35  36
ATOM     36  C   UNL     1       4.690   5.838   0.767  1.00  0.00     0.021 C 
BRANCH  36  37
ATOM     37  C   UNL     1       5.480   7.134   0.723  1.00  0.00     0.116 C 
BRANCH  37  38
ATOM     38  N   UNL     1       6.702   7.087   1.510  1.00  0.00    -0.352 N 
ATOM     39  C   UNL     1       7.981   7.455   1.157  1.00  0.00     0.251 C 
ATOM     40  H   UNL     1       6.599   6.743   2.427  1.00  0.00     0.163 HD
ATOM     41  O   UNL     1       8.916   7.226   1.913  1.00  0.00    -0.269 OA
BRANCH  39  42
ATOM     42  C   UNL     1       8.223   8.102  -0.153  1.00  0.00     0.039 A 
ATOM     43  C   UNL     1       9.297   7.667  -0.935  1.00  0.00     0.014 A 
ATOM     44  C   UNL     1       7.386   9.119  -0.617  1.00  0.00     0.014 A 
ATOM     45  C   UNL     1       9.484   8.200  -2.214  1.00  0.00     0.010 A 
ATOM     46  C   UNL     1       7.522   9.586  -1.921  1.00  0.00     0.010 A 
ATOM     47  C   UNL     1       8.573   9.134  -2.733  1.00  0.00    -0.014 A 
BRANCH  47  48
ATOM     48  C   UNL     1       8.690   9.654  -4.120  1.00  0.00     0.031 A 
ATOM     49  C   UNL     1       8.896  11.126  -4.357  1.00  0.00     0.074 A 
ATOM     50  C   UNL     1       8.516   8.821  -5.165  1.00  0.00     0.049 A 
ATOM     51  N   UNL     1       8.911  11.788  -5.485  1.00  0.00    -0.248 NA
ATOM     52  C   UNL     1       9.078  11.968  -3.163  1.00  0.00     0.031 C 
ATOM     53  C   UNL     1       8.262   7.382  -5.068  1.00  0.00     0.029 A 
ATOM     54  N   UNL     1       8.504   9.069  -6.516  1.00  0.00    -0.354 N 
ATOM     55  C   UNL     1       9.081  13.123  -5.137  1.00  0.00     0.074 A 
ATOM     56  C   UNL     1       9.107  13.182  -3.692  1.00  0.00     0.031 C 
ATOM     57  C   UNL     1       8.130   6.874  -6.304  1.00  0.00     0.029 A 
ATOM     58  C   UNL     1       8.240   7.955  -7.278  1.00  0.00     0.049 A 
ATOM     59  H   UNL     1       8.668   9.960  -6.902  1.00  0.00     0.167 HD
ATOM     60  C   UNL     1       9.219  14.201  -5.946  1.00  0.00     0.031 A 
ATOM     61  C   UNL     1       8.082   7.819  -8.610  1.00  0.00     0.031 A 
ATOM     62  C   UNL     1       9.186  14.136  -7.383  1.00  0.00     0.049 A 
ATOM     63  C   UNL     1       8.226   9.028  -9.492  1.00  0.00     0.074 A 
ATOM     64  C   UNL     1       9.367  15.159  -8.296  1.00  0.00     0.029 A 
ATOM     65  N   UNL     1       8.947  12.983  -8.118  1.00  0.00    -0.354 N 
ATOM     66  N   UNL     1       8.457  10.274  -9.150  1.00  0.00    -0.248 NA
ATOM     67  C   UNL     1       8.105   8.813 -10.940  1.00  0.00     0.031 C 
ATOM     68  C   UNL     1       9.178  14.637  -9.580  1.00  0.00     0.029 A 
ATOM     69  C   UNL     1       8.951  13.274  -9.472  1.00  0.00     0.049 A 
ATOM     70  H   UNL     1       8.798  12.089  -7.733  1.00  0.00     0.167 HD
ATOM     71  C   UNL     1       8.534  10.987 -10.341  1.00  0.00     0.074 A 
ATOM     72  C   UNL     1       8.339  10.031 -11.412  1.00  0.00     0.031 C 
ATOM     73  C   UNL     1       8.751  12.312 -10.529  1.00  0.00     0.031 A 
BRANCH  60  74
ATOM     74  C   UNL     1       9.398  15.544  -5.283  1.00  0.00    -0.014 A 
ATOM     75  C   UNL     1      10.555  15.844  -4.539  1.00  0.00     0.010 A 
ATOM     76  C   UNL     1       8.396  16.525  -5.407  1.00  0.00     0.010 A 
ATOM     77  C   UNL     1      10.677  17.069  -3.878  1.00  0.00     0.020 A 
ATOM     78  C   UNL     1       8.530  17.766  -4.777  1.00  0.00     0.020 A 
ATOM     79  C   UNL     1       9.659  18.020  -3.995  1.00  0.00     0.054 A 
BRANCH  79  80
ATOM     80  S   UNL     1       9.837  19.596  -3.116  1.00  0.00     0.124 S 
ATOM     81  O   UNL     1       9.629  19.192  -1.728  1.00  0.00    -0.237 OA
ATOM     82  O   UNL     1      11.200  19.999  -3.454  1.00  0.00    -0.237 OA
ATOM     83  O   UNL     1       8.784  20.433  -3.685  1.00  0.00    -0.744 OA
ENDBRANCH  79  80
ENDBRANCH  60  74
BRANCH  61  84
ATOM     84  C   UNL     1       7.768   6.478  -9.178  1.00  0.00    -0.014 A 
ATOM     85  C   UNL     1       8.728   5.768  -9.919  1.00  0.00     0.010 A 
ATOM     86  C   UNL     1       6.514   5.885  -8.938  1.00  0.00     0.010 A 
ATOM     87  C   UNL     1       8.439   4.492 -10.414  1.00  0.00     0.020 A 
ATOM     88  C   UNL     1       6.232   4.598  -9.406  1.00  0.00     0.020 A 
ATOM     89  C   UNL     1       7.195   3.911 -10.147  1.00  0.00     0.054 A 
BRANCH  89  90
ATOM     90  S   UNL     1       6.873   2.224 -10.733  1.00  0.00     0.124 S 
ATOM     91  O   UNL     1       6.739   2.422 -12.172  1.00  0.00    -0.237 OA
ATOM     92  O   UNL     1       8.070   1.507 -10.300  1.00  0.00    -0.237 OA
ATOM     93  O   UNL     1       5.645   1.848 -10.035  1.00  0.00    -0.744 OA
ENDBRANCH  89  90
ENDBRANCH  61  84
BRANCH  73  94
ATOM     94  C   UNL     1       8.831  12.812 -11.949  1.00  0.00    -0.014 A 
ATOM     95  C   UNL     1       7.688  12.894 -12.764  1.00  0.00     0.010 A 
ATOM     96  C   UNL     1      10.064  13.271 -12.450  1.00  0.00     0.010 A 
ATOM     97  C   UNL     1       7.783  13.402 -14.063  1.00  0.00     0.020 A 
ATOM     98  C   UNL     1      10.156  13.807 -13.736  1.00  0.00     0.020 A 
ATOM     99  C   UNL     1       9.016  13.859 -14.539  1.00  0.00     0.054 A 
BRANCH  99 100
ATOM    100  S   UNL     1       9.100  14.565 -16.208  1.00  0.00     0.124 S 
ATOM    101  O   UNL     1       8.947  13.381 -17.048  1.00  0.00    -0.237 OA
ATOM    102  O   UNL     1       7.973  15.494 -16.219  1.00  0.00    -0.237 OA
ATOM    103  O   UNL     1      10.418  15.194 -16.253  1.00  0.00    -0.744 OA
ENDBRANCH  99 100
ENDBRANCH  73  94
ENDBRANCH  47  48
ENDBRANCH  39  42
ENDBRANCH  37  38
ENDBRANCH  36  37
ENDBRANCH  35  36
ENDBRANCH   1  35
TORSDOF 20
