REMARK SMILES CC(C)(C)OC(=O)N1CCN(C(=O)c2ccc3c(c2)OCO3)[C@H](C(=O)NCCCCCCNC(=O)c2ccc(-c3c4nc(c(-c5ccc(S(=O)(=O)[O-])cc5)c5ccc([nH]5)c(-c5ccc(S(=O)(=O)[O-])cc5)c5nc(c(-c6ccc(S(=O)(=O)[O-])cc6)c6ccc3[nH]6)C=C5)C=C4)cc2)C1
REMARK SMILES IDX 29 1 28 2 27 3 26 4 24 5 25 6 23 8 8 9 9 10 96 11 10 12
REMARK SMILES IDX 11 13 6 14 7 15 5 16 2 17 1 18 3 19 4 20 12 21 13 22 14 23
REMARK SMILES IDX 15 24 19 25 16 26 18 27 17 28 20 29 22 30 21 31 30 32 31 33
REMARK SMILES IDX 32 34 33 35 34 36 35 38 36 39 37 40 95 41 38 42 94 43 39 44
REMARK SMILES IDX 40 45 41 46 88 47 42 48 93 49 87 50 89 51 43 52 92 53 86 54
REMARK SMILES IDX 85 55 44 57 74 58 55 59 73 60 56 61 59 62 72 63 90 64 57 65
REMARK SMILES IDX 58 66 71 68 91 69 60 70 45 71 46 72 54 73 47 74 53 75 48 76
REMARK SMILES IDX 49 77 50 78 51 79 52 80 75 81 76 82 84 83 77 84 83 85 78 86
REMARK SMILES IDX 79 87 80 88 81 89 82 90 61 91 62 92 70 93 63 94 69 95 64 96
REMARK SMILES IDX 65 97 66 98 67 99 68 100
REMARK H PARENT 26 7 33 37 89 56 59 67
REMARK Flexibility Score: inf
ROOT
ATOM      1  C   UNL     1       5.819  -2.965   4.369  1.00  0.00     0.002 C 
ENDROOT
BRANCH   1   2
ATOM      2  C   UNL     1       4.411  -2.441   4.057  1.00  0.00     0.021 C 
BRANCH   2   3
ATOM      3  C   UNL     1       3.663  -1.954   5.298  1.00  0.00     0.116 C 
BRANCH   3   4
ATOM      4  N   UNL     1       4.330  -0.773   5.815  1.00  0.00    -0.354 N 
ATOM      5  C   UNL     1       3.983   0.528   5.583  1.00  0.00     0.244 C 
ATOM      6  O   UNL     1       4.874   1.375   5.513  1.00  0.00    -0.273 OA
ATOM      7  H   UNL     1       5.113  -0.925   6.392  1.00  0.00     0.163 HD
BRANCH   5   8
ATOM      8  C   UNL     1       2.493   0.881   5.562  1.00  0.00     0.194 C 
ATOM      9  N   UNL     1       0.965   2.318   4.222  1.00  0.00    -0.304 N 
ATOM     10  C   UNL     1       0.284   2.806   5.415  1.00  0.00     0.144 C 
ATOM     11  C   UNL     1       2.354   1.910   4.419  1.00  0.00     0.158 C 
ATOM     12  C   UNL     1       0.435   1.812   6.574  1.00  0.00     0.142 C 
ATOM     13  N   UNL     1       1.836   1.412   6.803  1.00  0.00    -0.323 N 
BRANCH   9  14
ATOM     14  C   UNL     1       0.349   2.363   2.994  1.00  0.00     0.410 C 
ATOM     15  O   UNL     1      -0.657   3.028   2.775  1.00  0.00    -0.224 OA
BRANCH  14  16
ATOM     16  O   UNL     1       0.957   1.551   2.092  1.00  0.00    -0.444 OA
BRANCH  16  17
ATOM     17  C   UNL     1       0.477   1.435   0.726  1.00  0.00     0.106 C 
ATOM     18  C   UNL     1       1.156   0.173   0.169  1.00  0.00     0.056 C 
ATOM     19  C   UNL     1       0.948   2.654  -0.069  1.00  0.00     0.056 C 
ATOM     20  C   UNL     1      -1.041   1.234   0.618  1.00  0.00     0.056 C 
ENDBRANCH  16  17
ENDBRANCH  14  16
ENDBRANCH   9  14
BRANCH  13  21
ATOM     21  C   UNL     1       2.147   1.061   8.123  1.00  0.00     0.254 C 
ATOM     22  O   UNL     1       1.309   1.033   9.024  1.00  0.00    -0.269 OA
BRANCH  21  23
ATOM     23  C   UNL     1       3.540   0.788   8.527  1.00  0.00     0.044 A 
ATOM     24  C   UNL     1       4.549   1.749   8.307  1.00  0.00     0.018 A 
ATOM     25  C   UNL     1       3.829  -0.412   9.187  1.00  0.00     0.064 A 
ATOM     26  C   UNL     1       5.879   1.466   8.639  1.00  0.00     0.051 A 
ATOM     27  C   UNL     1       5.147  -0.653   9.514  1.00  0.00     0.166 A 
ATOM     28  C   UNL     1       6.146   0.251   9.232  1.00  0.00     0.165 A 
ATOM     29  O   UNL     1       5.625  -1.778  10.112  1.00  0.00    -0.454 OA
ATOM     30  O   UNL     1       7.375  -0.201   9.597  1.00  0.00    -0.454 OA
ATOM     31  C   UNL     1       7.038  -1.489  10.153  1.00  0.00     0.468 C 
ENDBRANCH  21  23
ENDBRANCH  13  21
ENDBRANCH   5   8
ENDBRANCH   3   4
ENDBRANCH   2   3
ENDBRANCH   1   2
BRANCH   1  32
ATOM     32  C   UNL     1       5.850  -4.122   5.373  1.00  0.00     0.002 C 
BRANCH  32  33
ATOM     33  C   UNL     1       4.983  -5.319   4.979  1.00  0.00     0.021 C 
BRANCH  33  34
ATOM     34  C   UNL     1       5.330  -5.917   3.621  1.00  0.00     0.116 C 
BRANCH  34  35
ATOM     35  N   UNL     1       6.689  -6.431   3.593  1.00  0.00    -0.352 N 
ATOM     36  C   UNL     1       7.133  -7.683   3.250  1.00  0.00     0.251 C 
ATOM     37  H   UNL     1       7.390  -5.792   3.857  1.00  0.00     0.163 HD
ATOM     38  O   UNL     1       8.286  -8.016   3.503  1.00  0.00    -0.269 OA
BRANCH  36  39
ATOM     39  C   UNL     1       6.208  -8.631   2.594  1.00  0.00     0.039 A 
ATOM     40  C   UNL     1       6.181  -9.957   3.028  1.00  0.00     0.014 A 
ATOM     41  C   UNL     1       5.368  -8.212   1.557  1.00  0.00     0.014 A 
ATOM     42  C   UNL     1       5.272 -10.850   2.459  1.00  0.00     0.010 A 
ATOM     43  C   UNL     1       4.410  -9.083   1.046  1.00  0.00     0.010 A 
ATOM     44  C   UNL     1       4.353 -10.412   1.489  1.00  0.00    -0.014 A 
BRANCH  44  45
ATOM     45  C   UNL     1       3.319 -11.332   0.950  1.00  0.00     0.031 A 
ATOM     46  C   UNL     1       3.306 -11.696  -0.511  1.00  0.00     0.074 A 
ATOM     47  C   UNL     1       2.362 -11.805   1.774  1.00  0.00     0.049 A 
ATOM     48  N   UNL     1       2.473 -12.470  -1.157  1.00  0.00    -0.248 NA
ATOM     49  C   UNL     1       4.350 -11.100  -1.362  1.00  0.00     0.031 C 
ATOM     50  C   UNL     1       2.240 -11.490   3.201  1.00  0.00     0.029 A 
ATOM     51  N   UNL     1       1.309 -12.652   1.535  1.00  0.00    -0.354 N 
ATOM     52  C   UNL     1       2.882 -12.445  -2.485  1.00  0.00     0.074 A 
ATOM     53  C   UNL     1       4.009 -11.543  -2.564  1.00  0.00     0.031 C 
ATOM     54  C   UNL     1       1.198 -12.163   3.715  1.00  0.00     0.029 A 
ATOM     55  C   UNL     1       0.548 -12.918   2.650  1.00  0.00     0.049 A 
ATOM     56  H   UNL     1       1.116 -13.034   0.648  1.00  0.00     0.167 HD
ATOM     57  C   UNL     1       2.375 -13.127  -3.541  1.00  0.00     0.031 A 
ATOM     58  C   UNL     1      -0.555 -13.678   2.799  1.00  0.00     0.031 A 
ATOM     59  C   UNL     1       1.260 -14.034  -3.455  1.00  0.00     0.049 A 
ATOM     60  C   UNL     1      -1.106 -14.407   1.603  1.00  0.00     0.074 A 
ATOM     61  C   UNL     1       0.716 -14.819  -4.456  1.00  0.00     0.029 A 
ATOM     62  N   UNL     1       0.516 -14.273  -2.311  1.00  0.00    -0.354 N 
ATOM     63  N   UNL     1      -0.651 -14.435   0.372  1.00  0.00    -0.248 NA
ATOM     64  C   UNL     1      -2.312 -15.217   1.818  1.00  0.00     0.031 C 
ATOM     65  C   UNL     1      -0.400 -15.481  -3.935  1.00  0.00     0.029 A 
ATOM     66  C   UNL     1      -0.505 -15.166  -2.590  1.00  0.00     0.049 A 
ATOM     67  H   UNL     1       0.687 -13.868  -1.430  1.00  0.00     0.167 HD
ATOM     68  C   UNL     1      -1.499 -15.291  -0.323  1.00  0.00     0.074 A 
ATOM     69  C   UNL     1      -2.476 -15.776   0.628  1.00  0.00     0.031 C 
ATOM     70  C   UNL     1      -1.472 -15.642  -1.633  1.00  0.00     0.031 A 
BRANCH  57  71
ATOM     71  C   UNL     1       3.013 -12.920  -4.890  1.00  0.00    -0.014 A 
ATOM     72  C   UNL     1       4.298 -13.418  -5.173  1.00  0.00     0.010 A 
ATOM     73  C   UNL     1       2.281 -12.296  -5.917  1.00  0.00     0.010 A 
ATOM     74  C   UNL     1       4.845 -13.279  -6.452  1.00  0.00     0.020 A 
ATOM     75  C   UNL     1       2.813 -12.181  -7.205  1.00  0.00     0.020 A 
ATOM     76  C   UNL     1       4.096 -12.666  -7.461  1.00  0.00     0.054 A 
BRANCH  76  77
ATOM     77  S   UNL     1       4.809 -12.556  -9.125  1.00  0.00     0.124 S 
ATOM     78  O   UNL     1       5.873 -11.574  -8.933  1.00  0.00    -0.237 OA
ATOM     79  O   UNL     1       5.256 -13.925  -9.371  1.00  0.00    -0.237 OA
ATOM     80  O   UNL     1       3.692 -12.109  -9.954  1.00  0.00    -0.744 OA
ENDBRANCH  76  77
ENDBRANCH  57  71
BRANCH  58  81
ATOM     81  C   UNL     1      -1.221 -13.788   4.128  1.00  0.00    -0.014 A 
ATOM     82  C   UNL     1      -1.250 -15.013   4.817  1.00  0.00     0.010 A 
ATOM     83  C   UNL     1      -1.858 -12.670   4.697  1.00  0.00     0.010 A 
ATOM     84  C   UNL     1      -1.938 -15.129   6.029  1.00  0.00     0.020 A 
ATOM     85  C   UNL     1      -2.515 -12.773   5.926  1.00  0.00     0.020 A 
ATOM     86  C   UNL     1      -2.569 -14.007   6.574  1.00  0.00     0.054 A 
BRANCH  86  87
ATOM     87  S   UNL     1      -3.446 -14.176   8.153  1.00  0.00     0.124 S 
ATOM     88  O   UNL     1      -4.625 -14.943   7.764  1.00  0.00    -0.237 OA
ATOM     89  O   UNL     1      -2.472 -14.886   8.979  1.00  0.00    -0.237 OA
ATOM     90  O   UNL     1      -3.700 -12.794   8.552  1.00  0.00    -0.744 OA
ENDBRANCH  86  87
ENDBRANCH  58  81
BRANCH  70  91
ATOM     91  C   UNL     1      -2.508 -16.627  -2.108  1.00  0.00    -0.014 A 
ATOM     92  C   UNL     1      -3.867 -16.276  -2.197  1.00  0.00     0.010 A 
ATOM     93  C   UNL     1      -2.107 -17.915  -2.509  1.00  0.00     0.010 A 
ATOM     94  C   UNL     1      -4.811 -17.208  -2.637  1.00  0.00     0.020 A 
ATOM     95  C   UNL     1      -3.042 -18.838  -2.983  1.00  0.00     0.020 A 
ATOM     96  C   UNL     1      -4.391 -18.484  -3.027  1.00  0.00     0.054 A 
BRANCH  96  97
ATOM     97  S   UNL     1      -5.632 -19.664  -3.624  1.00  0.00     0.124 S 
ATOM     98  O   UNL     1      -6.340 -20.008  -2.394  1.00  0.00    -0.237 OA
ATOM     99  O   UNL     1      -6.391 -18.869  -4.586  1.00  0.00    -0.237 OA
ATOM    100  O   UNL     1      -4.835 -20.741  -4.206  1.00  0.00    -0.744 OA
ENDBRANCH  96  97
ENDBRANCH  70  91
ENDBRANCH  44  45
ENDBRANCH  36  39
ENDBRANCH  34  35
ENDBRANCH  33  34
ENDBRANCH  32  33
ENDBRANCH   1  32
TORSDOF 21
