REMARK SMILES C#CCN(CC(=O)NCCCCCCNC(=O)c1ccc(-c2c3nc(c(-c4ccc(S(=O)(=O)[O-])cc4)c4ccc([nH]4)c(-c4ccc(S(=O)(=O)[O-])cc4)c4nc(c(-c5ccc(S(=O)(=O)[O-])cc5)c5ccc2[nH]5)C=C4)C=C3)cc1)C(=O)Nc1cccc(C#N)c1
REMARK SMILES IDX 11 1 10 2 9 3 8 4 6 5 7 6 5 8 4 9 3 10 2 11 1 12 78 13 79 14
REMARK SMILES IDX 80 15 81 17 82 18 88 19 83 20 85 21 84 22 86 23 87 24 12 25
REMARK SMILES IDX 13 26 14 27 15 28 16 29 17 31 18 32 19 33 77 34 20 35 76 36
REMARK SMILES IDX 21 37 22 38 23 39 70 40 24 41 75 42 69 43 71 44 25 45 74 46
REMARK SMILES IDX 68 47 67 48 26 50 56 51 37 52 55 53 38 54 41 55 54 56 72 57
REMARK SMILES IDX 39 58 40 59 53 61 73 62 42 63 27 64 28 65 36 66 29 67 35 68
REMARK SMILES IDX 30 69 31 70 32 71 33 72 34 73 57 74 58 75 66 76 59 77 65 78
REMARK SMILES IDX 60 79 61 80 62 81 63 82 64 83 43 84 44 85 52 86 45 87 51 88
REMARK SMILES IDX 46 89 47 90 48 91 49 92 50 93
REMARK H PARENT 8 7 80 16 15 30 71 49 41 60
REMARK Flexibility Score: inf
ROOT
ATOM      1  C   UNL     1      -6.303  -2.322  -0.401  1.00  0.00     0.002 C 
ENDROOT
BRANCH   1   2
ATOM      2  C   UNL     1      -4.929  -1.712  -0.703  1.00  0.00     0.021 C 
BRANCH   2   3
ATOM      3  C   UNL     1      -4.929  -0.190  -0.827  1.00  0.00     0.116 C 
BRANCH   3   4
ATOM      4  N   UNL     1      -5.409   0.491   0.352  1.00  0.00    -0.355 N 
ATOM      5  C   UNL     1      -4.800   1.293   1.259  1.00  0.00     0.239 C 
ATOM      6  O   UNL     1      -5.544   2.078   1.861  1.00  0.00    -0.273 OA
ATOM      7  H   UNL     1      -6.365   0.344   0.534  1.00  0.00     0.163 HD
BRANCH   5   8
ATOM      8  C   UNL     1      -3.284   1.358   1.515  1.00  0.00     0.222 C 
BRANCH   8   9
ATOM      9  N   UNL     1      -2.495   0.153   1.289  1.00  0.00    -0.304 N 
BRANCH   9  10
ATOM     10  C   UNL     1      -1.873   0.083  -0.028  1.00  0.00     0.211 C 
BRANCH  10  11
ATOM     11  C   UNL     1      -0.353   0.083  -0.028  1.00  0.00    -0.085 C 
ATOM     12  C   UNL     1       0.951   0.083  -0.028  1.00  0.00     0.006 C 
ENDBRANCH  10  11
ENDBRANCH   9  10
BRANCH   9  13
ATOM     13  C   UNL     1      -2.258  -0.893   2.146  1.00  0.00     0.323 C 
ATOM     14  O   UNL     1      -1.657  -1.905   1.761  1.00  0.00    -0.248 OA
ATOM     15  N   UNL     1      -2.475  -0.848   3.484  1.00  0.00    -0.308 N 
ATOM     16  H   UNL     1      -1.886  -1.478   3.959  1.00  0.00     0.171 HD
BRANCH  15  17
ATOM     17  C   UNL     1      -3.301  -0.159   4.378  1.00  0.00     0.044 A 
ATOM     18  C   UNL     1      -2.776   0.130   5.644  1.00  0.00     0.026 A 
ATOM     19  C   UNL     1      -4.623   0.177   4.110  1.00  0.00     0.045 A 
ATOM     20  C   UNL     1      -3.505   0.890   6.561  1.00  0.00     0.004 A 
ATOM     21  C   UNL     1      -5.349   0.976   5.006  1.00  0.00     0.054 A 
ATOM     22  C   UNL     1      -4.777   1.347   6.226  1.00  0.00     0.019 A 
BRANCH  21  23
ATOM     23  C   UNL     1      -6.671   1.431   4.685  1.00  0.00     0.099 C 
ATOM     24  N   UNL     1      -7.750   1.815   4.477  1.00  0.00    -0.192 NA
ENDBRANCH  21  23
ENDBRANCH  15  17
ENDBRANCH   9  13
ENDBRANCH   8   9
ENDBRANCH   5   8
ENDBRANCH   3   4
ENDBRANCH   2   3
ENDBRANCH   1   2
BRANCH   1  25
ATOM     25  C   UNL     1      -7.463  -1.783  -1.245  1.00  0.00     0.002 C 
BRANCH  25  26
ATOM     26  C   UNL     1      -7.231  -1.792  -2.756  1.00  0.00     0.021 C 
BRANCH  26  27
ATOM     27  C   UNL     1      -6.912  -3.163  -3.322  1.00  0.00     0.116 C 
BRANCH  27  28
ATOM     28  N   UNL     1      -8.067  -4.039  -3.261  1.00  0.00    -0.352 N 
ATOM     29  C   UNL     1      -8.732  -4.637  -4.302  1.00  0.00     0.251 C 
ATOM     30  H   UNL     1      -8.417  -4.229  -2.360  1.00  0.00     0.163 HD
ATOM     31  O   UNL     1      -9.842  -5.129  -4.129  1.00  0.00    -0.269 OA
BRANCH  29  32
ATOM     32  C   UNL     1      -8.099  -4.655  -5.638  1.00  0.00     0.039 A 
ATOM     33  C   UNL     1      -8.864  -4.333  -6.758  1.00  0.00     0.014 A 
ATOM     34  C   UNL     1      -6.739  -4.955  -5.772  1.00  0.00     0.014 A 
ATOM     35  C   UNL     1      -8.252  -4.266  -8.010  1.00  0.00     0.010 A 
ATOM     36  C   UNL     1      -6.112  -4.787  -7.000  1.00  0.00     0.010 A 
ATOM     37  C   UNL     1      -6.865  -4.459  -8.136  1.00  0.00    -0.014 A 
BRANCH  37  38
ATOM     38  C   UNL     1      -6.190  -4.338  -9.453  1.00  0.00     0.031 A 
ATOM     39  C   UNL     1      -5.479  -5.526 -10.046  1.00  0.00     0.074 A 
ATOM     40  C   UNL     1      -6.180  -3.152 -10.092  1.00  0.00     0.049 A 
ATOM     41  N   UNL     1      -4.810  -5.608 -11.167  1.00  0.00    -0.248 NA
ATOM     42  C   UNL     1      -5.499  -6.777  -9.269  1.00  0.00     0.031 C 
ATOM     43  C   UNL     1      -6.801  -1.919  -9.601  1.00  0.00     0.029 A 
ATOM     44  N   UNL     1      -5.628  -2.787 -11.295  1.00  0.00    -0.354 N 
ATOM     45  C   UNL     1      -4.323  -6.909 -11.222  1.00  0.00     0.074 A 
ATOM     46  C   UNL     1      -4.720  -7.563  -9.996  1.00  0.00     0.031 C 
ATOM     47  C   UNL     1      -6.628  -0.947 -10.510  1.00  0.00     0.029 A 
ATOM     48  C   UNL     1      -5.840  -1.468 -11.622  1.00  0.00     0.049 A 
ATOM     49  H   UNL     1      -5.128  -3.410 -11.869  1.00  0.00     0.167 HD
ATOM     50  C   UNL     1      -3.626  -7.512 -12.214  1.00  0.00     0.031 A 
ATOM     51  C   UNL     1      -5.437  -0.753 -12.691  1.00  0.00     0.031 A 
ATOM     52  C   UNL     1      -3.236  -6.855 -13.433  1.00  0.00     0.049 A 
ATOM     53  C   UNL     1      -4.635  -1.438 -13.765  1.00  0.00     0.074 A 
ATOM     54  C   UNL     1      -2.573  -7.392 -14.523  1.00  0.00     0.029 A 
ATOM     55  N   UNL     1      -3.461  -5.517 -13.722  1.00  0.00    -0.354 N 
ATOM     56  N   UNL     1      -4.247  -2.689 -13.832  1.00  0.00    -0.248 NA
ATOM     57  C   UNL     1      -4.228  -0.617 -14.914  1.00  0.00     0.031 C 
ATOM     58  C   UNL     1      -2.330  -6.362 -15.436  1.00  0.00     0.029 A 
ATOM     59  C   UNL     1      -2.918  -5.202 -14.956  1.00  0.00     0.049 A 
ATOM     60  H   UNL     1      -3.937  -4.885 -13.136  1.00  0.00     0.167 HD
ATOM     61  C   UNL     1      -3.577  -2.813 -15.045  1.00  0.00     0.074 A 
ATOM     62  C   UNL     1      -3.630  -1.514 -15.685  1.00  0.00     0.031 C 
ATOM     63  C   UNL     1      -2.975  -3.904 -15.581  1.00  0.00     0.031 A 
BRANCH  50  64
ATOM     64  C   UNL     1      -3.226  -8.952 -12.016  1.00  0.00    -0.014 A 
ATOM     65  C   UNL     1      -4.184  -9.982 -11.982  1.00  0.00     0.010 A 
ATOM     66  C   UNL     1      -1.863  -9.287 -11.915  1.00  0.00     0.010 A 
ATOM     67  C   UNL     1      -3.790 -11.312 -11.813  1.00  0.00     0.020 A 
ATOM     68  C   UNL     1      -1.462 -10.619 -11.782  1.00  0.00     0.020 A 
ATOM     69  C   UNL     1      -2.430 -11.622 -11.717  1.00  0.00     0.054 A 
BRANCH  69  70
ATOM     70  S   UNL     1      -1.949 -13.361 -11.537  1.00  0.00     0.124 S 
ATOM     71  O   UNL     1      -2.421 -13.667 -10.189  1.00  0.00    -0.237 OA
ATOM     72  O   UNL     1      -2.683 -14.008 -12.621  1.00  0.00    -0.237 OA
ATOM     73  O   UNL     1      -0.497 -13.339 -11.697  1.00  0.00    -0.744 OA
ENDBRANCH  69  70
ENDBRANCH  50  64
BRANCH  51  74
ATOM     74  C   UNL     1      -5.784   0.692 -12.795  1.00  0.00    -0.014 A 
ATOM     75  C   UNL     1      -6.665   1.153 -13.789  1.00  0.00     0.010 A 
ATOM     76  C   UNL     1      -5.234   1.619 -11.889  1.00  0.00     0.010 A 
ATOM     77  C   UNL     1      -6.974   2.513 -13.888  1.00  0.00     0.020 A 
ATOM     78  C   UNL     1      -5.568   2.973 -11.962  1.00  0.00     0.020 A 
ATOM     79  C   UNL     1      -6.427   3.414 -12.969  1.00  0.00     0.054 A 
BRANCH  79  80
ATOM     80  S   UNL     1      -6.881   5.167 -13.087  1.00  0.00     0.124 S 
ATOM     81  O   UNL     1      -6.207   5.574 -14.316  1.00  0.00    -0.237 OA
ATOM     82  O   UNL     1      -8.339   5.108 -13.152  1.00  0.00    -0.237 OA
ATOM     83  O   UNL     1      -6.341   5.743 -11.857  1.00  0.00    -0.744 OA
ENDBRANCH  79  80
ENDBRANCH  51  74
BRANCH  63  84
ATOM     84  C   UNL     1      -2.357  -3.758 -16.948  1.00  0.00    -0.014 A 
ATOM     85  C   UNL     1      -1.202  -2.982 -17.156  1.00  0.00     0.010 A 
ATOM     86  C   UNL     1      -2.912  -4.462 -18.033  1.00  0.00     0.010 A 
ATOM     87  C   UNL     1      -0.637  -2.886 -18.430  1.00  0.00     0.020 A 
ATOM     88  C   UNL     1      -2.328  -4.398 -19.300  1.00  0.00     0.020 A 
ATOM     89  C   UNL     1      -1.201  -3.598 -19.493  1.00  0.00     0.054 A 
BRANCH  89  90
ATOM     90  S   UNL     1      -0.418  -3.491 -21.125  1.00  0.00     0.124 S 
ATOM     91  O   UNL     1      -0.719  -2.117 -21.518  1.00  0.00    -0.237 OA
ATOM     92  O   UNL     1       0.984  -3.766 -20.824  1.00  0.00    -0.237 OA
ATOM     93  O   UNL     1      -1.097  -4.523 -21.905  1.00  0.00    -0.744 OA
ENDBRANCH  89  90
ENDBRANCH  63  84
ENDBRANCH  37  38
ENDBRANCH  29  32
ENDBRANCH  27  28
ENDBRANCH  26  27
ENDBRANCH  25  26
ENDBRANCH   1  25
TORSDOF 22
