REMARK SMILES O=C(NCCCCCCNC(=O)c1cc(OCc2ccc(Br)cc2F)cs1)c1ccc(-c2c3nc(c(-c4ccc(S(=O)(=O)[O-])cc4)c4ccc([nH]4)c(-c4ccc(S(=O)(=O)[O-])cc4)c4nc(c(-c5ccc(S(=O)(=O)[O-])cc5)c5ccc2[nH]5)C=C4)C=C3)cc1
REMARK SMILES IDX 6 1 5 2 4 3 3 4 1 5 2 6 28 8 29 9 87 10 30 11 86 12 31 13
REMARK SMILES IDX 32 14 33 15 80 16 34 17 85 18 79 19 81 20 35 21 84 22 78 23
REMARK SMILES IDX 77 24 36 26 66 27 47 28 65 29 48 30 51 31 64 32 82 33 49 34
REMARK SMILES IDX 50 35 63 37 83 38 52 39 37 40 38 41 46 42 39 43 45 44 40 45
REMARK SMILES IDX 41 46 42 47 43 48 44 49 67 50 68 51 76 52 69 53 75 54 70 55
REMARK SMILES IDX 71 56 72 57 73 58 74 59 53 60 54 61 62 62 55 63 61 64 56 65
REMARK SMILES IDX 57 66 58 67 59 68 60 69 7 70 8 71 9 72 10 73 11 74 12 76
REMARK SMILES IDX 13 77 14 78 27 79 15 80 26 81 16 82 17 83 18 84 19 85 24 86
REMARK SMILES IDX 20 87 23 88 25 89 21 90 22 91
REMARK H PARENT 3 7 81 25 51 36 10 75
REMARK Flexibility Score: inf
ROOT
ATOM      1  C   UNL     1       4.260   2.835   2.650  1.00  0.00     0.002 C 
ENDROOT
BRANCH   1   2
ATOM      2  C   UNL     1       4.710   2.336   1.277  1.00  0.00     0.021 C 
BRANCH   2   3
ATOM      3  C   UNL     1       4.454   0.857   1.020  1.00  0.00     0.116 C 
BRANCH   3   4
ATOM      4  N   UNL     1       3.039   0.548   0.937  1.00  0.00    -0.352 N 
ATOM      5  O   UNL     1       1.131  -0.076  -0.088  1.00  0.00    -0.269 OA
ATOM      6  C   UNL     1       2.358  -0.066  -0.086  1.00  0.00     0.251 C 
ATOM      7  H   UNL     1       2.496   0.812   1.715  1.00  0.00     0.163 HD
BRANCH   6   8
ATOM      8  C   UNL     1       3.112  -0.703  -1.191  1.00  0.00     0.039 A 
ATOM      9  C   UNL     1       4.213  -1.522  -0.924  1.00  0.00     0.014 A 
ATOM     10  C   UNL     1       2.691  -0.502  -2.508  1.00  0.00     0.014 A 
ATOM     11  C   UNL     1       4.948  -2.063  -1.974  1.00  0.00     0.010 A 
ATOM     12  C   UNL     1       3.384  -1.110  -3.559  1.00  0.00     0.010 A 
ATOM     13  C   UNL     1       4.520  -1.893  -3.300  1.00  0.00    -0.014 A 
BRANCH  13  14
ATOM     14  C   UNL     1       5.183  -2.655  -4.389  1.00  0.00     0.031 A 
ATOM     15  C   UNL     1       5.924  -1.960  -5.496  1.00  0.00     0.074 A 
ATOM     16  C   UNL     1       5.074  -3.999  -4.381  1.00  0.00     0.049 A 
ATOM     17  N   UNL     1       6.511  -2.485  -6.541  1.00  0.00    -0.248 NA
ATOM     18  C   UNL     1       6.015  -0.493  -5.431  1.00  0.00     0.031 C 
ATOM     19  C   UNL     1       4.364  -4.781  -3.362  1.00  0.00     0.029 A 
ATOM     20  N   UNL     1       5.550  -4.948  -5.250  1.00  0.00    -0.354 N 
ATOM     21  C   UNL     1       7.017  -1.417  -7.273  1.00  0.00     0.074 A 
ATOM     22  C   UNL     1       6.661  -0.211  -6.556  1.00  0.00     0.031 C 
ATOM     23  C   UNL     1       4.466  -6.085  -3.654  1.00  0.00     0.029 A 
ATOM     24  C   UNL     1       5.184  -6.231  -4.914  1.00  0.00     0.049 A 
ATOM     25  H   UNL     1       6.099  -4.732  -6.037  1.00  0.00     0.167 HD
ATOM     26  C   UNL     1       7.708  -1.448  -8.438  1.00  0.00     0.031 A 
ATOM     27  C   UNL     1       5.364  -7.396  -5.564  1.00  0.00     0.031 A 
ATOM     28  C   UNL     1       8.059  -2.659  -9.138  1.00  0.00     0.049 A 
ATOM     29  C   UNL     1       6.095  -7.390  -6.876  1.00  0.00     0.074 A 
ATOM     30  C   UNL     1       8.822  -2.793 -10.286  1.00  0.00     0.029 A 
ATOM     31  N   UNL     1       7.657  -3.935  -8.775  1.00  0.00    -0.354 N 
ATOM     32  N   UNL     1       6.644  -6.378  -7.504  1.00  0.00    -0.248 NA
ATOM     33  C   UNL     1       6.230  -8.678  -7.569  1.00  0.00     0.031 C 
ATOM     34  C   UNL     1       8.816  -4.140 -10.659  1.00  0.00     0.029 A 
ATOM     35  C   UNL     1       8.110  -4.855  -9.705  1.00  0.00     0.049 A 
ATOM     36  H   UNL     1       7.127  -4.154  -7.974  1.00  0.00     0.167 HD
ATOM     37  C   UNL     1       7.199  -6.910  -8.662  1.00  0.00     0.074 A 
ATOM     38  C   UNL     1       6.946  -8.336  -8.631  1.00  0.00     0.031 C 
ATOM     39  C   UNL     1       7.851  -6.272  -9.663  1.00  0.00     0.031 A 
BRANCH  26  40
ATOM     40  C   UNL     1       8.113  -0.140  -9.068  1.00  0.00    -0.014 A 
ATOM     41  C   UNL     1       9.149   0.644  -8.531  1.00  0.00     0.010 A 
ATOM     42  C   UNL     1       7.519   0.253 -10.283  1.00  0.00     0.010 A 
ATOM     43  C   UNL     1       9.572   1.803  -9.189  1.00  0.00     0.020 A 
ATOM     44  C   UNL     1       7.955   1.397 -10.956  1.00  0.00     0.020 A 
ATOM     45  C   UNL     1       8.975   2.170 -10.400  1.00  0.00     0.054 A 
BRANCH  45  46
ATOM     46  S   UNL     1       9.586   3.647 -11.259  1.00  0.00     0.124 S 
ATOM     47  O   UNL     1       9.115   4.720 -10.387  1.00  0.00    -0.237 OA
ATOM     48  O   UNL     1      11.032   3.435 -11.268  1.00  0.00    -0.237 OA
ATOM     49  O   UNL     1       8.941   3.582 -12.568  1.00  0.00    -0.744 OA
ENDBRANCH  45  46
ENDBRANCH  26  40
BRANCH  27  50
ATOM     50  C   UNL     1       4.786  -8.653  -5.013  1.00  0.00    -0.014 A 
ATOM     51  C   UNL     1       5.617  -9.694  -4.566  1.00  0.00     0.010 A 
ATOM     52  C   UNL     1       3.389  -8.814  -4.941  1.00  0.00     0.010 A 
ATOM     53  C   UNL     1       5.061 -10.885  -4.088  1.00  0.00     0.020 A 
ATOM     54  C   UNL     1       2.830  -9.987  -4.430  1.00  0.00     0.020 A 
ATOM     55  C   UNL     1       3.671 -11.024  -4.026  1.00  0.00     0.054 A 
BRANCH  55  56
ATOM     56  S   UNL     1       2.974 -12.571  -3.386  1.00  0.00     0.124 S 
ATOM     57  O   UNL     1       3.237 -13.497  -4.483  1.00  0.00    -0.237 OA
ATOM     58  O   UNL     1       3.754 -12.790  -2.171  1.00  0.00    -0.237 OA
ATOM     59  O   UNL     1       1.567 -12.246  -3.164  1.00  0.00    -0.744 OA
ENDBRANCH  55  56
ENDBRANCH  27  50
BRANCH  39  60
ATOM     60  C   UNL     1       8.354  -7.111 -10.807  1.00  0.00    -0.014 A 
ATOM     61  C   UNL     1       7.466  -7.657 -11.750  1.00  0.00     0.010 A 
ATOM     62  C   UNL     1       9.738  -7.295 -10.980  1.00  0.00     0.010 A 
ATOM     63  C   UNL     1       7.953  -8.384 -12.839  1.00  0.00     0.020 A 
ATOM     64  C   UNL     1      10.230  -7.995 -12.084  1.00  0.00     0.020 A 
ATOM     65  C   UNL     1       9.332  -8.542 -13.003  1.00  0.00     0.054 A 
BRANCH  65  66
ATOM     66  S   UNL     1       9.939  -9.425 -14.466  1.00  0.00     0.124 S 
ATOM     67  O   UNL     1       9.564 -10.805 -14.167  1.00  0.00    -0.237 OA
ATOM     68  O   UNL     1       9.194  -8.793 -15.552  1.00  0.00    -0.237 OA
ATOM     69  O   UNL     1      11.375  -9.156 -14.464  1.00  0.00    -0.744 OA
ENDBRANCH  65  66
ENDBRANCH  39  60
ENDBRANCH  13  14
ENDBRANCH   6   8
ENDBRANCH   3   4
ENDBRANCH   2   3
ENDBRANCH   1   2
BRANCH   1  70
ATOM     70  C   UNL     1       4.859   2.088   3.845  1.00  0.00     0.002 C 
BRANCH  70  71
ATOM     71  C   UNL     1       6.388   2.004   3.870  1.00  0.00     0.021 C 
BRANCH  71  72
ATOM     72  C   UNL     1       7.105   3.353   3.853  1.00  0.00     0.116 C 
BRANCH  72  73
ATOM     73  N   UNL     1       6.819   4.136   5.046  1.00  0.00    -0.351 N 
ATOM     74  C   UNL     1       7.698   4.662   5.965  1.00  0.00     0.261 C 
ATOM     75  H   UNL     1       5.867   4.313   5.220  1.00  0.00     0.163 HD
ATOM     76  O   UNL     1       7.236   5.119   7.013  1.00  0.00    -0.268 OA
BRANCH  74  77
ATOM     77  C   UNL     1       9.106   4.654   5.637  1.00  0.00     0.096 A 
ATOM     78  C   UNL     1       9.715   5.080   4.472  1.00  0.00     0.072 A 
ATOM     79  S   UNL     1      10.246   4.061   6.762  1.00  0.00    -0.135 S 
ATOM     80  C   UNL     1      11.090   4.721   4.426  1.00  0.00     0.131 A 
ATOM     81  C   UNL     1      11.519   4.197   5.624  1.00  0.00     0.112 A 
BRANCH  80  82
ATOM     82  O   UNL     1      11.965   4.815   3.392  1.00  0.00    -0.488 OA
BRANCH  82  83
ATOM     83  C   UNL     1      11.389   5.156   2.123  1.00  0.00     0.268 C 
BRANCH  83  84
ATOM     84  C   UNL     1      10.545   4.059   1.512  1.00  0.00     0.025 A 
ATOM     85  C   UNL     1      10.920   2.711   1.592  1.00  0.00     0.011 A 
ATOM     86  C   UNL     1       9.384   4.386   0.801  1.00  0.00     0.130 A 
ATOM     87  C   UNL     1      10.145   1.723   0.978  1.00  0.00     0.016 A 
ATOM     88  C   UNL     1       8.608   3.412   0.180  1.00  0.00     0.055 A 
ATOM     89  F   UNL     1       8.991   5.665   0.725  1.00  0.00    -0.207 F 
ATOM     90  C   UNL     1       9.000   2.080   0.266  1.00  0.00     0.020 A 
ATOM     91  Br  UNL     1       7.989   0.740  -0.603  1.00  0.00    -0.051 Br
ENDBRANCH  83  84
ENDBRANCH  82  83
ENDBRANCH  80  82
ENDBRANCH  74  77
ENDBRANCH  72  73
ENDBRANCH  71  72
ENDBRANCH  70  71
ENDBRANCH   1  70
TORSDOF 19
