REMARK SMILES Nc1ccc2[nH]cc(C(=O)NCCCCCCNC(=O)c3ccc(-c4c5nc(c(-c6ccc(S(=O)(=O)[O-])cc6)c6ccc([nH]6)c(-c6ccc(S(=O)(=O)[O-])cc6)c6nc(c(-c7ccc(S(=O)(=O)[O-])cc7)c7ccc4[nH]7)C=C6)C=C5)cc3)c2c1
REMARK SMILES IDX 15 1 14 2 13 3 12 4 11 5 9 6 10 7 8 9 2 10 3 11 82 12 4 13
REMARK SMILES IDX 81 14 5 15 6 16 7 17 1 19 16 22 17 23 18 24 19 25 20 27
REMARK SMILES IDX 21 28 22 29 80 30 23 31 79 32 24 33 25 34 26 35 73 36 27 37
REMARK SMILES IDX 78 38 72 39 74 40 28 41 77 42 71 43 70 44 29 46 59 47 40 48
REMARK SMILES IDX 58 49 41 50 44 51 57 52 75 53 42 54 43 55 56 57 76 58 45 59
REMARK SMILES IDX 30 60 31 61 39 62 32 63 38 64 33 65 34 66 35 67 36 68 37 69
REMARK SMILES IDX 60 70 61 71 69 72 62 73 68 74 63 75 64 76 65 77 66 78 67 79
REMARK SMILES IDX 46 80 47 81 55 82 48 83 54 84 49 85 50 86 51 87 52 88 53 89
REMARK H PARENT 11 8 6 18 1 20 1 21 18 26 74 45 44 56
REMARK Flexibility Score: inf
ROOT
ATOM      1  C   UNL     1      -1.765  -0.208  -4.755  1.00  0.00     0.002 C 
ENDROOT
BRANCH   1   2
ATOM      2  C   UNL     1      -1.468  -1.712  -4.745  1.00  0.00     0.002 C 
BRANCH   2   3
ATOM      3  C   UNL     1      -0.832  -2.291  -3.484  1.00  0.00     0.021 C 
BRANCH   3   4
ATOM      4  C   UNL     1      -1.551  -2.042  -2.168  1.00  0.00     0.116 C 
BRANCH   4   5
ATOM      5  N   UNL     1      -2.730  -2.834  -1.928  1.00  0.00    -0.352 N 
ATOM      6  C   UNL     1      -3.212  -3.370  -0.754  1.00  0.00     0.253 C 
ATOM      7  O   UNL     1      -4.260  -4.018  -0.844  1.00  0.00    -0.269 OA
ATOM      8  H   UNL     1      -3.275  -3.022  -2.726  1.00  0.00     0.163 HD
BRANCH   6   9
ATOM      9  C   UNL     1      -2.488  -3.295   0.529  1.00  0.00     0.065 A 
ATOM     10  C   UNL     1       0.260  -0.717   1.361  1.00  0.00     0.032 A 
ATOM     11  C   UNL     1       0.706  -1.362   2.508  1.00  0.00     0.027 A 
ATOM     12  C   UNL     1      -0.914  -1.164   0.743  1.00  0.00     0.036 A 
ATOM     13  C   UNL     1       0.035  -2.476   3.022  1.00  0.00     0.029 A 
ATOM     14  C   UNL     1      -1.506  -2.399   1.103  1.00  0.00     0.014 A 
ATOM     15  C   UNL     1      -1.043  -2.983   2.287  1.00  0.00     0.046 A 
ATOM     16  N   UNL     1      -1.846  -4.063   2.545  1.00  0.00    -0.360 N 
ATOM     17  C   UNL     1      -2.697  -4.269   1.501  1.00  0.00     0.097 A 
ATOM     18  H   UNL     1      -1.813  -4.610   3.363  1.00  0.00     0.166 HD
BRANCH  10  19
ATOM     19  N   UNL     1       0.926   0.394   0.870  1.00  0.00    -0.399 N 
ATOM     20  H   UNL     1       1.752   0.706   1.306  1.00  0.00     0.156 HD
ATOM     21  H   UNL     1       0.574   0.872   0.084  1.00  0.00     0.156 HD
ENDBRANCH  10  19
ENDBRANCH   6   9
ENDBRANCH   4   5
ENDBRANCH   3   4
ENDBRANCH   2   3
ENDBRANCH   1   2
BRANCH   1  22
ATOM     22  C   UNL     1      -0.630   0.745  -4.356  1.00  0.00     0.021 C 
BRANCH  22  23
ATOM     23  C   UNL     1       0.719   0.517  -5.039  1.00  0.00     0.116 C 
BRANCH  23  24
ATOM     24  N   UNL     1       0.659   0.450  -6.482  1.00  0.00    -0.352 N 
ATOM     25  C   UNL     1       0.695   1.358  -7.502  1.00  0.00     0.251 C 
ATOM     26  H   UNL     1       0.571  -0.474  -6.809  1.00  0.00     0.163 HD
ATOM     27  O   UNL     1       0.735   0.880  -8.639  1.00  0.00    -0.269 OA
BRANCH  25  28
ATOM     28  C   UNL     1       0.640   2.837  -7.346  1.00  0.00     0.039 A 
ATOM     29  C   UNL     1       0.708   3.537  -6.142  1.00  0.00     0.014 A 
ATOM     30  C   UNL     1       0.462   3.571  -8.537  1.00  0.00     0.014 A 
ATOM     31  C   UNL     1       0.514   4.917  -6.115  1.00  0.00     0.010 A 
ATOM     32  C   UNL     1       0.285   4.950  -8.517  1.00  0.00     0.010 A 
ATOM     33  C   UNL     1       0.264   5.618  -7.297  1.00  0.00    -0.014 A 
BRANCH  33  34
ATOM     34  C   UNL     1       0.029   7.057  -7.202  1.00  0.00     0.031 A 
ATOM     35  C   UNL     1       1.154   7.879  -6.668  1.00  0.00     0.074 A 
ATOM     36  C   UNL     1      -1.088   7.657  -7.658  1.00  0.00     0.049 A 
ATOM     37  N   UNL     1       1.161   8.656  -5.633  1.00  0.00    -0.248 NA
ATOM     38  C   UNL     1       2.457   7.768  -7.341  1.00  0.00     0.031 C 
ATOM     39  C   UNL     1      -2.160   7.081  -8.473  1.00  0.00     0.029 A 
ATOM     40  N   UNL     1      -1.433   8.972  -7.578  1.00  0.00    -0.354 N 
ATOM     41  C   UNL     1       2.424   9.246  -5.592  1.00  0.00     0.074 A 
ATOM     42  C   UNL     1       3.209   8.588  -6.607  1.00  0.00     0.031 C 
ATOM     43  C   UNL     1      -2.888   8.083  -9.017  1.00  0.00     0.029 A 
ATOM     44  C   UNL     1      -2.427   9.348  -8.470  1.00  0.00     0.049 A 
ATOM     45  H   UNL     1      -1.015   9.600  -6.945  1.00  0.00     0.167 HD
ATOM     46  C   UNL     1       2.713  10.331  -4.817  1.00  0.00     0.031 A 
ATOM     47  C   UNL     1      -2.769  10.617  -8.805  1.00  0.00     0.031 A 
ATOM     48  C   UNL     1       1.724  10.551  -3.799  1.00  0.00     0.049 A 
ATOM     49  C   UNL     1      -2.306  11.506  -7.711  1.00  0.00     0.074 A 
ATOM     50  C   UNL     1       1.274   9.818  -2.719  1.00  0.00     0.029 A 
ATOM     51  N   UNL     1       0.780  11.528  -4.008  1.00  0.00    -0.354 N 
ATOM     52  N   UNL     1      -2.799  11.488  -6.504  1.00  0.00    -0.248 NA
ATOM     53  C   UNL     1      -1.006  12.145  -7.843  1.00  0.00     0.031 C 
ATOM     54  C   UNL     1      -0.127  10.065  -2.669  1.00  0.00     0.029 A 
ATOM     55  C   UNL     1      -0.434  10.977  -3.682  1.00  0.00     0.049 A 
ATOM     56  H   UNL     1       0.943  12.444  -4.329  1.00  0.00     0.167 HD
ATOM     57  C   UNL     1      -1.714  11.720  -5.672  1.00  0.00     0.074 A 
ATOM     58  C   UNL     1      -0.662  12.219  -6.556  1.00  0.00     0.031 C 
ATOM     59  C   UNL     1      -1.670  11.233  -4.396  1.00  0.00     0.031 A 
BRANCH  46  60
ATOM     60  C   UNL     1       3.783  11.344  -5.133  1.00  0.00    -0.014 A 
ATOM     61  C   UNL     1       4.332  11.487  -6.423  1.00  0.00     0.010 A 
ATOM     62  C   UNL     1       4.100  12.344  -4.190  1.00  0.00     0.010 A 
ATOM     63  C   UNL     1       5.176  12.550  -6.756  1.00  0.00     0.020 A 
ATOM     64  C   UNL     1       4.910  13.441  -4.527  1.00  0.00     0.020 A 
ATOM     65  C   UNL     1       5.448  13.531  -5.809  1.00  0.00     0.054 A 
BRANCH  65  66
ATOM     66  S   UNL     1       6.438  14.958  -6.320  1.00  0.00     0.124 S 
ATOM     67  O   UNL     1       7.762  14.363  -6.483  1.00  0.00    -0.237 OA
ATOM     68  O   UNL     1       5.777  15.372  -7.554  1.00  0.00    -0.237 OA
ATOM     69  O   UNL     1       6.304  15.887  -5.201  1.00  0.00    -0.744 OA
ENDBRANCH  65  66
ENDBRANCH  46  60
BRANCH  47  70
ATOM     70  C   UNL     1      -3.016  11.117 -10.184  1.00  0.00    -0.014 A 
ATOM     71  C   UNL     1      -2.503  10.413 -11.294  1.00  0.00     0.010 A 
ATOM     72  C   UNL     1      -3.475  12.430 -10.395  1.00  0.00     0.010 A 
ATOM     73  C   UNL     1      -2.365  11.023 -12.543  1.00  0.00     0.020 A 
ATOM     74  C   UNL     1      -3.334  13.053 -11.647  1.00  0.00     0.020 A 
ATOM     75  C   UNL     1      -2.740  12.354 -12.700  1.00  0.00     0.054 A 
BRANCH  75  76
ATOM     76  S   UNL     1      -2.336  13.179 -14.265  1.00  0.00     0.124 S 
ATOM     77  O   UNL     1      -0.872  13.206 -14.220  1.00  0.00    -0.237 OA
ATOM     78  O   UNL     1      -2.907  12.265 -15.258  1.00  0.00    -0.237 OA
ATOM     79  O   UNL     1      -2.990  14.470 -14.161  1.00  0.00    -0.744 OA
ENDBRANCH  75  76
ENDBRANCH  47  70
BRANCH  59  80
ATOM     80  C   UNL     1      -2.921  10.630  -3.786  1.00  0.00    -0.014 A 
ATOM     81  C   UNL     1      -3.267  11.020  -2.478  1.00  0.00     0.010 A 
ATOM     82  C   UNL     1      -3.619   9.550  -4.364  1.00  0.00     0.010 A 
ATOM     83  C   UNL     1      -4.244  10.332  -1.754  1.00  0.00     0.020 A 
ATOM     84  C   UNL     1      -4.621   8.873  -3.652  1.00  0.00     0.020 A 
ATOM     85  C   UNL     1      -4.906   9.252  -2.339  1.00  0.00     0.054 A 
BRANCH  85  86
ATOM     86  S   UNL     1      -6.112   8.339  -1.339  1.00  0.00     0.124 S 
ATOM     87  O   UNL     1      -5.255   7.636  -0.386  1.00  0.00    -0.237 OA
ATOM     88  O   UNL     1      -6.933   9.405  -0.769  1.00  0.00    -0.237 OA
ATOM     89  O   UNL     1      -6.798   7.482  -2.304  1.00  0.00    -0.744 OA
ENDBRANCH  85  86
ENDBRANCH  59  80
ENDBRANCH  33  34
ENDBRANCH  25  28
ENDBRANCH  23  24
ENDBRANCH  22  23
ENDBRANCH   1  22
TORSDOF 17
