REMARK SMILES CC(C)(C)OC(=O)N1CCC2(CC1)CNc1ccc(C(=O)NCCCCCCNC(=O)c3ccc(-c4c5nc(c(-c6ccc(S(=O)(=O)[O-])cc6)c6ccc([nH]6)c(-c6ccc(S(=O)(=O)[O-])cc6)c6nc(c(-c7ccc(S(=O)(=O)[O-])cc7)c7ccc4[nH]7)C=C6)C=C5)cc3)cc12
REMARK SMILES IDX 26 1 25 2 24 3 23 4 22 5 20 6 21 7 19 9 6 10 7 11 8 12 9 13
REMARK SMILES IDX 13 14 10 15 12 16 11 17 14 18 93 19 15 20 16 21 92 22 17 24
REMARK SMILES IDX 18 25 5 26 2 27 1 28 3 29 4 30 27 31 28 32 29 33 30 34 31 36
REMARK SMILES IDX 32 37 33 38 91 39 34 40 90 41 35 42 36 43 37 44 84 45 38 46
REMARK SMILES IDX 89 47 83 48 85 49 39 50 88 51 82 52 81 53 40 55 70 56 51 57
REMARK SMILES IDX 69 58 52 59 55 60 68 61 86 62 53 63 54 64 67 66 87 67 56 68
REMARK SMILES IDX 41 69 42 70 50 71 43 72 49 73 44 74 45 75 46 76 47 77 48 78
REMARK SMILES IDX 71 79 72 80 80 81 73 82 79 83 74 84 75 85 76 86 77 87 78 88
REMARK SMILES IDX 57 89 58 90 66 91 59 92 65 93 60 94 61 95 62 96 63 97 64 98
REMARK H PARENT 22 8 15 23 29 35 85 54 55 65
REMARK Flexibility Score: inf
ROOT
ATOM      1  C   UNL     1       0.381  12.674   5.455  1.00  0.00     0.002 C 
ENDROOT
BRANCH   1   2
ATOM      2  C   UNL     1      -0.546  12.092   4.378  1.00  0.00     0.002 C 
BRANCH   2   3
ATOM      3  C   UNL     1       0.099  11.879   2.999  1.00  0.00     0.021 C 
BRANCH   3   4
ATOM      4  C   UNL     1       1.217  10.833   3.002  1.00  0.00     0.116 C 
BRANCH   4   5
ATOM      5  N   UNL     1       0.650   9.498   3.007  1.00  0.00    -0.352 N 
ATOM      6  C   UNL     1       0.451   8.550   2.041  1.00  0.00     0.251 C 
ATOM      7  O   UNL     1      -0.090   7.502   2.404  1.00  0.00    -0.269 OA
ATOM      8  H   UNL     1       0.342   9.213   3.898  1.00  0.00     0.163 HD
BRANCH   6   9
ATOM      9  C   UNL     1       0.882   8.677   0.615  1.00  0.00     0.040 A 
ATOM     10  C   UNL     1       0.469   2.362  -2.932  1.00  0.00     0.410 C 
ATOM     11  O   UNL     1      -0.527   1.965  -3.514  1.00  0.00    -0.224 OA
ATOM     12  N   UNL     1       1.034   3.606  -3.151  1.00  0.00    -0.308 N 
ATOM     13  C   UNL     1       0.236   4.648  -3.776  1.00  0.00     0.124 C 
ATOM     14  C   UNL     1       2.386   3.975  -2.755  1.00  0.00     0.124 C 
ATOM     15  C   UNL     1       0.148   5.857  -2.842  1.00  0.00     0.035 C 
ATOM     16  C   UNL     1       2.373   5.182  -1.825  1.00  0.00     0.035 C 
ATOM     17  C   UNL     1       1.547   6.348  -2.404  1.00  0.00     0.018 C 
ATOM     18  C   UNL     1       2.284   7.076  -3.580  1.00  0.00     0.124 C 
ATOM     19  C   UNL     1       1.418   7.492  -1.425  1.00  0.00    -0.016 A 
ATOM     20  N   UNL     1       2.104   8.513  -3.386  1.00  0.00    -0.384 N 
ATOM     21  C   UNL     1       1.740   8.688  -2.054  1.00  0.00     0.038 A 
ATOM     22  C   UNL     1       1.012   7.470  -0.096  1.00  0.00     0.020 A 
ATOM     23  H   UNL     1       2.219   9.218  -4.063  1.00  0.00     0.160 HD
ATOM     24  C   UNL     1       1.560   9.890  -1.400  1.00  0.00     0.027 A 
ATOM     25  C   UNL     1       1.111   9.883  -0.068  1.00  0.00     0.016 A 
BRANCH  10  26
ATOM     26  O   UNL     1       1.114   1.677  -1.953  1.00  0.00    -0.444 OA
BRANCH  26  27
ATOM     27  C   UNL     1       0.619   0.397  -1.480  1.00  0.00     0.106 C 
ATOM     28  C   UNL     1       1.329   0.175  -0.136  1.00  0.00     0.056 C 
ATOM     29  C   UNL     1       1.038  -0.698  -2.463  1.00  0.00     0.056 C 
ATOM     30  C   UNL     1      -0.895   0.374  -1.220  1.00  0.00     0.056 C 
ENDBRANCH  26  27
ENDBRANCH  10  26
ENDBRANCH   6   9
ENDBRANCH   4   5
ENDBRANCH   3   4
ENDBRANCH   2   3
ENDBRANCH   1   2
BRANCH   1  31
ATOM     31  C   UNL     1       1.105  13.964   5.066  1.00  0.00     0.021 C 
BRANCH  31  32
ATOM     32  C   UNL     1       0.182  15.130   4.729  1.00  0.00     0.116 C 
BRANCH  32  33
ATOM     33  N   UNL     1      -0.505  15.652   5.903  1.00  0.00    -0.352 N 
ATOM     34  C   UNL     1      -0.551  16.949   6.364  1.00  0.00     0.251 C 
ATOM     35  H   UNL     1      -1.002  14.991   6.436  1.00  0.00     0.163 HD
ATOM     36  O   UNL     1      -1.042  17.209   7.457  1.00  0.00    -0.269 OA
BRANCH  34  37
ATOM     37  C   UNL     1       0.042  18.019   5.536  1.00  0.00     0.039 A 
ATOM     38  C   UNL     1      -0.302  18.130   4.186  1.00  0.00     0.014 A 
ATOM     39  C   UNL     1       1.011  18.856   6.093  1.00  0.00     0.014 A 
ATOM     40  C   UNL     1       0.447  18.956   3.355  1.00  0.00     0.010 A 
ATOM     41  C   UNL     1       1.712  19.739   5.268  1.00  0.00     0.010 A 
ATOM     42  C   UNL     1       1.477  19.752   3.883  1.00  0.00    -0.014 A 
BRANCH  42  43
ATOM     43  C   UNL     1       2.337  20.550   2.972  1.00  0.00     0.031 A 
ATOM     44  C   UNL     1       3.797  20.208   2.814  1.00  0.00     0.074 A 
ATOM     45  C   UNL     1       1.796  21.544   2.241  1.00  0.00     0.049 A 
ATOM     46  N   UNL     1       4.708  20.807   2.091  1.00  0.00    -0.248 NA
ATOM     47  C   UNL     1       4.299  19.040   3.559  1.00  0.00     0.031 C 
ATOM     48  C   UNL     1       0.385  21.930   2.264  1.00  0.00     0.029 A 
ATOM     49  N   UNL     1       2.360  22.392   1.321  1.00  0.00    -0.354 N 
ATOM     50  C   UNL     1       5.888  20.104   2.306  1.00  0.00     0.074 A 
ATOM     51  C   UNL     1       5.588  19.048   3.247  1.00  0.00     0.031 C 
ATOM     52  C   UNL     1       0.182  22.902   1.362  1.00  0.00     0.029 A 
ATOM     53  C   UNL     1       1.459  23.261   0.750  1.00  0.00     0.049 A 
ATOM     54  H   UNL     1       3.317  22.380   1.091  1.00  0.00     0.167 HD
ATOM     55  C   UNL     1       7.108  20.315   1.759  1.00  0.00     0.031 A 
ATOM     56  C   UNL     1       1.637  24.249  -0.150  1.00  0.00     0.031 A 
ATOM     57  C   UNL     1       7.396  21.359   0.811  1.00  0.00     0.049 A 
ATOM     58  C   UNL     1       3.014  24.515  -0.685  1.00  0.00     0.074 A 
ATOM     59  C   UNL     1       8.605  21.655   0.207  1.00  0.00     0.029 A 
ATOM     60  N   UNL     1       6.470  22.267   0.322  1.00  0.00    -0.354 N 
ATOM     61  N   UNL     1       4.126  23.862  -0.443  1.00  0.00    -0.248 NA
ATOM     62  C   UNL     1       3.170  25.651  -1.604  1.00  0.00     0.031 C 
ATOM     63  C   UNL     1       8.423  22.776  -0.605  1.00  0.00     0.029 A 
ATOM     64  C   UNL     1       7.085  23.137  -0.560  1.00  0.00     0.049 A 
ATOM     65  H   UNL     1       5.516  22.289   0.565  1.00  0.00     0.167 HD
ATOM     66  C   UNL     1       5.110  24.499  -1.188  1.00  0.00     0.074 A 
ATOM     67  C   UNL     1       4.463  25.582  -1.899  1.00  0.00     0.031 C 
ATOM     68  C   UNL     1       6.431  24.209  -1.268  1.00  0.00     0.031 A 
BRANCH  55  69
ATOM     69  C   UNL     1       8.242  19.408   2.163  1.00  0.00    -0.014 A 
ATOM     70  C   UNL     1       9.305  19.919   2.930  1.00  0.00     0.010 A 
ATOM     71  C   UNL     1       8.313  18.086   1.690  1.00  0.00     0.010 A 
ATOM     72  C   UNL     1      10.431  19.136   3.197  1.00  0.00     0.020 A 
ATOM     73  C   UNL     1       9.427  17.290   1.977  1.00  0.00     0.020 A 
ATOM     74  C   UNL     1      10.488  17.827   2.710  1.00  0.00     0.054 A 
BRANCH  74  75
ATOM     75  S   UNL     1      11.960  16.825   3.055  1.00  0.00     0.124 S 
ATOM     76  O   UNL     1      12.925  17.352   2.095  1.00  0.00    -0.237 OA
ATOM     77  O   UNL     1      12.234  17.128   4.458  1.00  0.00    -0.237 OA
ATOM     78  O   UNL     1      11.507  15.458   2.802  1.00  0.00    -0.744 OA
ENDBRANCH  74  75
ENDBRANCH  55  69
BRANCH  56  79
ATOM     79  C   UNL     1       0.457  25.041  -0.592  1.00  0.00    -0.014 A 
ATOM     80  C   UNL     1      -0.210  25.890   0.312  1.00  0.00     0.010 A 
ATOM     81  C   UNL     1      -0.070  24.869  -1.883  1.00  0.00     0.010 A 
ATOM     82  C   UNL     1      -1.416  26.497  -0.042  1.00  0.00     0.020 A 
ATOM     83  C   UNL     1      -1.263  25.499  -2.251  1.00  0.00     0.020 A 
ATOM     84  C   UNL     1      -1.945  26.282  -1.316  1.00  0.00     0.054 A 
BRANCH  84  85
ATOM     85  S   UNL     1      -3.549  27.022  -1.732  1.00  0.00     0.124 S 
ATOM     86  O   UNL     1      -4.476  26.126  -1.046  1.00  0.00    -0.237 OA
ATOM     87  O   UNL     1      -3.438  28.365  -1.168  1.00  0.00    -0.237 OA
ATOM     88  O   UNL     1      -3.583  26.962  -3.191  1.00  0.00    -0.744 OA
ENDBRANCH  84  85
ENDBRANCH  56  79
BRANCH  68  89
ATOM     89  C   UNL     1       7.299  25.056  -2.159  1.00  0.00    -0.014 A 
ATOM     90  C   UNL     1       7.842  24.498  -3.331  1.00  0.00     0.010 A 
ATOM     91  C   UNL     1       7.718  26.333  -1.746  1.00  0.00     0.010 A 
ATOM     92  C   UNL     1       8.830  25.178  -4.047  1.00  0.00     0.020 A 
ATOM     93  C   UNL     1       8.688  27.027  -2.474  1.00  0.00     0.020 A 
ATOM     94  C   UNL     1       9.261  26.430  -3.601  1.00  0.00     0.054 A 
BRANCH  94  95
ATOM     95  S   UNL     1      10.600  27.263  -4.498  1.00  0.00     0.124 S 
ATOM     96  O   UNL     1      11.775  26.523  -4.050  1.00  0.00    -0.237 OA
ATOM     97  O   UNL     1      10.224  27.063  -5.895  1.00  0.00    -0.237 OA
ATOM     98  O   UNL     1      10.517  28.646  -4.031  1.00  0.00    -0.744 OA
ENDBRANCH  94  95
ENDBRANCH  68  89
ENDBRANCH  42  43
ENDBRANCH  34  37
ENDBRANCH  32  33
ENDBRANCH  31  32
ENDBRANCH   1  31
TORSDOF 18
