REMARK SMILES Cc1c(CC(=O)NCCCCCCNC(=O)c2ccc(-c3c4nc(c(-c5ccc(S(=O)(=O)[O-])cc5)c5ccc([nH]5)c(-c5ccc(S(=O)(=O)[O-])cc5)c5nc(c(-c6ccc(S(=O)(=O)[O-])cc6)c6ccc3[nH]6)C=C5)C=C4)cc2)c2cc(O)ccc2n1C(=O)c1ccc(Cl)cc1
REMARK SMILES IDX 10 1 9 2 8 3 7 4 5 5 6 6 4 8 3 9 1 10 2 11 84 12 77 13 83 14
REMARK SMILES IDX 78 15 82 16 79 17 81 18 85 19 86 20 87 21 88 22 93 23 89 24
REMARK SMILES IDX 92 25 90 26 91 27 80 28 11 30 12 31 13 32 14 33 15 34 16 36
REMARK SMILES IDX 17 37 18 38 76 39 19 40 75 41 20 42 21 43 22 44 69 45 23 46
REMARK SMILES IDX 74 47 68 48 70 49 24 50 73 51 67 52 66 53 25 55 55 56 36 57
REMARK SMILES IDX 54 58 37 59 40 60 53 61 71 62 38 63 39 64 52 66 72 67 41 68
REMARK SMILES IDX 26 69 27 70 35 71 28 72 34 73 29 74 30 75 31 76 32 77 33 78
REMARK SMILES IDX 56 79 57 80 65 81 58 82 64 83 59 84 60 85 61 86 62 87 63 88
REMARK SMILES IDX 42 89 43 90 51 91 44 92 50 93 45 94 46 95 47 96 48 97 49 98
REMARK H PARENT 7 7 80 29 14 35 70 54 40 65
REMARK Flexibility Score: inf
ROOT
ATOM      1  C   UNL     1       5.261  -1.053   3.001  1.00  0.00     0.002 C 
ENDROOT
BRANCH   1   2
ATOM      2  C   UNL     1       3.911  -0.802   2.319  1.00  0.00     0.021 C 
BRANCH   2   3
ATOM      3  C   UNL     1       3.755  -1.541   0.990  1.00  0.00     0.116 C 
BRANCH   3   4
ATOM      4  N   UNL     1       3.499  -2.953   1.201  1.00  0.00    -0.356 N 
ATOM      5  C   UNL     1       2.325  -3.635   1.057  1.00  0.00     0.224 C 
ATOM      6  O   UNL     1       2.301  -4.836   1.340  1.00  0.00    -0.275 OA
ATOM      7  H   UNL     1       4.273  -3.490   1.486  1.00  0.00     0.163 HD
BRANCH   5   8
ATOM      8  C   UNL     1       1.098  -2.928   0.504  1.00  0.00     0.138 C 
BRANCH   8   9
ATOM      9  C   UNL     1       0.528  -1.886   1.429  1.00  0.00    -0.009 A 
ATOM     10  C   UNL     1       0.496   0.168  -0.160  1.00  0.00     0.065 C 
ATOM     11  C   UNL     1       0.284  -0.550   1.139  1.00  0.00     0.028 A 
ATOM     12  N   UNL     1      -0.160   0.095   2.302  1.00  0.00    -0.280 N 
ATOM     13  C   UNL     1       0.094  -2.110   2.766  1.00  0.00     0.008 A 
ATOM     14  C   UNL     1      -0.408  -0.901   3.264  1.00  0.00     0.057 A 
ATOM     15  C   UNL     1       0.069  -3.262   3.584  1.00  0.00     0.056 A 
ATOM     16  C   UNL     1      -1.012  -0.865   4.540  1.00  0.00     0.031 A 
ATOM     17  C   UNL     1      -0.458  -3.187   4.868  1.00  0.00     0.116 A 
ATOM     18  C   UNL     1      -1.006  -2.011   5.343  1.00  0.00     0.048 A 
BRANCH  12  19
ATOM     19  C   UNL     1      -0.320   1.503   2.457  1.00  0.00     0.262 C 
ATOM     20  O   UNL     1      -0.064   2.241   1.503  1.00  0.00    -0.268 OA
BRANCH  19  21
ATOM     21  C   UNL     1      -0.788   2.194   3.669  1.00  0.00     0.040 A 
ATOM     22  C   UNL     1      -0.039   2.179   4.850  1.00  0.00     0.015 A 
ATOM     23  C   UNL     1      -2.004   2.884   3.602  1.00  0.00     0.015 A 
ATOM     24  C   UNL     1      -0.562   2.783   5.997  1.00  0.00     0.021 A 
ATOM     25  C   UNL     1      -2.515   3.496   4.746  1.00  0.00     0.021 A 
ATOM     26  C   UNL     1      -1.801   3.425   5.943  1.00  0.00     0.041 A 
ATOM     27  Cl  UNL     1      -2.465   4.123   7.369  1.00  0.00    -0.084 Cl
ENDBRANCH  19  21
ENDBRANCH  12  19
BRANCH  17  28
ATOM     28  O   UNL     1      -0.431  -4.316   5.633  1.00  0.00    -0.508 OA
ATOM     29  H   UNL     1      -0.055  -5.104   5.293  1.00  0.00     0.293 HD
ENDBRANCH  17  28
ENDBRANCH   8   9
ENDBRANCH   5   8
ENDBRANCH   3   4
ENDBRANCH   2   3
ENDBRANCH   1   2
BRANCH   1  30
ATOM     30  C   UNL     1       6.481  -0.559   2.214  1.00  0.00     0.002 C 
BRANCH  30  31
ATOM     31  C   UNL     1       6.476   0.935   1.865  1.00  0.00     0.021 C 
BRANCH  31  32
ATOM     32  C   UNL     1       6.358   1.861   3.075  1.00  0.00     0.116 C 
BRANCH  32  33
ATOM     33  N   UNL     1       7.401   1.655   4.059  1.00  0.00    -0.352 N 
ATOM     34  C   UNL     1       8.667   2.137   4.240  1.00  0.00     0.251 C 
ATOM     35  H   UNL     1       7.136   1.017   4.761  1.00  0.00     0.163 HD
ATOM     36  O   UNL     1       9.230   1.781   5.280  1.00  0.00    -0.269 OA
BRANCH  34  37
ATOM     37  C   UNL     1       9.414   2.992   3.275  1.00  0.00     0.039 A 
ATOM     38  C   UNL     1       8.923   3.480   2.065  1.00  0.00     0.014 A 
ATOM     39  C   UNL     1      10.758   3.259   3.606  1.00  0.00     0.014 A 
ATOM     40  C   UNL     1       9.774   4.114   1.163  1.00  0.00     0.010 A 
ATOM     41  C   UNL     1      11.606   3.913   2.717  1.00  0.00     0.010 A 
ATOM     42  C   UNL     1      11.127   4.287   1.468  1.00  0.00    -0.014 A 
BRANCH  42  43
ATOM     43  C   UNL     1      11.984   4.882   0.444  1.00  0.00     0.031 A 
ATOM     44  C   UNL     1      11.578   6.230  -0.048  1.00  0.00     0.074 A 
ATOM     45  C   UNL     1      13.110   4.302  -0.019  1.00  0.00     0.049 A 
ATOM     46  N   UNL     1      11.216   6.572  -1.242  1.00  0.00    -0.248 NA
ATOM     47  C   UNL     1      11.481   7.314   0.941  1.00  0.00     0.031 C 
ATOM     48  C   UNL     1      13.820   3.127   0.495  1.00  0.00     0.029 A 
ATOM     49  N   UNL     1      13.913   4.723  -1.035  1.00  0.00    -0.354 N 
ATOM     50  C   UNL     1      10.974   7.944  -1.202  1.00  0.00     0.074 A 
ATOM     51  C   UNL     1      11.059   8.329   0.186  1.00  0.00     0.031 C 
ATOM     52  C   UNL     1      15.054   3.072  -0.058  1.00  0.00     0.029 A 
ATOM     53  C   UNL     1      15.150   4.097  -1.082  1.00  0.00     0.049 A 
ATOM     54  H   UNL     1      13.639   5.413  -1.682  1.00  0.00     0.167 HD
ATOM     55  C   UNL     1      10.844   8.708  -2.324  1.00  0.00     0.031 A 
ATOM     56  C   UNL     1      16.196   4.432  -1.877  1.00  0.00     0.031 A 
ATOM     57  C   UNL     1      10.598   7.917  -3.496  1.00  0.00     0.049 A 
ATOM     58  C   UNL     1      15.642   5.176  -3.033  1.00  0.00     0.074 A 
ATOM     59  C   UNL     1       9.561   7.109  -3.916  1.00  0.00     0.029 A 
ATOM     60  N   UNL     1      11.668   7.605  -4.298  1.00  0.00    -0.354 N 
ATOM     61  N   UNL     1      14.855   4.643  -3.927  1.00  0.00    -0.248 NA
ATOM     62  C   UNL     1      15.628   6.628  -2.973  1.00  0.00     0.031 C 
ATOM     63  C   UNL     1      10.192   6.029  -4.596  1.00  0.00     0.029 A 
ATOM     64  C   UNL     1      11.569   6.269  -4.598  1.00  0.00     0.049 A 
ATOM     65  H   UNL     1      12.373   8.222  -4.600  1.00  0.00     0.167 HD
ATOM     66  C   UNL     1      13.954   5.646  -4.252  1.00  0.00     0.074 A 
ATOM     67  C   UNL     1      14.538   6.869  -3.705  1.00  0.00     0.031 C 
ATOM     68  C   UNL     1      12.697   5.362  -4.704  1.00  0.00     0.031 A 
BRANCH  55  69
ATOM     69  C   UNL     1      11.183  10.173  -2.394  1.00  0.00    -0.014 A 
ATOM     70  C   UNL     1      12.015  10.800  -1.445  1.00  0.00     0.010 A 
ATOM     71  C   UNL     1      10.866  10.912  -3.553  1.00  0.00     0.010 A 
ATOM     72  C   UNL     1      12.484  12.104  -1.616  1.00  0.00     0.020 A 
ATOM     73  C   UNL     1      11.366  12.209  -3.756  1.00  0.00     0.020 A 
ATOM     74  C   UNL     1      12.168  12.798  -2.779  1.00  0.00     0.054 A 
BRANCH  74  75
ATOM     75  S   UNL     1      12.892  14.440  -3.014  1.00  0.00     0.124 S 
ATOM     76  O   UNL     1      12.198  15.224  -1.995  1.00  0.00    -0.237 OA
ATOM     77  O   UNL     1      14.309  14.196  -2.763  1.00  0.00    -0.237 OA
ATOM     78  O   UNL     1      12.553  14.772  -4.395  1.00  0.00    -0.744 OA
ENDBRANCH  74  75
ENDBRANCH  55  69
BRANCH  56  79
ATOM     79  C   UNL     1      17.604   4.601  -1.429  1.00  0.00    -0.014 A 
ATOM     80  C   UNL     1      17.874   4.932  -0.085  1.00  0.00     0.010 A 
ATOM     81  C   UNL     1      18.643   4.752  -2.366  1.00  0.00     0.010 A 
ATOM     82  C   UNL     1      19.106   5.470   0.299  1.00  0.00     0.020 A 
ATOM     83  C   UNL     1      19.885   5.291  -1.987  1.00  0.00     0.020 A 
ATOM     84  C   UNL     1      20.093   5.681  -0.662  1.00  0.00     0.054 A 
BRANCH  84  85
ATOM     85  S   UNL     1      21.605   6.552  -0.160  1.00  0.00     0.124 S 
ATOM     86  O   UNL     1      21.101   7.892   0.130  1.00  0.00    -0.237 OA
ATOM     87  O   UNL     1      22.043   5.782   1.002  1.00  0.00    -0.237 OA
ATOM     88  O   UNL     1      22.470   6.450  -1.333  1.00  0.00    -0.744 OA
ENDBRANCH  84  85
ENDBRANCH  56  79
BRANCH  68  89
ATOM     89  C   UNL     1      12.350   3.934  -5.077  1.00  0.00    -0.014 A 
ATOM     90  C   UNL     1      11.762   3.716  -6.337  1.00  0.00     0.010 A 
ATOM     91  C   UNL     1      12.348   2.875  -4.146  1.00  0.00     0.010 A 
ATOM     92  C   UNL     1      11.132   2.506  -6.638  1.00  0.00     0.020 A 
ATOM     93  C   UNL     1      11.738   1.647  -4.452  1.00  0.00     0.020 A 
ATOM     94  C   UNL     1      11.101   1.486  -5.685  1.00  0.00     0.054 A 
BRANCH  94  95
ATOM     95  S   UNL     1      10.165  -0.020  -6.072  1.00  0.00     0.124 S 
ATOM     96  O   UNL     1       8.783   0.453  -6.016  1.00  0.00    -0.237 OA
ATOM     97  O   UNL     1      10.649  -0.369  -7.405  1.00  0.00    -0.237 OA
ATOM     98  O   UNL     1      10.540  -0.954  -5.013  1.00  0.00    -0.744 OA
ENDBRANCH  94  95
ENDBRANCH  68  89
ENDBRANCH  42  43
ENDBRANCH  34  37
ENDBRANCH  32  33
ENDBRANCH  31  32
ENDBRANCH  30  31
ENDBRANCH   1  30
TORSDOF 20
