REMARK SMILES CCC[NH2+]CC(=O)N1CCC(CC(=O)NCCCCCCNC(=O)c2ccc(-c3c4nc(c(-c5ccc(S(=O)(=O)[O-])cc5)c5ccc([nH]5)c(-c5ccc(S(=O)(=O)[O-])cc5)c5nc(c(-c6ccc(S(=O)(=O)[O-])cc6)c6ccc3[nH]6)C=C5)C=C4)cc2)CC1
REMARK SMILES IDX 17 1 16 2 15 3 13 4 14 5 12 7 11 8 6 9 7 10 8 11 9 12 86 13
REMARK SMILES IDX 10 14 85 15 5 16 4 17 3 20 2 21 1 22 18 23 19 24 20 25 21 26
REMARK SMILES IDX 22 27 23 28 24 30 25 31 26 32 84 33 27 34 83 35 28 36 29 37
REMARK SMILES IDX 30 38 77 39 31 40 82 41 76 42 78 43 32 44 81 45 75 46 74 47
REMARK SMILES IDX 33 49 63 50 44 51 62 52 45 53 48 54 61 55 79 56 46 57 47 58
REMARK SMILES IDX 60 60 80 61 49 62 34 63 35 64 43 65 36 66 42 67 37 68 38 69
REMARK SMILES IDX 39 70 40 71 41 72 64 73 65 74 73 75 66 76 72 77 67 78 68 79
REMARK SMILES IDX 69 80 70 81 71 82 50 83 51 84 59 85 52 86 58 87 53 88 54 89
REMARK SMILES IDX 55 90 56 91 57 92
REMARK H PARENT 15 6 4 18 4 19 22 29 78 48 48 59
REMARK Flexibility Score: inf
ROOT
ATOM      1  C   UNL     1       8.081  -3.083   4.391  1.00  0.00     0.021 C 
ENDROOT
BRANCH   1   2
ATOM      2  C   UNL     1       8.454  -2.131   3.250  1.00  0.00     0.116 C 
BRANCH   2   3
ATOM      3  N   UNL     1       8.608  -2.865   2.003  1.00  0.00    -0.356 N 
ATOM      4  C   UNL     1       7.802  -2.910   0.905  1.00  0.00     0.220 C 
ATOM      5  O   UNL     1       8.072  -3.712   0.009  1.00  0.00    -0.275 OA
ATOM      6  H   UNL     1       9.422  -3.415   1.943  1.00  0.00     0.163 HD
BRANCH   4   7
ATOM      7  C   UNL     1       6.605  -1.986   0.785  1.00  0.00     0.103 C 
BRANCH   7   8
ATOM      8  C   UNL     1       5.272  -2.622   1.223  1.00  0.00     0.002 C 
ATOM      9  C   UNL     1       2.402  -1.425   3.738  1.00  0.00     0.277 C 
ATOM     10  O   UNL     1       3.181  -0.951   4.571  1.00  0.00    -0.268 OA
ATOM     11  N   UNL     1       2.834  -2.380   2.824  1.00  0.00    -0.338 N 
ATOM     12  C   UNL     1       3.861  -3.311   3.245  1.00  0.00     0.120 C 
ATOM     13  C   UNL     1       2.774  -2.182   1.386  1.00  0.00     0.120 C 
ATOM     14  C   UNL     1       5.230  -2.896   2.731  1.00  0.00     0.026 C 
ATOM     15  C   UNL     1       4.112  -1.699   0.828  1.00  0.00     0.026 C 
BRANCH   9  16
ATOM     16  C   UNL     1       0.883  -1.167   3.853  1.00  0.00     0.362 C 
BRANCH  16  17
ATOM     17  N   UNL     1       0.262  -0.541   2.675  1.00  0.00    -0.338 N 
ATOM     18  H   UNL     1      -0.434   0.134   2.992  1.00  0.00     0.346 HD
ATOM     19  H   UNL     1       1.003  -0.093   2.136  1.00  0.00     0.346 HD
BRANCH  17  20
ATOM     20  C   UNL     1      -0.391  -1.510   1.804  1.00  0.00     0.260 C 
BRANCH  20  21
ATOM     21  C   UNL     1      -0.609  -1.069   0.344  1.00  0.00     0.058 C 
ATOM     22  C   UNL     1       0.097   0.198  -0.126  1.00  0.00     0.010 C 
ENDBRANCH  20  21
ENDBRANCH  17  20
ENDBRANCH  16  17
ENDBRANCH   9  16
ENDBRANCH   7   8
ENDBRANCH   4   7
ENDBRANCH   2   3
ENDBRANCH   1   2
BRANCH   1  23
ATOM     23  C   UNL     1       9.264  -3.575   5.219  1.00  0.00     0.002 C 
BRANCH  23  24
ATOM     24  C   UNL     1       9.908  -2.514   6.110  1.00  0.00     0.002 C 
BRANCH  24  25
ATOM     25  C   UNL     1       8.961  -1.800   7.081  1.00  0.00     0.021 C 
BRANCH  25  26
ATOM     26  C   UNL     1       8.104  -2.714   7.956  1.00  0.00     0.116 C 
BRANCH  26  27
ATOM     27  N   UNL     1       8.911  -3.644   8.729  1.00  0.00    -0.352 N 
ATOM     28  C   UNL     1       9.078  -3.749  10.083  1.00  0.00     0.251 C 
ATOM     29  H   UNL     1       9.415  -4.301   8.195  1.00  0.00     0.163 HD
ATOM     30  O   UNL     1       9.987  -4.454  10.529  1.00  0.00    -0.269 OA
BRANCH  28  31
ATOM     31  C   UNL     1       8.189  -3.022  11.011  1.00  0.00     0.039 A 
ATOM     32  C   UNL     1       8.751  -2.378  12.116  1.00  0.00     0.014 A 
ATOM     33  C   UNL     1       6.803  -3.009  10.822  1.00  0.00     0.014 A 
ATOM     34  C   UNL     1       7.929  -1.683  13.005  1.00  0.00     0.010 A 
ATOM     35  C   UNL     1       5.991  -2.261  11.674  1.00  0.00     0.010 A 
ATOM     36  C   UNL     1       6.545  -1.598  12.779  1.00  0.00    -0.014 A 
BRANCH  36  37
ATOM     37  C   UNL     1       5.678  -0.806  13.688  1.00  0.00     0.031 A 
ATOM     38  C   UNL     1       4.633  -1.481  14.534  1.00  0.00     0.074 A 
ATOM     39  C   UNL     1       5.807   0.534  13.718  1.00  0.00     0.049 A 
ATOM     40  N   UNL     1       3.805  -0.950  15.398  1.00  0.00    -0.248 NA
ATOM     41  C   UNL     1       4.480  -2.936  14.373  1.00  0.00     0.031 C 
ATOM     42  C   UNL     1       6.738   1.312  12.897  1.00  0.00     0.029 A 
ATOM     43  N   UNL     1       5.153   1.481  14.465  1.00  0.00    -0.354 N 
ATOM     44  C   UNL     1       3.024  -1.999  15.871  1.00  0.00     0.074 A 
ATOM     45  C   UNL     1       3.447  -3.189  15.165  1.00  0.00     0.031 C 
ATOM     46  C   UNL     1       6.613   2.613  13.204  1.00  0.00     0.029 A 
ATOM     47  C   UNL     1       5.578   2.765  14.221  1.00  0.00     0.049 A 
ATOM     48  H   UNL     1       4.446   1.261  15.114  1.00  0.00     0.167 HD
ATOM     49  C   UNL     1       2.054  -1.977  16.817  1.00  0.00     0.031 A 
ATOM     50  C   UNL     1       5.183   3.936  14.757  1.00  0.00     0.031 A 
ATOM     51  C   UNL     1       1.640  -0.792  17.522  1.00  0.00     0.049 A 
ATOM     52  C   UNL     1       4.131   3.932  15.830  1.00  0.00     0.074 A 
ATOM     53  C   UNL     1       0.721  -0.677  18.550  1.00  0.00     0.029 A 
ATOM     54  N   UNL     1       2.113   0.487  17.265  1.00  0.00    -0.354 N 
ATOM     55  N   UNL     1       3.470   2.915  16.331  1.00  0.00    -0.248 NA
ATOM     56  C   UNL     1       3.786   5.230  16.423  1.00  0.00     0.031 C 
ATOM     57  C   UNL     1       0.602   0.678  18.882  1.00  0.00     0.029 A 
ATOM     58  C   UNL     1       1.486   1.400  18.097  1.00  0.00     0.049 A 
ATOM     59  H   UNL     1       2.794   0.712  16.591  1.00  0.00     0.167 HD
ATOM     60  C   UNL     1       2.641   3.450  17.310  1.00  0.00     0.074 A 
ATOM     61  C   UNL     1       2.904   4.875  17.346  1.00  0.00     0.031 C 
ATOM     62  C   UNL     1       1.742   2.819  18.107  1.00  0.00     0.031 A 
BRANCH  49  63
ATOM     63  C   UNL     1       1.364  -3.280  17.134  1.00  0.00    -0.014 A 
ATOM     64  C   UNL     1       2.039  -4.318  17.803  1.00  0.00     0.010 A 
ATOM     65  C   UNL     1       0.014  -3.459  16.782  1.00  0.00     0.010 A 
ATOM     66  C   UNL     1       1.392  -5.528  18.069  1.00  0.00     0.020 A 
ATOM     67  C   UNL     1      -0.645  -4.658  17.072  1.00  0.00     0.020 A 
ATOM     68  C   UNL     1       0.055  -5.693  17.695  1.00  0.00     0.054 A 
BRANCH  68  69
ATOM     69  S   UNL     1      -0.764  -7.270  18.059  1.00  0.00     0.124 S 
ATOM     70  O   UNL     1      -0.174  -8.153  17.056  1.00  0.00    -0.237 OA
ATOM     71  O   UNL     1      -0.361  -7.531  19.439  1.00  0.00    -0.237 OA
ATOM     72  O   UNL     1      -2.183  -6.976  17.873  1.00  0.00    -0.744 OA
ENDBRANCH  68  69
ENDBRANCH  49  63
BRANCH  50  73
ATOM     73  C   UNL     1       5.811   5.204  14.298  1.00  0.00    -0.014 A 
ATOM     74  C   UNL     1       6.718   5.893  15.122  1.00  0.00     0.010 A 
ATOM     75  C   UNL     1       5.532   5.709  13.015  1.00  0.00     0.010 A 
ATOM     76  C   UNL     1       7.327   7.070  14.675  1.00  0.00     0.020 A 
ATOM     77  C   UNL     1       6.158   6.870  12.555  1.00  0.00     0.020 A 
ATOM     78  C   UNL     1       7.046   7.548  13.392  1.00  0.00     0.054 A 
BRANCH  78  79
ATOM     79  S   UNL     1       7.903   9.037  12.805  1.00  0.00     0.124 S 
ATOM     80  O   UNL     1       7.203  10.095  13.527  1.00  0.00    -0.237 OA
ATOM     81  O   UNL     1       9.282   8.792  13.220  1.00  0.00    -0.237 OA
ATOM     82  O   UNL     1       7.682   9.010  11.361  1.00  0.00    -0.744 OA
ENDBRANCH  78  79
ENDBRANCH  50  73
BRANCH  62  83
ATOM     83  C   UNL     1       0.986   3.671  19.091  1.00  0.00    -0.014 A 
ATOM     84  C   UNL     1      -0.006   4.571  18.663  1.00  0.00     0.010 A 
ATOM     85  C   UNL     1       1.262   3.558  20.466  1.00  0.00     0.010 A 
ATOM     86  C   UNL     1      -0.673   5.380  19.587  1.00  0.00     0.020 A 
ATOM     87  C   UNL     1       0.577   4.345  21.396  1.00  0.00     0.020 A 
ATOM     88  C   UNL     1      -0.371   5.266  20.948  1.00  0.00     0.054 A 
BRANCH  88  89
ATOM     89  S   UNL     1      -1.254   6.320  22.131  1.00  0.00     0.124 S 
ATOM     90  O   UNL     1      -0.594   7.609  21.939  1.00  0.00    -0.237 OA
ATOM     91  O   UNL     1      -2.635   6.245  21.663  1.00  0.00    -0.237 OA
ATOM     92  O   UNL     1      -1.004   5.678  23.419  1.00  0.00    -0.744 OA
ENDBRANCH  88  89
ENDBRANCH  62  83
ENDBRANCH  36  37
ENDBRANCH  28  31
ENDBRANCH  26  27
ENDBRANCH  25  26
ENDBRANCH  24  25
ENDBRANCH  23  24
ENDBRANCH   1  23
TORSDOF 21
