REMARK SMILES O=C(CCCC(=O)Nc1ccccc1F)NCCCCCCNC(=O)c1ccc(-c2c3nc(c(-c4ccc(S(=O)(=O)[O-])cc4)c4ccc([nH]4)c(-c4ccc(S(=O)(=O)[O-])cc4)c4nc(c(-c5ccc(S(=O)(=O)[O-])cc5)c5ccc2[nH]5)C=C4)C=C3)cc1
REMARK SMILES IDX 19 1 18 2 17 3 16 4 1 5 2 6 3 8 4 9 5 10 6 11 7 12 8 13 9 15
REMARK SMILES IDX 10 16 14 17 11 18 13 19 15 20 12 21 20 22 21 23 22 24 23 25
REMARK SMILES IDX 24 26 25 28 26 29 27 30 85 31 28 32 84 33 29 34 30 35 31 36
REMARK SMILES IDX 78 37 32 38 83 39 77 40 79 41 33 42 82 43 76 44 75 45 34 47
REMARK SMILES IDX 64 48 45 49 63 50 46 51 49 52 62 53 80 54 47 55 48 56 61 58
REMARK SMILES IDX 81 59 50 60 35 61 36 62 44 63 37 64 43 65 38 66 39 67 40 68
REMARK SMILES IDX 41 69 42 70 65 71 66 72 74 73 67 74 73 75 68 76 69 77 70 78
REMARK SMILES IDX 71 79 72 80 51 81 52 82 60 83 53 84 59 85 54 86 55 87 56 88
REMARK SMILES IDX 57 89 58 90
REMARK H PARENT 16 7 8 14 23 27 79 46 49 57
REMARK Flexibility Score: inf
ROOT
ATOM      1  C   UNL     1       4.143   3.581  -1.041  1.00  0.00     0.002 C 
ENDROOT
BRANCH   1   2
ATOM      2  C   UNL     1       2.616   3.448  -0.961  1.00  0.00     0.021 C 
BRANCH   2   3
ATOM      3  C   UNL     1       2.031   2.198  -1.620  1.00  0.00     0.116 C 
BRANCH   3   4
ATOM      4  N   UNL     1       2.525   0.968  -1.039  1.00  0.00    -0.356 N 
ATOM      5  O   UNL     1       1.166  -0.397  -2.262  1.00  0.00    -0.275 OA
ATOM      6  C   UNL     1       2.064  -0.262  -1.435  1.00  0.00     0.220 C 
ATOM      7  H   UNL     1       3.214   1.015  -0.337  1.00  0.00     0.163 HD
BRANCH   6   8
ATOM      8  C   UNL     1       2.649  -1.459  -0.704  1.00  0.00     0.100 C 
BRANCH   8   9
ATOM      9  C   UNL     1       4.147  -1.756  -0.811  1.00  0.00     0.020 C 
BRANCH   9  10
ATOM     10  C   UNL     1       5.187  -0.663  -0.587  1.00  0.00     0.101 C 
BRANCH  10  11
ATOM     11  C   UNL     1       5.813  -0.407   0.789  1.00  0.00     0.224 C 
ATOM     12  O   UNL     1       6.952  -0.814   1.038  1.00  0.00    -0.275 OA
ATOM     13  N   UNL     1       5.266   0.540   1.615  1.00  0.00    -0.324 N 
ATOM     14  H   UNL     1       5.897   1.217   1.953  1.00  0.00     0.170 HD
BRANCH  13  15
ATOM     15  C   UNL     1       3.942   0.687   2.050  1.00  0.00     0.077 A 
ATOM     16  C   UNL     1       3.450   1.979   2.240  1.00  0.00     0.029 A 
ATOM     17  C   UNL     1       3.118  -0.396   2.350  1.00  0.00     0.146 A 
ATOM     18  C   UNL     1       2.099   2.175   2.552  1.00  0.00     0.002 A 
ATOM     19  C   UNL     1       1.779  -0.207   2.691  1.00  0.00     0.041 A 
ATOM     20  F   UNL     1       3.602  -1.646   2.306  1.00  0.00    -0.205 F 
ATOM     21  C   UNL     1       1.257   1.082   2.750  1.00  0.00     0.003 A 
ENDBRANCH  13  15
ENDBRANCH  10  11
ENDBRANCH   9  10
ENDBRANCH   8   9
ENDBRANCH   6   8
ENDBRANCH   3   4
ENDBRANCH   2   3
ENDBRANCH   1   2
BRANCH   1  22
ATOM     22  C   UNL     1       4.711   3.703  -2.456  1.00  0.00     0.002 C 
BRANCH  22  23
ATOM     23  C   UNL     1       4.112   4.831  -3.297  1.00  0.00     0.021 C 
BRANCH  23  24
ATOM     24  C   UNL     1       4.211   6.220  -2.673  1.00  0.00     0.116 C 
BRANCH  24  25
ATOM     25  N   UNL     1       5.585   6.686  -2.573  1.00  0.00    -0.352 N 
ATOM     26  C   UNL     1       6.153   7.829  -3.086  1.00  0.00     0.251 C 
ATOM     27  H   UNL     1       6.195   6.101  -2.067  1.00  0.00     0.163 HD
ATOM     28  O   UNL     1       7.368   7.975  -3.067  1.00  0.00    -0.269 OA
BRANCH  26  29
ATOM     29  C   UNL     1       5.286   8.868  -3.686  1.00  0.00     0.039 A 
ATOM     30  C   UNL     1       5.620   9.387  -4.939  1.00  0.00     0.014 A 
ATOM     31  C   UNL     1       4.136   9.309  -3.025  1.00  0.00     0.014 A 
ATOM     32  C   UNL     1       4.759  10.292  -5.563  1.00  0.00     0.010 A 
ATOM     33  C   UNL     1       3.244  10.156  -3.680  1.00  0.00     0.010 A 
ATOM     34  C   UNL     1       3.541  10.649  -4.959  1.00  0.00    -0.014 A 
BRANCH  34  35
ATOM     35  C   UNL     1       2.551  11.498  -5.671  1.00  0.00     0.031 A 
ATOM     36  C   UNL     1       2.162  12.844  -5.128  1.00  0.00     0.074 A 
ATOM     37  C   UNL     1       1.945  11.020  -6.777  1.00  0.00     0.049 A 
ATOM     38  N   UNL     1       1.280  13.695  -5.588  1.00  0.00    -0.248 NA
ATOM     39  C   UNL     1       2.834  13.282  -3.895  1.00  0.00     0.031 C 
ATOM     40  C   UNL     1       2.196   9.707  -7.377  1.00  0.00     0.029 A 
ATOM     41  N   UNL     1       0.984  11.575  -7.585  1.00  0.00    -0.354 N 
ATOM     42  C   UNL     1       1.287  14.765  -4.700  1.00  0.00     0.074 A 
ATOM     43  C   UNL     1       2.218  14.427  -3.644  1.00  0.00     0.031 C 
ATOM     44  C   UNL     1       1.424   9.567  -8.466  1.00  0.00     0.029 A 
ATOM     45  C   UNL     1       0.591  10.756  -8.617  1.00  0.00     0.049 A 
ATOM     46  H   UNL     1       0.612  12.475  -7.439  1.00  0.00     0.167 HD
ATOM     47  C   UNL     1       0.597  15.930  -4.767  1.00  0.00     0.031 A 
ATOM     48  C   UNL     1      -0.346  10.928  -9.569  1.00  0.00     0.031 A 
ATOM     49  C   UNL     1      -0.343  16.252  -5.809  1.00  0.00     0.049 A 
ATOM     50  C   UNL     1      -1.125  12.212  -9.610  1.00  0.00     0.074 A 
ATOM     51  C   UNL     1      -1.059  17.423  -5.991  1.00  0.00     0.029 A 
ATOM     52  N   UNL     1      -0.711  15.397  -6.838  1.00  0.00    -0.354 N 
ATOM     53  N   UNL     1      -1.047  13.246  -8.806  1.00  0.00    -0.248 NA
ATOM     54  C   UNL     1      -2.109  12.359 -10.690  1.00  0.00     0.031 C 
ATOM     55  C   UNL     1      -1.906  17.251  -7.091  1.00  0.00     0.029 A 
ATOM     56  C   UNL     1      -1.669  15.999  -7.638  1.00  0.00     0.049 A 
ATOM     57  H   UNL     1      -0.344  14.494  -6.980  1.00  0.00     0.167 HD
ATOM     58  C   UNL     1      -1.964  14.172  -9.290  1.00  0.00     0.074 A 
ATOM     59  C   UNL     1      -2.566  13.585 -10.470  1.00  0.00     0.031 C 
ATOM     60  C   UNL     1      -2.278  15.397  -8.799  1.00  0.00     0.031 A 
BRANCH  47  61
ATOM     61  C   UNL     1       0.827  16.932  -3.663  1.00  0.00    -0.014 A 
ATOM     62  C   UNL     1       2.068  17.579  -3.514  1.00  0.00     0.010 A 
ATOM     63  C   UNL     1      -0.211  17.237  -2.764  1.00  0.00     0.010 A 
ATOM     64  C   UNL     1       2.287  18.460  -2.451  1.00  0.00     0.020 A 
ATOM     65  C   UNL     1      -0.008  18.144  -1.719  1.00  0.00     0.020 A 
ATOM     66  C   UNL     1       1.249  18.730  -1.555  1.00  0.00     0.054 A 
BRANCH  66  67
ATOM     67  S   UNL     1       1.567  19.863  -0.175  1.00  0.00     0.124 S 
ATOM     68  O   UNL     1       2.428  19.053   0.685  1.00  0.00    -0.237 OA
ATOM     69  O   UNL     1       2.220  20.992  -0.831  1.00  0.00    -0.237 OA
ATOM     70  O   UNL     1       0.237  20.140   0.361  1.00  0.00    -0.744 OA
ENDBRANCH  66  67
ENDBRANCH  47  61
BRANCH  48  71
ATOM     71  C   UNL     1      -0.592   9.840 -10.556  1.00  0.00    -0.014 A 
ATOM     72  C   UNL     1      -0.190   9.979 -11.896  1.00  0.00     0.010 A 
ATOM     73  C   UNL     1      -1.182   8.631 -10.141  1.00  0.00     0.010 A 
ATOM     74  C   UNL     1      -0.372   8.929 -12.801  1.00  0.00     0.020 A 
ATOM     75  C   UNL     1      -1.338   7.569 -11.036  1.00  0.00     0.020 A 
ATOM     76  C   UNL     1      -0.935   7.727 -12.362  1.00  0.00     0.054 A 
BRANCH  76  77
ATOM     77  S   UNL     1      -1.077   6.349 -13.534  1.00  0.00     0.124 S 
ATOM     78  O   UNL     1      -2.153   6.803 -14.409  1.00  0.00    -0.237 OA
ATOM     79  O   UNL     1       0.254   6.309 -14.134  1.00  0.00    -0.237 OA
ATOM     80  O   UNL     1      -1.402   5.207 -12.681  1.00  0.00    -0.744 OA
ENDBRANCH  76  77
ENDBRANCH  48  71
BRANCH  60  81
ATOM     81  C   UNL     1      -3.321  16.194  -9.540  1.00  0.00    -0.014 A 
ATOM     82  C   UNL     1      -4.678  15.826  -9.505  1.00  0.00     0.010 A 
ATOM     83  C   UNL     1      -2.946  17.360 -10.232  1.00  0.00     0.010 A 
ATOM     84  C   UNL     1      -5.637  16.595 -10.171  1.00  0.00     0.020 A 
ATOM     85  C   UNL     1      -3.906  18.148 -10.873  1.00  0.00     0.020 A 
ATOM     86  C   UNL     1      -5.245  17.753 -10.848  1.00  0.00     0.054 A 
BRANCH  86  87
ATOM     87  S   UNL     1      -6.517  18.761 -11.659  1.00  0.00     0.124 S 
ATOM     88  O   UNL     1      -6.886  17.926 -12.799  1.00  0.00    -0.237 OA
ATOM     89  O   UNL     1      -7.533  18.890 -10.618  1.00  0.00    -0.237 OA
ATOM     90  O   UNL     1      -5.817  19.999 -11.995  1.00  0.00    -0.744 OA
ENDBRANCH  86  87
ENDBRANCH  60  81
ENDBRANCH  34  35
ENDBRANCH  26  29
ENDBRANCH  24  25
ENDBRANCH  23  24
ENDBRANCH  22  23
ENDBRANCH   1  22
TORSDOF 20
