REMARK SMILES CC1(C)[C@@]2(CC[C@@H]2C(=O)NCc2ccco2)[C@]1(C)C(=O)NCCCCCCNC(=O)c1ccc(-c2c3nc(c(-c4ccc(S(=O)(=O)[O-])cc4)c4ccc([nH]4)c(-c4ccc(S(=O)(=O)[O-])cc4)c4nc(c(-c5ccc(S(=O)(=O)[O-])cc5)c5ccc2[nH]5)C=C4)C=C3)cc1
REMARK SMILES IDX 24 1 23 2 22 3 21 4 19 5 20 6 17 8 1 9 2 10 3 11 4 12 18 13
REMARK SMILES IDX 5 14 7 15 6 16 8 17 9 18 10 19 11 21 12 22 13 23 16 24 14 25
REMARK SMILES IDX 15 26 25 27 26 28 27 29 28 30 29 31 30 33 31 34 32 35 90 36
REMARK SMILES IDX 33 37 89 38 34 39 35 40 36 41 83 42 37 43 88 44 82 45 84 46
REMARK SMILES IDX 38 47 87 48 81 49 80 50 39 52 69 53 50 54 68 55 51 56 54 57
REMARK SMILES IDX 67 58 85 59 52 60 53 61 66 63 86 64 55 65 40 66 41 67 49 68
REMARK SMILES IDX 42 69 48 70 43 71 44 72 45 73 46 74 47 75 70 76 71 77 79 78
REMARK SMILES IDX 72 79 78 80 73 81 74 82 75 83 76 84 77 85 56 86 57 87 65 88
REMARK SMILES IDX 58 89 64 90 59 91 60 92 61 93 62 94 63 95
REMARK H PARENT 21 7 10 20 28 32 84 51 54 62
REMARK Flexibility Score: inf
ROOT
ATOM      1  C   UNL     1      -4.769   3.870  -2.044  1.00  0.00     0.002 C 
ENDROOT
BRANCH   1   2
ATOM      2  C   UNL     1      -3.881   3.051  -2.984  1.00  0.00     0.021 C 
BRANCH   2   3
ATOM      3  C   UNL     1      -2.578   2.507  -2.413  1.00  0.00     0.116 C 
BRANCH   3   4
ATOM      4  N   UNL     1      -2.711   1.670  -1.248  1.00  0.00    -0.356 N 
ATOM      5  C   UNL     1      -1.935   0.604  -0.866  1.00  0.00     0.227 C 
ATOM      6  O   UNL     1      -2.138   0.081   0.226  1.00  0.00    -0.274 OA
ATOM      7  H   UNL     1      -3.458   1.891  -0.645  1.00  0.00     0.163 HD
BRANCH   5   8
ATOM      8  C   UNL     1      -0.968  -0.041  -1.836  1.00  0.00     0.059 C 
ATOM      9  C   UNL     1       0.824   0.091   0.082  1.00  0.00     0.013 C 
ATOM     10  C   UNL     1       0.465  -0.364  -1.323  1.00  0.00    -0.013 C 
ATOM     11  C   UNL     1       1.152  -1.663  -1.672  1.00  0.00     0.013 C 
ATOM     12  C   UNL     1       0.282   0.660  -2.414  1.00  0.00     0.003 C 
ATOM     13  C   UNL     1      -1.653  -1.129  -2.657  1.00  0.00     0.023 C 
ATOM     14  C   UNL     1       0.545   0.575  -3.883  1.00  0.00     0.010 C 
ATOM     15  C   UNL     1       0.757   2.084  -2.341  1.00  0.00     0.086 C 
ATOM     16  C   UNL     1       0.703   2.094  -3.871  1.00  0.00     0.015 C 
BRANCH  15  17
ATOM     17  C   UNL     1       2.030   2.474  -1.569  1.00  0.00     0.224 C 
ATOM     18  O   UNL     1       1.962   3.205  -0.564  1.00  0.00    -0.275 OA
ATOM     19  N   UNL     1       3.307   2.120  -1.919  1.00  0.00    -0.349 N 
ATOM     20  H   UNL     1       4.002   2.547  -1.367  1.00  0.00     0.163 HD
BRANCH  19  21
ATOM     21  C   UNL     1       3.830   1.244  -2.938  1.00  0.00     0.191 C 
BRANCH  21  22
ATOM     22  C   UNL     1       4.241   2.002  -4.146  1.00  0.00     0.122 A 
ATOM     23  C   UNL     1       4.214   3.332  -4.521  1.00  0.00     0.047 A 
ATOM     24  O   UNL     1       4.778   1.254  -5.156  1.00  0.00    -0.467 OA
ATOM     25  C   UNL     1       4.751   3.395  -5.830  1.00  0.00     0.042 A 
ATOM     26  C   UNL     1       5.087   2.107  -6.167  1.00  0.00     0.195 A 
ENDBRANCH  21  22
ENDBRANCH  19  21
ENDBRANCH  15  17
ENDBRANCH   5   8
ENDBRANCH   3   4
ENDBRANCH   2   3
ENDBRANCH   1   2
BRANCH   1  27
ATOM     27  C   UNL     1      -4.104   4.940  -1.175  1.00  0.00     0.002 C 
BRANCH  27  28
ATOM     28  C   UNL     1      -3.224   5.983  -1.868  1.00  0.00     0.021 C 
BRANCH  28  29
ATOM     29  C   UNL     1      -3.818   6.709  -3.071  1.00  0.00     0.116 C 
BRANCH  29  30
ATOM     30  N   UNL     1      -5.067   7.386  -2.780  1.00  0.00    -0.352 N 
ATOM     31  C   UNL     1      -5.484   8.659  -3.084  1.00  0.00     0.251 C 
ATOM     32  H   UNL     1      -5.723   6.846  -2.282  1.00  0.00     0.163 HD
ATOM     33  O   UNL     1      -6.569   9.047  -2.655  1.00  0.00    -0.269 OA
BRANCH  31  34
ATOM     34  C   UNL     1      -4.644   9.583  -3.887  1.00  0.00     0.039 A 
ATOM     35  C   UNL     1      -4.591  10.927  -3.501  1.00  0.00     0.014 A 
ATOM     36  C   UNL     1      -3.949   9.169  -5.028  1.00  0.00     0.014 A 
ATOM     37  C   UNL     1      -3.802  11.835  -4.214  1.00  0.00     0.010 A 
ATOM     38  C   UNL     1      -3.115  10.064  -5.706  1.00  0.00     0.010 A 
ATOM     39  C   UNL     1      -3.030  11.406  -5.305  1.00  0.00    -0.014 A 
BRANCH  39  40
ATOM     40  C   UNL     1      -2.118  12.350  -6.007  1.00  0.00     0.031 A 
ATOM     41  C   UNL     1      -2.373  12.754  -7.435  1.00  0.00     0.074 A 
ATOM     42  C   UNL     1      -1.028  12.816  -5.364  1.00  0.00     0.049 A 
ATOM     43  N   UNL     1      -1.677  13.558  -8.199  1.00  0.00    -0.248 NA
ATOM     44  C   UNL     1      -3.550  12.169  -8.098  1.00  0.00     0.031 C 
ATOM     45  C   UNL     1      -0.636  12.467  -3.996  1.00  0.00     0.029 A 
ATOM     46  N   UNL     1      -0.046  13.683  -5.777  1.00  0.00    -0.354 N 
ATOM     47  C   UNL     1      -2.317  13.564  -9.433  1.00  0.00     0.074 A 
ATOM     48  C   UNL     1      -3.441  12.658  -9.326  1.00  0.00     0.031 C 
ATOM     49  C   UNL     1       0.488  13.129  -3.677  1.00  0.00     0.029 A 
ATOM     50  C   UNL     1       0.914  13.926  -4.822  1.00  0.00     0.049 A 
ATOM     51  H   UNL     1      -0.030  14.091  -6.673  1.00  0.00     0.167 HD
ATOM     52  C   UNL     1      -2.007  14.268 -10.548  1.00  0.00     0.031 A 
ATOM     53  C   UNL     1       2.015  14.702  -4.861  1.00  0.00     0.031 A 
ATOM     54  C   UNL     1      -0.906  15.190 -10.650  1.00  0.00     0.049 A 
ATOM     55  C   UNL     1       2.321  15.489  -6.106  1.00  0.00     0.074 A 
ATOM     56  C   UNL     1      -0.563  16.004 -11.717  1.00  0.00     0.029 A 
ATOM     57  N   UNL     1       0.029  15.423  -9.655  1.00  0.00    -0.354 N 
ATOM     58  N   UNL     1       1.655  15.537  -7.234  1.00  0.00    -0.248 NA
ATOM     59  C   UNL     1       3.522  16.336  -6.075  1.00  0.00     0.031 C 
ATOM     60  C   UNL     1       0.605  16.698 -11.382  1.00  0.00     0.029 A 
ATOM     61  C   UNL     1       0.962  16.350 -10.090  1.00  0.00     0.049 A 
ATOM     62  H   UNL     1       0.030  14.994  -8.769  1.00  0.00     0.167 HD
ATOM     63  C   UNL     1       2.346  16.436  -8.040  1.00  0.00     0.074 A 
ATOM     64  C   UNL     1       3.467  16.922  -7.263  1.00  0.00     0.031 C 
ATOM     65  C   UNL     1       2.075  16.823  -9.310  1.00  0.00     0.031 A 
BRANCH  52  66
ATOM     66  C   UNL     1      -2.875  14.078 -11.764  1.00  0.00    -0.014 A 
ATOM     67  C   UNL     1      -4.163  14.637 -11.829  1.00  0.00     0.010 A 
ATOM     68  C   UNL     1      -2.363  13.402 -12.887  1.00  0.00     0.010 A 
ATOM     69  C   UNL     1      -4.933  14.505 -12.988  1.00  0.00     0.020 A 
ATOM     70  C   UNL     1      -3.122  13.287 -14.055  1.00  0.00     0.020 A 
ATOM     71  C   UNL     1      -4.408  13.830 -14.094  1.00  0.00     0.054 A 
BRANCH  71  72
ATOM     72  S   UNL     1      -5.408  13.718 -15.603  1.00  0.00     0.124 S 
ATOM     73  O   UNL     1      -6.396  12.707 -15.234  1.00  0.00    -0.237 OA
ATOM     74  O   UNL     1      -5.926  15.077 -15.748  1.00  0.00    -0.237 OA
ATOM     75  O   UNL     1      -4.449  13.308 -16.626  1.00  0.00    -0.744 OA
ENDBRANCH  71  72
ENDBRANCH  52  66
BRANCH  53  76
ATOM     76  C   UNL     1       2.915  14.784  -3.680  1.00  0.00    -0.014 A 
ATOM     77  C   UNL     1       2.972  15.955  -2.904  1.00  0.00     0.010 A 
ATOM     78  C   UNL     1       3.738  13.695  -3.339  1.00  0.00     0.010 A 
ATOM     79  C   UNL     1       3.860  16.050  -1.830  1.00  0.00     0.020 A 
ATOM     80  C   UNL     1       4.609  13.777  -2.250  1.00  0.00     0.020 A 
ATOM     81  C   UNL     1       4.678  14.962  -1.513  1.00  0.00     0.054 A 
BRANCH  81  82
ATOM     82  S   UNL     1       5.811  15.092  -0.102  1.00  0.00     0.124 S 
ATOM     83  O   UNL     1       6.911  15.866  -0.669  1.00  0.00    -0.237 OA
ATOM     84  O   UNL     1       5.000  15.782   0.897  1.00  0.00    -0.237 OA
ATOM     85  O   UNL     1       6.121  13.699   0.213  1.00  0.00    -0.744 OA
ENDBRANCH  81  82
ENDBRANCH  53  76
BRANCH  65  86
ATOM     86  C   UNL     1       2.995  17.840  -9.929  1.00  0.00    -0.014 A 
ATOM     87  C   UNL     1       4.292  17.487 -10.342  1.00  0.00     0.010 A 
ATOM     88  C   UNL     1       2.547  19.159 -10.121  1.00  0.00     0.010 A 
ATOM     89  C   UNL     1       5.141  18.447 -10.899  1.00  0.00     0.020 A 
ATOM     90  C   UNL     1       3.385  20.116 -10.701  1.00  0.00     0.020 A 
ATOM     91  C   UNL     1       4.683  19.757 -11.069  1.00  0.00     0.054 A 
BRANCH  91  92
ATOM     92  S   UNL     1       5.793  20.984 -11.815  1.00  0.00     0.124 S 
ATOM     93  O   UNL     1       6.668  21.321 -10.696  1.00  0.00    -0.237 OA
ATOM     94  O   UNL     1       6.421  20.235 -12.901  1.00  0.00    -0.237 OA
ATOM     95  O   UNL     1       4.889  22.049 -12.245  1.00  0.00    -0.744 OA
ENDBRANCH  91  92
ENDBRANCH  65  86
ENDBRANCH  39  40
ENDBRANCH  31  34
ENDBRANCH  29  30
ENDBRANCH  28  29
ENDBRANCH  27  28
ENDBRANCH   1  27
TORSDOF 19
