REMARK SMILES CC[C@H]([NH2+][C@@H](C)c1c(C)noc1C)C(=O)NCCCCCCNC(=O)c1ccc(-c2c3nc(c(-c4ccc(S(=O)(=O)[O-])cc4)c4ccc([nH]4)c(-c4ccc(S(=O)(=O)[O-])cc4)c4nc(c(-c5ccc(S(=O)(=O)[O-])cc5)c5ccc2[nH]5)C=C4)C=C3)cc1
REMARK SMILES IDX 19 1 18 2 17 3 16 4 14 5 15 6 3 8 2 9 1 10 4 11 5 14 6 15
REMARK SMILES IDX 7 16 8 17 12 18 9 19 10 20 11 21 13 22 20 23 21 24 22 25
REMARK SMILES IDX 23 26 24 27 25 29 26 30 27 31 85 32 28 33 84 34 29 35 30 36
REMARK SMILES IDX 31 37 78 38 32 39 83 40 77 41 79 42 33 43 82 44 76 45 75 46
REMARK SMILES IDX 34 48 64 49 45 50 63 51 46 52 49 53 62 54 80 55 47 56 48 57
REMARK SMILES IDX 61 59 81 60 50 61 35 62 36 63 44 64 37 65 43 66 38 67 39 68
REMARK SMILES IDX 40 69 41 70 42 71 65 72 66 73 74 74 67 75 73 76 68 77 69 78
REMARK SMILES IDX 70 79 71 80 72 81 51 82 52 83 60 84 53 85 59 86 54 87 55 88
REMARK SMILES IDX 56 89 57 90 58 91
REMARK H PARENT 16 7 4 12 4 13 23 28 79 47 49 58
REMARK Flexibility Score: inf
ROOT
ATOM      1  C   UNL     1      -3.651  -5.075  -0.604  1.00  0.00     0.002 C 
ENDROOT
BRANCH   1   2
ATOM      2  C   UNL     1      -2.753  -3.841  -0.487  1.00  0.00     0.021 C 
BRANCH   2   3
ATOM      3  C   UNL     1      -1.804  -3.849   0.712  1.00  0.00     0.116 C 
BRANCH   3   4
ATOM      4  N   UNL     1      -0.493  -4.350   0.333  1.00  0.00    -0.351 N 
ATOM      5  C   UNL     1       0.725  -3.729   0.294  1.00  0.00     0.278 C 
ATOM      6  O   UNL     1       1.693  -4.395  -0.087  1.00  0.00    -0.268 OA
ATOM      7  H   UNL     1      -0.479  -5.295   0.058  1.00  0.00     0.163 HD
BRANCH   5   8
ATOM      8  C   UNL     1       0.897  -2.248   0.743  1.00  0.00     0.272 C 
BRANCH   8   9
ATOM      9  C   UNL     1       0.685  -2.160   2.268  1.00  0.00     0.072 C 
ATOM     10  C   UNL     1       1.611  -1.174   2.973  1.00  0.00     0.011 C 
ENDBRANCH   8   9
BRANCH   8  11
ATOM     11  N   UNL     1       0.172  -1.376  -0.198  1.00  0.00    -0.330 N 
ATOM     12  H   UNL     1      -0.688  -1.865  -0.446  1.00  0.00     0.347 HD
ATOM     13  H   UNL     1       0.858  -1.214  -0.935  1.00  0.00     0.347 HD
BRANCH  11  14
ATOM     14  C   UNL     1      -0.213  -0.025   0.191  1.00  0.00     0.216 C 
ATOM     15  C   UNL     1       0.059   0.916  -0.987  1.00  0.00     0.081 C 
BRANCH  14  16
ATOM     16  C   UNL     1      -1.655  -0.005   0.604  1.00  0.00     0.074 A 
ATOM     17  C   UNL     1      -2.830  -0.224  -0.183  1.00  0.00     0.090 A 
ATOM     18  C   UNL     1      -2.174   0.297   1.851  1.00  0.00     0.143 A 
ATOM     19  C   UNL     1      -2.963  -0.478  -1.639  1.00  0.00     0.071 C 
ATOM     20  N   UNL     1      -3.937  -0.182   0.565  1.00  0.00    -0.085 NA
ATOM     21  O   UNL     1      -3.523   0.154   1.833  1.00  0.00    -0.361 OA
ATOM     22  C   UNL     1      -1.601   0.740   3.139  1.00  0.00     0.091 C 
ENDBRANCH  14  16
ENDBRANCH  11  14
ENDBRANCH   8  11
ENDBRANCH   5   8
ENDBRANCH   3   4
ENDBRANCH   2   3
ENDBRANCH   1   2
BRANCH   1  23
ATOM     23  C   UNL     1      -4.730  -5.207   0.480  1.00  0.00     0.002 C 
BRANCH  23  24
ATOM     24  C   UNL     1      -5.617  -3.977   0.720  1.00  0.00     0.021 C 
BRANCH  24  25
ATOM     25  C   UNL     1      -6.318  -3.401  -0.511  1.00  0.00     0.116 C 
BRANCH  25  26
ATOM     26  N   UNL     1      -7.222  -4.355  -1.132  1.00  0.00    -0.352 N 
ATOM     27  C   UNL     1      -8.583  -4.315  -1.300  1.00  0.00     0.251 C 
ATOM     28  H   UNL     1      -6.787  -5.161  -1.492  1.00  0.00     0.163 HD
ATOM     29  O   UNL     1      -9.165  -5.326  -1.696  1.00  0.00    -0.269 OA
BRANCH  27  30
ATOM     30  C   UNL     1      -9.367  -3.094  -1.000  1.00  0.00     0.039 A 
ATOM     31  C   UNL     1     -10.591  -3.234  -0.337  1.00  0.00     0.014 A 
ATOM     32  C   UNL     1      -8.949  -1.826  -1.417  1.00  0.00     0.014 A 
ATOM     33  C   UNL     1     -11.363  -2.106  -0.041  1.00  0.00     0.010 A 
ATOM     34  C   UNL     1      -9.696  -0.695  -1.077  1.00  0.00     0.010 A 
ATOM     35  C   UNL     1     -10.909  -0.822  -0.384  1.00  0.00    -0.014 A 
BRANCH  35  36
ATOM     36  C   UNL     1     -11.685   0.388   0.001  1.00  0.00     0.031 A 
ATOM     37  C   UNL     1     -12.335   1.253  -1.046  1.00  0.00     0.074 A 
ATOM     38  C   UNL     1     -11.771   0.735   1.301  1.00  0.00     0.049 A 
ATOM     39  N   UNL     1     -13.019   2.359  -0.892  1.00  0.00    -0.248 NA
ATOM     40  C   UNL     1     -12.185   0.830  -2.447  1.00  0.00     0.031 C 
ATOM     41  C   UNL     1     -11.161   0.003   2.414  1.00  0.00     0.029 A 
ATOM     42  N   UNL     1     -12.401   1.794   1.907  1.00  0.00    -0.354 N 
ATOM     43  C   UNL     1     -13.372   2.771  -2.173  1.00  0.00     0.074 A 
ATOM     44  C   UNL     1     -12.796   1.814  -3.094  1.00  0.00     0.031 C 
ATOM     45  C   UNL     1     -11.460   0.625   3.566  1.00  0.00     0.029 A 
ATOM     46  C   UNL     1     -12.254   1.815   3.274  1.00  0.00     0.049 A 
ATOM     47  H   UNL     1     -12.910   2.474   1.410  1.00  0.00     0.167 HD
ATOM     48  C   UNL     1     -14.119   3.838  -2.547  1.00  0.00     0.031 A 
ATOM     49  C   UNL     1     -12.698   2.695   4.192  1.00  0.00     0.031 A 
ATOM     50  C   UNL     1     -14.699   4.788  -1.633  1.00  0.00     0.049 A 
ATOM     51  C   UNL     1     -13.517   3.876   3.749  1.00  0.00     0.074 A 
ATOM     52  C   UNL     1     -15.509   5.873  -1.920  1.00  0.00     0.029 A 
ATOM     53  N   UNL     1     -14.532   4.769  -0.258  1.00  0.00    -0.354 N 
ATOM     54  N   UNL     1     -13.886   4.214   2.537  1.00  0.00    -0.248 NA
ATOM     55  C   UNL     1     -13.987   4.789   4.801  1.00  0.00     0.031 C 
ATOM     56  C   UNL     1     -15.798   6.535  -0.722  1.00  0.00     0.029 A 
ATOM     57  C   UNL     1     -15.207   5.834   0.316  1.00  0.00     0.049 A 
ATOM     58  H   UNL     1     -14.010   4.098   0.239  1.00  0.00     0.167 HD
ATOM     59  C   UNL     1     -14.649   5.367   2.684  1.00  0.00     0.074 A 
ATOM     60  C   UNL     1     -14.704   5.658   4.101  1.00  0.00     0.031 C 
ATOM     61  C   UNL     1     -15.251   6.117   1.728  1.00  0.00     0.031 A 
BRANCH  48  62
ATOM     62  C   UNL     1     -14.354   4.041  -4.021  1.00  0.00    -0.014 A 
ATOM     63  C   UNL     1     -15.229   3.202  -4.735  1.00  0.00     0.010 A 
ATOM     64  C   UNL     1     -13.741   5.117  -4.688  1.00  0.00     0.010 A 
ATOM     65  C   UNL     1     -15.459   3.416  -6.097  1.00  0.00     0.020 A 
ATOM     66  C   UNL     1     -13.987   5.348  -6.045  1.00  0.00     0.020 A 
ATOM     67  C   UNL     1     -14.834   4.485  -6.744  1.00  0.00     0.054 A 
BRANCH  67  68
ATOM     68  S   UNL     1     -15.173   4.757  -8.506  1.00  0.00     0.124 S 
ATOM     69  O   UNL     1     -14.397   3.688  -9.130  1.00  0.00    -0.237 OA
ATOM     70  O   UNL     1     -16.624   4.605  -8.582  1.00  0.00    -0.237 OA
ATOM     71  O   UNL     1     -14.679   6.109  -8.750  1.00  0.00    -0.744 OA
ENDBRANCH  67  68
ENDBRANCH  48  62
BRANCH  49  72
ATOM     72  C   UNL     1     -12.382   2.491   5.632  1.00  0.00    -0.014 A 
ATOM     73  C   UNL     1     -13.384   2.096   6.534  1.00  0.00     0.010 A 
ATOM     74  C   UNL     1     -11.073   2.693   6.106  1.00  0.00     0.010 A 
ATOM     75  C   UNL     1     -13.090   1.928   7.890  1.00  0.00     0.020 A 
ATOM     76  C   UNL     1     -10.769   2.502   7.457  1.00  0.00     0.020 A 
ATOM     77  C   UNL     1     -11.784   2.134   8.343  1.00  0.00     0.054 A 
BRANCH  77  78
ATOM     78  S   UNL     1     -11.411   1.871  10.100  1.00  0.00     0.124 S 
ATOM     79  O   UNL     1     -11.942   3.087  10.707  1.00  0.00    -0.237 OA
ATOM     80  O   UNL     1     -12.141   0.642  10.400  1.00  0.00    -0.237 OA
ATOM     81  O   UNL     1      -9.956   1.741  10.122  1.00  0.00    -0.744 OA
ENDBRANCH  77  78
ENDBRANCH  49  72
BRANCH  61  82
ATOM     82  C   UNL     1     -16.043   7.311   2.187  1.00  0.00    -0.014 A 
ATOM     83  C   UNL     1     -15.402   8.474   2.649  1.00  0.00     0.010 A 
ATOM     84  C   UNL     1     -17.448   7.283   2.120  1.00  0.00     0.010 A 
ATOM     85  C   UNL     1     -16.153   9.575   3.070  1.00  0.00     0.020 A 
ATOM     86  C   UNL     1     -18.201   8.390   2.518  1.00  0.00     0.020 A 
ATOM     87  C   UNL     1     -17.549   9.524   3.006  1.00  0.00     0.054 A 
BRANCH  87  88
ATOM     88  S   UNL     1     -18.503  10.977   3.527  1.00  0.00     0.124 S 
ATOM     89  O   UNL     1     -18.432  10.881   4.982  1.00  0.00    -0.237 OA
ATOM     90  O   UNL     1     -17.758  12.084   2.932  1.00  0.00    -0.237 OA
ATOM     91  O   UNL     1     -19.826  10.745   2.950  1.00  0.00    -0.744 OA
ENDBRANCH  87  88
ENDBRANCH  61  82
ENDBRANCH  35  36
ENDBRANCH  27  30
ENDBRANCH  25  26
ENDBRANCH  24  25
ENDBRANCH  23  24
ENDBRANCH   1  23
TORSDOF 20
