REMARK SMILES Cc1cc(Cl)c2c(c1)C=C(C(=O)NCCCCCCNC(=O)c1ccc(-c3c4nc(c(-c5ccc(S(=O)(=O)[O-])cc5)c5ccc([nH]5)c(-c5ccc(S(=O)(=O)[O-])cc5)c5nc(c(-c6ccc(S(=O)(=O)[O-])cc6)c6ccc3[nH]6)C=C5)C=C4)cc1)[C@@H](C(F)(F)F)O2
REMARK SMILES IDX 17 1 16 2 15 3 14 4 13 5 11 6 12 7 10 9 1 10 2 11 3 12 8 13
REMARK SMILES IDX 4 14 7 15 5 16 6 17 9 18 88 19 83 20 84 21 85 22 86 23 87 24
REMARK SMILES IDX 18 25 19 26 20 27 21 28 22 30 23 31 24 32 82 33 25 34 81 35
REMARK SMILES IDX 26 36 27 37 28 38 75 39 29 40 80 41 74 42 76 43 30 44 79 45
REMARK SMILES IDX 73 46 72 47 31 49 61 50 42 51 60 52 43 53 46 54 59 55 77 56
REMARK SMILES IDX 44 57 45 58 58 60 78 61 47 62 32 63 33 64 41 65 34 66 40 67
REMARK SMILES IDX 35 68 36 69 37 70 38 71 39 72 62 73 63 74 71 75 64 76 70 77
REMARK SMILES IDX 65 78 66 79 67 80 68 81 69 82 48 83 49 84 57 85 50 86 56 87
REMARK SMILES IDX 51 88 52 89 53 90 54 91 55 92
REMARK H PARENT 13 8 20 29 76 48 46 59
REMARK Flexibility Score: inf
ROOT
ATOM      1  C   UNL     1       0.132  11.269  -4.382  1.00  0.00     0.002 C 
ENDROOT
BRANCH   1   2
ATOM      2  C   UNL     1      -0.656  10.743  -3.175  1.00  0.00     0.002 C 
BRANCH   2   3
ATOM      3  C   UNL     1      -1.032   9.261  -3.242  1.00  0.00     0.021 C 
BRANCH   3   4
ATOM      4  C   UNL     1       0.164   8.335  -3.438  1.00  0.00     0.116 C 
BRANCH   4   5
ATOM      5  N   UNL     1       0.803   8.009  -2.175  1.00  0.00    -0.352 N 
ATOM      6  C   UNL     1       1.071   6.891  -1.462  1.00  0.00     0.251 C 
ATOM      7  O   UNL     1       1.681   7.077  -0.402  1.00  0.00    -0.270 OA
ATOM      8  H   UNL     1       1.128   8.817  -1.716  1.00  0.00     0.163 HD
BRANCH   6   9
ATOM      9  C   UNL     1       0.691   5.501  -1.857  1.00  0.00     0.067 C 
ATOM     10  C   UNL     1       1.066  -0.305   0.244  1.00  0.00     0.044 C 
ATOM     11  C   UNL     1       0.641   0.797  -0.680  1.00  0.00    -0.049 A 
ATOM     12  C   UNL     1      -0.093   0.515  -1.838  1.00  0.00     0.028 A 
ATOM     13  C   UNL     1       0.981   2.126  -0.391  1.00  0.00     0.015 A 
ATOM     14  C   UNL     1      -0.479   1.547  -2.692  1.00  0.00     0.084 A 
ATOM     15  C   UNL     1       0.599   3.163  -1.249  1.00  0.00     0.019 A 
ATOM     16  Cl  UNL     1      -1.393   1.149  -4.103  1.00  0.00    -0.080 Cl
ATOM     17  C   UNL     1      -0.126   2.868  -2.406  1.00  0.00     0.146 A 
ATOM     18  C   UNL     1       0.914   4.551  -0.931  1.00  0.00     0.025 C 
ATOM     19  O   UNL     1      -0.550   3.848  -3.257  1.00  0.00    -0.474 OA
ATOM     20  C   UNL     1       0.137   5.123  -3.201  1.00  0.00     0.314 C 
BRANCH  20  21
ATOM     21  C   UNL     1       1.199   5.179  -4.315  1.00  0.00     0.429 C 
ATOM     22  F   UNL     1       0.612   5.197  -5.536  1.00  0.00    -0.167 F 
ATOM     23  F   UNL     1       1.968   6.292  -4.244  1.00  0.00    -0.167 F 
ATOM     24  F   UNL     1       2.039   4.120  -4.279  1.00  0.00    -0.167 F 
ENDBRANCH  20  21
ENDBRANCH   6   9
ENDBRANCH   4   5
ENDBRANCH   3   4
ENDBRANCH   2   3
ENDBRANCH   1   2
BRANCH   1  25
ATOM     25  C   UNL     1      -0.471  10.939  -5.752  1.00  0.00     0.021 C 
BRANCH  25  26
ATOM     26  C   UNL     1      -1.897  11.442  -5.953  1.00  0.00     0.116 C 
BRANCH  26  27
ATOM     27  N   UNL     1      -1.980  12.886  -5.812  1.00  0.00    -0.352 N 
ATOM     28  C   UNL     1      -2.404  13.820  -6.717  1.00  0.00     0.251 C 
ATOM     29  H   UNL     1      -1.690  13.242  -4.941  1.00  0.00     0.163 HD
ATOM     30  O   UNL     1      -2.176  15.015  -6.516  1.00  0.00    -0.269 OA
BRANCH  28  31
ATOM     31  C   UNL     1      -3.128  13.397  -7.931  1.00  0.00     0.039 A 
ATOM     32  C   UNL     1      -2.802  13.986  -9.155  1.00  0.00     0.014 A 
ATOM     33  C   UNL     1      -4.150  12.445  -7.856  1.00  0.00     0.014 A 
ATOM     34  C   UNL     1      -3.477  13.592 -10.311  1.00  0.00     0.010 A 
ATOM     35  C   UNL     1      -4.775  12.006  -9.018  1.00  0.00     0.010 A 
ATOM     36  C   UNL     1      -4.456  12.588 -10.254  1.00  0.00    -0.014 A 
BRANCH  36  37
ATOM     37  C   UNL     1      -5.186  12.159 -11.472  1.00  0.00     0.031 A 
ATOM     38  C   UNL     1      -6.661  12.432 -11.593  1.00  0.00     0.074 A 
ATOM     39  C   UNL     1      -4.533  11.496 -12.445  1.00  0.00     0.049 A 
ATOM     40  N   UNL     1      -7.486  12.092 -12.549  1.00  0.00    -0.248 NA
ATOM     41  C   UNL     1      -7.296  13.169 -10.486  1.00  0.00     0.031 C 
ATOM     42  C   UNL     1      -3.107  11.161 -12.433  1.00  0.00     0.029 A 
ATOM     43  N   UNL     1      -4.984  10.986 -13.636  1.00  0.00    -0.354 N 
ATOM     44  C   UNL     1      -8.733  12.564 -12.158  1.00  0.00     0.074 A 
ATOM     45  C   UNL     1      -8.569  13.168 -10.854  1.00  0.00     0.031 C 
ATOM     46  C   UNL     1      -2.796  10.527 -13.575  1.00  0.00     0.029 A 
ATOM     47  C   UNL     1      -4.003  10.373 -14.381  1.00  0.00     0.049 A 
ATOM     48  H   UNL     1      -5.921  11.051 -13.930  1.00  0.00     0.167 HD
ATOM     49  C   UNL     1      -9.905  12.519 -12.833  1.00  0.00     0.031 A 
ATOM     50  C   UNL     1      -4.071   9.753 -15.575  1.00  0.00     0.031 A 
ATOM     51  C   UNL     1     -10.061  11.924 -14.134  1.00  0.00     0.049 A 
ATOM     52  C   UNL     1      -5.394   9.682 -16.288  1.00  0.00     0.074 A 
ATOM     53  C   UNL     1     -11.200  11.858 -14.917  1.00  0.00     0.029 A 
ATOM     54  N   UNL     1      -9.049  11.296 -14.844  1.00  0.00    -0.354 N 
ATOM     55  N   UNL     1      -6.556  10.168 -15.918  1.00  0.00    -0.248 NA
ATOM     56  C   UNL     1      -5.414   8.986 -17.581  1.00  0.00     0.031 C 
ATOM     57  C   UNL     1     -10.889  11.143 -16.078  1.00  0.00     0.029 A 
ATOM     58  C   UNL     1      -9.543  10.817 -16.045  1.00  0.00     0.049 A 
ATOM     59  H   UNL     1      -8.118  11.204 -14.538  1.00  0.00     0.167 HD
ATOM     60  C   UNL     1      -7.441   9.852 -16.943  1.00  0.00     0.074 A 
ATOM     61  C   UNL     1      -6.675   9.154 -17.956  1.00  0.00     0.031 C 
ATOM     62  C   UNL     1      -8.768  10.115 -17.037  1.00  0.00     0.031 A 
BRANCH  49  63
ATOM     63  C   UNL     1     -11.114  13.133 -12.179  1.00  0.00    -0.014 A 
ATOM     64  C   UNL     1     -11.231  14.528 -12.040  1.00  0.00     0.010 A 
ATOM     65  C   UNL     1     -12.173  12.312 -11.750  1.00  0.00     0.010 A 
ATOM     66  C   UNL     1     -12.372  15.089 -11.461  1.00  0.00     0.020 A 
ATOM     67  C   UNL     1     -13.328  12.871 -11.194  1.00  0.00     0.020 A 
ATOM     68  C   UNL     1     -13.415  14.256 -11.044  1.00  0.00     0.054 A 
BRANCH  68  69
ATOM     69  S   UNL     1     -14.900  15.018 -10.334  1.00  0.00     0.124 S 
ATOM     70  O   UNL     1     -14.401  15.520  -9.056  1.00  0.00    -0.237 OA
ATOM     71  O   UNL     1     -15.236  16.040 -11.322  1.00  0.00    -0.237 OA
ATOM     72  O   UNL     1     -15.848  13.911 -10.239  1.00  0.00    -0.744 OA
ENDBRANCH  68  69
ENDBRANCH  49  63
BRANCH  50  73
ATOM     73  C   UNL     1      -2.843   9.164 -16.176  1.00  0.00    -0.014 A 
ATOM     74  C   UNL     1      -2.257   9.747 -17.312  1.00  0.00     0.010 A 
ATOM     75  C   UNL     1      -2.242   8.027 -15.604  1.00  0.00     0.010 A 
ATOM     76  C   UNL     1      -1.099   9.200 -17.873  1.00  0.00     0.020 A 
ATOM     77  C   UNL     1      -1.069   7.493 -16.145  1.00  0.00     0.020 A 
ATOM     78  C   UNL     1      -0.509   8.078 -17.282  1.00  0.00     0.054 A 
BRANCH  78  79
ATOM     79  S   UNL     1       1.024   7.422 -17.996  1.00  0.00     0.124 S 
ATOM     80  O   UNL     1       0.553   6.846 -19.252  1.00  0.00    -0.237 OA
ATOM     81  O   UNL     1       1.850   8.620 -18.119  1.00  0.00    -0.237 OA
ATOM     82  O   UNL     1       1.481   6.458 -16.998  1.00  0.00    -0.744 OA
ENDBRANCH  78  79
ENDBRANCH  50  73
BRANCH  62  83
ATOM     83  C   UNL     1      -9.478   9.658 -18.283  1.00  0.00    -0.014 A 
ATOM     84  C   UNL     1      -9.738   8.296 -18.512  1.00  0.00     0.010 A 
ATOM     85  C   UNL     1      -9.945  10.611 -19.208  1.00  0.00     0.010 A 
ATOM     86  C   UNL     1     -10.426   7.892 -19.659  1.00  0.00     0.020 A 
ATOM     87  C   UNL     1     -10.659  10.213 -20.341  1.00  0.00     0.020 A 
ATOM     88  C   UNL     1     -10.883   8.853 -20.566  1.00  0.00     0.054 A 
BRANCH  88  89
ATOM     89  S   UNL     1     -11.807   8.302 -22.025  1.00  0.00     0.124 S 
ATOM     90  O   UNL     1     -10.762   7.670 -22.826  1.00  0.00    -0.237 OA
ATOM     91  O   UNL     1     -12.796   7.393 -21.451  1.00  0.00    -0.237 OA
ATOM     92  O   UNL     1     -12.354   9.539 -22.578  1.00  0.00    -0.744 OA
ENDBRANCH  88  89
ENDBRANCH  62  83
ENDBRANCH  36  37
ENDBRANCH  28  31
ENDBRANCH  26  27
ENDBRANCH  25  26
ENDBRANCH   1  25
TORSDOF 17
