REMARK SMILES CN(CC(C)(C)C)C(=O)N1CCO[C@@H](CC(=O)NCCCCCCNC(=O)c2ccc(-c3c4nc(c(-c5ccc(S(=O)(=O)[O-])cc5)c5ccc([nH]5)c(-c5ccc(S(=O)(=O)[O-])cc5)c5nc(c(-c6ccc(S(=O)(=O)[O-])cc6)c6ccc3[nH]6)C=C5)C=C4)cc2)C1
REMARK SMILES IDX 20 1 19 2 18 3 16 4 17 5 15 7 14 8 10 9 11 10 88 11 12 12
REMARK SMILES IDX 13 13 8 14 9 15 2 16 1 17 3 18 4 19 5 20 6 21 7 22 21 23
REMARK SMILES IDX 22 24 23 25 24 26 25 27 26 28 27 30 28 31 29 32 87 33 30 34
REMARK SMILES IDX 86 35 31 36 32 37 33 38 80 39 34 40 85 41 79 42 81 43 35 44
REMARK SMILES IDX 84 45 78 46 77 47 36 49 66 50 47 51 65 52 48 53 51 54 64 55
REMARK SMILES IDX 82 56 49 57 50 58 63 60 83 61 52 62 37 63 38 64 46 65 39 66
REMARK SMILES IDX 45 67 40 68 41 69 42 70 43 71 44 72 67 73 68 74 76 75 69 76
REMARK SMILES IDX 75 77 70 78 71 79 72 80 73 81 74 82 53 83 54 84 62 85 55 86
REMARK SMILES IDX 61 87 56 88 57 89 58 90 59 91 60 92
REMARK H PARENT 18 6 25 29 81 48 51 59
REMARK Flexibility Score: inf
ROOT
ATOM      1  C   UNL     1       3.615   5.053   0.499  1.00  0.00     0.021 C 
ENDROOT
BRANCH   1   2
ATOM      2  C   UNL     1       3.676   6.338  -0.336  1.00  0.00     0.116 C 
BRANCH   2   3
ATOM      3  N   UNL     1       4.301   6.068  -1.628  1.00  0.00    -0.356 N 
ATOM      4  C   UNL     1       3.753   5.969  -2.876  1.00  0.00     0.222 C 
ATOM      5  O   UNL     1       4.439   5.505  -3.788  1.00  0.00    -0.275 OA
ATOM      6  H   UNL     1       5.276   5.936  -1.595  1.00  0.00     0.163 HD
BRANCH   4   7
ATOM      7  C   UNL     1       2.342   6.444  -3.135  1.00  0.00     0.133 C 
BRANCH   7   8
ATOM      8  C   UNL     1       1.260   5.354  -3.205  1.00  0.00     0.147 C 
ATOM      9  N   UNL     1       0.194   3.723  -1.562  1.00  0.00    -0.320 N 
ATOM     10  C   UNL     1      -0.829   4.740  -1.378  1.00  0.00     0.150 C 
ATOM     11  C   UNL     1       1.416   4.320  -2.067  1.00  0.00     0.154 C 
ATOM     12  C   UNL     1      -1.114   5.354  -2.739  1.00  0.00     0.182 C 
ATOM     13  O   UNL     1       0.023   6.108  -3.167  1.00  0.00    -0.374 OA
BRANCH   9  14
ATOM     14  C   UNL     1       0.388   2.822  -0.524  1.00  0.00     0.319 C 
ATOM     15  O   UNL     1       0.880   3.181   0.546  1.00  0.00    -0.248 OA
BRANCH  14  16
ATOM     16  N   UNL     1       0.116   1.496  -0.822  1.00  0.00    -0.327 N 
ATOM     17  C   UNL     1       0.653   0.504   0.097  1.00  0.00     0.148 C 
BRANCH  16  18
ATOM     18  C   UNL     1      -0.607   1.020  -2.005  1.00  0.00     0.127 C 
BRANCH  18  19
ATOM     19  C   UNL     1      -2.136   0.776  -1.807  1.00  0.00    -0.020 C 
ATOM     20  C   UNL     1      -2.882   2.070  -1.467  1.00  0.00     0.012 C 
ATOM     21  C   UNL     1      -2.708   0.242  -3.134  1.00  0.00     0.012 C 
ATOM     22  C   UNL     1      -2.432  -0.244  -0.697  1.00  0.00     0.012 C 
ENDBRANCH  18  19
ENDBRANCH  16  18
ENDBRANCH  14  16
ENDBRANCH   9  14
ENDBRANCH   7   8
ENDBRANCH   4   7
ENDBRANCH   2   3
ENDBRANCH   1   2
BRANCH   1  23
ATOM     23  C   UNL     1       4.822   4.827   1.405  1.00  0.00     0.002 C 
BRANCH  23  24
ATOM     24  C   UNL     1       4.842   5.703   2.659  1.00  0.00     0.002 C 
BRANCH  24  25
ATOM     25  C   UNL     1       3.611   5.591   3.567  1.00  0.00     0.021 C 
BRANCH  25  26
ATOM     26  C   UNL     1       3.234   4.170   3.983  1.00  0.00     0.116 C 
BRANCH  26  27
ATOM     27  N   UNL     1       4.305   3.526   4.732  1.00  0.00    -0.352 N 
ATOM     28  C   UNL     1       4.353   3.166   6.052  1.00  0.00     0.251 C 
ATOM     29  H   UNL     1       5.114   3.320   4.211  1.00  0.00     0.163 HD
ATOM     30  O   UNL     1       5.434   2.863   6.565  1.00  0.00    -0.269 OA
BRANCH  28  31
ATOM     31  C   UNL     1       3.122   3.145   6.868  1.00  0.00     0.039 A 
ATOM     32  C   UNL     1       3.148   3.687   8.156  1.00  0.00     0.014 A 
ATOM     33  C   UNL     1       1.951   2.557   6.378  1.00  0.00     0.014 A 
ATOM     34  C   UNL     1       1.986   3.689   8.931  1.00  0.00     0.010 A 
ATOM     35  C   UNL     1       0.778   2.616   7.128  1.00  0.00     0.010 A 
ATOM     36  C   UNL     1       0.784   3.178   8.414  1.00  0.00    -0.014 A 
BRANCH  36  37
ATOM     37  C   UNL     1      -0.475   3.220   9.202  1.00  0.00     0.031 A 
ATOM     38  C   UNL     1      -1.135   1.943   9.645  1.00  0.00     0.074 A 
ATOM     39  C   UNL     1      -1.056   4.407   9.465  1.00  0.00     0.049 A 
ATOM     40  N   UNL     1      -2.265   1.777  10.285  1.00  0.00    -0.248 NA
ATOM     41  C   UNL     1      -0.447   0.686   9.307  1.00  0.00     0.031 C 
ATOM     42  C   UNL     1      -0.536   5.715   9.057  1.00  0.00     0.029 A 
ATOM     43  N   UNL     1      -2.219   4.707  10.130  1.00  0.00    -0.354 N 
ATOM     44  C   UNL     1      -2.431   0.403  10.411  1.00  0.00     0.074 A 
ATOM     45  C   UNL     1      -1.310  -0.221   9.742  1.00  0.00     0.031 C 
ATOM     46  C   UNL     1      -1.364   6.675   9.498  1.00  0.00     0.029 A 
ATOM     47  C   UNL     1      -2.492   6.053  10.185  1.00  0.00     0.049 A 
ATOM     48  H   UNL     1      -2.802   4.022  10.530  1.00  0.00     0.167 HD
ATOM     49  C   UNL     1      -3.418  -0.279  11.040  1.00  0.00     0.031 A 
ATOM     50  C   UNL     1      -3.536   6.715  10.721  1.00  0.00     0.031 A 
ATOM     51  C   UNL     1      -4.529   0.344  11.712  1.00  0.00     0.049 A 
ATOM     52  C   UNL     1      -4.624   5.936  11.410  1.00  0.00     0.074 A 
ATOM     53  C   UNL     1      -5.553  -0.258  12.421  1.00  0.00     0.029 A 
ATOM     54  N   UNL     1      -4.760   1.711  11.757  1.00  0.00    -0.354 N 
ATOM     55  N   UNL     1      -4.733   4.639  11.569  1.00  0.00    -0.248 NA
ATOM     56  C   UNL     1      -5.722   6.712  12.001  1.00  0.00     0.031 C 
ATOM     57  C   UNL     1      -6.430   0.742  12.856  1.00  0.00     0.029 A 
ATOM     58  C   UNL     1      -5.922   1.970  12.465  1.00  0.00     0.049 A 
ATOM     59  H   UNL     1      -4.184   2.395  11.346  1.00  0.00     0.167 HD
ATOM     60  C   UNL     1      -5.899   4.445  12.301  1.00  0.00     0.074 A 
ATOM     61  C   UNL     1      -6.451   5.758  12.565  1.00  0.00     0.031 C 
ATOM     62  C   UNL     1      -6.460   3.283  12.719  1.00  0.00     0.031 A 
BRANCH  49  63
ATOM     63  C   UNL     1      -3.342  -1.784  11.026  1.00  0.00    -0.014 A 
ATOM     64  C   UNL     1      -2.362  -2.467  11.768  1.00  0.00     0.010 A 
ATOM     65  C   UNL     1      -4.284  -2.526  10.291  1.00  0.00     0.010 A 
ATOM     66  C   UNL     1      -2.296  -3.863  11.739  1.00  0.00     0.020 A 
ATOM     67  C   UNL     1      -4.240  -3.924  10.282  1.00  0.00     0.020 A 
ATOM     68  C   UNL     1      -3.234  -4.582  10.992  1.00  0.00     0.054 A 
BRANCH  68  69
ATOM     69  S   UNL     1      -3.135  -6.394  10.985  1.00  0.00     0.124 S 
ATOM     70  O   UNL     1      -1.972  -6.628  10.133  1.00  0.00    -0.237 OA
ATOM     71  O   UNL     1      -2.951  -6.711  12.399  1.00  0.00    -0.237 OA
ATOM     72  O   UNL     1      -4.416  -6.809  10.418  1.00  0.00    -0.744 OA
ENDBRANCH  68  69
ENDBRANCH  49  63
BRANCH  50  73
ATOM     73  C   UNL     1      -3.594   8.200  10.639  1.00  0.00    -0.014 A 
ATOM     74  C   UNL     1      -3.393   8.986  11.788  1.00  0.00     0.010 A 
ATOM     75  C   UNL     1      -3.832   8.837   9.408  1.00  0.00     0.010 A 
ATOM     76  C   UNL     1      -3.445  10.380  11.710  1.00  0.00     0.020 A 
ATOM     77  C   UNL     1      -3.859  10.232   9.321  1.00  0.00     0.020 A 
ATOM     78  C   UNL     1      -3.676  10.995  10.476  1.00  0.00     0.054 A 
BRANCH  78  79
ATOM     79  S   UNL     1      -3.686  12.807  10.387  1.00  0.00     0.124 S 
ATOM     80  O   UNL     1      -4.973  13.134  10.992  1.00  0.00    -0.237 OA
ATOM     81  O   UNL     1      -2.507  13.168  11.172  1.00  0.00    -0.237 OA
ATOM     82  O   UNL     1      -3.577  13.079   8.956  1.00  0.00    -0.744 OA
ENDBRANCH  78  79
ENDBRANCH  50  73
BRANCH  62  83
ATOM     83  C   UNL     1      -7.721   3.378  13.534  1.00  0.00    -0.014 A 
ATOM     84  C   UNL     1      -8.948   3.725  12.942  1.00  0.00     0.010 A 
ATOM     85  C   UNL     1      -7.686   3.061  14.905  1.00  0.00     0.010 A 
ATOM     86  C   UNL     1     -10.113   3.782  13.713  1.00  0.00     0.020 A 
ATOM     87  C   UNL     1      -8.852   3.091  15.673  1.00  0.00     0.020 A 
ATOM     88  C   UNL     1     -10.057   3.465  15.074  1.00  0.00     0.054 A 
BRANCH  88  89
ATOM     89  S   UNL     1     -11.590   3.502  16.043  1.00  0.00     0.124 S 
ATOM     90  O   UNL     1     -11.813   4.936  16.203  1.00  0.00    -0.237 OA
ATOM     91  O   UNL     1     -12.538   2.812  15.172  1.00  0.00    -0.237 OA
ATOM     92  O   UNL     1     -11.242   2.784  17.268  1.00  0.00    -0.744 OA
ENDBRANCH  88  89
ENDBRANCH  62  83
ENDBRANCH  36  37
ENDBRANCH  28  31
ENDBRANCH  26  27
ENDBRANCH  25  26
ENDBRANCH  24  25
ENDBRANCH  23  24
ENDBRANCH   1  23
TORSDOF 21
