REMARK SMILES CCc1c(C(=O)NCC(=O)NCCCCCCNC(=O)c2ccc(-c3c4nc(c(-c5ccc(S(=O)(=O)[O-])cc5)c5ccc([nH]5)c(-c5ccc(S(=O)(=O)[O-])cc5)c5nc(c(-c6ccc(S(=O)(=O)[O-])cc6)c6ccc3[nH]6)C=C5)C=C4)cc2)nnn1-c1ccc(Cl)cc1
REMARK SMILES IDX 14 1 13 2 12 3 11 4 9 5 10 6 8 8 7 9 5 10 6 11 4 13 3 14
REMARK SMILES IDX 83 15 81 16 82 17 2 18 1 19 84 20 85 21 90 22 86 23 89 24
REMARK SMILES IDX 87 25 88 26 15 27 16 28 17 29 18 30 19 31 20 33 21 34 22 35
REMARK SMILES IDX 80 36 23 37 79 38 24 39 25 40 26 41 73 42 27 43 78 44 72 45
REMARK SMILES IDX 74 46 28 47 77 48 71 49 70 50 29 52 59 53 40 54 58 55 41 56
REMARK SMILES IDX 44 57 57 58 75 59 42 60 43 61 56 63 76 64 45 65 30 66 31 67
REMARK SMILES IDX 39 68 32 69 38 70 33 71 34 72 35 73 36 74 37 75 60 76 61 77
REMARK SMILES IDX 69 78 62 79 68 80 63 81 64 82 65 83 66 84 67 85 46 86 47 87
REMARK SMILES IDX 55 88 48 89 54 90 49 91 50 92 51 93 52 94 53 95
REMARK H PARENT 11 7 7 12 18 32 74 51 44 62
REMARK Flexibility Score: inf
ROOT
ATOM      1  C   UNL     1       5.529   4.452  -0.043  1.00  0.00     0.002 C 
ENDROOT
BRANCH   1   2
ATOM      2  C   UNL     1       4.367   4.389  -1.037  1.00  0.00     0.021 C 
BRANCH   2   3
ATOM      3  C   UNL     1       3.305   3.360  -0.675  1.00  0.00     0.116 C 
BRANCH   3   4
ATOM      4  N   UNL     1       2.477   3.771   0.440  1.00  0.00    -0.355 N 
ATOM      5  C   UNL     1       1.171   4.137   0.526  1.00  0.00     0.239 C 
ATOM      6  O   UNL     1       0.724   4.293   1.670  1.00  0.00    -0.273 OA
ATOM      7  H   UNL     1       2.953   3.790   1.302  1.00  0.00     0.163 HD
BRANCH   5   8
ATOM      8  C   UNL     1       0.195   4.208  -0.671  1.00  0.00     0.216 C 
BRANCH   8   9
ATOM      9  N   UNL     1       0.662   4.399  -2.021  1.00  0.00    -0.342 N 
ATOM     10  C   UNL     1       0.919   3.603  -3.104  1.00  0.00     0.274 C 
ATOM     11  O   UNL     1       1.139   4.249  -4.133  1.00  0.00    -0.267 OA
ATOM     12  H   UNL     1       0.843   5.348  -2.214  1.00  0.00     0.164 HD
BRANCH  10  13
ATOM     13  C   UNL     1       1.047   2.133  -3.123  1.00  0.00     0.174 A 
ATOM     14  C   UNL     1       0.818   1.054  -2.257  1.00  0.00     0.077 A 
ATOM     15  N   UNL     1       1.154  -0.054  -3.037  1.00  0.00    -0.217 N 
ATOM     16  N   UNL     1       1.672   1.625  -4.253  1.00  0.00    -0.124 NA
ATOM     17  N   UNL     1       1.844   0.329  -4.118  1.00  0.00    -0.061 NA
BRANCH  14  18
ATOM     18  C   UNL     1       0.411   0.935  -0.822  1.00  0.00     0.055 C 
ATOM     19  C   UNL     1       1.127  -0.111   0.029  1.00  0.00     0.011 C 
ENDBRANCH  14  18
BRANCH  15  20
ATOM     20  C   UNL     1       0.929  -1.426  -2.803  1.00  0.00     0.067 A 
ATOM     21  C   UNL     1       1.979  -2.331  -3.007  1.00  0.00     0.030 A 
ATOM     22  C   UNL     1      -0.318  -1.867  -2.344  1.00  0.00     0.030 A 
ATOM     23  C   UNL     1       1.805  -3.672  -2.662  1.00  0.00     0.023 A 
ATOM     24  C   UNL     1      -0.493  -3.216  -2.032  1.00  0.00     0.023 A 
ATOM     25  C   UNL     1       0.573  -4.106  -2.170  1.00  0.00     0.041 A 
ATOM     26  Cl  UNL     1       0.370  -5.753  -1.714  1.00  0.00    -0.084 Cl
ENDBRANCH  15  20
ENDBRANCH  10  13
ENDBRANCH   8   9
ENDBRANCH   5   8
ENDBRANCH   3   4
ENDBRANCH   2   3
ENDBRANCH   1   2
BRANCH   1  27
ATOM     27  C   UNL     1       6.278   3.130   0.192  1.00  0.00     0.002 C 
BRANCH  27  28
ATOM     28  C   UNL     1       6.796   2.405  -1.059  1.00  0.00     0.021 C 
BRANCH  28  29
ATOM     29  C   UNL     1       7.823   3.200  -1.853  1.00  0.00     0.116 C 
BRANCH  29  30
ATOM     30  N   UNL     1       9.064   3.398  -1.107  1.00  0.00    -0.352 N 
ATOM     31  C   UNL     1      10.208   4.040  -1.520  1.00  0.00     0.251 C 
ATOM     32  H   UNL     1       9.084   3.025  -0.196  1.00  0.00     0.163 HD
ATOM     33  O   UNL     1      11.284   3.802  -0.961  1.00  0.00    -0.269 OA
BRANCH  31  34
ATOM     34  C   UNL     1      10.142   5.013  -2.624  1.00  0.00     0.039 A 
ATOM     35  C   UNL     1      11.170   5.102  -3.566  1.00  0.00     0.014 A 
ATOM     36  C   UNL     1       9.032   5.855  -2.708  1.00  0.00     0.014 A 
ATOM     37  C   UNL     1      11.034   5.989  -4.631  1.00  0.00     0.010 A 
ATOM     38  C   UNL     1       8.841   6.642  -3.820  1.00  0.00     0.010 A 
ATOM     39  C   UNL     1       9.854   6.742  -4.765  1.00  0.00    -0.014 A 
BRANCH  39  40
ATOM     40  C   UNL     1       9.607   7.523  -5.973  1.00  0.00     0.031 A 
ATOM     41  C   UNL     1       9.668   6.723  -7.226  1.00  0.00     0.074 A 
ATOM     42  C   UNL     1       9.163   8.798  -5.977  1.00  0.00     0.049 A 
ATOM     43  N   UNL     1      10.611   6.727  -8.107  1.00  0.00    -0.248 NA
ATOM     44  C   UNL     1       8.657   5.675  -7.443  1.00  0.00     0.031 C 
ATOM     45  C   UNL     1       8.750   9.624  -4.837  1.00  0.00     0.029 A 
ATOM     46  N   UNL     1       8.888   9.604  -7.039  1.00  0.00    -0.354 N 
ATOM     47  C   UNL     1      10.197   5.864  -9.117  1.00  0.00     0.074 A 
ATOM     48  C   UNL     1       9.106   5.103  -8.563  1.00  0.00     0.031 C 
ATOM     49  C   UNL     1       8.072  10.708  -5.282  1.00  0.00     0.029 A 
ATOM     50  C   UNL     1       8.153  10.746  -6.731  1.00  0.00     0.049 A 
ATOM     51  H   UNL     1       9.186   9.396  -7.954  1.00  0.00     0.167 HD
ATOM     52  C   UNL     1      10.620   6.032 -10.402  1.00  0.00     0.031 A 
ATOM     53  C   UNL     1       7.640  11.649  -7.608  1.00  0.00     0.031 A 
ATOM     54  C   UNL     1      11.712   6.973 -10.471  1.00  0.00     0.049 A 
ATOM     55  C   UNL     1       8.411  11.507  -8.867  1.00  0.00     0.074 A 
ATOM     56  C   UNL     1      12.982   7.037  -9.933  1.00  0.00     0.029 A 
ATOM     57  N   UNL     1      11.390   8.257 -10.849  1.00  0.00    -0.354 N 
ATOM     58  N   UNL     1       9.675  11.806  -8.967  1.00  0.00    -0.248 NA
ATOM     59  C   UNL     1       7.899  10.605  -9.885  1.00  0.00     0.031 C 
ATOM     60  C   UNL     1      13.161   8.407  -9.582  1.00  0.00     0.029 A 
ATOM     61  C   UNL     1      12.035   9.119 -10.003  1.00  0.00     0.049 A 
ATOM     62  H   UNL     1      10.801   8.510 -11.595  1.00  0.00     0.167 HD
ATOM     63  C   UNL     1      10.212  10.801  -9.757  1.00  0.00     0.074 A 
ATOM     64  C   UNL     1       9.056  10.150 -10.375  1.00  0.00     0.031 C 
ATOM     65  C   UNL     1      11.515  10.415  -9.617  1.00  0.00     0.031 A 
BRANCH  52  66
ATOM     66  C   UNL     1       9.791   5.703 -11.624  1.00  0.00    -0.014 A 
ATOM     67  C   UNL     1      10.333   5.990 -12.896  1.00  0.00     0.010 A 
ATOM     68  C   UNL     1       8.417   5.393 -11.575  1.00  0.00     0.010 A 
ATOM     69  C   UNL     1       9.525   6.061 -14.037  1.00  0.00     0.020 A 
ATOM     70  C   UNL     1       7.609   5.418 -12.716  1.00  0.00     0.020 A 
ATOM     71  C   UNL     1       8.162   5.789 -13.934  1.00  0.00     0.054 A 
BRANCH  71  72
ATOM     72  S   UNL     1       7.113   5.976 -15.395  1.00  0.00     0.124 S 
ATOM     73  O   UNL     1       7.183   7.414 -15.633  1.00  0.00    -0.237 OA
ATOM     74  O   UNL     1       7.797   5.136 -16.374  1.00  0.00    -0.237 OA
ATOM     75  O   UNL     1       5.814   5.475 -14.949  1.00  0.00    -0.744 OA
ENDBRANCH  71  72
ENDBRANCH  52  66
BRANCH  53  76
ATOM     76  C   UNL     1       6.372  12.422  -7.543  1.00  0.00    -0.014 A 
ATOM     77  C   UNL     1       6.122  13.483  -8.437  1.00  0.00     0.010 A 
ATOM     78  C   UNL     1       5.279  11.918  -6.809  1.00  0.00     0.010 A 
ATOM     79  C   UNL     1       4.817  13.968  -8.646  1.00  0.00     0.020 A 
ATOM     80  C   UNL     1       3.977  12.399  -7.009  1.00  0.00     0.020 A 
ATOM     81  C   UNL     1       3.748  13.404  -7.947  1.00  0.00     0.054 A 
BRANCH  81  82
ATOM     82  S   UNL     1       2.045  13.896  -8.363  1.00  0.00     0.124 S 
ATOM     83  O   UNL     1       1.977  15.258  -7.842  1.00  0.00    -0.237 OA
ATOM     84  O   UNL     1       2.024  13.775  -9.818  1.00  0.00    -0.237 OA
ATOM     85  O   UNL     1       1.221  12.919  -7.652  1.00  0.00    -0.744 OA
ENDBRANCH  81  82
ENDBRANCH  53  76
BRANCH  65  86
ATOM     86  C   UNL     1      12.454  11.300  -8.828  1.00  0.00    -0.014 A 
ATOM     87  C   UNL     1      12.293  11.620  -7.465  1.00  0.00     0.010 A 
ATOM     88  C   UNL     1      13.638  11.697  -9.473  1.00  0.00     0.010 A 
ATOM     89  C   UNL     1      13.284  12.341  -6.778  1.00  0.00     0.020 A 
ATOM     90  C   UNL     1      14.636  12.394  -8.791  1.00  0.00     0.020 A 
ATOM     91  C   UNL     1      14.451  12.723  -7.449  1.00  0.00     0.054 A 
BRANCH  91  92
ATOM     92  S   UNL     1      15.751  13.620  -6.555  1.00  0.00     0.124 S 
ATOM     93  O   UNL     1      15.129  14.917  -6.307  1.00  0.00    -0.237 OA
ATOM     94  O   UNL     1      15.967  12.789  -5.372  1.00  0.00    -0.237 OA
ATOM     95  O   UNL     1      16.870  13.642  -7.497  1.00  0.00    -0.744 OA
ENDBRANCH  91  92
ENDBRANCH  65  86
ENDBRANCH  39  40
ENDBRANCH  31  34
ENDBRANCH  29  30
ENDBRANCH  28  29
ENDBRANCH  27  28
ENDBRANCH   1  27
TORSDOF 20
