REMARK SMILES COc1cccc(-c2nn(-c3cc4c(cc3C(N)=O)OCO4)cc2C(=O)NCCCCCCNC(=O)c2ccc(-c3c4nc(c(-c5ccc(S(=O)(=O)[O-])cc5)c5ccc([nH]5)c(-c5ccc(S(=O)(=O)[O-])cc5)c5nc(c(-c6ccc(S(=O)(=O)[O-])cc6)c6ccc3[nH]6)C=C5)C=C4)cc2)c1
REMARK SMILES IDX 31 1 30 2 29 3 28 4 27 5 25 6 26 7 24 9 8 10 9 11 10 12
REMARK SMILES IDX 23 13 7 14 3 15 4 16 97 17 5 18 6 19 2 20 1 21 11 22 12 23
REMARK SMILES IDX 16 24 13 25 15 26 14 27 22 28 20 29 21 30 17 31 18 32 19 33
REMARK SMILES IDX 32 36 33 37 34 38 35 39 36 41 37 42 38 43 96 44 39 45 95 46
REMARK SMILES IDX 40 47 41 48 42 49 89 50 43 51 94 52 88 53 90 54 44 55 93 56
REMARK SMILES IDX 87 57 86 58 45 60 75 61 56 62 74 63 57 64 60 65 73 66 91 67
REMARK SMILES IDX 58 68 59 69 72 71 92 72 61 73 46 74 47 75 55 76 48 77 54 78
REMARK SMILES IDX 49 79 50 80 51 81 52 82 53 83 76 84 77 85 85 86 78 87 84 88
REMARK SMILES IDX 79 89 80 90 81 91 82 92 83 93 62 94 63 95 71 96 64 97 70 98
REMARK SMILES IDX 65 99 66 100 67 101 68 102 69 103
REMARK H PARENT 27 8 18 34 18 35 34 40 90 59 60 70
REMARK Flexibility Score: inf
ROOT
ATOM      1  C   UNL     1       5.805 -10.307  -0.679  1.00  0.00     0.002 C 
ENDROOT
BRANCH   1   2
ATOM      2  C   UNL     1       5.377  -9.972   0.759  1.00  0.00     0.002 C 
BRANCH   2   3
ATOM      3  C   UNL     1       5.975  -8.682   1.335  1.00  0.00     0.021 C 
BRANCH   3   4
ATOM      4  C   UNL     1       5.690  -7.454   0.472  1.00  0.00     0.116 C 
BRANCH   4   5
ATOM      5  N   UNL     1       4.319  -7.024   0.645  1.00  0.00    -0.352 N 
ATOM      6  C   UNL     1       3.743  -5.954   1.276  1.00  0.00     0.255 C 
ATOM      7  O   UNL     1       2.514  -5.900   1.191  1.00  0.00    -0.269 OA
ATOM      8  H   UNL     1       3.666  -7.625   0.220  1.00  0.00     0.163 HD
BRANCH   6   9
ATOM      9  C   UNL     1       4.525  -4.918   1.938  1.00  0.00     0.086 A 
ATOM     10  C   UNL     1       4.074  -3.628   2.393  1.00  0.00     0.106 A 
ATOM     11  N   UNL     1       5.106  -2.850   2.787  1.00  0.00    -0.167 NA
ATOM     12  N   UNL     1       6.192  -3.594   2.488  1.00  0.00    -0.239 N 
ATOM     13  C   UNL     1       5.852  -4.912   2.307  1.00  0.00     0.129 A 
BRANCH  10  14
ATOM     14  C   UNL     1       2.692  -3.152   2.452  1.00  0.00     0.007 A 
ATOM     15  C   UNL     1       0.951  -1.613   1.758  1.00  0.00     0.119 A 
ATOM     16  C   UNL     1       0.013  -2.355   2.482  1.00  0.00     0.046 A 
ATOM     17  C   UNL     1       2.294  -2.004   1.752  1.00  0.00     0.056 A 
ATOM     18  C   UNL     1       0.404  -3.489   3.191  1.00  0.00     0.005 A 
ATOM     19  C   UNL     1       1.741  -3.879   3.183  1.00  0.00     0.011 A 
BRANCH  15  20
ATOM     20  O   UNL     1       0.444  -0.504   1.134  1.00  0.00    -0.497 OA
ATOM     21  C   UNL     1       1.107  -0.113  -0.062  1.00  0.00     0.278 C 
ENDBRANCH  15  20
ENDBRANCH  10  14
BRANCH  12  22
ATOM     22  C   UNL     1       7.516  -3.096   2.507  1.00  0.00     0.081 A 
ATOM     23  C   UNL     1       7.921  -2.343   3.625  1.00  0.00     0.079 A 
ATOM     24  C   UNL     1       8.445  -3.428   1.473  1.00  0.00     0.069 A 
ATOM     25  C   UNL     1       9.258  -2.014   3.717  1.00  0.00     0.167 A 
ATOM     26  C   UNL     1       9.807  -3.148   1.665  1.00  0.00     0.066 A 
ATOM     27  C   UNL     1      10.173  -2.430   2.779  1.00  0.00     0.166 A 
ATOM     28  O   UNL     1       9.843  -1.279   4.700  1.00  0.00    -0.454 OA
ATOM     29  O   UNL     1      11.437  -2.012   3.052  1.00  0.00    -0.454 OA
ATOM     30  C   UNL     1      11.193  -1.169   4.197  1.00  0.00     0.468 C 
BRANCH  24  31
ATOM     31  C   UNL     1       8.000  -3.875   0.104  1.00  0.00     0.251 C 
ATOM     32  N   UNL     1       8.874  -3.712  -0.940  1.00  0.00    -0.366 N 
ATOM     33  O   UNL     1       6.887  -4.301  -0.155  1.00  0.00    -0.269 OA
ATOM     34  H   UNL     1       9.782  -3.370  -0.773  1.00  0.00     0.159 HD
ATOM     35  H   UNL     1       8.593  -3.936  -1.856  1.00  0.00     0.159 HD
ENDBRANCH  24  31
ENDBRANCH  12  22
ENDBRANCH   6   9
ENDBRANCH   4   5
ENDBRANCH   3   4
ENDBRANCH   2   3
ENDBRANCH   1   2
BRANCH   1  36
ATOM     36  C   UNL     1       7.317 -10.280  -0.948  1.00  0.00     0.021 C 
BRANCH  36  37
ATOM     37  C   UNL     1       8.083 -11.362  -0.200  1.00  0.00     0.116 C 
BRANCH  37  38
ATOM     38  N   UNL     1       7.747 -12.693  -0.694  1.00  0.00    -0.352 N 
ATOM     39  C   UNL     1       8.203 -13.911  -0.252  1.00  0.00     0.251 C 
ATOM     40  H   UNL     1       7.111 -12.722  -1.445  1.00  0.00     0.163 HD
ATOM     41  O   UNL     1       8.149 -14.896  -0.990  1.00  0.00    -0.269 OA
BRANCH  39  42
ATOM     42  C   UNL     1       8.753 -14.032   1.108  1.00  0.00     0.039 A 
ATOM     43  C   UNL     1       9.868 -14.838   1.352  1.00  0.00     0.014 A 
ATOM     44  C   UNL     1       8.137 -13.336   2.149  1.00  0.00     0.014 A 
ATOM     45  C   UNL     1      10.406 -14.878   2.635  1.00  0.00     0.010 A 
ATOM     46  C   UNL     1       8.731 -13.289   3.389  1.00  0.00     0.010 A 
ATOM     47  C   UNL     1       9.845 -14.082   3.647  1.00  0.00    -0.014 A 
BRANCH  47  48
ATOM     48  C   UNL     1      10.543 -13.921   4.923  1.00  0.00     0.031 A 
ATOM     49  C   UNL     1      11.922 -13.379   4.762  1.00  0.00     0.074 A 
ATOM     50  C   UNL     1       9.924 -13.991   6.123  1.00  0.00     0.049 A 
ATOM     51  N   UNL     1      13.048 -13.980   4.965  1.00  0.00    -0.248 NA
ATOM     52  C   UNL     1      12.066 -12.063   4.107  1.00  0.00     0.031 C 
ATOM     53  C   UNL     1       8.483 -14.164   6.356  1.00  0.00     0.029 A 
ATOM     54  N   UNL     1      10.406 -13.786   7.384  1.00  0.00    -0.354 N 
ATOM     55  C   UNL     1      14.027 -13.012   4.739  1.00  0.00     0.074 A 
ATOM     56  C   UNL     1      13.390 -11.973   3.977  1.00  0.00     0.031 C 
ATOM     57  C   UNL     1       8.182 -13.803   7.623  1.00  0.00     0.029 A 
ATOM     58  C   UNL     1       9.418 -13.546   8.339  1.00  0.00     0.049 A 
ATOM     59  H   UNL     1      11.366 -13.807   7.599  1.00  0.00     0.167 HD
ATOM     60  C   UNL     1      15.150 -12.968   5.513  1.00  0.00     0.031 A 
ATOM     61  C   UNL     1       9.590 -13.137   9.622  1.00  0.00     0.031 A 
ATOM     62  C   UNL     1      15.294 -14.188   6.266  1.00  0.00     0.049 A 
ATOM     63  C   UNL     1      10.985 -13.454  10.000  1.00  0.00     0.074 A 
ATOM     64  C   UNL     1      15.599 -15.504   6.004  1.00  0.00     0.029 A 
ATOM     65  N   UNL     1      14.681 -14.141   7.492  1.00  0.00    -0.354 N 
ATOM     66  N   UNL     1      11.444 -14.673  10.081  1.00  0.00    -0.248 NA
ATOM     67  C   UNL     1      11.996 -12.407   9.943  1.00  0.00     0.031 C 
ATOM     68  C   UNL     1      14.964 -16.264   7.031  1.00  0.00     0.029 A 
ATOM     69  C   UNL     1      14.344 -15.392   7.925  1.00  0.00     0.049 A 
ATOM     70  H   UNL     1      14.507 -13.313   7.995  1.00  0.00     0.167 HD
ATOM     71  C   UNL     1      12.753 -14.575   9.650  1.00  0.00     0.074 A 
ATOM     72  C   UNL     1      13.083 -13.158   9.746  1.00  0.00     0.031 C 
ATOM     73  C   UNL     1      13.337 -15.589   8.950  1.00  0.00     0.031 A 
BRANCH  60  74
ATOM     74  C   UNL     1      15.764 -11.673   6.036  1.00  0.00    -0.014 A 
ATOM     75  C   UNL     1      16.808 -11.764   6.984  1.00  0.00     0.010 A 
ATOM     76  C   UNL     1      15.174 -10.403   5.880  1.00  0.00     0.010 A 
ATOM     77  C   UNL     1      17.170 -10.675   7.791  1.00  0.00     0.020 A 
ATOM     78  C   UNL     1      15.547  -9.302   6.656  1.00  0.00     0.020 A 
ATOM     79  C   UNL     1      16.522  -9.452   7.630  1.00  0.00     0.054 A 
BRANCH  79  80
ATOM     80  S   UNL     1      16.922  -8.074   8.731  1.00  0.00     0.124 S 
ATOM     81  O   UNL     1      16.465  -8.577  10.021  1.00  0.00    -0.237 OA
ATOM     82  O   UNL     1      18.369  -7.961   8.566  1.00  0.00    -0.237 OA
ATOM     83  O   UNL     1      16.150  -6.963   8.178  1.00  0.00    -0.744 OA
ENDBRANCH  79  80
ENDBRANCH  60  74
BRANCH  61  84
ATOM     84  C   UNL     1       8.711 -12.287  10.467  1.00  0.00    -0.014 A 
ATOM     85  C   UNL     1       8.906 -12.195  11.860  1.00  0.00     0.010 A 
ATOM     86  C   UNL     1       7.858 -11.340   9.866  1.00  0.00     0.010 A 
ATOM     87  C   UNL     1       8.329 -11.152  12.608  1.00  0.00     0.020 A 
ATOM     88  C   UNL     1       7.274 -10.302  10.606  1.00  0.00     0.020 A 
ATOM     89  C   UNL     1       7.535 -10.197  11.970  1.00  0.00     0.054 A 
BRANCH  89  90
ATOM     90  S   UNL     1       6.947  -8.749  12.903  1.00  0.00     0.124 S 
ATOM     91  O   UNL     1       5.954  -9.337  13.797  1.00  0.00    -0.237 OA
ATOM     92  O   UNL     1       8.167  -8.266  13.544  1.00  0.00    -0.237 OA
ATOM     93  O   UNL     1       6.405  -7.871  11.868  1.00  0.00    -0.744 OA
ENDBRANCH  89  90
ENDBRANCH  61  84
BRANCH  73  94
ATOM     94  C   UNL     1      12.819 -16.985   9.151  1.00  0.00    -0.014 A 
ATOM     95  C   UNL     1      11.530 -17.427   8.805  1.00  0.00     0.010 A 
ATOM     96  C   UNL     1      13.745 -17.922   9.644  1.00  0.00     0.010 A 
ATOM     97  C   UNL     1      11.177 -18.777   8.966  1.00  0.00     0.020 A 
ATOM     98  C   UNL     1      13.408 -19.265   9.786  1.00  0.00     0.020 A 
ATOM     99  C   UNL     1      12.121 -19.687   9.456  1.00  0.00     0.054 A 
BRANCH  99 100
ATOM    100  S   UNL     1      11.680 -21.437   9.633  1.00  0.00     0.124 S 
ATOM    101  O   UNL     1      10.707 -21.410  10.722  1.00  0.00    -0.237 OA
ATOM    102  O   UNL     1      11.143 -21.771   8.316  1.00  0.00    -0.237 OA
ATOM    103  O   UNL     1      12.950 -22.086   9.957  1.00  0.00    -0.744 OA
ENDBRANCH  99 100
ENDBRANCH  73  94
ENDBRANCH  47  48
ENDBRANCH  39  42
ENDBRANCH  37  38
ENDBRANCH  36  37
ENDBRANCH   1  36
TORSDOF 20
