REMARK SMILES C/C(=C/c1cccc(OCC(=O)NCCCCCCNC(=O)c2ccc(-c3c4nc(c(-c5ccc(S(=O)(=O)[O-])cc5)c5ccc([nH]5)c(-c5ccc(S(=O)(=O)[O-])cc5)c5nc(c(-c6ccc(S(=O)(=O)[O-])cc6)c6ccc3[nH]6)C=C5)C=C4)cc2)c1)c1nc2sccc2c(=O)[nH]1
REMARK SMILES IDX 16 1 15 2 14 3 13 4 11 5 12 6 10 8 9 9 8 10 4 11 5 12 83 13
REMARK SMILES IDX 6 14 7 15 3 16 1 17 2 18 84 19 85 20 93 21 86 22 91 23 87 25
REMARK SMILES IDX 90 26 92 27 88 28 89 29 17 30 18 31 19 32 20 33 21 34 22 36
REMARK SMILES IDX 23 37 24 38 82 39 25 40 81 41 26 42 27 43 28 44 75 45 29 46
REMARK SMILES IDX 80 47 74 48 76 49 30 50 79 51 73 52 72 53 31 55 61 56 42 57
REMARK SMILES IDX 60 58 43 59 46 60 59 61 77 62 44 63 45 64 58 66 78 67 47 68
REMARK SMILES IDX 32 69 33 70 41 71 34 72 40 73 35 74 36 75 37 76 38 77 39 78
REMARK SMILES IDX 62 79 63 80 71 81 64 82 70 83 65 84 66 85 67 86 68 87 69 88
REMARK SMILES IDX 48 89 49 90 57 91 50 92 56 93 51 94 52 95 53 96 54 97 55 98
REMARK H PARENT 13 7 93 24 20 35 76 54 46 65
REMARK Flexibility Score: inf
ROOT
ATOM      1  C   UNL     1      -0.799   2.445  -7.606  1.00  0.00     0.002 C 
ENDROOT
BRANCH   1   2
ATOM      2  C   UNL     1      -0.651   0.989  -8.058  1.00  0.00     0.021 C 
BRANCH   2   3
ATOM      3  C   UNL     1       0.777   0.503  -8.310  1.00  0.00     0.116 C 
BRANCH   3   4
ATOM      4  N   UNL     1       1.638   0.574  -7.145  1.00  0.00    -0.353 N 
ATOM      5  C   UNL     1       2.173  -0.461  -6.431  1.00  0.00     0.257 C 
ATOM      6  O   UNL     1       3.081  -0.235  -5.630  1.00  0.00    -0.271 OA
ATOM      7  H   UNL     1       1.866   1.479  -6.830  1.00  0.00     0.163 HD
BRANCH   5   8
ATOM      8  C   UNL     1       1.681  -1.890  -6.667  1.00  0.00     0.329 C 
BRANCH   8   9
ATOM      9  O   UNL     1       0.278  -2.086  -6.701  1.00  0.00    -0.484 OA
BRANCH   9  10
ATOM     10  C   UNL     1      -0.428  -1.988  -5.535  1.00  0.00     0.120 A 
ATOM     11  C   UNL     1      -0.784  -1.587  -3.166  1.00  0.00    -0.022 A 
ATOM     12  C   UNL     1      -2.148  -1.853  -3.328  1.00  0.00     0.008 A 
ATOM     13  C   UNL     1       0.077  -1.666  -4.274  1.00  0.00     0.054 A 
ATOM     14  C   UNL     1      -2.653  -2.174  -4.586  1.00  0.00     0.004 A 
ATOM     15  C   UNL     1      -1.795  -2.239  -5.681  1.00  0.00     0.046 A 
BRANCH  11  16
ATOM     16  C   UNL     1      -0.276  -1.280  -1.822  1.00  0.00     0.015 C 
ATOM     17  C   UNL     1       0.930   0.036  -0.067  1.00  0.00     0.048 C 
ATOM     18  C   UNL     1       0.377  -0.165  -1.444  1.00  0.00    -0.008 C 
BRANCH  18  19
ATOM     19  C   UNL     1       0.630   0.960  -2.384  1.00  0.00     0.137 A 
ATOM     20  N   UNL     1       1.831   1.315  -2.721  1.00  0.00    -0.219 NA
ATOM     21  N   UNL     1      -0.517   1.599  -2.804  1.00  0.00    -0.306 N 
ATOM     22  C   UNL     1       1.885   2.350  -3.601  1.00  0.00     0.131 A 
ATOM     23  C   UNL     1      -0.509   2.693  -3.639  1.00  0.00     0.259 A 
ATOM     24  H   UNL     1      -1.385   1.256  -2.492  1.00  0.00     0.171 HD
ATOM     25  S   UNL     1       3.359   2.903  -4.265  1.00  0.00    -0.124 S 
ATOM     26  C   UNL     1       0.815   3.070  -4.084  1.00  0.00     0.077 A 
ATOM     27  O   UNL     1      -1.533   3.279  -3.962  1.00  0.00    -0.269 OA
ATOM     28  C   UNL     1       2.563   4.081  -5.221  1.00  0.00     0.068 A 
ATOM     29  C   UNL     1       1.204   4.094  -4.996  1.00  0.00     0.028 A 
ENDBRANCH  18  19
ENDBRANCH  11  16
ENDBRANCH   9  10
ENDBRANCH   8   9
ENDBRANCH   5   8
ENDBRANCH   3   4
ENDBRANCH   2   3
ENDBRANCH   1   2
BRANCH   1  30
ATOM     30  C   UNL     1      -0.028   3.497  -8.408  1.00  0.00     0.002 C 
BRANCH  30  31
ATOM     31  C   UNL     1      -0.356   3.556  -9.898  1.00  0.00     0.021 C 
BRANCH  31  32
ATOM     32  C   UNL     1      -1.792   3.950 -10.223  1.00  0.00     0.116 C 
BRANCH  32  33
ATOM     33  N   UNL     1      -2.105   5.327  -9.864  1.00  0.00    -0.352 N 
ATOM     34  C   UNL     1      -2.813   6.256 -10.592  1.00  0.00     0.251 C 
ATOM     35  H   UNL     1      -1.767   5.631  -8.991  1.00  0.00     0.163 HD
ATOM     36  O   UNL     1      -2.899   7.419 -10.215  1.00  0.00    -0.269 OA
BRANCH  34  37
ATOM     37  C   UNL     1      -3.439   5.834 -11.864  1.00  0.00     0.039 A 
ATOM     38  C   UNL     1      -3.162   6.546 -13.033  1.00  0.00     0.014 A 
ATOM     39  C   UNL     1      -4.234   4.686 -11.904  1.00  0.00     0.014 A 
ATOM     40  C   UNL     1      -3.610   6.053 -14.262  1.00  0.00     0.010 A 
ATOM     41  C   UNL     1      -4.618   4.162 -13.133  1.00  0.00     0.010 A 
ATOM     42  C   UNL     1      -4.300   4.833 -14.325  1.00  0.00    -0.014 A 
BRANCH  42  43
ATOM     43  C   UNL     1      -4.699   4.217 -15.617  1.00  0.00     0.031 A 
ATOM     44  C   UNL     1      -6.157   4.000 -15.917  1.00  0.00     0.074 A 
ATOM     45  C   UNL     1      -3.757   3.755 -16.464  1.00  0.00     0.049 A 
ATOM     46  N   UNL     1      -6.707   3.335 -16.899  1.00  0.00    -0.248 NA
ATOM     47  C   UNL     1      -7.121   4.580 -14.967  1.00  0.00     0.031 C 
ATOM     48  C   UNL     1      -2.309   3.879 -16.275  1.00  0.00     0.029 A 
ATOM     49  N   UNL     1      -3.878   3.066 -17.646  1.00  0.00    -0.354 N 
ATOM     50  C   UNL     1      -8.077   3.391 -16.670  1.00  0.00     0.074 A 
ATOM     51  C   UNL     1      -8.271   4.119 -15.435  1.00  0.00     0.031 C 
ATOM     52  C   UNL     1      -1.679   3.298 -17.309  1.00  0.00     0.029 A 
ATOM     53  C   UNL     1      -2.672   2.717 -18.209  1.00  0.00     0.049 A 
ATOM     54  H   UNL     1      -4.746   2.843 -18.053  1.00  0.00     0.167 HD
ATOM     55  C   UNL     1      -9.083   2.892 -17.426  1.00  0.00     0.031 A 
ATOM     56  C   UNL     1      -2.394   1.995 -19.312  1.00  0.00     0.031 A 
ATOM     57  C   UNL     1      -8.885   2.187 -18.663  1.00  0.00     0.049 A 
ATOM     58  C   UNL     1      -3.528   1.441 -20.133  1.00  0.00     0.074 A 
ATOM     59  C   UNL     1      -9.842   1.689 -19.530  1.00  0.00     0.029 A 
ATOM     60  N   UNL     1      -7.648   1.883 -19.212  1.00  0.00    -0.354 N 
ATOM     61  N   UNL     1      -4.819   1.545 -19.925  1.00  0.00    -0.248 NA
ATOM     62  C   UNL     1      -3.171   0.679 -21.338  1.00  0.00     0.031 C 
ATOM     63  C   UNL     1      -9.182   1.044 -20.581  1.00  0.00     0.029 A 
ATOM     64  C   UNL     1      -7.816   1.190 -20.397  1.00  0.00     0.049 A 
ATOM     65  H   UNL     1      -6.780   2.125 -18.816  1.00  0.00     0.167 HD
ATOM     66  C   UNL     1      -5.427   0.892 -20.991  1.00  0.00     0.074 A 
ATOM     67  C   UNL     1      -4.365   0.397 -21.843  1.00  0.00     0.031 C 
ATOM     68  C   UNL     1      -6.748   0.723 -21.244  1.00  0.00     0.031 A 
BRANCH  55  69
ATOM     69  C   UNL     1     -10.490   3.087 -16.928  1.00  0.00    -0.014 A 
ATOM     70  C   UNL     1     -11.089   4.360 -16.922  1.00  0.00     0.010 A 
ATOM     71  C   UNL     1     -11.236   1.978 -16.491  1.00  0.00     0.010 A 
ATOM     72  C   UNL     1     -12.390   4.527 -16.444  1.00  0.00     0.020 A 
ATOM     73  C   UNL     1     -12.549   2.136 -16.039  1.00  0.00     0.020 A 
ATOM     74  C   UNL     1     -13.111   3.414 -16.001  1.00  0.00     0.054 A 
BRANCH  74  75
ATOM     75  S   UNL     1     -14.804   3.658 -15.398  1.00  0.00     0.124 S 
ATOM     76  O   UNL     1     -14.572   4.281 -14.097  1.00  0.00    -0.237 OA
ATOM     77  O   UNL     1     -15.385   4.530 -16.416  1.00  0.00    -0.237 OA
ATOM     78  O   UNL     1     -15.354   2.306 -15.352  1.00  0.00    -0.744 OA
ENDBRANCH  74  75
ENDBRANCH  55  69
BRANCH  56  79
ATOM     79  C   UNL     1      -0.979   1.760 -19.711  1.00  0.00    -0.014 A 
ATOM     80  C   UNL     1      -0.442   2.404 -20.840  1.00  0.00     0.010 A 
ATOM     81  C   UNL     1      -0.155   0.904 -18.957  1.00  0.00     0.010 A 
ATOM     82  C   UNL     1       0.887   2.184 -21.217  1.00  0.00     0.020 A 
ATOM     83  C   UNL     1       1.181   0.702 -19.316  1.00  0.00     0.020 A 
ATOM     84  C   UNL     1       1.691   1.336 -20.451  1.00  0.00     0.054 A 
BRANCH  84  85
ATOM     85  S   UNL     1       3.426   1.107 -20.929  1.00  0.00     0.124 S 
ATOM     86  O   UNL     1       3.307   0.246 -22.101  1.00  0.00    -0.237 OA
ATOM     87  O   UNL     1       3.865   2.476 -21.189  1.00  0.00    -0.237 OA
ATOM     88  O   UNL     1       4.025   0.483 -19.750  1.00  0.00    -0.744 OA
ENDBRANCH  84  85
ENDBRANCH  56  79
BRANCH  68  89
ATOM     89  C   UNL     1      -7.139   0.022 -22.516  1.00  0.00    -0.014 A 
ATOM     90  C   UNL     1      -7.033  -1.374 -22.642  1.00  0.00     0.010 A 
ATOM     91  C   UNL     1      -7.728   0.765 -23.556  1.00  0.00     0.010 A 
ATOM     92  C   UNL     1      -7.510  -2.014 -23.788  1.00  0.00     0.020 A 
ATOM     93  C   UNL     1      -8.227   0.125 -24.693  1.00  0.00     0.020 A 
ATOM     94  C   UNL     1      -8.112  -1.262 -24.803  1.00  0.00     0.054 A 
BRANCH  94  95
ATOM     95  S   UNL     1      -8.810  -2.128 -26.236  1.00  0.00     0.124 S 
ATOM     96  O   UNL     1      -7.611  -2.516 -26.972  1.00  0.00    -0.237 OA
ATOM     97  O   UNL     1      -9.551  -3.225 -25.617  1.00  0.00    -0.237 OA
ATOM     98  O   UNL     1      -9.639  -1.113 -26.884  1.00  0.00    -0.744 OA
ENDBRANCH  94  95
ENDBRANCH  68  89
ENDBRANCH  42  43
ENDBRANCH  34  37
ENDBRANCH  32  33
ENDBRANCH  31  32
ENDBRANCH  30  31
ENDBRANCH   1  30
TORSDOF 20
