REMARK SMILES NC(=O)[C@@H]1CCC[N@@H+]1[C@@H](C(=O)NCCCCCCNC(=O)c1ccc(-c2c3nc(c(-c4ccc(S(=O)(=O)[O-])cc4)c4ccc([nH]4)c(-c4ccc(S(=O)(=O)[O-])cc4)c4nc(c(-c5ccc(S(=O)(=O)[O-])cc5)c5ccc2[nH]5)C=C4)C=C3)cc1)c1c[nH]c2cc(OCc3ccccc3)ccc12
REMARK SMILES IDX 15 1 14 2 13 3 12 4 10 5 11 6 9 8 8 9 4 10 5 11 6 12 7 13
REMARK SMILES IDX 2 15 1 16 3 19 82 20 83 21 98 22 84 23 85 24 97 25 86 27
REMARK SMILES IDX 96 28 87 29 88 30 89 31 90 32 91 33 95 34 92 35 94 36 93 37
REMARK SMILES IDX 16 38 17 39 18 40 19 41 20 42 21 44 22 45 23 46 81 47 24 48
REMARK SMILES IDX 80 49 25 50 26 51 27 52 74 53 28 54 79 55 73 56 75 57 29 58
REMARK SMILES IDX 78 59 72 60 71 61 30 63 60 64 41 65 59 66 42 67 45 68 58 69
REMARK SMILES IDX 76 70 43 71 44 72 57 74 77 75 46 76 31 77 32 78 40 79 33 80
REMARK SMILES IDX 39 81 34 82 35 83 36 84 37 85 38 86 61 87 62 88 70 89 63 90
REMARK SMILES IDX 69 91 64 92 65 93 66 94 67 95 68 96 47 97 48 98 56 99 49 100
REMARK SMILES IDX 55 101 50 102 51 103 52 104 53 105 54 106
REMARK H PARENT 12 7 8 14 1 17 1 18 84 26 19 43 75 62 45 73
REMARK Flexibility Score: inf
ROOT
ATOM      1  C   UNL     1       1.410  -4.075  -0.436  1.00  0.00     0.002 C 
ENDROOT
BRANCH   1   2
ATOM      2  C   UNL     1       1.019  -2.613  -0.670  1.00  0.00     0.021 C 
BRANCH   2   3
ATOM      3  C   UNL     1       2.012  -1.578  -0.108  1.00  0.00     0.116 C 
BRANCH   3   4
ATOM      4  N   UNL     1       3.269  -1.542  -0.833  1.00  0.00    -0.351 N 
ATOM      5  C   UNL     1       3.958  -0.678  -1.631  1.00  0.00     0.283 C 
ATOM      6  O   UNL     1       5.028  -1.194  -1.984  1.00  0.00    -0.268 OA
ATOM      7  H   UNL     1       3.767  -2.383  -0.714  1.00  0.00     0.163 HD
BRANCH   5   8
ATOM      8  C   UNL     1       3.577   0.817  -1.980  1.00  0.00     0.308 C 
BRANCH   8   9
ATOM      9  N   UNL     1       2.457   1.096  -2.998  1.00  0.00    -0.311 N 
ATOM     10  C   UNL     1       1.166   0.363  -2.950  1.00  0.00     0.275 C 
ATOM     11  C   UNL     1       1.449  -0.969  -3.633  1.00  0.00     0.081 C 
ATOM     12  C   UNL     1       2.478  -0.624  -4.692  1.00  0.00     0.068 C 
ATOM     13  C   UNL     1       2.758   0.837  -4.424  1.00  0.00     0.264 C 
ATOM     14  H   UNL     1       2.387   2.066  -2.689  1.00  0.00     0.349 HD
BRANCH  10  15
ATOM     15  C   UNL     1       0.290   0.475  -1.712  1.00  0.00     0.275 C 
ATOM     16  N   UNL     1       0.511   1.575  -0.926  1.00  0.00    -0.365 N 
ATOM     17  H   UNL     1      -0.020   1.711  -0.108  1.00  0.00     0.159 HD
ATOM     18  H   UNL     1       1.202   2.230  -1.179  1.00  0.00     0.159 HD
ATOM     19  O   UNL     1      -0.628  -0.277  -1.470  1.00  0.00    -0.268 OA
ENDBRANCH  10  15
ENDBRANCH   8   9
BRANCH   8  20
ATOM     20  C   UNL     1       4.841   1.680  -2.459  1.00  0.00     0.044 A 
ATOM     21  C   UNL     1       4.853   3.052  -2.717  1.00  0.00     0.094 A 
ATOM     22  C   UNL     1       5.989   1.266  -3.234  1.00  0.00     0.009 A 
ATOM     23  N   UNL     1       5.119   3.097  -4.079  1.00  0.00    -0.361 N 
ATOM     24  C   UNL     1       5.800   1.956  -4.428  1.00  0.00     0.050 A 
ATOM     25  C   UNL     1       6.972   0.259  -3.227  1.00  0.00     0.015 A 
ATOM     26  H   UNL     1       4.862   3.824  -4.691  1.00  0.00     0.166 HD
ATOM     27  C   UNL     1       6.124   1.378  -5.654  1.00  0.00     0.073 A 
ATOM     28  C   UNL     1       7.500  -0.205  -4.443  1.00  0.00     0.047 A 
ATOM     29  C   UNL     1       6.969   0.263  -5.639  1.00  0.00     0.121 A 
BRANCH  29  30
ATOM     30  O   UNL     1       7.095  -0.387  -6.838  1.00  0.00    -0.489 OA
BRANCH  30  31
ATOM     31  C   UNL     1       8.423  -0.640  -7.296  1.00  0.00     0.265 C 
BRANCH  31  32
ATOM     32  C   UNL     1       9.021   0.518  -8.071  1.00  0.00    -0.011 A 
ATOM     33  C   UNL     1      10.281   0.373  -8.662  1.00  0.00     0.007 A 
ATOM     34  C   UNL     1       8.366   1.749  -8.219  1.00  0.00     0.007 A 
ATOM     35  C   UNL     1      10.877   1.443  -9.334  1.00  0.00     0.000 A 
ATOM     36  C   UNL     1       8.966   2.826  -8.862  1.00  0.00     0.000 A 
ATOM     37  C   UNL     1      10.228   2.674  -9.418  1.00  0.00     0.000 A 
ENDBRANCH  31  32
ENDBRANCH  30  31
ENDBRANCH  29  30
ENDBRANCH   8  20
ENDBRANCH   5   8
ENDBRANCH   3   4
ENDBRANCH   2   3
ENDBRANCH   1   2
BRANCH   1  38
ATOM     38  C   UNL     1       0.536  -4.743   0.627  1.00  0.00     0.002 C 
BRANCH  38  39
ATOM     39  C   UNL     1      -0.967  -4.785   0.312  1.00  0.00     0.021 C 
BRANCH  39  40
ATOM     40  C   UNL     1      -1.325  -5.366  -1.053  1.00  0.00     0.116 C 
BRANCH  40  41
ATOM     41  N   UNL     1      -0.913  -6.759  -1.152  1.00  0.00    -0.352 N 
ATOM     42  C   UNL     1      -1.708  -7.872  -1.193  1.00  0.00     0.251 C 
ATOM     43  H   UNL     1       0.057  -6.920  -1.194  1.00  0.00     0.163 HD
ATOM     44  O   UNL     1      -1.237  -8.986  -0.946  1.00  0.00    -0.269 OA
BRANCH  42  45
ATOM     45  C   UNL     1      -3.133  -7.728  -1.543  1.00  0.00     0.039 A 
ATOM     46  C   UNL     1      -4.105  -8.345  -0.753  1.00  0.00     0.014 A 
ATOM     47  C   UNL     1      -3.501  -6.978  -2.665  1.00  0.00     0.014 A 
ATOM     48  C   UNL     1      -5.455  -8.175  -1.067  1.00  0.00     0.010 A 
ATOM     49  C   UNL     1      -4.847  -6.760  -2.940  1.00  0.00     0.010 A 
ATOM     50  C   UNL     1      -5.837  -7.365  -2.151  1.00  0.00    -0.014 A 
BRANCH  50  51
ATOM     51  C   UNL     1      -7.268  -7.156  -2.487  1.00  0.00     0.031 A 
ATOM     52  C   UNL     1      -7.815  -7.671  -3.792  1.00  0.00     0.074 A 
ATOM     53  C   UNL     1      -8.058  -6.462  -1.644  1.00  0.00     0.049 A 
ATOM     54  N   UNL     1      -9.017  -7.538  -4.291  1.00  0.00    -0.248 NA
ATOM     55  C   UNL     1      -6.885  -8.415  -4.659  1.00  0.00     0.031 C 
ATOM     56  C   UNL     1      -7.632  -5.878  -0.370  1.00  0.00     0.029 A 
ATOM     57  N   UNL     1      -9.384  -6.122  -1.736  1.00  0.00    -0.354 N 
ATOM     58  C   UNL     1      -8.986  -8.175  -5.526  1.00  0.00     0.074 A 
ATOM     59  C   UNL     1      -7.633  -8.644  -5.728  1.00  0.00     0.031 C 
ATOM     60  C   UNL     1      -8.681  -5.269   0.208  1.00  0.00     0.029 A 
ATOM     61  C   UNL     1      -9.842  -5.385  -0.669  1.00  0.00     0.049 A 
ATOM     62  H   UNL     1      -9.955  -6.382  -2.495  1.00  0.00     0.167 HD
ATOM     63  C   UNL     1      -9.998  -8.373  -6.403  1.00  0.00     0.031 A 
ATOM     64  C   UNL     1     -11.056  -4.852  -0.430  1.00  0.00     0.031 A 
ATOM     65  C   UNL     1     -11.345  -7.911  -6.196  1.00  0.00     0.049 A 
ATOM     66  C   UNL     1     -12.160  -5.072  -1.430  1.00  0.00     0.074 A 
ATOM     67  C   UNL     1     -12.450  -8.090  -7.008  1.00  0.00     0.029 A 
ATOM     68  N   UNL     1     -11.771  -7.184  -5.094  1.00  0.00    -0.354 N 
ATOM     69  N   UNL     1     -12.123  -5.725  -2.568  1.00  0.00    -0.248 NA
ATOM     70  C   UNL     1     -13.473  -4.496  -1.108  1.00  0.00     0.031 C 
ATOM     71  C   UNL     1     -13.535  -7.432  -6.421  1.00  0.00     0.029 A 
ATOM     72  C   UNL     1     -13.119  -6.894  -5.213  1.00  0.00     0.049 A 
ATOM     73  H   UNL     1     -11.199  -6.914  -4.340  1.00  0.00     0.167 HD
ATOM     74  C   UNL     1     -13.414  -5.663  -3.081  1.00  0.00     0.074 A 
ATOM     75  C   UNL     1     -14.211  -4.926  -2.122  1.00  0.00     0.031 C 
ATOM     76  C   UNL     1     -13.898  -6.168  -4.243  1.00  0.00     0.031 A 
BRANCH  63  77
ATOM     77  C   UNL     1      -9.693  -9.138  -7.665  1.00  0.00    -0.014 A 
ATOM     78  C   UNL     1      -9.429 -10.519  -7.623  1.00  0.00     0.010 A 
ATOM     79  C   UNL     1      -9.734  -8.487  -8.911  1.00  0.00     0.010 A 
ATOM     80  C   UNL     1      -9.186 -11.230  -8.800  1.00  0.00     0.020 A 
ATOM     81  C   UNL     1      -9.519  -9.201 -10.094  1.00  0.00     0.020 A 
ATOM     82  C   UNL     1      -9.236 -10.567 -10.030  1.00  0.00     0.054 A 
BRANCH  82  83
ATOM     83  S   UNL     1      -8.966 -11.528 -11.544  1.00  0.00     0.124 S 
ATOM     84  O   UNL     1      -7.535 -11.811 -11.471  1.00  0.00    -0.237 OA
ATOM     85  O   UNL     1      -9.845 -12.679 -11.352  1.00  0.00    -0.237 OA
ATOM     86  O   UNL     1      -9.366 -10.614 -12.612  1.00  0.00    -0.744 OA
ENDBRANCH  82  83
ENDBRANCH  63  77
BRANCH  64  87
ATOM     87  C   UNL     1     -11.296  -4.054   0.805  1.00  0.00    -0.014 A 
ATOM     88  C   UNL     1     -12.147  -4.532   1.817  1.00  0.00     0.010 A 
ATOM     89  C   UNL     1     -10.687  -2.796   0.965  1.00  0.00     0.010 A 
ATOM     90  C   UNL     1     -12.416  -3.751   2.946  1.00  0.00     0.020 A 
ATOM     91  C   UNL     1     -10.928  -2.026   2.106  1.00  0.00     0.020 A 
ATOM     92  C   UNL     1     -11.807  -2.501   3.081  1.00  0.00     0.054 A 
BRANCH  92  93
ATOM     93  S   UNL     1     -12.158  -1.509   4.559  1.00  0.00     0.124 S 
ATOM     94  O   UNL     1     -13.512  -1.035   4.292  1.00  0.00    -0.237 OA
ATOM     95  O   UNL     1     -12.029  -2.488   5.635  1.00  0.00    -0.237 OA
ATOM     96  O   UNL     1     -11.119  -0.482   4.535  1.00  0.00    -0.744 OA
ENDBRANCH  92  93
ENDBRANCH  64  87
BRANCH  76  97
ATOM     97  C   UNL     1     -15.365  -5.981  -4.523  1.00  0.00    -0.014 A 
ATOM     98  C   UNL     1     -15.889  -4.723  -4.865  1.00  0.00     0.010 A 
ATOM     99  C   UNL     1     -16.221  -7.098  -4.498  1.00  0.00     0.010 A 
ATOM    100  C   UNL     1     -17.250  -4.578  -5.145  1.00  0.00     0.020 A 
ATOM    101  C   UNL     1     -17.576  -6.962  -4.806  1.00  0.00     0.020 A 
ATOM    102  C   UNL     1     -18.085  -5.699  -5.114  1.00  0.00     0.054 A 
BRANCH 102 103
ATOM    103  S   UNL     1     -19.839  -5.492  -5.526  1.00  0.00     0.124 S 
ATOM    104  O   UNL     1     -20.353  -4.817  -4.337  1.00  0.00    -0.237 OA
ATOM    105  O   UNL     1     -19.790  -4.678  -6.738  1.00  0.00    -0.237 OA
ATOM    106  O   UNL     1     -20.314  -6.860  -5.720  1.00  0.00    -0.744 OA
ENDBRANCH 102 103
ENDBRANCH  76  97
ENDBRANCH  50  51
ENDBRANCH  42  45
ENDBRANCH  40  41
ENDBRANCH  39  40
ENDBRANCH  38  39
ENDBRANCH   1  38
TORSDOF 22
