REMARK SMILES CCn1cc(CC(=O)NCCCCCCNC(=O)c2ccc(-c3c4nc(c(-c5ccc(S(=O)(=O)[O-])cc5)c5ccc([nH]5)c(-c5ccc(S(=O)(=O)[O-])cc5)c5nc(c(-c6ccc(S(=O)(=O)[O-])cc6)c6ccc3[nH]6)C=C5)C=C4)cc2)c2ccccc21
REMARK SMILES IDX 13 1 12 2 11 3 10 4 9 5 7 6 8 7 6 9 5 10 3 11 4 12 84 13
REMARK SMILES IDX 79 14 83 15 80 16 82 17 81 18 2 19 1 20 14 21 15 22 16 23
REMARK SMILES IDX 17 24 18 26 19 27 20 28 78 29 21 30 77 31 22 32 23 33 24 34
REMARK SMILES IDX 71 35 25 36 76 37 70 38 72 39 26 40 75 41 69 42 68 43 27 45
REMARK SMILES IDX 57 46 38 47 56 48 39 49 42 50 55 51 73 52 40 53 41 54 54 56
REMARK SMILES IDX 74 57 43 58 28 59 29 60 37 61 30 62 36 63 31 64 32 65 33 66
REMARK SMILES IDX 34 67 35 68 58 69 59 70 67 71 60 72 66 73 61 74 62 75 63 76
REMARK SMILES IDX 64 77 65 78 44 79 45 80 53 81 46 82 52 83 47 84 48 85 49 86
REMARK SMILES IDX 50 87 51 88
REMARK H PARENT 9 8 16 25 72 44 42 55
REMARK Flexibility Score: inf
ROOT
ATOM      1  C   UNL     1      -3.393  -0.153   5.538  1.00  0.00     0.002 C 
ENDROOT
BRANCH   1   2
ATOM      2  C   UNL     1      -2.770  -1.435   4.973  1.00  0.00     0.002 C 
BRANCH   2   3
ATOM      3  C   UNL     1      -1.490  -1.228   4.154  1.00  0.00     0.021 C 
BRANCH   3   4
ATOM      4  C   UNL     1      -0.326  -0.649   4.962  1.00  0.00     0.116 C 
BRANCH   4   5
ATOM      5  N   UNL     1       0.218  -1.636   5.878  1.00  0.00    -0.356 N 
ATOM      6  C   UNL     1       1.374  -2.357   5.780  1.00  0.00     0.224 C 
ATOM      7  O   UNL     1       1.599  -3.227   6.626  1.00  0.00    -0.275 OA
ATOM      8  H   UNL     1      -0.322  -1.810   6.683  1.00  0.00     0.163 HD
BRANCH   6   9
ATOM      9  C   UNL     1       2.384  -2.043   4.685  1.00  0.00     0.137 C 
BRANCH   9  10
ATOM     10  C   UNL     1       1.896  -2.382   3.312  1.00  0.00    -0.013 A 
ATOM     11  N   UNL     1       1.170  -2.140   1.213  1.00  0.00    -0.347 N 
ATOM     12  C   UNL     1       1.775  -1.497   2.257  1.00  0.00     0.091 A 
ATOM     13  C   UNL     1       1.001  -3.477   1.525  1.00  0.00     0.048 A 
ATOM     14  C   UNL     1       1.453  -3.653   2.837  1.00  0.00     0.003 A 
ATOM     15  C   UNL     1       0.466  -4.539   0.777  1.00  0.00     0.027 A 
ATOM     16  C   UNL     1       1.369  -4.935   3.419  1.00  0.00     0.010 A 
ATOM     17  C   UNL     1       0.401  -5.801   1.375  1.00  0.00     0.002 A 
ATOM     18  C   UNL     1       0.845  -5.999   2.678  1.00  0.00     0.001 A 
BRANCH  11  19
ATOM     19  C   UNL     1       0.693  -1.527  -0.018  1.00  0.00     0.119 C 
ATOM     20  C   UNL     1       1.052  -0.063  -0.229  1.00  0.00     0.027 C 
ENDBRANCH  11  19
ENDBRANCH   9  10
ENDBRANCH   6   9
ENDBRANCH   4   5
ENDBRANCH   3   4
ENDBRANCH   2   3
ENDBRANCH   1   2
BRANCH   1  21
ATOM     21  C   UNL     1      -3.745   0.919   4.500  1.00  0.00     0.021 C 
BRANCH  21  22
ATOM     22  C   UNL     1      -4.694   0.444   3.399  1.00  0.00     0.116 C 
BRANCH  22  23
ATOM     23  N   UNL     1      -5.972  -0.025   3.896  1.00  0.00    -0.352 N 
ATOM     24  C   UNL     1      -7.154   0.576   4.232  1.00  0.00     0.251 C 
ATOM     25  H   UNL     1      -5.995  -1.002   4.021  1.00  0.00     0.163 HD
ATOM     26  O   UNL     1      -8.082  -0.185   4.521  1.00  0.00    -0.269 OA
BRANCH  24  27
ATOM     27  C   UNL     1      -7.376   2.047   4.326  1.00  0.00     0.039 A 
ATOM     28  C   UNL     1      -6.458   3.034   3.970  1.00  0.00     0.014 A 
ATOM     29  C   UNL     1      -8.609   2.451   4.877  1.00  0.00     0.014 A 
ATOM     30  C   UNL     1      -6.715   4.372   4.251  1.00  0.00     0.010 A 
ATOM     31  C   UNL     1      -8.881   3.791   5.140  1.00  0.00     0.010 A 
ATOM     32  C   UNL     1      -7.910   4.748   4.871  1.00  0.00    -0.014 A 
BRANCH  32  33
ATOM     33  C   UNL     1      -8.101   6.168   5.157  1.00  0.00     0.031 A 
ATOM     34  C   UNL     1      -8.069   7.077   3.976  1.00  0.00     0.074 A 
ATOM     35  C   UNL     1      -8.353   6.663   6.385  1.00  0.00     0.049 A 
ATOM     36  N   UNL     1      -7.221   8.017   3.712  1.00  0.00    -0.248 NA
ATOM     37  C   UNL     1      -9.055   6.841   2.911  1.00  0.00     0.031 C 
ATOM     38  C   UNL     1      -8.694   5.934   7.610  1.00  0.00     0.029 A 
ATOM     39  N   UNL     1      -8.448   7.968   6.766  1.00  0.00    -0.354 N 
ATOM     40  C   UNL     1      -7.647   8.605   2.522  1.00  0.00     0.074 A 
ATOM     41  C   UNL     1      -8.711   7.771   2.019  1.00  0.00     0.031 C 
ATOM     42  C   UNL     1      -9.184   6.804   8.523  1.00  0.00     0.029 A 
ATOM     43  C   UNL     1      -9.037   8.155   8.009  1.00  0.00     0.049 A 
ATOM     44  H   UNL     1      -8.128   8.713   6.208  1.00  0.00     0.167 HD
ATOM     45  C   UNL     1      -7.200   9.822   2.101  1.00  0.00     0.031 A 
ATOM     46  C   UNL     1      -9.431   9.335   8.545  1.00  0.00     0.031 A 
ATOM     47  C   UNL     1      -6.011  10.232   2.795  1.00  0.00     0.049 A 
ATOM     48  C   UNL     1      -8.672  10.410   7.862  1.00  0.00     0.074 A 
ATOM     49  C   UNL     1      -4.719   9.754   2.872  1.00  0.00     0.029 A 
ATOM     50  N   UNL     1      -6.154  11.114   3.837  1.00  0.00    -0.354 N 
ATOM     51  N   UNL     1      -7.385  10.575   7.976  1.00  0.00    -0.248 NA
ATOM     52  C   UNL     1      -9.291  11.081   6.731  1.00  0.00     0.031 C 
ATOM     53  C   UNL     1      -4.313  10.006   4.213  1.00  0.00     0.029 A 
ATOM     54  C   UNL     1      -5.361  10.666   4.862  1.00  0.00     0.049 A 
ATOM     55  H   UNL     1      -6.721  11.919   3.847  1.00  0.00     0.167 HD
ATOM     56  C   UNL     1      -6.970  11.008   6.726  1.00  0.00     0.074 A 
ATOM     57  C   UNL     1      -8.197  11.404   6.038  1.00  0.00     0.031 C 
ATOM     58  C   UNL     1      -5.708  10.757   6.268  1.00  0.00     0.031 A 
BRANCH  45  59
ATOM     59  C   UNL     1      -8.002  10.777   1.253  1.00  0.00    -0.014 A 
ATOM     60  C   UNL     1      -9.395  10.658   1.080  1.00  0.00     0.010 A 
ATOM     61  C   UNL     1      -7.405  11.976   0.805  1.00  0.00     0.010 A 
ATOM     62  C   UNL     1     -10.157  11.664   0.481  1.00  0.00     0.020 A 
ATOM     63  C   UNL     1      -8.167  13.011   0.243  1.00  0.00     0.020 A 
ATOM     64  C   UNL     1      -9.541  12.844   0.081  1.00  0.00     0.054 A 
BRANCH  64  65
ATOM     65  S   UNL     1     -10.584  14.173  -0.569  1.00  0.00     0.124 S 
ATOM     66  O   UNL     1     -11.013  13.618  -1.850  1.00  0.00    -0.237 OA
ATOM     67  O   UNL     1     -11.624  14.280   0.451  1.00  0.00    -0.237 OA
ATOM     68  O   UNL     1      -9.676  15.313  -0.654  1.00  0.00    -0.744 OA
ENDBRANCH  64  65
ENDBRANCH  45  59
BRANCH  46  69
ATOM     69  C   UNL     1     -10.710   9.604   9.250  1.00  0.00    -0.014 A 
ATOM     70  C   UNL     1     -11.840   8.807   8.976  1.00  0.00     0.010 A 
ATOM     71  C   UNL     1     -10.909  10.823   9.926  1.00  0.00     0.010 A 
ATOM     72  C   UNL     1     -13.130   9.249   9.282  1.00  0.00     0.020 A 
ATOM     73  C   UNL     1     -12.203  11.274  10.234  1.00  0.00     0.020 A 
ATOM     74  C   UNL     1     -13.307  10.499   9.872  1.00  0.00     0.054 A 
BRANCH  74  75
ATOM     75  S   UNL     1     -14.999  11.130  10.062  1.00  0.00     0.124 S 
ATOM     76  O   UNL     1     -15.409  11.316   8.669  1.00  0.00    -0.237 OA
ATOM     77  O   UNL     1     -15.666  10.032  10.764  1.00  0.00    -0.237 OA
ATOM     78  O   UNL     1     -14.834  12.350  10.834  1.00  0.00    -0.744 OA
ENDBRANCH  74  75
ENDBRANCH  46  69
BRANCH  58  79
ATOM     79  C   UNL     1      -4.656  10.263   7.240  1.00  0.00    -0.014 A 
ATOM     80  C   UNL     1      -3.417  10.929   7.248  1.00  0.00     0.010 A 
ATOM     81  C   UNL     1      -4.776   9.066   7.975  1.00  0.00     0.010 A 
ATOM     82  C   UNL     1      -2.317  10.400   7.927  1.00  0.00     0.020 A 
ATOM     83  C   UNL     1      -3.682   8.543   8.683  1.00  0.00     0.020 A 
ATOM     84  C   UNL     1      -2.451   9.201   8.628  1.00  0.00     0.054 A 
BRANCH  84  85
ATOM     85  S   UNL     1      -0.978   8.510   9.430  1.00  0.00     0.124 S 
ATOM     86  O   UNL     1      -0.187   8.058   8.287  1.00  0.00    -0.237 OA
ATOM     87  O   UNL     1      -0.431   9.659  10.149  1.00  0.00    -0.237 OA
ATOM     88  O   UNL     1      -1.502   7.443  10.280  1.00  0.00    -0.744 OA
ENDBRANCH  84  85
ENDBRANCH  58  79
ENDBRANCH  32  33
ENDBRANCH  24  27
ENDBRANCH  22  23
ENDBRANCH  21  22
ENDBRANCH   1  21
TORSDOF 18
