REMARK SMILES Cc1ccccc1-c1nc(CC(=O)NCCCCCCNC(=O)c2ccc(-c3c4nc(c(-c5ccc(S(=O)(=O)[O-])cc5)c5ccc([nH]5)c(-c5ccc(S(=O)(=O)[O-])cc5)c5nc(c(-c6ccc(S(=O)(=O)[O-])cc6)c6ccc3[nH]6)C=C5)C=C4)cc2)cs1
REMARK SMILES IDX 18 1 17 2 16 3 15 4 14 5 12 6 13 7 11 9 10 10 8 11 9 12
REMARK SMILES IDX 85 13 84 14 7 15 1 16 2 17 3 18 4 19 6 20 5 21 19 22 20 23
REMARK SMILES IDX 21 24 22 25 23 27 24 28 25 29 83 30 26 31 82 32 27 33 28 34
REMARK SMILES IDX 29 35 76 36 30 37 81 38 75 39 77 40 31 41 80 42 74 43 73 44
REMARK SMILES IDX 32 46 62 47 43 48 61 49 44 50 47 51 60 52 78 53 45 54 46 55
REMARK SMILES IDX 59 57 79 58 48 59 33 60 34 61 42 62 35 63 41 64 36 65 37 66
REMARK SMILES IDX 38 67 39 68 40 69 63 70 64 71 72 72 65 73 71 74 66 75 67 76
REMARK SMILES IDX 68 77 69 78 70 79 49 80 50 81 58 82 51 83 57 84 52 85 53 86
REMARK SMILES IDX 54 87 55 88 56 89
REMARK H PARENT 14 8 21 26 77 45 47 56
REMARK Flexibility Score: inf
ROOT
ATOM      1  C   UNL     1      -1.301   6.379  -4.923  1.00  0.00     0.002 C 
ENDROOT
BRANCH   1   2
ATOM      2  C   UNL     1      -1.213   6.189  -3.403  1.00  0.00     0.002 C 
BRANCH   2   3
ATOM      3  C   UNL     1      -0.377   5.001  -2.905  1.00  0.00     0.021 C 
BRANCH   3   4
ATOM      4  C   UNL     1       1.048   4.930  -3.456  1.00  0.00     0.116 C 
BRANCH   4   5
ATOM      5  N   UNL     1       1.870   6.038  -2.998  1.00  0.00    -0.356 N 
ATOM      6  C   UNL     1       2.918   6.025  -2.124  1.00  0.00     0.226 C 
ATOM      7  O   UNL     1       3.473   7.092  -1.849  1.00  0.00    -0.275 OA
ATOM      8  H   UNL     1       1.639   6.920  -3.370  1.00  0.00     0.163 HD
BRANCH   6   9
ATOM      9  C   UNL     1       3.416   4.714  -1.546  1.00  0.00     0.157 C 
BRANCH   9  10
ATOM     10  C   UNL     1       2.462   4.123  -0.566  1.00  0.00     0.061 A 
ATOM     11  C   UNL     1       1.101   2.499   0.110  1.00  0.00     0.123 A 
ATOM     12  N   UNL     1       1.973   2.849  -0.815  1.00  0.00    -0.241 NA
ATOM     13  S   UNL     1       0.883   3.651   1.372  1.00  0.00    -0.122 S 
ATOM     14  C   UNL     1       1.991   4.702   0.597  1.00  0.00     0.091 A 
BRANCH  11  15
ATOM     15  C   UNL     1       0.362   1.231   0.125  1.00  0.00     0.013 A 
ATOM     16  C   UNL     1       2.521  -0.155   0.071  1.00  0.00     0.045 C 
ATOM     17  C   UNL     1       1.022  -0.017   0.097  1.00  0.00    -0.041 A 
ATOM     18  C   UNL     1       0.257  -1.198   0.061  1.00  0.00     0.004 A 
ATOM     19  C   UNL     1      -1.137  -1.150   0.074  1.00  0.00     0.000 A 
ATOM     20  C   UNL     1      -1.046   1.258   0.131  1.00  0.00     0.011 A 
ATOM     21  C   UNL     1      -1.788   0.077   0.111  1.00  0.00     0.001 A 
ENDBRANCH  11  15
ENDBRANCH   9  10
ENDBRANCH   6   9
ENDBRANCH   4   5
ENDBRANCH   3   4
ENDBRANCH   2   3
ENDBRANCH   1   2
BRANCH   1  22
ATOM     22  C   UNL     1      -1.717   5.154  -5.741  1.00  0.00     0.021 C 
BRANCH  22  23
ATOM     23  C   UNL     1      -3.128   4.660  -5.433  1.00  0.00     0.116 C 
BRANCH  23  24
ATOM     24  N   UNL     1      -3.964   4.557  -6.622  1.00  0.00    -0.352 N 
ATOM     25  C   UNL     1      -5.231   4.013  -6.732  1.00  0.00     0.251 C 
ATOM     26  H   UNL     1      -3.578   4.920  -7.452  1.00  0.00     0.163 HD
ATOM     27  O   UNL     1      -5.769   3.849  -7.816  1.00  0.00    -0.269 OA
BRANCH  25  28
ATOM     28  C   UNL     1      -5.957   3.723  -5.480  1.00  0.00     0.039 A 
ATOM     29  C   UNL     1      -7.088   4.494  -5.193  1.00  0.00     0.014 A 
ATOM     30  C   UNL     1      -5.394   2.886  -4.520  1.00  0.00     0.014 A 
ATOM     31  C   UNL     1      -7.558   4.560  -3.883  1.00  0.00     0.010 A 
ATOM     32  C   UNL     1      -5.807   3.018  -3.208  1.00  0.00     0.010 A 
ATOM     33  C   UNL     1      -6.856   3.892  -2.880  1.00  0.00    -0.014 A 
BRANCH  33  34
ATOM     34  C   UNL     1      -7.073   4.112  -1.453  1.00  0.00     0.031 A 
ATOM     35  C   UNL     1      -7.710   3.066  -0.618  1.00  0.00     0.074 A 
ATOM     36  C   UNL     1      -6.590   5.225  -0.857  1.00  0.00     0.049 A 
ATOM     37  N   UNL     1      -8.222   3.274   0.551  1.00  0.00    -0.248 NA
ATOM     38  C   UNL     1      -7.898   1.694  -1.086  1.00  0.00     0.031 C 
ATOM     39  C   UNL     1      -6.365   5.418   0.573  1.00  0.00     0.029 A 
ATOM     40  N   UNL     1      -6.415   6.500  -1.399  1.00  0.00    -0.354 N 
ATOM     41  C   UNL     1      -8.470   2.042   1.113  1.00  0.00     0.074 A 
ATOM     42  C   UNL     1      -8.405   1.117   0.007  1.00  0.00     0.031 C 
ATOM     43  C   UNL     1      -6.390   6.732   0.838  1.00  0.00     0.029 A 
ATOM     44  C   UNL     1      -6.779   7.407  -0.388  1.00  0.00     0.049 A 
ATOM     45  H   UNL     1      -6.100   6.720  -2.305  1.00  0.00     0.167 HD
ATOM     46  C   UNL     1      -8.523   1.922   2.471  1.00  0.00     0.031 A 
ATOM     47  C   UNL     1      -7.777   8.332  -0.494  1.00  0.00     0.031 A 
ATOM     48  C   UNL     1      -8.581   3.227   3.133  1.00  0.00     0.049 A 
ATOM     49  C   UNL     1      -8.814   8.227   0.603  1.00  0.00     0.074 A 
ATOM     50  C   UNL     1      -7.673   3.959   3.880  1.00  0.00     0.029 A 
ATOM     51  N   UNL     1      -9.649   4.079   2.867  1.00  0.00    -0.354 N 
ATOM     52  N   UNL     1      -8.921   7.204   1.403  1.00  0.00    -0.248 NA
ATOM     53  C   UNL     1      -9.846   9.231   0.849  1.00  0.00     0.031 C 
ATOM     54  C   UNL     1      -8.168   5.286   3.993  1.00  0.00     0.029 A 
ATOM     55  C   UNL     1      -9.388   5.349   3.342  1.00  0.00     0.049 A 
ATOM     56  H   UNL     1     -10.476   3.813   2.405  1.00  0.00     0.167 HD
ATOM     57  C   UNL     1      -9.997   7.373   2.232  1.00  0.00     0.074 A 
ATOM     58  C   UNL     1     -10.535   8.669   1.859  1.00  0.00     0.031 C 
ATOM     59  C   UNL     1     -10.356   6.421   3.142  1.00  0.00     0.031 A 
BRANCH  46  60
ATOM     60  C   UNL     1      -8.234   0.627   3.220  1.00  0.00    -0.014 A 
ATOM     61  C   UNL     1      -7.984   0.664   4.610  1.00  0.00     0.010 A 
ATOM     62  C   UNL     1      -8.073  -0.633   2.611  1.00  0.00     0.010 A 
ATOM     63  C   UNL     1      -7.525  -0.460   5.322  1.00  0.00     0.020 A 
ATOM     64  C   UNL     1      -7.623  -1.764   3.306  1.00  0.00     0.020 A 
ATOM     65  C   UNL     1      -7.326  -1.666   4.656  1.00  0.00     0.054 A 
BRANCH  65  66
ATOM     66  S   UNL     1      -6.655  -3.091   5.550  1.00  0.00     0.124 S 
ATOM     67  O   UNL     1      -5.332  -2.617   5.945  1.00  0.00    -0.237 OA
ATOM     68  O   UNL     1      -7.616  -3.267   6.635  1.00  0.00    -0.237 OA
ATOM     69  O   UNL     1      -6.652  -4.157   4.548  1.00  0.00    -0.744 OA
ENDBRANCH  65  66
ENDBRANCH  46  60
BRANCH  47  70
ATOM     70  C   UNL     1      -8.052   8.785  -1.883  1.00  0.00    -0.014 A 
ATOM     71  C   UNL     1      -7.072   9.585  -2.507  1.00  0.00     0.010 A 
ATOM     72  C   UNL     1      -8.984   8.095  -2.679  1.00  0.00     0.010 A 
ATOM     73  C   UNL     1      -6.910   9.550  -3.893  1.00  0.00     0.020 A 
ATOM     74  C   UNL     1      -8.826   8.065  -4.071  1.00  0.00     0.020 A 
ATOM     75  C   UNL     1      -7.748   8.736  -4.657  1.00  0.00     0.054 A 
BRANCH  75  76
ATOM     76  S   UNL     1      -7.268   8.403  -6.378  1.00  0.00     0.124 S 
ATOM     77  O   UNL     1      -7.231   9.741  -6.958  1.00  0.00    -0.237 OA
ATOM     78  O   UNL     1      -5.970   7.754  -6.202  1.00  0.00    -0.237 OA
ATOM     79  O   UNL     1      -8.337   7.534  -6.862  1.00  0.00    -0.744 OA
ENDBRANCH  75  76
ENDBRANCH  47  70
BRANCH  59  80
ATOM     80  C   UNL     1     -11.610   6.421   3.985  1.00  0.00    -0.014 A 
ATOM     81  C   UNL     1     -12.791   7.101   3.650  1.00  0.00     0.010 A 
ATOM     82  C   UNL     1     -11.656   5.588   5.130  1.00  0.00     0.010 A 
ATOM     83  C   UNL     1     -13.941   7.004   4.449  1.00  0.00     0.020 A 
ATOM     84  C   UNL     1     -12.808   5.451   5.910  1.00  0.00     0.020 A 
ATOM     85  C   UNL     1     -13.941   6.182   5.577  1.00  0.00     0.054 A 
BRANCH  85  86
ATOM     86  S   UNL     1     -15.447   6.004   6.568  1.00  0.00     0.124 S 
ATOM     87  O   UNL     1     -15.291   7.073   7.550  1.00  0.00    -0.237 OA
ATOM     88  O   UNL     1     -16.513   6.206   5.588  1.00  0.00    -0.237 OA
ATOM     89  O   UNL     1     -15.348   4.646   7.095  1.00  0.00    -0.744 OA
ENDBRANCH  85  86
ENDBRANCH  59  80
ENDBRANCH  33  34
ENDBRANCH  25  28
ENDBRANCH  23  24
ENDBRANCH  22  23
ENDBRANCH   1  22
TORSDOF 18
