REMARK SMILES O=C(NCCCCCCNC(=O)c1ccc(-c2c3nc(c(-c4ccc(S(=O)(=O)[O-])cc4)c4ccc([nH]4)c(-c4ccc(S(=O)(=O)[O-])cc4)c4nc(c(-c5ccc(S(=O)(=O)[O-])cc5)c5ccc2[nH]5)C=C4)C=C3)cc1)c1ccc(NC(=O)[C@@H]2CC=CC[C@H]2C(=O)Nc2cccc([N+](=O)[O-])c2)cc1
REMARK SMILES IDX 5 1 4 2 3 3 1 4 2 5 73 7 74 8 99 9 75 10 98 11 76 12 77 13
REMARK SMILES IDX 78 14 79 16 80 17 81 18 85 19 82 20 84 21 83 22 86 23 87 24
REMARK SMILES IDX 88 25 89 27 90 28 97 29 91 30 93 31 92 32 94 33 95 34 96 35
REMARK SMILES IDX 6 36 7 37 8 38 9 39 10 40 11 41 12 43 13 44 14 45 72 46
REMARK SMILES IDX 15 47 71 48 16 49 17 50 18 51 65 52 19 53 70 54 64 55 66 56
REMARK SMILES IDX 20 57 69 58 63 59 62 60 21 62 51 63 32 64 50 65 33 66 36 67
REMARK SMILES IDX 49 68 67 69 34 70 35 71 48 73 68 74 37 75 22 76 23 77 31 78
REMARK SMILES IDX 24 79 30 80 25 81 26 82 27 83 28 84 29 85 52 86 53 87 61 88
REMARK SMILES IDX 54 89 60 90 55 91 56 92 57 93 58 94 59 95 38 96 39 97 47 98
REMARK SMILES IDX 40 99 46 100 41 101 42 102 43 103 44 104 45 105
REMARK H PARENT 3 6 77 15 88 26 10 42 66 61 36 72
REMARK Flexibility Score: inf
ROOT
ATOM      1  C   UNL     1      13.381  -2.752  -1.254  1.00  0.00     0.021 C 
ENDROOT
BRANCH   1   2
ATOM      2  C   UNL     1      12.572  -2.736  -2.539  1.00  0.00     0.116 C 
BRANCH   2   3
ATOM      3  N   UNL     1      12.768  -3.922  -3.363  1.00  0.00    -0.352 N 
ATOM      4  O   UNL     1      12.119  -5.713  -4.588  1.00  0.00    -0.269 OA
ATOM      5  C   UNL     1      11.822  -4.667  -4.032  1.00  0.00     0.251 C 
ATOM      6  H   UNL     1      13.698  -4.231  -3.454  1.00  0.00     0.163 HD
BRANCH   5   7
ATOM      7  C   UNL     1      10.421  -4.189  -4.053  1.00  0.00     0.039 A 
ATOM      8  C   UNL     1      10.154  -2.842  -4.272  1.00  0.00     0.016 A 
ATOM      9  C   UNL     1       9.370  -5.069  -3.799  1.00  0.00     0.016 A 
ATOM     10  C   UNL     1       8.870  -2.355  -4.088  1.00  0.00     0.027 A 
ATOM     11  C   UNL     1       8.060  -4.578  -3.736  1.00  0.00     0.027 A 
ATOM     12  C   UNL     1       7.799  -3.209  -3.898  1.00  0.00     0.041 A 
BRANCH  12  13
ATOM     13  N   UNL     1       6.461  -2.800  -3.896  1.00  0.00    -0.326 N 
ATOM     14  C   UNL     1       5.802  -1.662  -4.225  1.00  0.00     0.228 C 
ATOM     15  H   UNL     1       5.853  -3.507  -3.580  1.00  0.00     0.169 HD
ATOM     16  O   UNL     1       4.566  -1.720  -4.128  1.00  0.00    -0.274 OA
BRANCH  14  17
ATOM     17  C   UNL     1       6.417  -0.335  -4.671  1.00  0.00     0.095 C 
ATOM     18  C   UNL     1       7.343  -0.372  -5.901  1.00  0.00     0.041 C 
ATOM     19  C   UNL     1       6.830   0.507  -3.452  1.00  0.00     0.095 C 
ATOM     20  C   UNL     1       8.521   0.555  -5.857  1.00  0.00    -0.030 C 
ATOM     21  C   UNL     1       7.863   1.622  -3.693  1.00  0.00     0.041 C 
ATOM     22  C   UNL     1       8.754   1.433  -4.876  1.00  0.00    -0.030 C 
BRANCH  19  23
ATOM     23  C   UNL     1       5.638   1.048  -2.629  1.00  0.00     0.228 C 
ATOM     24  O   UNL     1       5.429   0.573  -1.506  1.00  0.00    -0.274 OA
ATOM     25  N   UNL     1       4.864   2.118  -3.008  1.00  0.00    -0.326 N 
ATOM     26  H   UNL     1       4.239   2.442  -2.320  1.00  0.00     0.169 HD
BRANCH  25  27
ATOM     27  C   UNL     1       4.825   2.820  -4.218  1.00  0.00     0.048 A 
ATOM     28  C   UNL     1       5.113   4.185  -4.221  1.00  0.00     0.026 A 
ATOM     29  C   UNL     1       4.496   2.192  -5.414  1.00  0.00     0.111 A 
ATOM     30  C   UNL     1       5.257   4.867  -5.435  1.00  0.00     0.009 A 
ATOM     31  C   UNL     1       4.710   2.849  -6.629  1.00  0.00     0.271 A 
ATOM     32  C   UNL     1       5.101   4.189  -6.646  1.00  0.00     0.086 A 
BRANCH  31  33
ATOM     33  N   UNL     1       4.590   2.094  -7.882  1.00  0.00     0.062 N 
ATOM     34  O   UNL     1       4.892   2.671  -8.936  1.00  0.00    -0.258 OA
ATOM     35  O   UNL     1       4.222   0.912  -7.812  1.00  0.00    -0.258 OA
ENDBRANCH  31  33
ENDBRANCH  25  27
ENDBRANCH  19  23
ENDBRANCH  14  17
ENDBRANCH  12  13
ENDBRANCH   5   7
ENDBRANCH   2   3
ENDBRANCH   1   2
BRANCH   1  36
ATOM     36  C   UNL     1      14.894  -2.692  -1.447  1.00  0.00     0.002 C 
BRANCH  36  37
ATOM     37  C   UNL     1      15.413  -1.498  -2.252  1.00  0.00     0.002 C 
BRANCH  37  38
ATOM     38  C   UNL     1      14.988  -0.113  -1.753  1.00  0.00     0.021 C 
BRANCH  38  39
ATOM     39  C   UNL     1      15.236   0.162  -0.272  1.00  0.00     0.116 C 
BRANCH  39  40
ATOM     40  N   UNL     1      16.622  -0.032   0.112  1.00  0.00    -0.352 N 
ATOM     41  C   UNL     1      17.436   0.763   0.880  1.00  0.00     0.251 C 
ATOM     42  H   UNL     1      17.041  -0.856  -0.228  1.00  0.00     0.163 HD
ATOM     43  O   UNL     1      18.627   0.489   0.989  1.00  0.00    -0.269 OA
BRANCH  41  44
ATOM     44  C   UNL     1      16.888   1.963   1.549  1.00  0.00     0.039 A 
ATOM     45  C   UNL     1      17.611   3.157   1.476  1.00  0.00     0.014 A 
ATOM     46  C   UNL     1      15.681   1.915   2.253  1.00  0.00     0.014 A 
ATOM     47  C   UNL     1      17.097   4.316   2.061  1.00  0.00     0.010 A 
ATOM     48  C   UNL     1      15.141   3.086   2.784  1.00  0.00     0.010 A 
ATOM     49  C   UNL     1      15.844   4.297   2.694  1.00  0.00    -0.014 A 
BRANCH  49  50
ATOM     50  C   UNL     1      15.254   5.534   3.264  1.00  0.00     0.031 A 
ATOM     51  C   UNL     1      15.044   5.662   4.747  1.00  0.00     0.074 A 
ATOM     52  C   UNL     1      14.851   6.520   2.439  1.00  0.00     0.049 A 
ATOM     53  N   UNL     1      14.486   6.636   5.420  1.00  0.00    -0.248 NA
ATOM     54  C   UNL     1      15.499   4.537   5.580  1.00  0.00     0.031 C 
ATOM     55  C   UNL     1      14.960   6.500   0.978  1.00  0.00     0.029 A 
ATOM     56  N   UNL     1      14.256   7.726   2.711  1.00  0.00    -0.354 N 
ATOM     57  C   UNL     1      14.511   6.238   6.751  1.00  0.00     0.074 A 
ATOM     58  C   UNL     1      15.096   4.914   6.785  1.00  0.00     0.031 C 
ATOM     59  C   UNL     1      14.460   7.645   0.485  1.00  0.00     0.029 A 
ATOM     60  C   UNL     1      13.967   8.464   1.588  1.00  0.00     0.049 A 
ATOM     61  H   UNL     1      14.054   8.034   3.624  1.00  0.00     0.167 HD
ATOM     62  C   UNL     1      14.101   6.918   7.849  1.00  0.00     0.031 A 
ATOM     63  C   UNL     1      13.365   9.662   1.457  1.00  0.00     0.031 A 
ATOM     64  C   UNL     1      13.523   8.235   7.816  1.00  0.00     0.049 A 
ATOM     65  C   UNL     1      12.923  10.403   2.687  1.00  0.00     0.074 A 
ATOM     66  C   UNL     1      13.112   9.023   8.877  1.00  0.00     0.029 A 
ATOM     67  N   UNL     1      13.274   8.960   6.660  1.00  0.00    -0.354 N 
ATOM     68  N   UNL     1      13.001  10.031   3.942  1.00  0.00    -0.248 NA
ATOM     69  C   UNL     1      12.325  11.730   2.485  1.00  0.00     0.031 C 
ATOM     70  C   UNL     1      12.579  10.210   8.360  1.00  0.00     0.029 A 
ATOM     71  C   UNL     1      12.702  10.180   6.980  1.00  0.00     0.049 A 
ATOM     72  H   UNL     1      13.474   8.652   5.747  1.00  0.00     0.167 HD
ATOM     73  C   UNL     1      12.479  11.086   4.682  1.00  0.00     0.074 A 
ATOM     74  C   UNL     1      12.103  12.116   3.734  1.00  0.00     0.031 C 
ATOM     75  C   UNL     1      12.327  11.192   6.025  1.00  0.00     0.031 A 
BRANCH  62  76
ATOM     76  C   UNL     1      14.263   6.234   9.181  1.00  0.00    -0.014 A 
ATOM     77  C   UNL     1      15.539   6.042   9.743  1.00  0.00     0.010 A 
ATOM     78  C   UNL     1      13.130   5.787   9.884  1.00  0.00     0.010 A 
ATOM     79  C   UNL     1      15.682   5.367  10.958  1.00  0.00     0.020 A 
ATOM     80  C   UNL     1      13.268   5.135  11.113  1.00  0.00     0.020 A 
ATOM     81  C   UNL     1      14.546   4.909  11.631  1.00  0.00     0.054 A 
BRANCH  81  82
ATOM     82  S   UNL     1      14.759   4.031  13.204  1.00  0.00     0.124 S 
ATOM     83  O   UNL     1      15.214   2.718  12.754  1.00  0.00    -0.237 OA
ATOM     84  O   UNL     1      15.761   4.840  13.892  1.00  0.00    -0.237 OA
ATOM     85  O   UNL     1      13.425   4.059  13.798  1.00  0.00    -0.744 OA
ENDBRANCH  81  82
ENDBRANCH  62  76
BRANCH  63  86
ATOM     86  C   UNL     1      13.157  10.233   0.100  1.00  0.00    -0.014 A 
ATOM     87  C   UNL     1      13.947  11.303  -0.356  1.00  0.00     0.010 A 
ATOM     88  C   UNL     1      12.189   9.681  -0.758  1.00  0.00     0.010 A 
ATOM     89  C   UNL     1      13.768  11.815  -1.644  1.00  0.00     0.020 A 
ATOM     90  C   UNL     1      12.023  10.175  -2.055  1.00  0.00     0.020 A 
ATOM     91  C   UNL     1      12.809  11.245  -2.487  1.00  0.00     0.054 A 
BRANCH  91  92
ATOM     92  S   UNL     1      12.642  11.873  -4.181  1.00  0.00     0.124 S 
ATOM     93  O   UNL     1      11.912  13.119  -3.972  1.00  0.00    -0.237 OA
ATOM     94  O   UNL     1      14.033  12.015  -4.606  1.00  0.00    -0.237 OA
ATOM     95  O   UNL     1      11.897  10.816  -4.863  1.00  0.00    -0.744 OA
ENDBRANCH  91  92
ENDBRANCH  63  86
BRANCH  75  96
ATOM     96  C   UNL     1      11.746  12.475   6.555  1.00  0.00    -0.014 A 
ATOM     97  C   UNL     1      10.376  12.760   6.424  1.00  0.00     0.010 A 
ATOM     98  C   UNL     1      12.576  13.382   7.238  1.00  0.00     0.010 A 
ATOM     99  C   UNL     1       9.850  13.945   6.944  1.00  0.00     0.020 A 
ATOM    100  C   UNL     1      12.049  14.557   7.779  1.00  0.00     0.020 A 
ATOM    101  C   UNL     1      10.691  14.838   7.617  1.00  0.00     0.054 A 
BRANCH 101 102
ATOM    102  S   UNL     1       9.977  16.349   8.323  1.00  0.00     0.124 S 
ATOM    103  O   UNL     1       9.799  17.182   7.137  1.00  0.00    -0.237 OA
ATOM    104  O   UNL     1       8.745  15.866   8.942  1.00  0.00    -0.237 OA
ATOM    105  O   UNL     1      10.999  16.809   9.260  1.00  0.00    -0.744 OA
ENDBRANCH 101 102
ENDBRANCH  75  96
ENDBRANCH  49  50
ENDBRANCH  41  44
ENDBRANCH  39  40
ENDBRANCH  38  39
ENDBRANCH  37  38
ENDBRANCH  36  37
ENDBRANCH   1  36
TORSDOF 21
