REMARK SMILES C/C(=N\Nc1nc(-c2ccc(Cl)cc2)cs1)c1nnn(-c2ccc(C(=O)NCCCCCCNC(=O)c3ccc(-c4c5nc(c(-c6ccc(S(=O)(=O)[O-])cc6)c6ccc([nH]6)c(-c6ccc(S(=O)(=O)[O-])cc6)c6nc(c(-c7ccc(S(=O)(=O)[O-])cc7)c7ccc4[nH]7)C=C6)C=C5)cc3)cc2)c1C
REMARK SMILES IDX 29 1 28 2 27 3 25 4 26 5 24 7 21 8 22 9 98 10 23 11 97 12
REMARK SMILES IDX 20 13 17 14 18 15 99 16 19 17 100 18 2 19 1 20 3 21 4 22
REMARK SMILES IDX 5 24 6 25 16 26 7 27 15 28 8 29 9 30 14 31 10 32 13 33 11 34
REMARK SMILES IDX 12 35 30 36 31 37 32 38 33 39 34 40 35 41 36 43 37 44 38 45
REMARK SMILES IDX 96 46 39 47 95 48 40 49 41 50 42 51 89 52 43 53 94 54 88 55
REMARK SMILES IDX 90 56 44 57 93 58 87 59 86 60 45 62 75 63 56 64 74 65 57 66
REMARK SMILES IDX 60 67 73 68 91 69 58 70 59 71 72 73 92 74 61 75 46 76 47 77
REMARK SMILES IDX 55 78 48 79 54 80 49 81 50 82 51 83 52 84 53 85 76 86 77 87
REMARK SMILES IDX 85 88 78 89 84 90 79 91 80 92 81 93 82 94 83 95 62 96 63 97
REMARK SMILES IDX 71 98 64 99 70 100 65 101 66 102 67 103 68 104 69 105
REMARK H PARENT 27 6 4 23 34 42 90 61 60 72
REMARK Flexibility Score: inf
ROOT
ATOM      1  C   UNL     1       8.654  -2.356   6.782  1.00  0.00     0.021 C 
ENDROOT
BRANCH   1   2
ATOM      2  C   UNL     1       8.422  -2.742   5.319  1.00  0.00     0.116 C 
BRANCH   2   3
ATOM      3  N   UNL     1       8.129  -4.159   5.206  1.00  0.00    -0.352 N 
ATOM      4  C   UNL     1       6.966  -4.862   5.007  1.00  0.00     0.251 C 
ATOM      5  O   UNL     1       7.054  -6.086   4.906  1.00  0.00    -0.269 OA
ATOM      6  H   UNL     1       8.925  -4.733   5.289  1.00  0.00     0.163 HD
BRANCH   4   7
ATOM      7  C   UNL     1       5.637  -4.211   4.817  1.00  0.00     0.039 A 
ATOM      8  C   UNL     1       3.235  -2.990   4.077  1.00  0.00     0.067 A 
ATOM      9  C   UNL     1       3.456  -4.321   3.721  1.00  0.00     0.029 A 
ATOM     10  C   UNL     1       4.135  -2.314   4.903  1.00  0.00     0.029 A 
ATOM     11  C   UNL     1       4.674  -4.915   4.069  1.00  0.00     0.016 A 
ATOM     12  C   UNL     1       5.306  -2.949   5.314  1.00  0.00     0.016 A 
BRANCH   8  13
ATOM     13  N   UNL     1       2.172  -2.277   3.494  1.00  0.00    -0.217 N 
ATOM     14  C   UNL     1       1.006  -0.948   2.223  1.00  0.00     0.132 A 
ATOM     15  N   UNL     1       0.176  -1.912   2.724  1.00  0.00    -0.128 NA
ATOM     16  C   UNL     1       2.296  -1.164   2.682  1.00  0.00     0.071 A 
ATOM     17  N   UNL     1       0.917  -2.770   3.417  1.00  0.00    -0.061 NA
ATOM     18  C   UNL     1       3.588  -0.562   2.256  1.00  0.00     0.069 C 
BRANCH  14  19
ATOM     19  C   UNL     1       0.647  -0.049   1.140  1.00  0.00     0.087 C 
ATOM     20  C   UNL     1       1.345  -0.355  -0.163  1.00  0.00     0.071 C 
ATOM     21  N   UNL     1      -0.159   0.935   1.429  1.00  0.00    -0.176 NA
BRANCH  21  22
ATOM     22  N   UNL     1      -0.468   1.945   0.545  1.00  0.00    -0.252 N 
ATOM     23  H   UNL     1      -0.795   2.775   0.961  1.00  0.00     0.193 HD
BRANCH  22  24
ATOM     24  C   UNL     1      -0.390   1.976  -0.809  1.00  0.00     0.203 A 
ATOM     25  N   UNL     1      -0.614   0.965  -1.615  1.00  0.00    -0.219 NA
ATOM     26  S   UNL     1       0.179   3.394  -1.621  1.00  0.00    -0.103 S 
ATOM     27  C   UNL     1      -0.009   1.177  -2.835  1.00  0.00     0.084 A 
ATOM     28  C   UNL     1       0.491   2.448  -3.024  1.00  0.00     0.097 A 
BRANCH  27  29
ATOM     29  C   UNL     1       0.148   0.065  -3.754  1.00  0.00     0.001 A 
ATOM     30  C   UNL     1      -0.958  -0.747  -4.038  1.00  0.00     0.012 A 
ATOM     31  C   UNL     1       1.409  -0.293  -4.251  1.00  0.00     0.012 A 
ATOM     32  C   UNL     1      -0.816  -1.882  -4.840  1.00  0.00     0.021 A 
ATOM     33  C   UNL     1       1.554  -1.436  -5.044  1.00  0.00     0.021 A 
ATOM     34  C   UNL     1       0.439  -2.220  -5.341  1.00  0.00     0.041 A 
ATOM     35  Cl  UNL     1       0.618  -3.623  -6.320  1.00  0.00    -0.084 Cl
ENDBRANCH  27  29
ENDBRANCH  22  24
ENDBRANCH  21  22
ENDBRANCH  14  19
ENDBRANCH   8  13
ENDBRANCH   4   7
ENDBRANCH   2   3
ENDBRANCH   1   2
BRANCH   1  36
ATOM     36  C   UNL     1      10.063  -2.696   7.286  1.00  0.00     0.002 C 
BRANCH  36  37
ATOM     37  C   UNL     1      11.217  -2.024   6.524  1.00  0.00     0.002 C 
BRANCH  37  38
ATOM     38  C   UNL     1      11.114  -0.502   6.351  1.00  0.00     0.021 C 
BRANCH  38  39
ATOM     39  C   UNL     1      11.208   0.268   7.661  1.00  0.00     0.116 C 
BRANCH  39  40
ATOM     40  N   UNL     1      12.538   0.168   8.254  1.00  0.00    -0.352 N 
ATOM     41  C   UNL     1      12.997   0.707   9.439  1.00  0.00     0.251 C 
ATOM     42  H   UNL     1      13.196  -0.354   7.739  1.00  0.00     0.163 HD
ATOM     43  O   UNL     1      14.193   0.889   9.608  1.00  0.00    -0.269 OA
BRANCH  41  44
ATOM     44  C   UNL     1      12.025   1.054  10.495  1.00  0.00     0.039 A 
ATOM     45  C   UNL     1      12.212   2.188  11.289  1.00  0.00     0.014 A 
ATOM     46  C   UNL     1      10.922   0.224  10.694  1.00  0.00     0.014 A 
ATOM     47  C   UNL     1      11.239   2.518  12.229  1.00  0.00     0.010 A 
ATOM     48  C   UNL     1       9.902   0.617  11.527  1.00  0.00     0.010 A 
ATOM     49  C   UNL     1      10.070   1.741  12.326  1.00  0.00    -0.014 A 
BRANCH  49  50
ATOM     50  C   UNL     1       8.938   2.204  13.126  1.00  0.00     0.031 A 
ATOM     51  C   UNL     1       8.500   3.577  12.765  1.00  0.00     0.074 A 
ATOM     52  C   UNL     1       8.213   1.420  13.954  1.00  0.00     0.049 A 
ATOM     53  N   UNL     1       8.736   4.663  13.421  1.00  0.00    -0.248 NA
ATOM     54  C   UNL     1       7.921   3.804  11.428  1.00  0.00     0.031 C 
ATOM     55  C   UNL     1       8.352  -0.023  14.179  1.00  0.00     0.029 A 
ATOM     56  N   UNL     1       7.115   1.729  14.701  1.00  0.00    -0.354 N 
ATOM     57  C   UNL     1       8.070   5.665  12.727  1.00  0.00     0.074 A 
ATOM     58  C   UNL     1       7.820   5.135  11.411  1.00  0.00     0.031 C 
ATOM     59  C   UNL     1       7.250  -0.496  14.805  1.00  0.00     0.029 A 
ATOM     60  C   UNL     1       6.406   0.625  15.176  1.00  0.00     0.049 A 
ATOM     61  H   UNL     1       6.844   2.656  14.889  1.00  0.00     0.167 HD
ATOM     62  C   UNL     1       7.481   6.696  13.395  1.00  0.00     0.031 A 
ATOM     63  C   UNL     1       5.207   0.630  15.817  1.00  0.00     0.031 A 
ATOM     64  C   UNL     1       7.931   6.757  14.767  1.00  0.00     0.049 A 
ATOM     65  C   UNL     1       5.036   1.984  16.391  1.00  0.00     0.074 A 
ATOM     66  C   UNL     1       9.157   6.856  15.395  1.00  0.00     0.029 A 
ATOM     67  N   UNL     1       7.052   6.285  15.713  1.00  0.00    -0.354 N 
ATOM     68  N   UNL     1       5.789   2.456  17.343  1.00  0.00    -0.248 NA
ATOM     69  C   UNL     1       4.321   2.977  15.608  1.00  0.00     0.031 C 
ATOM     70  C   UNL     1       9.052   6.017  16.544  1.00  0.00     0.029 A 
ATOM     71  C   UNL     1       7.748   5.524  16.611  1.00  0.00     0.049 A 
ATOM     72  H   UNL     1       6.085   6.465  15.739  1.00  0.00     0.167 HD
ATOM     73  C   UNL     1       6.011   3.777  16.987  1.00  0.00     0.074 A 
ATOM     74  C   UNL     1       4.992   4.071  15.979  1.00  0.00     0.031 C 
ATOM     75  C   UNL     1       7.174   4.406  17.332  1.00  0.00     0.031 A 
BRANCH  62  76
ATOM     76  C   UNL     1       6.160   7.309  12.976  1.00  0.00    -0.014 A 
ATOM     77  C   UNL     1       5.627   8.353  13.761  1.00  0.00     0.010 A 
ATOM     78  C   UNL     1       5.291   6.710  12.041  1.00  0.00     0.010 A 
ATOM     79  C   UNL     1       4.275   8.711  13.675  1.00  0.00     0.020 A 
ATOM     80  C   UNL     1       3.955   7.091  11.914  1.00  0.00     0.020 A 
ATOM     81  C   UNL     1       3.447   8.068  12.757  1.00  0.00     0.054 A 
BRANCH  81  82
ATOM     82  S   UNL     1       1.689   8.485  12.703  1.00  0.00     0.124 S 
ATOM     83  O   UNL     1       1.228   7.998  13.999  1.00  0.00    -0.237 OA
ATOM     84  O   UNL     1       1.725   9.936  12.544  1.00  0.00    -0.237 OA
ATOM     85  O   UNL     1       1.201   7.747  11.541  1.00  0.00    -0.744 OA
ENDBRANCH  81  82
ENDBRANCH  62  76
BRANCH  63  86
ATOM     86  C   UNL     1       4.084  -0.343  15.742  1.00  0.00    -0.014 A 
ATOM     87  C   UNL     1       2.978  -0.239  16.612  1.00  0.00     0.010 A 
ATOM     88  C   UNL     1       3.946  -1.177  14.615  1.00  0.00     0.010 A 
ATOM     89  C   UNL     1       1.756  -0.872  16.319  1.00  0.00     0.020 A 
ATOM     90  C   UNL     1       2.733  -1.817  14.320  1.00  0.00     0.020 A 
ATOM     91  C   UNL     1       1.634  -1.637  15.158  1.00  0.00     0.054 A 
BRANCH  91  92
ATOM     92  S   UNL     1       0.001  -2.278  14.671  1.00  0.00     0.124 S 
ATOM     93  O   UNL     1      -0.224  -3.335  15.653  1.00  0.00    -0.237 OA
ATOM     94  O   UNL     1      -0.855  -1.102  14.801  1.00  0.00    -0.237 OA
ATOM     95  O   UNL     1       0.210  -2.739  13.300  1.00  0.00    -0.744 OA
ENDBRANCH  91  92
ENDBRANCH  63  86
BRANCH  75  96
ATOM     96  C   UNL     1       8.029   3.798  18.419  1.00  0.00    -0.014 A 
ATOM     97  C   UNL     1       8.619   2.520  18.360  1.00  0.00     0.010 A 
ATOM     98  C   UNL     1       8.350   4.634  19.504  1.00  0.00     0.010 A 
ATOM     99  C   UNL     1       9.483   2.085  19.379  1.00  0.00     0.020 A 
ATOM    100  C   UNL     1       9.222   4.216  20.508  1.00  0.00     0.020 A 
ATOM    101  C   UNL     1       9.777   2.938  20.448  1.00  0.00     0.054 A 
BRANCH 101 102
ATOM    102  S   UNL     1      10.915   2.391  21.752  1.00  0.00     0.124 S 
ATOM    103  O   UNL     1      10.158   1.330  22.410  1.00  0.00    -0.237 OA
ATOM    104  O   UNL     1      12.087   1.954  20.997  1.00  0.00    -0.237 OA
ATOM    105  O   UNL     1      11.124   3.593  22.559  1.00  0.00    -0.744 OA
ENDBRANCH 101 102
ENDBRANCH  75  96
ENDBRANCH  49  50
ENDBRANCH  41  44
ENDBRANCH  39  40
ENDBRANCH  38  39
ENDBRANCH  37  38
ENDBRANCH  36  37
ENDBRANCH   1  36
TORSDOF 21
