REMARK SMILES C[C@@H](CC(=O)NCCCCCCNC(=O)c1ccc(-c2c3nc(c(-c4ccc(S(=O)(=O)[O-])cc4)c4ccc([nH]4)c(-c4ccc(S(=O)(=O)[O-])cc4)c4nc(c(-c5ccc(S(=O)(=O)[O-])cc5)c5ccc2[nH]5)C=C4)C=C3)cc1)NC(=O)[C@@H]1CCCN(C(N)=O)C1
REMARK SMILES IDX 9 1 8 2 7 3 6 4 4 5 5 6 3 8 2 9 1 10 76 11 77 12 78 14 79 15
REMARK SMILES IDX 80 16 87 17 81 18 83 19 82 20 84 21 85 22 86 23 10 26 11 27
REMARK SMILES IDX 12 28 13 29 14 30 15 32 16 33 17 34 75 35 18 36 74 37 19 38
REMARK SMILES IDX 20 39 21 40 68 41 22 42 73 43 67 44 69 45 23 46 72 47 66 48
REMARK SMILES IDX 65 49 24 51 54 52 35 53 53 54 36 55 39 56 52 57 70 58 37 59
REMARK SMILES IDX 38 60 51 62 71 63 40 64 25 65 26 66 34 67 27 68 33 69 28 70
REMARK SMILES IDX 29 71 30 72 31 73 32 74 55 75 56 76 64 77 57 78 63 79 58 80
REMARK SMILES IDX 59 81 60 82 61 83 62 84 41 85 42 86 50 87 43 88 49 89 44 90
REMARK SMILES IDX 45 91 46 92 47 93 48 94
REMARK H PARENT 6 7 76 13 85 24 85 25 13 31 69 50 39 61
REMARK Flexibility Score: inf
ROOT
ATOM      1  C   UNL     1       0.677   2.290  -3.518  1.00  0.00     0.002 C 
ENDROOT
BRANCH   1   2
ATOM      2  C   UNL     1       0.987   1.386  -2.322  1.00  0.00     0.021 C 
BRANCH   2   3
ATOM      3  C   UNL     1       1.782   2.086  -1.220  1.00  0.00     0.116 C 
BRANCH   3   4
ATOM      4  N   UNL     1       0.882   2.837  -0.371  1.00  0.00    -0.356 N 
ATOM      5  C   UNL     1       0.478   2.574   0.898  1.00  0.00     0.222 C 
ATOM      6  O   UNL     1      -0.475   3.208   1.353  1.00  0.00    -0.275 OA
ATOM      7  H   UNL     1       0.510   3.656  -0.771  1.00  0.00     0.163 HD
BRANCH   5   8
ATOM      8  C   UNL     1       1.201   1.548   1.743  1.00  0.00     0.124 C 
BRANCH   8   9
ATOM      9  C   UNL     1       0.627   0.123   1.738  1.00  0.00     0.088 C 
ATOM     10  C   UNL     1       1.018  -0.704   0.519  1.00  0.00     0.031 C 
BRANCH   9  11
ATOM     11  N   UNL     1      -0.820   0.099   1.940  1.00  0.00    -0.353 N 
ATOM     12  C   UNL     1      -1.607  -0.775   2.631  1.00  0.00     0.225 C 
ATOM     13  H   UNL     1      -1.307   0.835   1.505  1.00  0.00     0.163 HD
ATOM     14  O   UNL     1      -2.817  -0.547   2.672  1.00  0.00    -0.275 OA
BRANCH  12  15
ATOM     15  C   UNL     1      -0.978  -1.974   3.334  1.00  0.00     0.098 C 
ATOM     16  C   UNL     1      -0.955  -3.229   2.447  1.00  0.00     0.017 C 
ATOM     17  C   UNL     1      -1.674  -2.217   4.677  1.00  0.00     0.134 C 
ATOM     18  C   UNL     1      -2.268  -4.013   2.445  1.00  0.00     0.022 C 
ATOM     19  N   UNL     1      -2.910  -2.984   4.549  1.00  0.00    -0.324 N 
ATOM     20  C   UNL     1      -2.777  -4.257   3.860  1.00  0.00     0.121 C 
BRANCH  19  21
ATOM     21  C   UNL     1      -4.146  -2.599   5.010  1.00  0.00     0.314 C 
ATOM     22  N   UNL     1      -4.266  -1.304   5.380  1.00  0.00    -0.351 N 
ATOM     23  O   UNL     1      -5.119  -3.341   5.099  1.00  0.00    -0.249 OA
ATOM     24  H   UNL     1      -3.493  -0.699   5.314  1.00  0.00     0.161 HD
ATOM     25  H   UNL     1      -5.128  -0.966   5.717  1.00  0.00     0.161 HD
ENDBRANCH  19  21
ENDBRANCH  12  15
ENDBRANCH   9  11
ENDBRANCH   8   9
ENDBRANCH   5   8
ENDBRANCH   3   4
ENDBRANCH   2   3
ENDBRANCH   1   2
BRANCH   1  26
ATOM     26  C   UNL     1       1.911   2.774  -4.283  1.00  0.00     0.002 C 
BRANCH  26  27
ATOM     27  C   UNL     1       2.858   1.664  -4.747  1.00  0.00     0.021 C 
BRANCH  27  28
ATOM     28  C   UNL     1       2.199   0.590  -5.608  1.00  0.00     0.116 C 
BRANCH  28  29
ATOM     29  N   UNL     1       1.621   1.153  -6.818  1.00  0.00    -0.352 N 
ATOM     30  C   UNL     1       1.937   0.901  -8.126  1.00  0.00     0.251 C 
ATOM     31  H   UNL     1       0.900   1.808  -6.676  1.00  0.00     0.163 HD
ATOM     32  O   UNL     1       1.527   1.651  -9.013  1.00  0.00    -0.269 OA
BRANCH  30  33
ATOM     33  C   UNL     1       2.777  -0.263  -8.467  1.00  0.00     0.039 A 
ATOM     34  C   UNL     1       3.822  -0.104  -9.380  1.00  0.00     0.014 A 
ATOM     35  C   UNL     1       2.526  -1.513  -7.891  1.00  0.00     0.014 A 
ATOM     36  C   UNL     1       4.651  -1.188  -9.674  1.00  0.00     0.010 A 
ATOM     37  C   UNL     1       3.395  -2.573  -8.133  1.00  0.00     0.010 A 
ATOM     38  C   UNL     1       4.464  -2.423  -9.029  1.00  0.00    -0.014 A 
BRANCH  38  39
ATOM     39  C   UNL     1       5.384  -3.562  -9.273  1.00  0.00     0.031 A 
ATOM     40  C   UNL     1       4.874  -4.827  -9.908  1.00  0.00     0.074 A 
ATOM     41  C   UNL     1       6.665  -3.479  -8.862  1.00  0.00     0.049 A 
ATOM     42  N   UNL     1       5.515  -5.941 -10.152  1.00  0.00    -0.248 NA
ATOM     43  C   UNL     1       3.454  -4.855 -10.297  1.00  0.00     0.031 C 
ATOM     44  C   UNL     1       7.265  -2.323  -8.190  1.00  0.00     0.029 A 
ATOM     45  N   UNL     1       7.692  -4.386  -8.939  1.00  0.00    -0.354 N 
ATOM     46  C   UNL     1       4.577  -6.805 -10.706  1.00  0.00     0.074 A 
ATOM     47  C   UNL     1       3.313  -6.104 -10.720  1.00  0.00     0.031 C 
ATOM     48  C   UNL     1       8.558  -2.583  -7.939  1.00  0.00     0.029 A 
ATOM     49  C   UNL     1       8.870  -3.935  -8.391  1.00  0.00     0.049 A 
ATOM     50  H   UNL     1       7.595  -5.276  -9.349  1.00  0.00     0.167 HD
ATOM     51  C   UNL     1       4.757  -8.063 -11.174  1.00  0.00     0.031 A 
ATOM     52  C   UNL     1      10.064  -4.543  -8.257  1.00  0.00     0.031 A 
ATOM     53  C   UNL     1       6.021  -8.752 -11.171  1.00  0.00     0.049 A 
ATOM     54  C   UNL     1      10.238  -5.940  -8.786  1.00  0.00     0.074 A 
ATOM     55  C   UNL     1       6.319 -10.001 -11.686  1.00  0.00     0.029 A 
ATOM     56  N   UNL     1       7.193  -8.254 -10.623  1.00  0.00    -0.354 N 
ATOM     57  N   UNL     1       9.357  -6.711  -9.378  1.00  0.00    -0.248 NA
ATOM     58  C   UNL     1      11.569  -6.545  -8.641  1.00  0.00     0.031 C 
ATOM     59  C   UNL     1       7.658 -10.284 -11.397  1.00  0.00     0.029 A 
ATOM     60  C   UNL     1       8.210  -9.184 -10.760  1.00  0.00     0.049 A 
ATOM     61  H   UNL     1       7.289  -7.370 -10.200  1.00  0.00     0.167 HD
ATOM     62  C   UNL     1      10.034  -7.882  -9.698  1.00  0.00     0.074 A 
ATOM     63  C   UNL     1      11.401  -7.710  -9.251  1.00  0.00     0.031 C 
ATOM     64  C   UNL     1       9.566  -9.000 -10.307  1.00  0.00     0.031 A 
BRANCH  51  65
ATOM     65  C   UNL     1       3.555  -8.785 -11.726  1.00  0.00    -0.014 A 
ATOM     66  C   UNL     1       2.966  -8.396 -12.942  1.00  0.00     0.010 A 
ATOM     67  C   UNL     1       3.045  -9.908 -11.048  1.00  0.00     0.010 A 
ATOM     68  C   UNL     1       1.868  -9.094 -13.453  1.00  0.00     0.020 A 
ATOM     69  C   UNL     1       1.964 -10.626 -11.569  1.00  0.00     0.020 A 
ATOM     70  C   UNL     1       1.374 -10.205 -12.762  1.00  0.00     0.054 A 
BRANCH  70  71
ATOM     71  S   UNL     1      -0.029 -11.113 -13.468  1.00  0.00     0.124 S 
ATOM     72  O   UNL     1      -1.133 -10.183 -13.243  1.00  0.00    -0.237 OA
ATOM     73  O   UNL     1       0.372 -11.287 -14.862  1.00  0.00    -0.237 OA
ATOM     74  O   UNL     1      -0.079 -12.341 -12.679  1.00  0.00    -0.744 OA
ENDBRANCH  70  71
ENDBRANCH  51  65
BRANCH  52  75
ATOM     75  C   UNL     1      11.191  -3.831  -7.593  1.00  0.00    -0.014 A 
ATOM     76  C   UNL     1      12.307  -3.403  -8.333  1.00  0.00     0.010 A 
ATOM     77  C   UNL     1      11.146  -3.569  -6.211  1.00  0.00     0.010 A 
ATOM     78  C   UNL     1      13.367  -2.747  -7.701  1.00  0.00     0.020 A 
ATOM     79  C   UNL     1      12.190  -2.887  -5.581  1.00  0.00     0.020 A 
ATOM     80  C   UNL     1      13.301  -2.492  -6.328  1.00  0.00     0.054 A 
BRANCH  80  81
ATOM     81  S   UNL     1      14.667  -1.598  -5.535  1.00  0.00     0.124 S 
ATOM     82  O   UNL     1      15.713  -2.614  -5.498  1.00  0.00    -0.237 OA
ATOM     83  O   UNL     1      14.893  -0.487  -6.457  1.00  0.00    -0.237 OA
ATOM     84  O   UNL     1      14.115  -1.216  -4.237  1.00  0.00    -0.744 OA
ENDBRANCH  80  81
ENDBRANCH  52  75
BRANCH  64  85
ATOM     85  C   UNL     1      10.545 -10.116 -10.553  1.00  0.00    -0.014 A 
ATOM     86  C   UNL     1      11.035 -10.904  -9.497  1.00  0.00     0.010 A 
ATOM     87  C   UNL     1      10.938 -10.415 -11.871  1.00  0.00     0.010 A 
ATOM     88  C   UNL     1      11.926 -11.950  -9.751  1.00  0.00     0.020 A 
ATOM     89  C   UNL     1      11.806 -11.479 -12.132  1.00  0.00     0.020 A 
ATOM     90  C   UNL     1      12.306 -12.230 -11.067  1.00  0.00     0.054 A 
BRANCH  90  91
ATOM     91  S   UNL     1      13.430 -13.620 -11.374  1.00  0.00     0.124 S 
ATOM     92  O   UNL     1      14.705 -13.089 -10.897  1.00  0.00    -0.237 OA
ATOM     93  O   UNL     1      12.850 -14.687 -10.561  1.00  0.00    -0.237 OA
ATOM     94  O   UNL     1      13.342 -13.826 -12.818  1.00  0.00    -0.744 OA
ENDBRANCH  90  91
ENDBRANCH  64  85
ENDBRANCH  38  39
ENDBRANCH  30  33
ENDBRANCH  28  29
ENDBRANCH  27  28
ENDBRANCH  26  27
ENDBRANCH   1  26
TORSDOF 20
