REMARK SMILES O=C(NCCCCCCNC(=O)c1c(F)cccc1N1CC[C@@H]([NH+]2CCCCC2)C1)c1ccc(-c2c3nc(c(-c4ccc(S(=O)(=O)[O-])cc4)c4ccc([nH]4)c(-c4ccc(S(=O)(=O)[O-])cc4)c4nc(c(-c5ccc(S(=O)(=O)[O-])cc5)c5ccc2[nH]5)C=C4)C=C3)cc1
REMARK SMILES IDX 6 1 5 2 4 3 3 4 1 5 2 6 31 8 32 9 90 10 33 11 89 12 34 13
REMARK SMILES IDX 35 14 36 15 83 16 37 17 88 18 82 19 84 20 38 21 87 22 81 23
REMARK SMILES IDX 80 24 39 26 69 27 50 28 68 29 51 30 54 31 67 32 85 33 52 34
REMARK SMILES IDX 53 35 66 37 86 38 55 39 40 40 41 41 49 42 42 43 48 44 43 45
REMARK SMILES IDX 44 46 45 47 46 48 47 49 70 50 71 51 79 52 72 53 78 54 73 55
REMARK SMILES IDX 74 56 75 57 76 58 77 59 56 60 57 61 65 62 58 63 64 64 59 65
REMARK SMILES IDX 60 66 61 67 62 68 63 69 7 70 8 71 9 72 10 73 11 74 12 76
REMARK SMILES IDX 13 77 14 78 19 79 15 80 16 81 18 82 17 83 20 84 21 85 30 86
REMARK SMILES IDX 22 87 23 88 24 89 25 90 29 91 26 93 28 94 27 95
REMARK H PARENT 3 7 84 25 54 36 10 75 24 92
REMARK Flexibility Score: inf
ROOT
ATOM      1  C   UNL     1       4.334  -3.908  -0.629  1.00  0.00     0.002 C 
ENDROOT
BRANCH   1   2
ATOM      2  C   UNL     1       4.778  -2.698   0.192  1.00  0.00     0.021 C 
BRANCH   2   3
ATOM      3  C   UNL     1       4.531  -1.339  -0.451  1.00  0.00     0.116 C 
BRANCH   3   4
ATOM      4  N   UNL     1       3.119  -1.032  -0.613  1.00  0.00    -0.352 N 
ATOM      5  O   UNL     1       1.180   0.074  -0.294  1.00  0.00    -0.269 OA
ATOM      6  C   UNL     1       2.402   0.055  -0.169  1.00  0.00     0.251 C 
ATOM      7  H   UNL     1       2.599  -1.701  -1.114  1.00  0.00     0.163 HD
BRANCH   6   8
ATOM      8  C   UNL     1       3.095   1.186   0.489  1.00  0.00     0.039 A 
ATOM      9  C   UNL     1       4.279   1.709  -0.036  1.00  0.00     0.014 A 
ATOM     10  C   UNL     1       2.553   1.730   1.659  1.00  0.00     0.014 A 
ATOM     11  C   UNL     1       5.002   2.651   0.691  1.00  0.00     0.010 A 
ATOM     12  C   UNL     1       3.240   2.740   2.342  1.00  0.00     0.010 A 
ATOM     13  C   UNL     1       4.494   3.177   1.890  1.00  0.00    -0.014 A 
BRANCH  13  14
ATOM     14  C   UNL     1       5.284   4.192   2.637  1.00  0.00     0.031 A 
ATOM     15  C   UNL     1       5.826   3.899   4.013  1.00  0.00     0.074 A 
ATOM     16  C   UNL     1       5.550   5.376   2.050  1.00  0.00     0.049 A 
ATOM     17  N   UNL     1       6.583   4.648   4.776  1.00  0.00    -0.248 NA
ATOM     18  C   UNL     1       5.468   2.605   4.614  1.00  0.00     0.031 C 
ATOM     19  C   UNL     1       5.081   5.784   0.723  1.00  0.00     0.029 A 
ATOM     20  N   UNL     1       6.300   6.442   2.478  1.00  0.00    -0.354 N 
ATOM     21  C   UNL     1       6.769   3.933   5.954  1.00  0.00     0.074 A 
ATOM     22  C   UNL     1       6.027   2.697   5.813  1.00  0.00     0.031 C 
ATOM     23  C   UNL     1       5.601   6.982   0.422  1.00  0.00     0.029 A 
ATOM     24  C   UNL     1       6.391   7.456   1.554  1.00  0.00     0.049 A 
ATOM     25  H   UNL     1       6.731   6.478   3.362  1.00  0.00     0.167 HD
ATOM     26  C   UNL     1       7.492   4.270   7.050  1.00  0.00     0.031 A 
ATOM     27  C   UNL     1       7.035   8.637   1.605  1.00  0.00     0.031 A 
ATOM     28  C   UNL     1       8.236   5.496   7.185  1.00  0.00     0.049 A 
ATOM     29  C   UNL     1       7.821   8.991   2.834  1.00  0.00     0.074 A 
ATOM     30  C   UNL     1       9.032   5.908   8.240  1.00  0.00     0.029 A 
ATOM     31  N   UNL     1       8.274   6.509   6.239  1.00  0.00    -0.354 N 
ATOM     32  N   UNL     1       8.013   8.282   3.921  1.00  0.00    -0.248 NA
ATOM     33  C   UNL     1       8.482  10.302   2.840  1.00  0.00     0.031 C 
ATOM     34  C   UNL     1       9.511   7.192   7.954  1.00  0.00     0.029 A 
ATOM     35  C   UNL     1       9.061   7.555   6.694  1.00  0.00     0.049 A 
ATOM     36  H   UNL     1       7.810   6.489   5.371  1.00  0.00     0.167 HD
ATOM     37  C   UNL     1       8.842   9.051   4.730  1.00  0.00     0.074 A 
ATOM     38  C   UNL     1       9.123  10.272   4.001  1.00  0.00     0.031 C 
ATOM     39  C   UNL     1       9.331   8.766   5.962  1.00  0.00     0.031 A 
BRANCH  26  40
ATOM     40  C   UNL     1       7.486   3.309   8.212  1.00  0.00    -0.014 A 
ATOM     41  C   UNL     1       8.161   2.077   8.151  1.00  0.00     0.010 A 
ATOM     42  C   UNL     1       6.818   3.663   9.400  1.00  0.00     0.010 A 
ATOM     43  C   UNL     1       8.128   1.197   9.237  1.00  0.00     0.020 A 
ATOM     44  C   UNL     1       6.805   2.798  10.498  1.00  0.00     0.020 A 
ATOM     45  C   UNL     1       7.443   1.560  10.401  1.00  0.00     0.054 A 
BRANCH  45  46
ATOM     46  S   UNL     1       7.417   0.401  11.797  1.00  0.00     0.124 S 
ATOM     47  O   UNL     1       6.471  -0.610  11.329  1.00  0.00    -0.237 OA
ATOM     48  O   UNL     1       8.809  -0.034  11.881  1.00  0.00    -0.237 OA
ATOM     49  O   UNL     1       6.954   1.216  12.917  1.00  0.00    -0.744 OA
ENDBRANCH  45  46
ENDBRANCH  26  40
BRANCH  27  50
ATOM     50  C   UNL     1       6.972   9.561   0.441  1.00  0.00    -0.014 A 
ATOM     51  C   UNL     1       8.106   9.771  -0.363  1.00  0.00     0.010 A 
ATOM     52  C   UNL     1       5.768  10.210   0.112  1.00  0.00     0.010 A 
ATOM     53  C   UNL     1       8.039  10.622  -1.470  1.00  0.00     0.020 A 
ATOM     54  C   UNL     1       5.690  11.038  -1.010  1.00  0.00     0.020 A 
ATOM     55  C   UNL     1       6.830  11.247  -1.789  1.00  0.00     0.054 A 
BRANCH  55  56
ATOM     56  S   UNL     1       6.750  12.295  -3.267  1.00  0.00     0.124 S 
ATOM     57  O   UNL     1       7.452  13.495  -2.826  1.00  0.00    -0.237 OA
ATOM     58  O   UNL     1       7.443  11.486  -4.267  1.00  0.00    -0.237 OA
ATOM     59  O   UNL     1       5.315  12.455  -3.494  1.00  0.00    -0.744 OA
ENDBRANCH  55  56
ENDBRANCH  27  50
BRANCH  39  60
ATOM     60  C   UNL     1      10.259   9.776   6.583  1.00  0.00    -0.014 A 
ATOM     61  C   UNL     1       9.784  11.007   7.070  1.00  0.00     0.010 A 
ATOM     62  C   UNL     1      11.627   9.472   6.704  1.00  0.00     0.010 A 
ATOM     63  C   UNL     1      10.670  11.933   7.629  1.00  0.00     0.020 A 
ATOM     64  C   UNL     1      12.510  10.383   7.287  1.00  0.00     0.020 A 
ATOM     65  C   UNL     1      12.028  11.617   7.730  1.00  0.00     0.054 A 
BRANCH  65  66
ATOM     66  S   UNL     1      13.156  12.823   8.480  1.00  0.00     0.124 S 
ATOM     67  O   UNL     1      13.306  13.805   7.410  1.00  0.00    -0.237 OA
ATOM     68  O   UNL     1      12.410  13.277   9.651  1.00  0.00    -0.237 OA
ATOM     69  O   UNL     1      14.352  12.038   8.778  1.00  0.00    -0.744 OA
ENDBRANCH  65  66
ENDBRANCH  39  60
ENDBRANCH  13  14
ENDBRANCH   6   8
ENDBRANCH   3   4
ENDBRANCH   2   3
ENDBRANCH   1   2
BRANCH   1  70
ATOM     70  C   UNL     1       4.912  -4.013  -2.043  1.00  0.00     0.002 C 
BRANCH  70  71
ATOM     71  C   UNL     1       6.438  -3.925  -2.163  1.00  0.00     0.021 C 
BRANCH  71  72
ATOM     72  C   UNL     1       7.239  -4.867  -1.266  1.00  0.00     0.116 C 
BRANCH  72  73
ATOM     73  N   UNL     1       6.921  -6.266  -1.485  1.00  0.00    -0.352 N 
ATOM     74  C   UNL     1       7.776  -7.318  -1.726  1.00  0.00     0.256 C 
ATOM     75  H   UNL     1       5.963  -6.494  -1.458  1.00  0.00     0.163 HD
ATOM     76  O   UNL     1       7.324  -8.452  -1.867  1.00  0.00    -0.269 OA
BRANCH  74  77
ATOM     77  C   UNL     1       9.226  -7.070  -1.846  1.00  0.00     0.098 A 
ATOM     78  C   UNL     1       9.893  -6.688  -0.675  1.00  0.00     0.138 A 
ATOM     79  C   UNL     1       9.937  -7.309  -3.046  1.00  0.00     0.053 A 
ATOM     80  F   UNL     1       9.216  -6.486   0.465  1.00  0.00    -0.206 F 
ATOM     81  C   UNL     1      11.267  -6.488  -0.665  1.00  0.00     0.040 A 
ATOM     82  C   UNL     1      11.334  -7.136  -2.990  1.00  0.00     0.027 A 
ATOM     83  C   UNL     1      11.991  -6.715  -1.827  1.00  0.00     0.005 A 
BRANCH  79  84
ATOM     84  N   UNL     1       9.354  -7.663  -4.239  1.00  0.00    -0.365 N 
ATOM     85  C   UNL     1       8.170  -7.033  -4.787  1.00  0.00     0.123 C 
ATOM     86  C   UNL     1       9.854  -8.720  -5.123  1.00  0.00     0.181 C 
ATOM     87  C   UNL     1       7.567  -8.120  -5.658  1.00  0.00     0.088 C 
ATOM     88  C   UNL     1       8.762  -8.884  -6.236  1.00  0.00     0.205 C 
BRANCH  88  89
ATOM     89  N   UNL     1       9.212  -8.560  -7.604  1.00  0.00    -0.331 N 
ATOM     90  C   UNL     1       9.672  -7.201  -7.878  1.00  0.00     0.262 C 
ATOM     91  C   UNL     1       8.360  -9.084  -8.677  1.00  0.00     0.262 C 
ATOM     92  H   UNL     1      10.079  -9.098  -7.617  1.00  0.00     0.348 HD
ATOM     93  C   UNL     1       8.576  -6.212  -8.278  1.00  0.00     0.062 C 
ATOM     94  C   UNL     1       7.205  -8.175  -9.095  1.00  0.00     0.062 C 
ATOM     95  C   UNL     1       7.670  -6.751  -9.378  1.00  0.00     0.012 C 
ENDBRANCH  88  89
ENDBRANCH  79  84
ENDBRANCH  74  77
ENDBRANCH  72  73
ENDBRANCH  71  72
ENDBRANCH  70  71
ENDBRANCH   1  70
TORSDOF 18
