REMARK SMILES Cc1cc(F)cc(N[C@H](C(=O)NCCCCCCNC(=O)c2ccc(-c3c4nc(c(-c5ccc(S(=O)(=O)[O-])cc5)c5ccc([nH]5)c(-c5ccc(S(=O)(=O)[O-])cc5)c5nc(c(-c6ccc(S(=O)(=O)[O-])cc6)c6ccc3[nH]6)C=C5)C=C4)cc2)c2cc(C)cc(C)c2)c1
REMARK SMILES IDX 16 1 15 2 14 3 13 4 12 5 10 6 11 7 9 9 8 10 7 12 1 13 2 14
REMARK SMILES IDX 3 15 90 16 4 17 5 18 6 19 82 20 83 21 89 22 84 23 87 24
REMARK SMILES IDX 85 25 86 26 88 27 17 28 18 29 19 30 20 31 21 33 22 34 23 35
REMARK SMILES IDX 81 36 24 37 80 38 25 39 26 40 27 41 74 42 28 43 79 44 73 45
REMARK SMILES IDX 75 46 29 47 78 48 72 49 71 50 30 52 60 53 41 54 59 55 42 56
REMARK SMILES IDX 45 57 58 58 76 59 43 60 44 61 57 63 77 64 46 65 31 66 32 67
REMARK SMILES IDX 40 68 33 69 39 70 34 71 35 72 36 73 37 74 38 75 61 76 62 77
REMARK SMILES IDX 70 78 63 79 69 80 64 81 65 82 66 83 67 84 68 85 47 86 48 87
REMARK SMILES IDX 56 88 49 89 55 90 50 91 51 92 52 93 53 94 54 95
REMARK H PARENT 12 8 8 11 19 32 75 51 45 62
REMARK Flexibility Score: inf
ROOT
ATOM      1  C   UNL     1       3.354  -4.356  -3.882  1.00  0.00     0.002 C 
ENDROOT
BRANCH   1   2
ATOM      2  C   UNL     1       2.599  -3.024  -3.831  1.00  0.00     0.002 C 
BRANCH   2   3
ATOM      3  C   UNL     1       1.077  -3.123  -3.678  1.00  0.00     0.021 C 
BRANCH   3   4
ATOM      4  C   UNL     1       0.597  -3.939  -2.483  1.00  0.00     0.116 C 
BRANCH   4   5
ATOM      5  N   UNL     1       1.002  -3.366  -1.219  1.00  0.00    -0.354 N 
ATOM      6  C   UNL     1       0.500  -3.573   0.034  1.00  0.00     0.247 C 
ATOM      7  O   UNL     1       1.067  -2.939   0.935  1.00  0.00    -0.272 OA
ATOM      8  H   UNL     1       1.753  -2.731  -1.269  1.00  0.00     0.163 HD
BRANCH   6   9
ATOM      9  C   UNL     1      -0.778  -4.426   0.304  1.00  0.00     0.200 C 
BRANCH   9  10
ATOM     10  N   UNL     1      -1.060  -5.506  -0.680  1.00  0.00    -0.370 N 
ATOM     11  H   UNL     1      -1.856  -5.342  -1.236  1.00  0.00     0.161 HD
BRANCH  10  12
ATOM     12  C   UNL     1      -0.416  -6.696  -0.963  1.00  0.00     0.038 A 
ATOM     13  C   UNL     1      -0.333  -9.213  -3.874  1.00  0.00     0.044 C 
ATOM     14  C   UNL     1      -0.039  -8.540  -2.567  1.00  0.00    -0.046 A 
ATOM     15  C   UNL     1       0.902  -9.112  -1.712  1.00  0.00     0.042 A 
ATOM     16  C   UNL     1      -0.707  -7.361  -2.171  1.00  0.00     0.029 A 
ATOM     17  C   UNL     1       1.202  -8.472  -0.530  1.00  0.00     0.125 A 
ATOM     18  F   UNL     1       2.110  -8.997   0.303  1.00  0.00    -0.207 F 
ATOM     19  C   UNL     1       0.583  -7.273  -0.189  1.00  0.00     0.065 A 
ENDBRANCH  10  12
ENDBRANCH   9  10
BRANCH   9  20
ATOM     20  C   UNL     1      -0.914  -4.935   1.741  1.00  0.00    -0.016 A 
ATOM     21  C   UNL     1       0.195  -5.463   2.415  1.00  0.00     0.009 A 
ATOM     22  C   UNL     1      -2.171  -5.045   2.353  1.00  0.00     0.009 A 
ATOM     23  C   UNL     1       0.029  -6.349   3.479  1.00  0.00    -0.051 A 
ATOM     24  C   UNL     1      -2.323  -5.760   3.551  1.00  0.00    -0.051 A 
ATOM     25  C   UNL     1       1.134  -7.314   3.802  1.00  0.00     0.044 C 
ATOM     26  C   UNL     1      -1.231  -6.475   4.061  1.00  0.00     0.006 A 
ATOM     27  C   UNL     1      -3.657  -5.870   4.223  1.00  0.00     0.044 C 
ENDBRANCH   9  20
ENDBRANCH   6   9
ENDBRANCH   4   5
ENDBRANCH   3   4
ENDBRANCH   2   3
ENDBRANCH   1   2
BRANCH   1  28
ATOM     28  C   UNL     1       2.862  -5.355  -4.930  1.00  0.00     0.021 C 
BRANCH  28  29
ATOM     29  C   UNL     1       2.762  -4.808  -6.349  1.00  0.00     0.116 C 
BRANCH  29  30
ATOM     30  N   UNL     1       4.036  -4.323  -6.854  1.00  0.00    -0.352 N 
ATOM     31  C   UNL     1       4.655  -4.603  -8.046  1.00  0.00     0.251 C 
ATOM     32  H   UNL     1       4.522  -3.709  -6.258  1.00  0.00     0.163 HD
ATOM     33  O   UNL     1       5.811  -4.230  -8.241  1.00  0.00    -0.269 OA
BRANCH  31  34
ATOM     34  C   UNL     1       3.938  -5.374  -9.082  1.00  0.00     0.039 A 
ATOM     35  C   UNL     1       4.601  -6.422  -9.724  1.00  0.00     0.014 A 
ATOM     36  C   UNL     1       2.613  -5.072  -9.412  1.00  0.00     0.014 A 
ATOM     37  C   UNL     1       3.917  -7.203 -10.657  1.00  0.00     0.010 A 
ATOM     38  C   UNL     1       1.911  -5.901 -10.283  1.00  0.00     0.010 A 
ATOM     39  C   UNL     1       2.556  -6.971 -10.920  1.00  0.00    -0.014 A 
BRANCH  39  40
ATOM     40  C   UNL     1       1.798  -7.837 -11.859  1.00  0.00     0.031 A 
ATOM     41  C   UNL     1       1.213  -7.258 -13.119  1.00  0.00     0.074 A 
ATOM     42  C   UNL     1       1.594  -9.134 -11.553  1.00  0.00     0.049 A 
ATOM     43  N   UNL     1       0.495  -7.848 -14.041  1.00  0.00    -0.248 NA
ATOM     44  C   UNL     1       1.442  -5.825 -13.365  1.00  0.00     0.031 C 
ATOM     45  C   UNL     1       2.076  -9.805 -10.342  1.00  0.00     0.029 A 
ATOM     46  N   UNL     1       0.927 -10.122 -12.233  1.00  0.00    -0.354 N 
ATOM     47  C   UNL     1       0.179  -6.860 -14.965  1.00  0.00     0.074 A 
ATOM     48  C   UNL     1       0.733  -5.621 -14.465  1.00  0.00     0.031 C 
ATOM     49  C   UNL     1       1.718 -11.098 -10.383  1.00  0.00     0.029 A 
ATOM     50  C   UNL     1       0.944 -11.341 -11.597  1.00  0.00     0.049 A 
ATOM     51  H   UNL     1       0.479  -9.972 -13.097  1.00  0.00     0.167 HD
ATOM     52  C   UNL     1      -0.493  -6.975 -16.136  1.00  0.00     0.031 A 
ATOM     53  C   UNL     1       0.395 -12.521 -11.945  1.00  0.00     0.031 A 
ATOM     54  C   UNL     1      -1.038  -8.212 -16.631  1.00  0.00     0.049 A 
ATOM     55  C   UNL     1      -0.365 -12.621 -13.240  1.00  0.00     0.074 A 
ATOM     56  C   UNL     1      -1.690  -8.444 -17.830  1.00  0.00     0.029 A 
ATOM     57  N   UNL     1      -0.999  -9.423 -15.956  1.00  0.00    -0.354 N 
ATOM     58  N   UNL     1      -0.594 -11.688 -14.134  1.00  0.00    -0.248 NA
ATOM     59  C   UNL     1      -0.930 -13.934 -13.579  1.00  0.00     0.031 C 
ATOM     60  C   UNL     1      -2.101  -9.780 -17.851  1.00  0.00     0.029 A 
ATOM     61  C   UNL     1      -1.641 -10.399 -16.699  1.00  0.00     0.049 A 
ATOM     62  H   UNL     1      -0.578  -9.567 -15.078  1.00  0.00     0.167 HD
ATOM     63  C   UNL     1      -1.301 -12.311 -15.157  1.00  0.00     0.074 A 
ATOM     64  C   UNL     1      -1.450 -13.701 -14.777  1.00  0.00     0.031 C 
ATOM     65  C   UNL     1      -1.781 -11.780 -16.309  1.00  0.00     0.031 A 
BRANCH  52  66
ATOM     66  C   UNL     1      -0.686  -5.727 -16.958  1.00  0.00    -0.014 A 
ATOM     67  C   UNL     1       0.402  -5.092 -17.585  1.00  0.00     0.010 A 
ATOM     68  C   UNL     1      -1.979  -5.205 -17.144  1.00  0.00     0.010 A 
ATOM     69  C   UNL     1       0.206  -3.935 -18.345  1.00  0.00     0.020 A 
ATOM     70  C   UNL     1      -2.184  -4.067 -17.930  1.00  0.00     0.020 A 
ATOM     71  C   UNL     1      -1.086  -3.430 -18.512  1.00  0.00     0.054 A 
BRANCH  71  72
ATOM     72  S   UNL     1      -1.312  -1.941 -19.523  1.00  0.00     0.124 S 
ATOM     73  O   UNL     1      -0.734  -0.906 -18.668  1.00  0.00    -0.237 OA
ATOM     74  O   UNL     1      -0.551  -2.256 -20.729  1.00  0.00    -0.237 OA
ATOM     75  O   UNL     1      -2.759  -1.860 -19.704  1.00  0.00    -0.744 OA
ENDBRANCH  71  72
ENDBRANCH  52  66
BRANCH  53  76
ATOM     76  C   UNL     1       0.555 -13.707 -11.058  1.00  0.00    -0.014 A 
ATOM     77  C   UNL     1       1.347 -14.799 -11.455  1.00  0.00     0.010 A 
ATOM     78  C   UNL     1      -0.079 -13.746  -9.802  1.00  0.00     0.010 A 
ATOM     79  C   UNL     1       1.485 -15.915 -10.624  1.00  0.00     0.020 A 
ATOM     80  C   UNL     1       0.083 -14.845  -8.954  1.00  0.00     0.020 A 
ATOM     81  C   UNL     1       0.855 -15.928  -9.377  1.00  0.00     0.054 A 
BRANCH  81  82
ATOM     82  S   UNL     1       1.087 -17.366  -8.294  1.00  0.00     0.124 S 
ATOM     83  O   UNL     1       0.299 -18.389  -8.974  1.00  0.00    -0.237 OA
ATOM     84  O   UNL     1       2.535 -17.554  -8.329  1.00  0.00    -0.237 OA
ATOM     85  O   UNL     1       0.556 -16.915  -7.010  1.00  0.00    -0.744 OA
ENDBRANCH  81  82
ENDBRANCH  53  76
BRANCH  65  86
ATOM     86  C   UNL     1      -2.478 -12.709 -17.268  1.00  0.00    -0.014 A 
ATOM     87  C   UNL     1      -3.748 -13.241 -16.982  1.00  0.00     0.010 A 
ATOM     88  C   UNL     1      -1.875 -13.003 -18.505  1.00  0.00     0.010 A 
ATOM     89  C   UNL     1      -4.389 -14.073 -17.904  1.00  0.00     0.020 A 
ATOM     90  C   UNL     1      -2.526 -13.809 -19.442  1.00  0.00     0.020 A 
ATOM     91  C   UNL     1      -3.775 -14.349 -19.130  1.00  0.00     0.054 A 
BRANCH  91  92
ATOM     92  S   UNL     1      -4.650 -15.391 -20.329  1.00  0.00     0.124 S 
ATOM     93  O   UNL     1      -4.558 -16.710 -19.711  1.00  0.00    -0.237 OA
ATOM     94  O   UNL     1      -5.986 -14.799 -20.351  1.00  0.00    -0.237 OA
ATOM     95  O   UNL     1      -3.882 -15.225 -21.561  1.00  0.00    -0.744 OA
ENDBRANCH  91  92
ENDBRANCH  65  86
ENDBRANCH  39  40
ENDBRANCH  31  34
ENDBRANCH  29  30
ENDBRANCH  28  29
ENDBRANCH   1  28
TORSDOF 19
