REMARK SMILES COc1cc(/C=N/c2cccc(F)c2)ccc1OCc1cccc(C(=O)NCCCCCCNC(=O)c2ccc(-c3c4nc(c(-c5ccc(S(=O)(=O)[O-])cc5)c5ccc([nH]5)c(-c5ccc(S(=O)(=O)[O-])cc5)c5nc(c(-c6ccc(S(=O)(=O)[O-])cc6)c6ccc3[nH]6)C=C5)C=C4)cc2)c1
REMARK SMILES IDX 29 1 28 2 27 3 25 4 26 5 24 7 20 8 21 9 97 10 22 11 23 12
REMARK SMILES IDX 19 13 18 14 17 15 3 16 4 17 5 18 16 19 15 20 2 21 1 22 6 23
REMARK SMILES IDX 7 24 8 25 9 26 14 27 10 28 12 29 11 30 13 31 30 32 31 33
REMARK SMILES IDX 32 34 33 35 34 36 35 37 36 39 37 40 38 41 96 42 39 43 95 44
REMARK SMILES IDX 40 45 41 46 42 47 89 48 43 49 94 50 88 51 90 52 44 53 93 54
REMARK SMILES IDX 87 55 86 56 45 58 75 59 56 60 74 61 57 62 60 63 73 64 91 65
REMARK SMILES IDX 58 66 59 67 72 69 92 70 61 71 46 72 47 73 55 74 48 75 54 76
REMARK SMILES IDX 49 77 50 78 51 79 52 80 53 81 76 82 77 83 85 84 78 85 84 86
REMARK SMILES IDX 79 87 80 88 81 89 82 90 83 91 62 92 63 93 71 94 64 95 70 96
REMARK SMILES IDX 65 97 66 98 67 99 68 100 69 101
REMARK H PARENT 27 6 34 38 90 57 60 68
REMARK Flexibility Score: inf
ROOT
ATOM      1  C   UNL     1       1.927  -4.136   1.799  1.00  0.00     0.021 C 
ENDROOT
BRANCH   1   2
ATOM      2  C   UNL     1       0.679  -3.381   1.335  1.00  0.00     0.116 C 
BRANCH   2   3
ATOM      3  N   UNL     1      -0.068  -2.910   2.486  1.00  0.00    -0.352 N 
ATOM      4  C   UNL     1      -0.125  -1.704   3.136  1.00  0.00     0.251 C 
ATOM      5  O   UNL     1      -0.838  -1.639   4.139  1.00  0.00    -0.269 OA
ATOM      6  H   UNL     1      -0.653  -3.596   2.881  1.00  0.00     0.163 HD
BRANCH   4   7
ATOM      7  C   UNL     1       0.556  -0.470   2.650  1.00  0.00     0.040 A 
ATOM      8  C   UNL     1       2.148   0.750   1.256  1.00  0.00    -0.010 A 
ATOM      9  C   UNL     1       1.577   1.956   1.675  1.00  0.00     0.007 A 
ATOM     10  C   UNL     1       1.693  -0.447   1.839  1.00  0.00     0.021 A 
ATOM     11  C   UNL     1       0.495   1.959   2.552  1.00  0.00     0.001 A 
ATOM     12  C   UNL     1      -0.029   0.752   3.014  1.00  0.00     0.014 A 
BRANCH   8  13
ATOM     13  C   UNL     1       3.183   0.658   0.144  1.00  0.00     0.265 C 
BRANCH  13  14
ATOM     14  O   UNL     1       3.415   1.841  -0.624  1.00  0.00    -0.485 OA
BRANCH  14  15
ATOM     15  C   UNL     1       2.404   2.419  -1.346  1.00  0.00     0.161 A 
ATOM     16  C   UNL     1       1.190   1.851  -1.764  1.00  0.00     0.161 A 
ATOM     17  C   UNL     1       0.228   2.657  -2.396  1.00  0.00     0.060 A 
ATOM     18  C   UNL     1       0.483   4.016  -2.617  1.00  0.00    -0.003 A 
ATOM     19  C   UNL     1       2.658   3.771  -1.615  1.00  0.00     0.051 A 
ATOM     20  C   UNL     1       1.705   4.572  -2.239  1.00  0.00     0.014 A 
BRANCH  16  21
ATOM     21  O   UNL     1       1.008   0.499  -1.641  1.00  0.00    -0.493 OA
ATOM     22  C   UNL     1      -0.262   0.113  -1.122  1.00  0.00     0.278 C 
ENDBRANCH  16  21
BRANCH  18  23
ATOM     23  C   UNL     1      -0.478   4.882  -3.329  1.00  0.00     0.120 C 
ATOM     24  N   UNL     1      -1.637   4.456  -3.721  1.00  0.00    -0.256 NA
BRANCH  24  25
ATOM     25  C   UNL     1      -2.408   5.309  -4.531  1.00  0.00     0.066 A 
ATOM     26  C   UNL     1      -3.760   5.507  -4.228  1.00  0.00     0.028 A 
ATOM     27  C   UNL     1      -1.895   5.864  -5.708  1.00  0.00     0.067 A 
ATOM     28  C   UNL     1      -4.587   6.244  -5.085  1.00  0.00     0.005 A 
ATOM     29  C   UNL     1      -2.719   6.600  -6.550  1.00  0.00     0.125 A 
ATOM     30  C   UNL     1      -4.063   6.789  -6.254  1.00  0.00     0.039 A 
ATOM     31  F   UNL     1      -2.214   7.119  -7.677  1.00  0.00    -0.207 F 
ENDBRANCH  24  25
ENDBRANCH  18  23
ENDBRANCH  14  15
ENDBRANCH  13  14
ENDBRANCH   8  13
ENDBRANCH   4   7
ENDBRANCH   2   3
ENDBRANCH   1   2
BRANCH   1  32
ATOM     32  C   UNL     1       1.615  -5.547   2.314  1.00  0.00     0.002 C 
BRANCH  32  33
ATOM     33  C   UNL     1       1.007  -6.489   1.268  1.00  0.00     0.002 C 
BRANCH  33  34
ATOM     34  C   UNL     1       1.827  -6.636  -0.016  1.00  0.00     0.021 C 
BRANCH  34  35
ATOM     35  C   UNL     1       3.235  -7.180   0.203  1.00  0.00     0.116 C 
BRANCH  35  36
ATOM     36  N   UNL     1       3.210  -8.535   0.732  1.00  0.00    -0.352 N 
ATOM     37  C   UNL     1       3.777  -9.673   0.220  1.00  0.00     0.251 C 
ATOM     38  H   UNL     1       2.717  -8.650   1.577  1.00  0.00     0.163 HD
ATOM     39  O   UNL     1       3.459 -10.774   0.668  1.00  0.00    -0.269 OA
BRANCH  37  40
ATOM     40  C   UNL     1       4.759  -9.572  -0.878  1.00  0.00     0.039 A 
ATOM     41  C   UNL     1       4.664 -10.449  -1.961  1.00  0.00     0.014 A 
ATOM     42  C   UNL     1       5.774  -8.610  -0.837  1.00  0.00     0.014 A 
ATOM     43  C   UNL     1       5.554 -10.324  -3.029  1.00  0.00     0.010 A 
ATOM     44  C   UNL     1       6.609  -8.438  -1.936  1.00  0.00     0.010 A 
ATOM     45  C   UNL     1       6.513  -9.297  -3.041  1.00  0.00    -0.014 A 
BRANCH  45  46
ATOM     46  C   UNL     1       7.422  -9.104  -4.199  1.00  0.00     0.031 A 
ATOM     47  C   UNL     1       8.909  -9.258  -4.027  1.00  0.00     0.074 A 
ATOM     48  C   UNL     1       6.914  -8.729  -5.390  1.00  0.00     0.049 A 
ATOM     49  N   UNL     1       9.864  -9.076  -4.903  1.00  0.00    -0.248 NA
ATOM     50  C   UNL     1       9.389  -9.645  -2.689  1.00  0.00     0.031 C 
ATOM     51  C   UNL     1       5.494  -8.512  -5.675  1.00  0.00     0.029 A 
ATOM     52  N   UNL     1       7.536  -8.459  -6.583  1.00  0.00    -0.354 N 
ATOM     53  C   UNL     1      11.053  -9.310  -4.222  1.00  0.00     0.074 A 
ATOM     54  C   UNL     1      10.703  -9.594  -2.847  1.00  0.00     0.031 C 
ATOM     55  C   UNL     1       5.351  -8.172  -6.965  1.00  0.00     0.029 A 
ATOM     56  C   UNL     1       6.668  -8.100  -7.589  1.00  0.00     0.049 A 
ATOM     57  H   UNL     1       8.511  -8.517  -6.708  1.00  0.00     0.167 HD
ATOM     58  C   UNL     1      12.320  -9.309  -4.700  1.00  0.00     0.031 A 
ATOM     59  C   UNL     1       6.906  -7.744  -8.866  1.00  0.00     0.031 A 
ATOM     60  C   UNL     1      12.662  -9.027  -6.070  1.00  0.00     0.049 A 
ATOM     61  C   UNL     1       8.324  -7.723  -9.369  1.00  0.00     0.074 A 
ATOM     62  C   UNL     1      13.910  -9.050  -6.667  1.00  0.00     0.029 A 
ATOM     63  N   UNL     1      11.755  -8.667  -7.056  1.00  0.00    -0.354 N 
ATOM     64  N   UNL     1       9.430  -8.012  -8.726  1.00  0.00    -0.248 NA
ATOM     65  C   UNL     1       8.524  -7.340 -10.773  1.00  0.00     0.031 C 
ATOM     66  C   UNL     1      13.766  -8.643  -7.996  1.00  0.00     0.029 A 
ATOM     67  C   UNL     1      12.419  -8.436  -8.248  1.00  0.00     0.049 A 
ATOM     68  H   UNL     1      10.782  -8.588  -6.926  1.00  0.00     0.167 HD
ATOM     69  C   UNL     1      10.455  -7.874  -9.655  1.00  0.00     0.074 A 
ATOM     70  C   UNL     1       9.835  -7.491 -10.907  1.00  0.00     0.031 C 
ATOM     71  C   UNL     1      11.789  -8.053  -9.488  1.00  0.00     0.031 A 
BRANCH  58  72
ATOM     72  C   UNL     1      13.433  -9.609  -3.729  1.00  0.00    -0.014 A 
ATOM     73  C   UNL     1      13.586 -10.891  -3.168  1.00  0.00     0.010 A 
ATOM     74  C   UNL     1      14.363  -8.606  -3.399  1.00  0.00     0.010 A 
ATOM     75  C   UNL     1      14.616 -11.150  -2.260  1.00  0.00     0.020 A 
ATOM     76  C   UNL     1      15.415  -8.870  -2.516  1.00  0.00     0.020 A 
ATOM     77  C   UNL     1      15.523 -10.136  -1.938  1.00  0.00     0.054 A 
BRANCH  77  78
ATOM     78  S   UNL     1      16.859 -10.506  -0.769  1.00  0.00     0.124 S 
ATOM     79  O   UNL     1      16.133 -10.613   0.494  1.00  0.00    -0.237 OA
ATOM     80  O   UNL     1      17.401 -11.759  -1.289  1.00  0.00    -0.237 OA
ATOM     81  O   UNL     1      17.748  -9.353  -0.880  1.00  0.00    -0.744 OA
ENDBRANCH  77  78
ENDBRANCH  58  72
BRANCH  59  82
ATOM     82  C   UNL     1       5.769  -7.390  -9.762  1.00  0.00    -0.014 A 
ATOM     83  C   UNL     1       5.411  -8.233 -10.828  1.00  0.00     0.010 A 
ATOM     84  C   UNL     1       5.028  -6.214  -9.543  1.00  0.00     0.010 A 
ATOM     85  C   UNL     1       4.344  -7.900 -11.668  1.00  0.00     0.020 A 
ATOM     86  C   UNL     1       3.942  -5.893 -10.361  1.00  0.00     0.020 A 
ATOM     87  C   UNL     1       3.614  -6.733 -11.427  1.00  0.00     0.054 A 
BRANCH  87  88
ATOM     88  S   UNL     1       2.200  -6.350 -12.498  1.00  0.00     0.124 S 
ATOM     89  O   UNL     1       2.858  -5.970 -13.744  1.00  0.00    -0.237 OA
ATOM     90  O   UNL     1       1.474  -7.617 -12.525  1.00  0.00    -0.237 OA
ATOM     91  O   UNL     1       1.520  -5.266 -11.791  1.00  0.00    -0.744 OA
ENDBRANCH  87  88
ENDBRANCH  59  82
BRANCH  71  92
ATOM     92  C   UNL     1      12.672  -7.873 -10.695  1.00  0.00    -0.014 A 
ATOM     93  C   UNL     1      12.909  -6.602 -11.247  1.00  0.00     0.010 A 
ATOM     94  C   UNL     1      13.323  -8.992 -11.248  1.00  0.00     0.010 A 
ATOM     95  C   UNL     1      13.758  -6.457 -12.348  1.00  0.00     0.020 A 
ATOM     96  C   UNL     1      14.197  -8.847 -12.328  1.00  0.00     0.020 A 
ATOM     97  C   UNL     1      14.398  -7.581 -12.880  1.00  0.00     0.054 A 
BRANCH  97  98
ATOM     98  S   UNL     1      15.533  -7.359 -14.277  1.00  0.00     0.124 S 
ATOM     99  O   UNL     1      14.613  -7.068 -15.373  1.00  0.00    -0.237 OA
ATOM    100  O   UNL     1      16.363  -6.239 -13.839  1.00  0.00    -0.237 OA
ATOM    101  O   UNL     1      16.226  -8.642 -14.370  1.00  0.00    -0.744 OA
ENDBRANCH  97  98
ENDBRANCH  71  92
ENDBRANCH  45  46
ENDBRANCH  37  40
ENDBRANCH  35  36
ENDBRANCH  34  35
ENDBRANCH  33  34
ENDBRANCH  32  33
ENDBRANCH   1  32
TORSDOF 22
