REMARK SMILES C[C@@H](C(=O)NCCCCCCNC(=O)c1ccc(-c2c3nc(c(-c4ccc(S(=O)(=O)[O-])cc4)c4ccc([nH]4)c(-c4ccc(S(=O)(=O)[O-])cc4)c4nc(c(-c5ccc(S(=O)(=O)[O-])cc5)c5ccc2[nH]5)C=C4)C=C3)cc1)c1ccc(-c2ccn(C(F)F)c(=O)c2)cc1
REMARK SMILES IDX 8 1 7 2 6 3 5 4 3 5 4 6 2 8 1 9 75 10 76 11 90 12 77 13
REMARK SMILES IDX 89 14 78 15 79 16 80 17 88 18 81 19 86 20 82 21 87 22 83 23
REMARK SMILES IDX 84 24 85 25 9 26 10 27 11 28 12 29 13 30 14 32 15 33 16 34
REMARK SMILES IDX 74 35 17 36 73 37 18 38 19 39 20 40 67 41 21 42 72 43 66 44
REMARK SMILES IDX 68 45 22 46 71 47 65 48 64 49 23 51 53 52 34 53 52 54 35 55
REMARK SMILES IDX 38 56 51 57 69 58 36 59 37 60 50 62 70 63 39 64 24 65 25 66
REMARK SMILES IDX 33 67 26 68 32 69 27 70 28 71 29 72 30 73 31 74 54 75 55 76
REMARK SMILES IDX 63 77 56 78 62 79 57 80 58 81 59 82 60 83 61 84 40 85 41 86
REMARK SMILES IDX 49 87 42 88 48 89 43 90 44 91 45 92 46 93 47 94
REMARK H PARENT 5 7 12 31 68 50 38 61
REMARK Flexibility Score: inf
ROOT
ATOM      1  C   UNL     1       4.926  -2.133   1.832  1.00  0.00     0.002 C 
ENDROOT
BRANCH   1   2
ATOM      2  C   UNL     1       4.206  -1.178   0.869  1.00  0.00     0.021 C 
BRANCH   2   3
ATOM      3  C   UNL     1       3.317  -1.881  -0.163  1.00  0.00     0.116 C 
BRANCH   3   4
ATOM      4  N   UNL     1       2.216  -2.547   0.504  1.00  0.00    -0.356 N 
ATOM      5  C   UNL     1       0.930  -2.131   0.694  1.00  0.00     0.227 C 
ATOM      6  O   UNL     1       0.285  -2.715   1.568  1.00  0.00    -0.274 OA
ATOM      7  H   UNL     1       2.428  -3.433   0.877  1.00  0.00     0.163 HD
BRANCH   5   8
ATOM      8  C   UNL     1       0.339  -1.021  -0.202  1.00  0.00     0.105 C 
ATOM      9  C   UNL     1       0.859   0.346   0.260  1.00  0.00     0.023 C 
BRANCH   8  10
ATOM     10  C   UNL     1      -1.195  -1.087  -0.290  1.00  0.00    -0.036 A 
ATOM     11  C   UNL     1      -2.005   0.059  -0.220  1.00  0.00     0.005 A 
ATOM     12  C   UNL     1      -1.835  -2.326  -0.472  1.00  0.00     0.005 A 
ATOM     13  C   UNL     1      -3.398  -0.035  -0.265  1.00  0.00     0.009 A 
ATOM     14  C   UNL     1      -3.230  -2.424  -0.502  1.00  0.00     0.009 A 
ATOM     15  C   UNL     1      -4.020  -1.278  -0.392  1.00  0.00    -0.018 A 
BRANCH  15  16
ATOM     16  C   UNL     1      -5.488  -1.387  -0.387  1.00  0.00    -0.011 A 
ATOM     17  C   UNL     1      -6.219  -2.006   0.700  1.00  0.00     0.027 A 
ATOM     18  C   UNL     1      -6.163  -0.897  -1.440  1.00  0.00     0.080 A 
ATOM     19  C   UNL     1      -7.552  -2.109   0.648  1.00  0.00     0.095 A 
ATOM     20  C   UNL     1      -7.646  -0.998  -1.509  1.00  0.00     0.255 A 
ATOM     21  N   UNL     1      -8.261  -1.624  -0.435  1.00  0.00    -0.258 N 
ATOM     22  O   UNL     1      -8.222  -0.536  -2.489  1.00  0.00    -0.269 OA
BRANCH  21  23
ATOM     23  C   UNL     1      -9.691  -1.767  -0.497  1.00  0.00     0.451 C 
ATOM     24  F   UNL     1     -10.305  -0.563  -0.596  1.00  0.00    -0.185 F 
ATOM     25  F   UNL     1     -10.059  -2.516  -1.566  1.00  0.00    -0.185 F 
ENDBRANCH  21  23
ENDBRANCH  15  16
ENDBRANCH   8  10
ENDBRANCH   5   8
ENDBRANCH   3   4
ENDBRANCH   2   3
ENDBRANCH   1   2
BRANCH   1  26
ATOM     26  C   UNL     1       5.870  -3.136   1.165  1.00  0.00     0.002 C 
BRANCH  26  27
ATOM     27  C   UNL     1       6.929  -2.513   0.255  1.00  0.00     0.021 C 
BRANCH  27  28
ATOM     28  C   UNL     1       7.847  -1.514   0.950  1.00  0.00     0.116 C 
BRANCH  28  29
ATOM     29  N   UNL     1       8.705  -2.153   1.936  1.00  0.00    -0.352 N 
ATOM     30  C   UNL     1      10.068  -2.047   2.074  1.00  0.00     0.251 C 
ATOM     31  H   UNL     1       8.251  -2.734   2.588  1.00  0.00     0.163 HD
ATOM     32  O   UNL     1      10.679  -2.790   2.835  1.00  0.00    -0.269 OA
BRANCH  30  33
ATOM     33  C   UNL     1      10.790  -1.037   1.273  1.00  0.00     0.039 A 
ATOM     34  C   UNL     1      11.903  -1.423   0.523  1.00  0.00     0.014 A 
ATOM     35  C   UNL     1      10.335   0.284   1.242  1.00  0.00     0.014 A 
ATOM     36  C   UNL     1      12.528  -0.493  -0.311  1.00  0.00     0.010 A 
ATOM     37  C   UNL     1      10.918   1.190   0.365  1.00  0.00     0.010 A 
ATOM     38  C   UNL     1      12.022   0.812  -0.417  1.00  0.00    -0.014 A 
BRANCH  38  39
ATOM     39  C   UNL     1      12.630   1.825  -1.316  1.00  0.00     0.031 A 
ATOM     40  C   UNL     1      13.237   3.066  -0.724  1.00  0.00     0.074 A 
ATOM     41  C   UNL     1      12.529   1.690  -2.652  1.00  0.00     0.049 A 
ATOM     42  N   UNL     1      13.650   4.151  -1.324  1.00  0.00    -0.248 NA
ATOM     43  C   UNL     1      13.358   3.102   0.742  1.00  0.00     0.031 C 
ATOM     44  C   UNL     1      11.935   0.547  -3.348  1.00  0.00     0.029 A 
ATOM     45  N   UNL     1      12.897   2.543  -3.663  1.00  0.00    -0.354 N 
ATOM     46  C   UNL     1      14.040   5.015  -0.308  1.00  0.00     0.074 A 
ATOM     47  C   UNL     1      13.781   4.340   0.945  1.00  0.00     0.031 C 
ATOM     48  C   UNL     1      11.978   0.770  -4.671  1.00  0.00     0.029 A 
ATOM     49  C   UNL     1      12.559   2.088  -4.916  1.00  0.00     0.049 A 
ATOM     50  H   UNL     1      13.359   3.398  -3.507  1.00  0.00     0.167 HD
ATOM     51  C   UNL     1      14.572   6.257  -0.409  1.00  0.00     0.031 A 
ATOM     52  C   UNL     1      12.679   2.673  -6.124  1.00  0.00     0.031 A 
ATOM     53  C   UNL     1      14.841   6.915  -1.658  1.00  0.00     0.049 A 
ATOM     54  C   UNL     1      13.287   4.044  -6.221  1.00  0.00     0.074 A 
ATOM     55  C   UNL     1      15.433   8.147  -1.872  1.00  0.00     0.029 A 
ATOM     56  N   UNL     1      14.535   6.394  -2.907  1.00  0.00    -0.354 N 
ATOM     57  N   UNL     1      13.698   4.829  -5.254  1.00  0.00    -0.248 NA
ATOM     58  C   UNL     1      13.458   4.606  -7.568  1.00  0.00     0.031 C 
ATOM     59  C   UNL     1      15.447   8.389  -3.250  1.00  0.00     0.029 A 
ATOM     60  C   UNL     1      14.912   7.285  -3.896  1.00  0.00     0.049 A 
ATOM     61  H   UNL     1      14.112   5.519  -3.066  1.00  0.00     0.167 HD
ATOM     62  C   UNL     1      14.205   5.964  -5.876  1.00  0.00     0.074 A 
ATOM     63  C   UNL     1      14.047   5.766  -7.302  1.00  0.00     0.031 C 
ATOM     64  C   UNL     1      14.759   7.066  -5.313  1.00  0.00     0.031 A 
BRANCH  51  65
ATOM     65  C   UNL     1      14.865   6.984   0.876  1.00  0.00    -0.014 A 
ATOM     66  C   UNL     1      15.889   6.557   1.742  1.00  0.00     0.010 A 
ATOM     67  C   UNL     1      14.091   8.104   1.233  1.00  0.00     0.010 A 
ATOM     68  C   UNL     1      16.084   7.188   2.973  1.00  0.00     0.020 A 
ATOM     69  C   UNL     1      14.304   8.758   2.450  1.00  0.00     0.020 A 
ATOM     70  C   UNL     1      15.279   8.275   3.325  1.00  0.00     0.054 A 
BRANCH  70  71
ATOM     71  S   UNL     1      15.527   9.057   4.943  1.00  0.00     0.124 S 
ATOM     72  O   UNL     1      14.883   8.099   5.839  1.00  0.00    -0.237 OA
ATOM     73  O   UNL     1      16.982   9.132   5.047  1.00  0.00    -0.237 OA
ATOM     74  O   UNL     1      14.847  10.343   4.814  1.00  0.00    -0.744 OA
ENDBRANCH  70  71
ENDBRANCH  51  65
BRANCH  52  75
ATOM     75  C   UNL     1      12.217   1.941  -7.334  1.00  0.00    -0.014 A 
ATOM     76  C   UNL     1      13.148   1.347  -8.203  1.00  0.00     0.010 A 
ATOM     77  C   UNL     1      10.842   1.770  -7.580  1.00  0.00     0.010 A 
ATOM     78  C   UNL     1      12.712   0.585  -9.291  1.00  0.00     0.020 A 
ATOM     79  C   UNL     1      10.403   0.991  -8.655  1.00  0.00     0.020 A 
ATOM     80  C   UNL     1      11.342   0.403  -9.504  1.00  0.00     0.054 A 
BRANCH  80  81
ATOM     81  S   UNL     1      10.803  -0.677 -10.860  1.00  0.00     0.124 S 
ATOM     82  O   UNL     1      11.053   0.157 -12.031  1.00  0.00    -0.237 OA
ATOM     83  O   UNL     1      11.680  -1.835 -10.708  1.00  0.00    -0.237 OA
ATOM     84  O   UNL     1       9.396  -0.928 -10.556  1.00  0.00    -0.744 OA
ENDBRANCH  80  81
ENDBRANCH  52  75
BRANCH  64  85
ATOM     85  C   UNL     1      15.286   8.136  -6.230  1.00  0.00    -0.014 A 
ATOM     86  C   UNL     1      14.420   9.033  -6.879  1.00  0.00     0.010 A 
ATOM     87  C   UNL     1      16.677   8.313  -6.348  1.00  0.00     0.010 A 
ATOM     88  C   UNL     1      14.939  10.090  -7.632  1.00  0.00     0.020 A 
ATOM     89  C   UNL     1      17.198   9.381  -7.082  1.00  0.00     0.020 A 
ATOM     90  C   UNL     1      16.325  10.262  -7.722  1.00  0.00     0.054 A 
BRANCH  90  91
ATOM     91  S   UNL     1      16.971  11.698  -8.624  1.00  0.00     0.124 S 
ATOM     92  O   UNL     1      16.755  11.306 -10.014  1.00  0.00    -0.237 OA
ATOM     93  O   UNL     1      16.128  12.788  -8.140  1.00  0.00    -0.237 OA
ATOM     94  O   UNL     1      18.370  11.768  -8.206  1.00  0.00    -0.744 OA
ENDBRANCH  90  91
ENDBRANCH  64  85
ENDBRANCH  38  39
ENDBRANCH  30  33
ENDBRANCH  28  29
ENDBRANCH  27  28
ENDBRANCH  26  27
ENDBRANCH   1  26
TORSDOF 19
