REMARK SMILES O=C(NCCCCCCNC(=O)[C@@H](c1ccc(NC(=O)N2CCCC2)cc1)[NH+]1CCCCCCC1)c1ccc(-c2c3nc(c(-c4ccc(S(=O)(=O)[O-])cc4)c4ccc([nH]4)c(-c4ccc(S(=O)(=O)[O-])cc4)c4nc(c(-c5ccc(S(=O)(=O)[O-])cc5)c5ccc2[nH]5)C=C4)C=C3)cc1
REMARK SMILES IDX 7 1 6 2 5 3 4 4 3 5 1 6 2 7 36 9 37 10 95 11 38 12 94 13
REMARK SMILES IDX 39 14 40 15 41 16 88 17 42 18 93 19 87 20 89 21 43 22 92 23
REMARK SMILES IDX 86 24 85 25 44 27 74 28 55 29 73 30 56 31 59 32 72 33 90 34
REMARK SMILES IDX 57 35 58 36 71 38 91 39 60 40 45 41 46 42 54 43 47 44 53 45
REMARK SMILES IDX 48 46 49 47 50 48 51 49 52 50 75 51 76 52 84 53 77 54 83 55
REMARK SMILES IDX 78 56 79 57 80 58 81 59 82 60 61 61 62 62 70 63 63 64 69 65
REMARK SMILES IDX 64 66 65 67 66 68 67 69 68 70 8 71 9 72 10 73 11 74 12 76
REMARK SMILES IDX 13 77 14 78 15 79 27 80 16 81 26 82 17 83 18 84 19 85 20 87
REMARK SMILES IDX 21 88 22 89 25 90 23 91 24 92 28 93 29 95 30 96 31 97 35 99
REMARK SMILES IDX 34 100 33 101 32 102
REMARK H PARENT 3 8 89 26 59 37 10 75 18 86 28 94
REMARK Flexibility Score: 80.00
ROOT
ATOM      1  C   UNL     1       4.449  -4.379   0.931  1.00  0.00     0.002 C 
ENDROOT
BRANCH   1   2
ATOM      2  C   UNL     1       3.800  -3.377   1.893  1.00  0.00     0.002 C 
BRANCH   2   3
ATOM      3  C   UNL     1       4.382  -1.962   1.842  1.00  0.00     0.021 C 
BRANCH   3   4
ATOM      4  C   UNL     1       4.288  -1.304   0.471  1.00  0.00     0.116 C 
BRANCH   4   5
ATOM      5  N   UNL     1       2.903  -1.130   0.060  1.00  0.00    -0.352 N 
ATOM      6  O   UNL     1       0.977   0.010  -0.206  1.00  0.00    -0.269 OA
ATOM      7  C   UNL     1       2.199   0.032  -0.135  1.00  0.00     0.251 C 
ATOM      8  H   UNL     1       2.401  -1.962  -0.100  1.00  0.00     0.163 HD
BRANCH   7   9
ATOM      9  C   UNL     1       2.935   1.308  -0.258  1.00  0.00     0.039 A 
ATOM     10  C   UNL     1       4.088   1.375  -1.044  1.00  0.00     0.014 A 
ATOM     11  C   UNL     1       2.461   2.444   0.400  1.00  0.00     0.014 A 
ATOM     12  C   UNL     1       4.838   2.543  -1.070  1.00  0.00     0.010 A 
ATOM     13  C   UNL     1       3.168   3.645   0.299  1.00  0.00     0.010 A 
ATOM     14  C   UNL     1       4.372   3.698  -0.421  1.00  0.00    -0.014 A 
BRANCH  14  15
ATOM     15  C   UNL     1       5.120   4.969  -0.584  1.00  0.00     0.031 A 
ATOM     16  C   UNL     1       5.764   5.651   0.590  1.00  0.00     0.074 A 
ATOM     17  C   UNL     1       5.225   5.495  -1.821  1.00  0.00     0.049 A 
ATOM     18  N   UNL     1       6.457   6.761   0.613  1.00  0.00    -0.248 NA
ATOM     19  C   UNL     1       5.609   5.012   1.906  1.00  0.00     0.031 C 
ATOM     20  C   UNL     1       4.637   4.918  -3.034  1.00  0.00     0.029 A 
ATOM     21  N   UNL     1       5.872   6.616  -2.270  1.00  0.00    -0.354 N 
ATOM     22  C   UNL     1       6.804   6.967   1.943  1.00  0.00     0.074 A 
ATOM     23  C   UNL     1       6.224   5.878   2.701  1.00  0.00     0.031 C 
ATOM     24  C   UNL     1       4.989   5.662  -4.092  1.00  0.00     0.029 A 
ATOM     25  C   UNL     1       5.763   6.806  -3.627  1.00  0.00     0.049 A 
ATOM     26  H   UNL     1       6.368   7.227  -1.677  1.00  0.00     0.167 HD
ATOM     27  C   UNL     1       7.540   7.970   2.479  1.00  0.00     0.031 A 
ATOM     28  C   UNL     1       6.212   7.802  -4.412  1.00  0.00     0.031 A 
ATOM     29  C   UNL     1       8.104   9.053   1.713  1.00  0.00     0.049 A 
ATOM     30  C   UNL     1       6.987   8.924  -3.785  1.00  0.00     0.074 A 
ATOM     31  C   UNL     1       8.887  10.104   2.158  1.00  0.00     0.029 A 
ATOM     32  N   UNL     1       7.938   9.231   0.346  1.00  0.00    -0.354 N 
ATOM     33  N   UNL     1       7.333   9.082  -2.530  1.00  0.00    -0.248 NA
ATOM     34  C   UNL     1       7.433   9.999  -4.679  1.00  0.00     0.031 C 
ATOM     35  C   UNL     1       9.144  10.949   1.072  1.00  0.00     0.029 A 
ATOM     36  C   UNL     1       8.579  10.389  -0.063  1.00  0.00     0.049 A 
ATOM     37  H   UNL     1       7.438   8.624  -0.245  1.00  0.00     0.167 HD
ATOM     38  C   UNL     1       8.057  10.267  -2.486  1.00  0.00     0.074 A 
ATOM     39  C   UNL     1       8.115  10.771  -3.844  1.00  0.00     0.031 C 
ATOM     40  C   UNL     1       8.622  10.881  -1.418  1.00  0.00     0.031 A 
BRANCH  27  41
ATOM     41  C   UNL     1       7.754   7.965   3.971  1.00  0.00    -0.014 A 
ATOM     42  C   UNL     1       8.583   7.011   4.589  1.00  0.00     0.010 A 
ATOM     43  C   UNL     1       7.155   8.962   4.764  1.00  0.00     0.010 A 
ATOM     44  C   UNL     1       8.776   7.030   5.974  1.00  0.00     0.020 A 
ATOM     45  C   UNL     1       7.369   9.002   6.146  1.00  0.00     0.020 A 
ATOM     46  C   UNL     1       8.165   8.024   6.744  1.00  0.00     0.054 A 
BRANCH  46  47
ATOM     47  S   UNL     1       8.448   8.034   8.536  1.00  0.00     0.124 S 
ATOM     48  O   UNL     1       7.678   6.871   8.969  1.00  0.00    -0.237 OA
ATOM     49  O   UNL     1       9.899   7.895   8.631  1.00  0.00    -0.237 OA
ATOM     50  O   UNL     1       7.919   9.326   8.966  1.00  0.00    -0.744 OA
ENDBRANCH  46  47
ENDBRANCH  27  41
BRANCH  28  51
ATOM     51  C   UNL     1       5.916   7.782  -5.870  1.00  0.00    -0.014 A 
ATOM     52  C   UNL     1       6.942   7.582  -6.809  1.00  0.00     0.010 A 
ATOM     53  C   UNL     1       4.592   7.933  -6.325  1.00  0.00     0.010 A 
ATOM     54  C   UNL     1       6.652   7.548  -8.176  1.00  0.00     0.020 A 
ATOM     55  C   UNL     1       4.294   7.867  -7.687  1.00  0.00     0.020 A 
ATOM     56  C   UNL     1       5.329   7.688  -8.606  1.00  0.00     0.054 A 
BRANCH  56  57
ATOM     57  S   UNL     1       4.971   7.591 -10.381  1.00  0.00     0.124 S 
ATOM     58  O   UNL     1       5.495   8.864 -10.865  1.00  0.00    -0.237 OA
ATOM     59  O   UNL     1       5.716   6.403 -10.789  1.00  0.00    -0.237 OA
ATOM     60  O   UNL     1       3.517   7.453 -10.430  1.00  0.00    -0.744 OA
ENDBRANCH  56  57
ENDBRANCH  28  51
BRANCH  40  61
ATOM     61  C   UNL     1       9.383  12.153  -1.681  1.00  0.00    -0.014 A 
ATOM     62  C   UNL     1       8.720  13.345  -2.021  1.00  0.00     0.010 A 
ATOM     63  C   UNL     1      10.784  12.162  -1.543  1.00  0.00     0.010 A 
ATOM     64  C   UNL     1       9.447  14.516  -2.252  1.00  0.00     0.020 A 
ATOM     65  C   UNL     1      11.511  13.337  -1.742  1.00  0.00     0.020 A 
ATOM     66  C   UNL     1      10.839  14.504  -2.110  1.00  0.00     0.054 A 
BRANCH  66  67
ATOM     67  S   UNL     1      11.755  16.047  -2.373  1.00  0.00     0.124 S 
ATOM     68  O   UNL     1      11.684  16.199  -3.824  1.00  0.00    -0.237 OA
ATOM     69  O   UNL     1      10.981  17.015  -1.600  1.00  0.00    -0.237 OA
ATOM     70  O   UNL     1      13.085  15.755  -1.841  1.00  0.00    -0.744 OA
ENDBRANCH  66  67
ENDBRANCH  40  61
ENDBRANCH  14  15
ENDBRANCH   7   9
ENDBRANCH   4   5
ENDBRANCH   3   4
ENDBRANCH   2   3
ENDBRANCH   1   2
BRANCH   1  71
ATOM     71  C   UNL     1       5.969  -4.480   1.058  1.00  0.00     0.021 C 
BRANCH  71  72
ATOM     72  C   UNL     1       6.436  -5.004   2.419  1.00  0.00     0.116 C 
BRANCH  72  73
ATOM     73  N   UNL     1       6.576  -6.442   2.391  1.00  0.00    -0.351 N 
ATOM     74  C   UNL     1       7.697  -7.218   2.332  1.00  0.00     0.283 C 
ATOM     75  H   UNL     1       5.728  -6.942   2.419  1.00  0.00     0.163 HD
ATOM     76  O   UNL     1       7.511  -8.440   2.230  1.00  0.00    -0.268 OA
BRANCH  74  77
ATOM     77  C   UNL     1       9.156  -6.656   2.413  1.00  0.00     0.305 C 
BRANCH  77  78
ATOM     78  C   UNL     1       9.601  -6.073   1.071  1.00  0.00     0.019 A 
ATOM     79  C   UNL     1      10.526  -6.784   0.306  1.00  0.00     0.012 A 
ATOM     80  C   UNL     1       9.197  -4.824   0.582  1.00  0.00     0.012 A 
ATOM     81  C   UNL     1      10.922  -6.306  -0.940  1.00  0.00     0.027 A 
ATOM     82  C   UNL     1       9.489  -4.419  -0.724  1.00  0.00     0.027 A 
ATOM     83  C   UNL     1      10.288  -5.218  -1.529  1.00  0.00     0.042 A 
BRANCH  83  84
ATOM     84  N   UNL     1      10.438  -4.869  -2.881  1.00  0.00    -0.308 N 
ATOM     85  C   UNL     1      11.055  -5.519  -3.907  1.00  0.00     0.321 C 
ATOM     86  H   UNL     1      10.027  -4.010  -3.130  1.00  0.00     0.171 HD
ATOM     87  O   UNL     1      11.445  -4.859  -4.871  1.00  0.00    -0.248 OA
ATOM     88  N   UNL     1      11.268  -6.864  -3.833  1.00  0.00    -0.325 N 
ATOM     89  C   UNL     1      10.316  -7.901  -3.474  1.00  0.00     0.121 C 
ATOM     90  C   UNL     1      12.441  -7.454  -4.427  1.00  0.00     0.121 C 
ATOM     91  C   UNL     1      11.216  -9.046  -3.036  1.00  0.00     0.023 C 
ATOM     92  C   UNL     1      12.468  -8.890  -3.905  1.00  0.00     0.023 C 
ENDBRANCH  83  84
ENDBRANCH  77  78
BRANCH  77  93
ATOM     93  N   UNL     1       9.402  -5.770   3.593  1.00  0.00    -0.321 N 
ATOM     94  H   UNL     1       8.827  -4.933   3.490  1.00  0.00     0.349 HD
BRANCH  93  95
ATOM     95  C   UNL     1       9.009  -6.445   4.846  1.00  0.00     0.263 C 
BRANCH  95  96
ATOM     96  C   UNL     1       8.910  -5.527   6.070  1.00  0.00     0.061 C 
BRANCH  96  97
ATOM     97  C   UNL     1       8.157  -4.222   5.802  1.00  0.00     0.006 CG0
ATOM     98  G   UNL     1       9.033  -2.996   5.529  1.00  0.00     0.000 G0
ENDBRANCH  96  97
ENDBRANCH  95  96
ENDBRANCH  93  95
BRANCH  93  99
ATOM     99  C   UNL     1      10.820  -5.358   3.646  1.00  0.00     0.263 C 
BRANCH  99 100
ATOM    100  C   UNL     1      11.085  -4.055   4.407  1.00  0.00     0.061 C 
BRANCH 100 101
ATOM    101  C   UNL     1       9.957  -3.026   4.309  1.00  0.00     0.006 C 
BRANCH 101 102
ATOM    102  C   UNL     1       9.033  -2.996   5.529  1.00  0.00     0.000 CG0
ATOM    103  G   UNL     1       8.157  -4.222   5.802  1.00  0.00     0.000 G0
ENDBRANCH 101 102
ENDBRANCH 100 101
ENDBRANCH  99 100
ENDBRANCH  93  99
ENDBRANCH  77  93
ENDBRANCH  74  77
ENDBRANCH  72  73
ENDBRANCH  71  72
ENDBRANCH   1  71
TORSDOF 19
