REMARK SMILES CNC(=O)NC1=[NH+]N=CN[C@@H]1C(=O)NCCCCCCNC(=O)c1ccc(-c2c3nc(c(-c4ccc(S(=O)(=O)[O-])cc4)c4ccc([nH]4)c(-c4ccc(S(=O)(=O)[O-])cc4)c4nc(c(-c5ccc(S(=O)(=O)[O-])cc5)c5ccc2[nH]5)C=C4)C=C3)cc1
REMARK SMILES IDX 19 1 18 2 17 3 16 4 15 5 14 6 12 7 13 8 11 10 1 11 2 12 3 13
REMARK SMILES IDX 4 15 5 16 6 17 7 19 8 20 10 22 9 23 20 25 21 26 22 27 23 29
REMARK SMILES IDX 24 30 25 31 83 32 26 33 82 34 27 35 28 36 29 37 76 38 30 39
REMARK SMILES IDX 81 40 75 41 77 42 31 43 80 44 74 45 73 46 32 48 62 49 43 50
REMARK SMILES IDX 61 51 44 52 47 53 60 54 78 55 45 56 46 57 59 59 79 60 48 61
REMARK SMILES IDX 33 62 34 63 42 64 35 65 41 66 36 67 37 68 38 69 39 70 40 71
REMARK SMILES IDX 63 72 64 73 72 74 65 75 71 76 66 77 67 78 68 79 69 80 70 81
REMARK SMILES IDX 49 82 50 83 58 84 51 85 57 86 52 87 53 88 54 89 55 90 56 91
REMARK H PARENT 14 9 2 14 5 18 7 21 10 24 21 28 77 47 47 58
REMARK Flexibility Score: inf
ROOT
ATOM      1  C   UNL     1      -4.662   6.484  -1.401  1.00  0.00     0.021 C 
ENDROOT
BRANCH   1   2
ATOM      2  C   UNL     1      -5.135   5.040  -1.584  1.00  0.00     0.002 C 
BRANCH   2   3
ATOM      3  C   UNL     1      -4.340   4.231  -2.616  1.00  0.00     0.002 C 
BRANCH   3   4
ATOM      4  C   UNL     1      -2.826   4.215  -2.382  1.00  0.00     0.021 C 
BRANCH   4   5
ATOM      5  C   UNL     1      -2.434   3.721  -0.991  1.00  0.00     0.116 C 
BRANCH   5   6
ATOM      6  N   UNL     1      -2.677   2.299  -0.863  1.00  0.00    -0.354 N 
ATOM      7  C   UNL     1      -1.793   1.262  -0.882  1.00  0.00     0.255 C 
ATOM      8  O   UNL     1      -2.263   0.119  -0.931  1.00  0.00    -0.272 OA
ATOM      9  H   UNL     1      -3.621   2.043  -0.745  1.00  0.00     0.163 HD
BRANCH   7  10
ATOM     10  C   UNL     1      -0.273   1.477  -0.879  1.00  0.00     0.287 C 
ATOM     11  C   UNL     1       1.900  -0.509   0.694  1.00  0.00     0.147 C 
ATOM     12  N   UNL     1       0.631  -0.637   1.385  1.00  0.00    -0.321 N 
ATOM     13  C   UNL     1      -0.131   0.333   1.955  1.00  0.00     0.406 C 
ATOM     14  H   UNL     1       0.273  -1.552   1.450  1.00  0.00     0.167 HD
ATOM     15  O   UNL     1      -0.979   0.039   2.791  1.00  0.00    -0.221 OA
ATOM     16  N   UNL     1       0.114   1.629   1.605  1.00  0.00    -0.191 N 
ATOM     17  C   UNL     1       0.238   2.202   0.364  1.00  0.00     0.309 C 
ATOM     18  H   UNL     1       0.219   2.250   2.362  1.00  0.00     0.317 HD
ATOM     19  N   UNL     1       0.833   3.356   0.354  1.00  0.00    -0.148 N 
ATOM     20  N   UNL     1       1.159   3.952  -0.879  1.00  0.00    -0.077 NA
ATOM     21  H   UNL     1       1.053   3.810   1.200  1.00  0.00     0.342 HD
ATOM     22  N   UNL     1       0.166   2.165  -2.084  1.00  0.00    -0.352 N 
ATOM     23  C   UNL     1       0.843   3.335  -1.969  1.00  0.00     0.241 C 
ATOM     24  H   UNL     1      -0.025   1.786  -2.972  1.00  0.00     0.163 HD
ENDBRANCH   7  10
ENDBRANCH   5   6
ENDBRANCH   4   5
ENDBRANCH   3   4
ENDBRANCH   2   3
ENDBRANCH   1   2
BRANCH   1  25
ATOM     25  C   UNL     1      -4.698   7.317  -2.677  1.00  0.00     0.116 C 
BRANCH  25  26
ATOM     26  N   UNL     1      -6.047   7.417  -3.211  1.00  0.00    -0.352 N 
ATOM     27  C   UNL     1      -6.784   8.539  -3.491  1.00  0.00     0.251 C 
ATOM     28  H   UNL     1      -6.494   6.559  -3.397  1.00  0.00     0.163 HD
ATOM     29  O   UNL     1      -7.987   8.450  -3.701  1.00  0.00    -0.269 OA
BRANCH  27  30
ATOM     30  C   UNL     1      -6.112   9.854  -3.529  1.00  0.00     0.039 A 
ATOM     31  C   UNL     1      -6.717  10.944  -2.901  1.00  0.00     0.014 A 
ATOM     32  C   UNL     1      -4.886  10.005  -4.185  1.00  0.00     0.014 A 
ATOM     33  C   UNL     1      -6.067  12.179  -2.892  1.00  0.00     0.010 A 
ATOM     34  C   UNL     1      -4.206  11.216  -4.108  1.00  0.00     0.010 A 
ATOM     35  C   UNL     1      -4.794  12.317  -3.470  1.00  0.00    -0.014 A 
BRANCH  35  36
ATOM     36  C   UNL     1      -4.064  13.608  -3.420  1.00  0.00     0.031 A 
ATOM     37  C   UNL     1      -3.742  14.343  -4.693  1.00  0.00     0.074 A 
ATOM     38  C   UNL     1      -3.645  14.089  -2.232  1.00  0.00     0.049 A 
ATOM     39  N   UNL     1      -3.075  15.457  -4.854  1.00  0.00    -0.248 NA
ATOM     40  C   UNL     1      -4.209  13.736  -5.951  1.00  0.00     0.031 C 
ATOM     41  C   UNL     1      -3.862  13.447  -0.933  1.00  0.00     0.029 A 
ATOM     42  N   UNL     1      -2.945  15.229  -1.925  1.00  0.00    -0.354 N 
ATOM     43  C   UNL     1      -3.031  15.676  -6.226  1.00  0.00     0.074 A 
ATOM     44  C   UNL     1      -3.691  14.554  -6.856  1.00  0.00     0.031 C 
ATOM     45  C   UNL     1      -3.333  14.216   0.032  1.00  0.00     0.029 A 
ATOM     46  C   UNL     1      -2.701  15.380  -0.580  1.00  0.00     0.049 A 
ATOM     47  H   UNL     1      -2.646  15.877  -2.603  1.00  0.00     0.167 HD
ATOM     48  C   UNL     1      -2.507  16.727  -6.900  1.00  0.00     0.031 A 
ATOM     49  C   UNL     1      -2.035  16.343   0.086  1.00  0.00     0.031 A 
ATOM     50  C   UNL     1      -1.858  17.844  -6.267  1.00  0.00     0.049 A 
ATOM     51  C   UNL     1      -1.445  17.491  -0.688  1.00  0.00     0.074 A 
ATOM     52  C   UNL     1      -1.340  18.984  -6.857  1.00  0.00     0.029 A 
ATOM     53  N   UNL     1      -1.633  17.962  -4.904  1.00  0.00    -0.354 N 
ATOM     54  N   UNL     1      -1.475  17.715  -1.980  1.00  0.00    -0.248 NA
ATOM     55  C   UNL     1      -0.741  18.521   0.088  1.00  0.00     0.031 C 
ATOM     56  C   UNL     1      -0.749  19.763  -5.857  1.00  0.00     0.029 A 
ATOM     57  C   UNL     1      -0.959  19.141  -4.636  1.00  0.00     0.049 A 
ATOM     58  H   UNL     1      -1.911  17.303  -4.226  1.00  0.00     0.167 HD
ATOM     59  C   UNL     1      -0.818  18.927  -2.168  1.00  0.00     0.074 A 
ATOM     60  C   UNL     1      -0.419  19.394  -0.857  1.00  0.00     0.031 C 
ATOM     61  C   UNL     1      -0.568  19.592  -3.323  1.00  0.00     0.031 A 
BRANCH  48  62
ATOM     62  C   UNL     1      -2.611  16.716  -8.404  1.00  0.00    -0.014 A 
ATOM     63  C   UNL     1      -3.852  16.867  -9.049  1.00  0.00     0.010 A 
ATOM     64  C   UNL     1      -1.445  16.603  -9.184  1.00  0.00     0.010 A 
ATOM     65  C   UNL     1      -3.930  16.866 -10.444  1.00  0.00     0.020 A 
ATOM     66  C   UNL     1      -1.516  16.632 -10.580  1.00  0.00     0.020 A 
ATOM     67  C   UNL     1      -2.761  16.748 -11.201  1.00  0.00     0.054 A 
BRANCH  67  68
ATOM     68  S   UNL     1      -2.891  16.780 -13.010  1.00  0.00     0.124 S 
ATOM     69  O   UNL     1      -3.509  15.487 -13.291  1.00  0.00    -0.237 OA
ATOM     70  O   UNL     1      -3.738  17.946 -13.248  1.00  0.00    -0.237 OA
ATOM     71  O   UNL     1      -1.507  16.917 -13.456  1.00  0.00    -0.744 OA
ENDBRANCH  67  68
ENDBRANCH  48  62
BRANCH  49  72
ATOM     72  C   UNL     1      -1.899  16.268   1.568  1.00  0.00    -0.014 A 
ATOM     73  C   UNL     1      -2.566  17.189   2.396  1.00  0.00     0.010 A 
ATOM     74  C   UNL     1      -1.104  15.270   2.159  1.00  0.00     0.010 A 
ATOM     75  C   UNL     1      -2.420  17.128   3.785  1.00  0.00     0.020 A 
ATOM     76  C   UNL     1      -0.981  15.186   3.549  1.00  0.00     0.020 A 
ATOM     77  C   UNL     1      -1.629  16.125   4.353  1.00  0.00     0.054 A 
BRANCH  77  78
ATOM     78  S   UNL     1      -1.487  16.042   6.160  1.00  0.00     0.124 S 
ATOM     79  O   UNL     1      -0.642  17.196   6.451  1.00  0.00    -0.237 OA
ATOM     80  O   UNL     1      -2.878  16.150   6.590  1.00  0.00    -0.237 OA
ATOM     81  O   UNL     1      -0.870  14.738   6.394  1.00  0.00    -0.744 OA
ENDBRANCH  77  78
ENDBRANCH  49  72
BRANCH  61  82
ATOM     82  C   UNL     1       0.141  20.917  -3.221  1.00  0.00    -0.014 A 
ATOM     83  C   UNL     1       1.502  20.994  -2.876  1.00  0.00     0.010 A 
ATOM     84  C   UNL     1      -0.555  22.100  -3.530  1.00  0.00     0.010 A 
ATOM     85  C   UNL     1       2.145  22.233  -2.810  1.00  0.00     0.020 A 
ATOM     86  C   UNL     1       0.092  23.337  -3.496  1.00  0.00     0.020 A 
ATOM     87  C   UNL     1       1.435  23.397  -3.122  1.00  0.00     0.054 A 
BRANCH  87  88
ATOM     88  S   UNL     1       2.305  24.987  -3.072  1.00  0.00     0.124 S 
ATOM     89  O   UNL     1       2.473  25.198  -1.637  1.00  0.00    -0.237 OA
ATOM     90  O   UNL     1       3.532  24.704  -3.814  1.00  0.00    -0.237 OA
ATOM     91  O   UNL     1       1.383  25.908  -3.733  1.00  0.00    -0.744 OA
ENDBRANCH  87  88
ENDBRANCH  61  82
ENDBRANCH  35  36
ENDBRANCH  27  30
ENDBRANCH  25  26
ENDBRANCH   1  25
TORSDOF 16
