REMARK SMILES C[C@@H](C(=O)NCCCCCCNC(=O)c1ccc(-c2c3nc(c(-c4ccc(S(=O)(=O)[O-])cc4)c4ccc([nH]4)c(-c4ccc(S(=O)(=O)[O-])cc4)c4nc(c(-c5ccc(S(=O)(=O)[O-])cc5)c5ccc2[nH]5)C=C4)C=C3)cc1)c1ccc(-c2cccc(OC(=O)NCCC3CCCCC3)c2)c(F)c1
REMARK SMILES IDX 6 1 5 2 3 3 4 4 2 6 1 7 75 8 76 9 99 10 77 11 97 12 78 13
REMARK SMILES IDX 98 14 79 15 80 16 96 17 81 18 83 19 82 20 84 21 85 22 86 23
REMARK SMILES IDX 87 24 88 26 89 27 90 28 91 29 95 30 92 31 94 32 93 33 7 34
REMARK SMILES IDX 8 35 9 36 10 37 11 38 12 39 13 40 14 42 15 43 16 44 74 45
REMARK SMILES IDX 17 46 73 47 18 48 19 49 20 50 67 51 21 52 72 53 66 54 68 55
REMARK SMILES IDX 22 56 71 57 65 58 64 59 23 61 53 62 34 63 52 64 35 65 38 66
REMARK SMILES IDX 51 67 69 68 36 69 37 70 50 72 70 73 39 74 24 75 25 76 33 77
REMARK SMILES IDX 26 78 32 79 27 80 28 81 29 82 30 83 31 84 54 85 55 86 63 87
REMARK SMILES IDX 56 88 62 89 57 90 58 91 59 92 60 93 61 94 40 95 41 96 49 97
REMARK SMILES IDX 42 98 48 99 43 100 44 101 45 102 46 103 47 104
REMARK H PARENT 5 5 87 25 12 41 68 60 38 71
REMARK Flexibility Score: inf
ROOT
ATOM      1  C   UNL     1       3.413   1.785   0.452  1.00  0.00     0.116 C 
ENDROOT
BRANCH   1   2
ATOM      2  N   UNL     1       2.337   2.603  -0.069  1.00  0.00    -0.356 N 
ATOM      3  C   UNL     1       1.046   2.248  -0.332  1.00  0.00     0.227 C 
ATOM      4  O   UNL     1       0.425   2.957  -1.125  1.00  0.00    -0.274 OA
ATOM      5  H   UNL     1       2.569   3.541  -0.259  1.00  0.00     0.163 HD
BRANCH   3   6
ATOM      6  C   UNL     1       0.435   1.035   0.395  1.00  0.00     0.105 C 
ATOM      7  C   UNL     1       0.912  -0.259  -0.283  1.00  0.00     0.023 C 
BRANCH   6   8
ATOM      8  C   UNL     1      -1.091   1.095   0.514  1.00  0.00    -0.033 A 
ATOM      9  C   UNL     1      -1.769   2.318   0.675  1.00  0.00     0.005 A 
ATOM     10  C   UNL     1      -1.864  -0.074   0.508  1.00  0.00     0.044 A 
ATOM     11  C   UNL     1      -3.167   2.376   0.729  1.00  0.00     0.012 A 
ATOM     12  C   UNL     1      -3.250  -0.012   0.570  1.00  0.00     0.131 A 
ATOM     13  C   UNL     1      -3.930   1.206   0.669  1.00  0.00     0.018 A 
ATOM     14  F   UNL     1      -3.930  -1.170   0.542  1.00  0.00    -0.206 F 
BRANCH  13  15
ATOM     15  C   UNL     1      -5.386   1.235   0.811  1.00  0.00    -0.012 A 
ATOM     16  C   UNL     1      -6.221   1.919  -0.082  1.00  0.00     0.009 A 
ATOM     17  C   UNL     1      -5.968   0.550   1.887  1.00  0.00     0.056 A 
ATOM     18  C   UNL     1      -7.607   1.906   0.098  1.00  0.00     0.004 A 
ATOM     19  C   UNL     1      -7.342   0.557   2.084  1.00  0.00     0.133 A 
ATOM     20  C   UNL     1      -8.169   1.226   1.182  1.00  0.00     0.047 A 
BRANCH  19  21
ATOM     21  O   UNL     1      -7.981  -0.084   3.172  1.00  0.00    -0.410 OA
BRANCH  21  22
ATOM     22  C   UNL     1      -7.314  -0.587   4.287  1.00  0.00     0.412 C 
ATOM     23  O   UNL     1      -6.102  -0.624   4.473  1.00  0.00    -0.224 OA
ATOM     24  N   UNL     1      -8.142  -1.052   5.263  1.00  0.00    -0.321 N 
ATOM     25  H   UNL     1      -7.704  -1.380   6.082  1.00  0.00     0.167 HD
BRANCH  24  26
ATOM     26  C   UNL     1      -9.583  -1.124   5.244  1.00  0.00     0.119 C 
BRANCH  26  27
ATOM     27  C   UNL     1     -10.062  -2.575   5.254  1.00  0.00     0.025 C 
BRANCH  27  28
ATOM     28  C   UNL     1      -9.618  -3.386   6.492  1.00  0.00    -0.009 C 
ATOM     29  C   UNL     1     -10.258  -2.856   7.786  1.00  0.00     0.003 C 
ATOM     30  C   UNL     1      -9.949  -4.873   6.288  1.00  0.00     0.003 C 
ATOM     31  C   UNL     1      -9.900  -3.712   8.999  1.00  0.00     0.000 C 
ATOM     32  C   UNL     1      -9.569  -5.710   7.506  1.00  0.00     0.000 C 
ATOM     33  C   UNL     1     -10.233  -5.181   8.772  1.00  0.00     0.000 C 
ENDBRANCH  27  28
ENDBRANCH  26  27
ENDBRANCH  24  26
ENDBRANCH  21  22
ENDBRANCH  19  21
ENDBRANCH  13  15
ENDBRANCH   6   8
ENDBRANCH   3   6
ENDBRANCH   1   2
BRANCH   1  34
ATOM     34  C   UNL     1       4.255   1.244  -0.709  1.00  0.00     0.021 C 
BRANCH  34  35
ATOM     35  C   UNL     1       5.013   2.330  -1.480  1.00  0.00     0.002 C 
BRANCH  35  36
ATOM     36  C   UNL     1       5.977   3.156  -0.626  1.00  0.00     0.002 C 
BRANCH  36  37
ATOM     37  C   UNL     1       7.008   2.328   0.143  1.00  0.00     0.021 C 
BRANCH  37  38
ATOM     38  C   UNL     1       7.890   1.447  -0.737  1.00  0.00     0.116 C 
BRANCH  38  39
ATOM     39  N   UNL     1       8.671   2.236  -1.674  1.00  0.00    -0.352 N 
ATOM     40  C   UNL     1      10.028   2.272  -1.865  1.00  0.00     0.251 C 
ATOM     41  H   UNL     1       8.149   2.832  -2.258  1.00  0.00     0.163 HD
ATOM     42  O   UNL     1      10.523   3.175  -2.534  1.00  0.00    -0.269 OA
BRANCH  40  43
ATOM     43  C   UNL     1      10.893   1.239  -1.256  1.00  0.00     0.039 A 
ATOM     44  C   UNL     1      12.108   1.632  -0.691  1.00  0.00     0.014 A 
ATOM     45  C   UNL     1      10.527  -0.111  -1.260  1.00  0.00     0.014 A 
ATOM     46  C   UNL     1      12.930   0.679  -0.088  1.00  0.00     0.010 A 
ATOM     47  C   UNL     1      11.312  -1.049  -0.591  1.00  0.00     0.010 A 
ATOM     48  C   UNL     1      12.524  -0.664  -0.001  1.00  0.00    -0.014 A 
BRANCH  48  49
ATOM     49  C   UNL     1      13.357  -1.656   0.727  1.00  0.00     0.031 A 
ATOM     50  C   UNL     1      13.977  -2.821   0.003  1.00  0.00     0.074 A 
ATOM     51  C   UNL     1      13.540  -1.511   2.056  1.00  0.00     0.049 A 
ATOM     52  N   UNL     1      14.747  -3.768   0.479  1.00  0.00    -0.248 NA
ATOM     53  C   UNL     1      13.686  -2.954  -1.433  1.00  0.00     0.031 C 
ATOM     54  C   UNL     1      12.949  -0.452   2.880  1.00  0.00     0.029 A 
ATOM     55  N   UNL     1      14.277  -2.248   2.947  1.00  0.00    -0.354 N 
ATOM     56  C   UNL     1      15.036  -4.600  -0.596  1.00  0.00     0.074 A 
ATOM     57  C   UNL     1      14.309  -4.084  -1.736  1.00  0.00     0.031 C 
ATOM     58  C   UNL     1      13.377  -0.587   4.145  1.00  0.00     0.029 A 
ATOM     59  C   UNL     1      14.236  -1.763   4.233  1.00  0.00     0.049 A 
ATOM     60  H   UNL     1      14.789  -3.049   2.690  1.00  0.00     0.167 HD
ATOM     61  C   UNL     1      15.854  -5.679  -0.639  1.00  0.00     0.031 A 
ATOM     62  C   UNL     1      14.818  -2.215   5.361  1.00  0.00     0.031 A 
ATOM     63  C   UNL     1      16.573  -6.193   0.498  1.00  0.00     0.049 A 
ATOM     64  C   UNL     1      15.702  -3.430   5.289  1.00  0.00     0.074 A 
ATOM     65  C   UNL     1      17.452  -7.263   0.548  1.00  0.00     0.029 A 
ATOM     66  N   UNL     1      16.501  -5.678   1.783  1.00  0.00    -0.354 N 
ATOM     67  N   UNL     1      16.014  -4.162   4.245  1.00  0.00    -0.248 NA
ATOM     68  C   UNL     1      16.326  -3.870   6.543  1.00  0.00     0.031 C 
ATOM     69  C   UNL     1      17.866  -7.428   1.873  1.00  0.00     0.029 A 
ATOM     70  C   UNL     1      17.300  -6.421   2.637  1.00  0.00     0.049 A 
ATOM     71  H   UNL     1      15.961  -4.899   2.050  1.00  0.00     0.167 HD
ATOM     72  C   UNL     1      16.889  -5.136   4.716  1.00  0.00     0.074 A 
ATOM     73  C   UNL     1      17.081  -4.877   6.128  1.00  0.00     0.031 C 
ATOM     74  C   UNL     1      17.475  -6.157   4.043  1.00  0.00     0.031 A 
BRANCH  61  75
ATOM     75  C   UNL     1      16.029  -6.377  -1.964  1.00  0.00    -0.014 A 
ATOM     76  C   UNL     1      16.741  -5.764  -3.012  1.00  0.00     0.010 A 
ATOM     77  C   UNL     1      15.551  -7.688  -2.139  1.00  0.00     0.010 A 
ATOM     78  C   UNL     1      16.951  -6.439  -4.216  1.00  0.00     0.020 A 
ATOM     79  C   UNL     1      15.784  -8.379  -3.333  1.00  0.00     0.020 A 
ATOM     80  C   UNL     1      16.476  -7.745  -4.367  1.00  0.00     0.054 A 
BRANCH  80  81
ATOM     81  S   UNL     1      16.817  -8.616  -5.922  1.00  0.00     0.124 S 
ATOM     82  O   UNL     1      15.964  -7.896  -6.865  1.00  0.00    -0.237 OA
ATOM     83  O   UNL     1      18.253  -8.412  -6.092  1.00  0.00    -0.237 OA
ATOM     84  O   UNL     1      16.414  -9.993  -5.645  1.00  0.00    -0.744 OA
ENDBRANCH  80  81
ENDBRANCH  61  75
BRANCH  62  85
ATOM     85  C   UNL     1      14.576  -1.525   6.659  1.00  0.00    -0.014 A 
ATOM     86  C   UNL     1      15.617  -0.861   7.333  1.00  0.00     0.010 A 
ATOM     87  C   UNL     1      13.295  -1.551   7.243  1.00  0.00     0.010 A 
ATOM     88  C   UNL     1      15.393  -0.276   8.583  1.00  0.00     0.020 A 
ATOM     89  C   UNL     1      13.058  -0.936   8.474  1.00  0.00     0.020 A 
ATOM     90  C   UNL     1      14.114  -0.320   9.147  1.00  0.00     0.054 A 
BRANCH  90  91
ATOM     91  S   UNL     1      13.841   0.457  10.763  1.00  0.00     0.124 S 
ATOM     92  O   UNL     1      14.510  -0.475  11.664  1.00  0.00    -0.237 OA
ATOM     93  O   UNL     1      14.486   1.758  10.601  1.00  0.00    -0.237 OA
ATOM     94  O   UNL     1      12.385   0.503  10.877  1.00  0.00    -0.744 OA
ENDBRANCH  90  91
ENDBRANCH  62  85
BRANCH  74  95
ATOM     95  C   UNL     1      18.401  -7.052   4.825  1.00  0.00    -0.014 A 
ATOM     96  C   UNL     1      17.912  -7.922   5.816  1.00  0.00     0.010 A 
ATOM     97  C   UNL     1      19.781  -7.035   4.551  1.00  0.00     0.010 A 
ATOM     98  C   UNL     1      18.791  -8.716   6.557  1.00  0.00     0.020 A 
ATOM     99  C   UNL     1      20.660  -7.854   5.265  1.00  0.00     0.020 A 
ATOM    100  C   UNL     1      20.160  -8.674   6.279  1.00  0.00     0.054 A 
BRANCH 100 101
ATOM    101  S   UNL     1      21.279  -9.723   7.247  1.00  0.00     0.124 S 
ATOM    102  O   UNL     1      21.286  -9.045   8.541  1.00  0.00    -0.237 OA
ATOM    103  O   UNL     1      20.605 -11.019   7.221  1.00  0.00    -0.237 OA
ATOM    104  O   UNL     1      22.537  -9.665   6.507  1.00  0.00    -0.744 OA
ENDBRANCH 100 101
ENDBRANCH  74  95
ENDBRANCH  48  49
ENDBRANCH  40  43
ENDBRANCH  38  39
ENDBRANCH  37  38
ENDBRANCH  36  37
ENDBRANCH  35  36
ENDBRANCH  34  35
ENDBRANCH   1  34
TORSDOF 23
