REMARK SMILES CC(C)OC(=O)c1c(NC(=O)[C@H]2[C@@H](C(=O)NCCCCCCNC(=O)c3ccc(-c4c5nc(c(-c6ccc(S(=O)(=O)[O-])cc6)c6ccc([nH]6)c(-c6ccc(S(=O)(=O)[O-])cc6)c6nc(c(-c7ccc(S(=O)(=O)[O-])cc7)c7ccc4[nH]7)C=C6)C=C5)cc3)[C@@H]3C=C[C@H]2CC3)sc2c1CCC2
REMARK SMILES IDX 18 1 17 2 16 3 14 4 15 5 13 7 12 8 89 9 86 10 88 11 90 12
REMARK SMILES IDX 87 13 91 14 10 15 9 16 11 18 8 19 7 20 94 21 92 22 93 23
REMARK SMILES IDX 95 24 97 25 96 26 5 27 6 28 4 29 2 30 1 31 3 32 19 33 20 34
REMARK SMILES IDX 21 35 22 36 23 37 24 38 25 40 26 41 27 42 85 43 28 44 84 45
REMARK SMILES IDX 29 46 30 47 31 48 78 49 32 50 83 51 77 52 79 53 33 54 82 55
REMARK SMILES IDX 76 56 75 57 34 59 64 60 45 61 63 62 46 63 49 64 62 65 80 66
REMARK SMILES IDX 47 67 48 68 61 70 81 71 50 72 35 73 36 74 44 75 37 76 43 77
REMARK SMILES IDX 38 78 39 79 40 80 41 81 42 82 65 83 66 84 74 85 67 86 73 87
REMARK SMILES IDX 68 88 69 89 70 90 71 91 72 92 51 93 52 94 60 95 53 96 59 97
REMARK SMILES IDX 54 98 55 99 56 100 57 101 58 102
REMARK H PARENT 16 6 9 17 23 39 79 58 49 69
REMARK Flexibility Score: inf
ROOT
ATOM      1  C   UNL     1      -7.810   4.058  -2.509  1.00  0.00     0.021 C 
ENDROOT
BRANCH   1   2
ATOM      2  C   UNL     1      -7.653   2.601  -2.091  1.00  0.00     0.116 C 
BRANCH   2   3
ATOM      3  N   UNL     1      -7.767   1.625  -3.158  1.00  0.00    -0.356 N 
ATOM      4  C   UNL     1      -7.439   0.292  -3.177  1.00  0.00     0.224 C 
ATOM      5  O   UNL     1      -8.021  -0.382  -4.028  1.00  0.00    -0.275 OA
ATOM      6  H   UNL     1      -8.139   1.973  -4.001  1.00  0.00     0.163 HD
BRANCH   4   7
ATOM      7  C   UNL     1      -6.439  -0.313  -2.162  1.00  0.00     0.098 C 
ATOM      8  C   UNL     1      -6.168  -1.905  -2.272  1.00  0.00     0.099 C 
ATOM      9  C   UNL     1      -6.861  -2.548  -1.026  1.00  0.00     0.025 C 
ATOM     10  C   UNL     1      -6.901  -0.018  -0.688  1.00  0.00     0.025 C 
ATOM     11  C   UNL     1      -6.029  -2.080   0.155  1.00  0.00    -0.027 C 
ATOM     12  C   UNL     1      -8.310  -2.067  -0.858  1.00  0.00     0.009 C 
ATOM     13  C   UNL     1      -6.009  -0.749   0.293  1.00  0.00    -0.027 C 
ATOM     14  C   UNL     1      -8.328  -0.580  -0.510  1.00  0.00     0.009 C 
BRANCH   8  15
ATOM     15  C   UNL     1      -6.312  -2.594  -3.658  1.00  0.00     0.229 C 
ATOM     16  N   UNL     1      -6.643  -3.918  -3.829  1.00  0.00    -0.317 N 
ATOM     17  H   UNL     1      -7.038  -4.137  -4.704  1.00  0.00     0.170 HD
ATOM     18  O   UNL     1      -6.035  -1.972  -4.692  1.00  0.00    -0.274 OA
BRANCH  16  19
ATOM     19  C   UNL     1      -6.512  -4.988  -2.968  1.00  0.00     0.110 A 
ATOM     20  C   UNL     1      -7.292  -6.146  -2.877  1.00  0.00     0.098 A 
ATOM     21  C   UNL     1      -7.060  -6.714  -1.584  1.00  0.00    -0.017 A 
ATOM     22  S   UNL     1      -5.137  -5.079  -1.927  1.00  0.00    -0.122 S 
ATOM     23  C   UNL     1      -6.011  -6.112  -0.943  1.00  0.00     0.011 A 
ATOM     24  C   UNL     1      -7.675  -7.738  -0.699  1.00  0.00     0.038 C 
ATOM     25  C   UNL     1      -5.855  -6.459   0.484  1.00  0.00     0.047 C 
ATOM     26  C   UNL     1      -7.116  -7.347   0.712  1.00  0.00     0.010 C 
BRANCH  20  27
ATOM     27  C   UNL     1      -8.246  -6.532  -3.910  1.00  0.00     0.341 C 
ATOM     28  O   UNL     1      -8.155  -6.108  -5.061  1.00  0.00    -0.246 OA
BRANCH  27  29
ATOM     29  O   UNL     1      -9.182  -7.431  -3.496  1.00  0.00    -0.459 OA
BRANCH  29  30
ATOM     30  C   UNL     1     -10.020  -8.093  -4.477  1.00  0.00     0.170 C 
ATOM     31  C   UNL     1     -10.781  -7.164  -5.423  1.00  0.00     0.052 C 
ATOM     32  C   UNL     1      -9.211  -9.149  -5.223  1.00  0.00     0.052 C 
ENDBRANCH  29  30
ENDBRANCH  27  29
ENDBRANCH  20  27
ENDBRANCH  16  19
ENDBRANCH   8  15
ENDBRANCH   4   7
ENDBRANCH   2   3
ENDBRANCH   1   2
BRANCH   1  33
ATOM     33  C   UNL     1      -9.085   4.445  -3.259  1.00  0.00     0.002 C 
BRANCH  33  34
ATOM     34  C   UNL     1     -10.444   4.080  -2.651  1.00  0.00     0.002 C 
BRANCH  34  35
ATOM     35  C   UNL     1     -10.738   4.450  -1.192  1.00  0.00     0.021 C 
BRANCH  35  36
ATOM     36  C   UNL     1     -10.491   5.897  -0.791  1.00  0.00     0.116 C 
BRANCH  36  37
ATOM     37  N   UNL     1     -11.285   6.870  -1.541  1.00  0.00    -0.352 N 
ATOM     38  C   UNL     1     -11.156   8.250  -1.557  1.00  0.00     0.251 C 
ATOM     39  H   UNL     1     -12.001   6.498  -2.105  1.00  0.00     0.163 HD
ATOM     40  O   UNL     1     -12.103   8.960  -1.877  1.00  0.00    -0.269 OA
BRANCH  38  41
ATOM     41  C   UNL     1      -9.861   8.853  -1.183  1.00  0.00     0.039 A 
ATOM     42  C   UNL     1      -9.769  10.050  -0.469  1.00  0.00     0.014 A 
ATOM     43  C   UNL     1      -8.709   8.165  -1.544  1.00  0.00     0.014 A 
ATOM     44  C   UNL     1      -8.510  10.488  -0.054  1.00  0.00     0.010 A 
ATOM     45  C   UNL     1      -7.512   8.478  -0.960  1.00  0.00     0.010 A 
ATOM     46  C   UNL     1      -7.383   9.681  -0.284  1.00  0.00    -0.014 A 
BRANCH  46  47
ATOM     47  C   UNL     1      -6.067  10.026   0.242  1.00  0.00     0.031 A 
ATOM     48  C   UNL     1      -6.042  10.329   1.694  1.00  0.00     0.074 A 
ATOM     49  C   UNL     1      -4.919   9.888  -0.460  1.00  0.00     0.049 A 
ATOM     50  N   UNL     1      -5.922  11.489   2.246  1.00  0.00    -0.248 NA
ATOM     51  C   UNL     1      -6.343   9.244   2.643  1.00  0.00     0.031 C 
ATOM     52  C   UNL     1      -4.724   9.309  -1.797  1.00  0.00     0.029 A 
ATOM     53  N   UNL     1      -3.643  10.142  -0.064  1.00  0.00    -0.354 N 
ATOM     54  C   UNL     1      -5.888  11.258   3.615  1.00  0.00     0.074 A 
ATOM     55  C   UNL     1      -6.355   9.906   3.802  1.00  0.00     0.031 C 
ATOM     56  C   UNL     1      -3.414   9.035  -1.989  1.00  0.00     0.029 A 
ATOM     57  C   UNL     1      -2.662   9.595  -0.884  1.00  0.00     0.049 A 
ATOM     58  H   UNL     1      -3.431  10.672   0.738  1.00  0.00     0.167 HD
ATOM     59  C   UNL     1      -5.230  12.102   4.459  1.00  0.00     0.031 A 
ATOM     60  C   UNL     1      -1.323   9.595  -0.666  1.00  0.00     0.031 A 
ATOM     61  C   UNL     1      -4.866  13.332   3.799  1.00  0.00     0.049 A 
ATOM     62  C   UNL     1      -1.047  10.700   0.282  1.00  0.00     0.074 A 
ATOM     63  C   UNL     1      -5.561  14.338   3.159  1.00  0.00     0.029 A 
ATOM     64  N   UNL     1      -3.561  13.440   3.372  1.00  0.00    -0.354 N 
ATOM     65  N   UNL     1      -1.229  11.957  -0.014  1.00  0.00    -0.248 NA
ATOM     66  C   UNL     1      -1.006  10.395   1.703  1.00  0.00     0.031 C 
ATOM     67  C   UNL     1      -4.754  14.688   2.037  1.00  0.00     0.029 A 
ATOM     68  C   UNL     1      -3.577  13.936   2.094  1.00  0.00     0.049 A 
ATOM     69  H   UNL     1      -2.760  13.204   3.893  1.00  0.00     0.167 HD
ATOM     70  C   UNL     1      -1.762  12.519   1.137  1.00  0.00     0.074 A 
ATOM     71  C   UNL     1      -1.501  11.537   2.189  1.00  0.00     0.031 C 
ATOM     72  C   UNL     1      -2.606  13.592   1.074  1.00  0.00     0.031 A 
BRANCH  59  73
ATOM     73  C   UNL     1      -4.550  11.659   5.732  1.00  0.00    -0.014 A 
ATOM     74  C   UNL     1      -3.943  12.634   6.550  1.00  0.00     0.010 A 
ATOM     75  C   UNL     1      -4.245  10.311   6.011  1.00  0.00     0.010 A 
ATOM     76  C   UNL     1      -3.022  12.280   7.543  1.00  0.00     0.020 A 
ATOM     77  C   UNL     1      -3.362   9.944   7.028  1.00  0.00     0.020 A 
ATOM     78  C   UNL     1      -2.728  10.934   7.765  1.00  0.00     0.054 A 
BRANCH  78  79
ATOM     79  S   UNL     1      -1.459  10.491   8.975  1.00  0.00     0.124 S 
ATOM     80  O   UNL     1      -0.253  11.028   8.354  1.00  0.00    -0.237 OA
ATOM     81  O   UNL     1      -1.921  11.185  10.174  1.00  0.00    -0.237 OA
ATOM     82  O   UNL     1      -1.540   9.033   9.035  1.00  0.00    -0.744 OA
ENDBRANCH  78  79
ENDBRANCH  59  73
BRANCH  60  83
ATOM     83  C   UNL     1      -0.332   8.537  -0.983  1.00  0.00    -0.014 A 
ATOM     84  C   UNL     1       1.050   8.792  -0.896  1.00  0.00     0.010 A 
ATOM     85  C   UNL     1      -0.745   7.192  -1.078  1.00  0.00     0.010 A 
ATOM     86  C   UNL     1       1.978   7.738  -0.826  1.00  0.00     0.020 A 
ATOM     87  C   UNL     1       0.174   6.137  -1.014  1.00  0.00     0.020 A 
ATOM     88  C   UNL     1       1.531   6.415  -0.860  1.00  0.00     0.054 A 
BRANCH  88  89
ATOM     89  S   UNL     1       2.711   5.063  -0.562  1.00  0.00     0.124 S 
ATOM     90  O   UNL     1       3.500   5.062  -1.790  1.00  0.00    -0.237 OA
ATOM     91  O   UNL     1       3.410   5.510   0.639  1.00  0.00    -0.237 OA
ATOM     92  O   UNL     1       1.853   3.894  -0.375  1.00  0.00    -0.744 OA
ENDBRANCH  88  89
ENDBRANCH  60  83
BRANCH  72  93
ATOM     93  C   UNL     1      -2.702  14.359  -0.228  1.00  0.00    -0.014 A 
ATOM     94  C   UNL     1      -3.141  13.802  -1.446  1.00  0.00     0.010 A 
ATOM     95  C   UNL     1      -2.473  15.745  -0.173  1.00  0.00     0.010 A 
ATOM     96  C   UNL     1      -3.320  14.610  -2.582  1.00  0.00     0.020 A 
ATOM     97  C   UNL     1      -2.667  16.557  -1.292  1.00  0.00     0.020 A 
ATOM     98  C   UNL     1      -3.080  15.985  -2.496  1.00  0.00     0.054 A 
BRANCH  98  99
ATOM     99  S   UNL     1      -3.349  17.037  -3.951  1.00  0.00     0.124 S 
ATOM    100  O   UNL     1      -2.280  16.615  -4.851  1.00  0.00    -0.237 OA
ATOM    101  O   UNL     1      -4.702  16.676  -4.368  1.00  0.00    -0.237 OA
ATOM    102  O   UNL     1      -3.215  18.396  -3.428  1.00  0.00    -0.744 OA
ENDBRANCH  98  99
ENDBRANCH  72  93
ENDBRANCH  46  47
ENDBRANCH  38  41
ENDBRANCH  36  37
ENDBRANCH  35  36
ENDBRANCH  34  35
ENDBRANCH  33  34
ENDBRANCH   1  33
TORSDOF 21
