REMARK SMILES Cc1cccc(-c2cccc(C(=O)NCCCCCCNC(=O)c3ccc(-c4c5nc(c(-c6ccc(S(=O)(=O)[O-])cc6)c6ccc([nH]6)c(-c6ccc(S(=O)(=O)[O-])cc6)c6nc(c(-c7ccc(S(=O)(=O)[O-])cc7)c7ccc4[nH]7)C=C6)C=C5)cc3)c2)c1
REMARK SMILES IDX 18 1 17 2 16 3 15 4 14 5 12 6 13 7 11 9 7 10 8 11 84 12 9 13
REMARK SMILES IDX 10 14 6 15 1 16 2 17 3 18 85 19 4 20 5 21 19 22 20 23 21 24
REMARK SMILES IDX 22 25 23 27 24 28 25 29 83 30 26 31 82 32 27 33 28 34 29 35
REMARK SMILES IDX 76 36 30 37 81 38 75 39 77 40 31 41 80 42 74 43 73 44 32 46
REMARK SMILES IDX 62 47 43 48 61 49 44 50 47 51 60 52 78 53 45 54 46 55 59 57
REMARK SMILES IDX 79 58 48 59 33 60 34 61 42 62 35 63 41 64 36 65 37 66 38 67
REMARK SMILES IDX 39 68 40 69 63 70 64 71 72 72 65 73 71 74 66 75 67 76 68 77
REMARK SMILES IDX 69 78 70 79 49 80 50 81 58 82 51 83 57 84 52 85 53 86 54 87
REMARK SMILES IDX 55 88 56 89
REMARK H PARENT 14 8 21 26 77 45 47 56
REMARK Flexibility Score: inf
ROOT
ATOM      1  C   UNL     1      -6.801   8.828   2.296  1.00  0.00     0.002 C 
ENDROOT
BRANCH   1   2
ATOM      2  C   UNL     1      -7.479   7.569   1.741  1.00  0.00     0.002 C 
BRANCH   2   3
ATOM      3  C   UNL     1      -6.763   6.778   0.641  1.00  0.00     0.021 C 
BRANCH   3   4
ATOM      4  C   UNL     1      -5.287   6.433   0.834  1.00  0.00     0.116 C 
BRANCH   4   5
ATOM      5  N   UNL     1      -5.005   5.493   1.904  1.00  0.00    -0.352 N 
ATOM      6  C   UNL     1      -4.068   4.487   2.006  1.00  0.00     0.251 C 
ATOM      7  O   UNL     1      -4.034   3.831   3.049  1.00  0.00    -0.269 OA
ATOM      8  H   UNL     1      -5.584   5.591   2.694  1.00  0.00     0.163 HD
BRANCH   6   9
ATOM      9  C   UNL     1      -3.111   4.132   0.912  1.00  0.00     0.040 A 
ATOM     10  C   UNL     1      -1.686   2.399  -0.100  1.00  0.00    -0.018 A 
ATOM     11  C   UNL     1      -1.316   3.325  -1.088  1.00  0.00     0.009 A 
ATOM     12  C   UNL     1      -2.616   2.811   0.874  1.00  0.00     0.022 A 
ATOM     13  C   UNL     1      -1.765   4.642  -1.041  1.00  0.00     0.001 A 
ATOM     14  C   UNL     1      -2.617   5.053  -0.016  1.00  0.00     0.014 A 
BRANCH  10  15
ATOM     15  C   UNL     1      -1.034   1.077  -0.051  1.00  0.00    -0.018 A 
ATOM     16  C   UNL     1       2.546  -0.275   0.025  1.00  0.00     0.044 C 
ATOM     17  C   UNL     1       1.047  -0.228   0.014  1.00  0.00    -0.051 A 
ATOM     18  C   UNL     1       0.299  -1.407   0.045  1.00  0.00     0.003 A 
ATOM     19  C   UNL     1       0.373   0.999  -0.035  1.00  0.00     0.012 A 
ATOM     20  C   UNL     1      -1.096  -1.353   0.035  1.00  0.00     0.001 A 
ATOM     21  C   UNL     1      -1.758  -0.121  -0.010  1.00  0.00     0.009 A 
ENDBRANCH  10  15
ENDBRANCH   6   9
ENDBRANCH   4   5
ENDBRANCH   3   4
ENDBRANCH   2   3
ENDBRANCH   1   2
BRANCH   1  22
ATOM     22  C   UNL     1      -6.242   9.836   1.292  1.00  0.00     0.021 C 
BRANCH  22  23
ATOM     23  C   UNL     1      -7.289  10.582   0.468  1.00  0.00     0.116 C 
BRANCH  23  24
ATOM     24  N   UNL     1      -7.336  12.017   0.764  1.00  0.00    -0.352 N 
ATOM     25  C   UNL     1      -7.848  13.044  -0.015  1.00  0.00     0.251 C 
ATOM     26  H   UNL     1      -6.953  12.288   1.629  1.00  0.00     0.163 HD
ATOM     27  O   UNL     1      -7.785  14.225   0.274  1.00  0.00    -0.269 OA
BRANCH  25  28
ATOM     28  C   UNL     1      -8.605  12.628  -1.208  1.00  0.00     0.039 A 
ATOM     29  C   UNL     1      -9.998  12.602  -1.078  1.00  0.00     0.014 A 
ATOM     30  C   UNL     1      -7.940  11.914  -2.201  1.00  0.00     0.014 A 
ATOM     31  C   UNL     1     -10.713  11.660  -1.801  1.00  0.00     0.010 A 
ATOM     32  C   UNL     1      -8.640  10.917  -2.850  1.00  0.00     0.010 A 
ATOM     33  C   UNL     1     -10.004  10.746  -2.584  1.00  0.00    -0.014 A 
BRANCH  33  34
ATOM     34  C   UNL     1     -10.621   9.513  -3.048  1.00  0.00     0.031 A 
ATOM     35  C   UNL     1     -11.127   9.451  -4.428  1.00  0.00     0.074 A 
ATOM     36  C   UNL     1     -10.811   8.479  -2.198  1.00  0.00     0.049 A 
ATOM     37  N   UNL     1     -12.209   8.846  -4.784  1.00  0.00    -0.248 NA
ATOM     38  C   UNL     1     -10.464  10.162  -5.516  1.00  0.00     0.031 C 
ATOM     39  C   UNL     1     -11.344   7.161  -2.532  1.00  0.00     0.029 A 
ATOM     40  N   UNL     1     -10.799   8.499  -0.800  1.00  0.00    -0.354 N 
ATOM     41  C   UNL     1     -12.228   8.840  -6.160  1.00  0.00     0.074 A 
ATOM     42  C   UNL     1     -11.186   9.757  -6.562  1.00  0.00     0.031 C 
ATOM     43  C   UNL     1     -11.905   6.643  -1.428  1.00  0.00     0.029 A 
ATOM     44  C   UNL     1     -11.834   7.653  -0.382  1.00  0.00     0.049 A 
ATOM     45  H   UNL     1     -10.184   9.008  -0.223  1.00  0.00     0.167 HD
ATOM     46  C   UNL     1     -12.996   7.935  -6.831  1.00  0.00     0.031 A 
ATOM     47  C   UNL     1     -12.874   8.059   0.399  1.00  0.00     0.031 A 
ATOM     48  C   UNL     1     -13.783   7.111  -5.916  1.00  0.00     0.049 A 
ATOM     49  C   UNL     1     -14.216   7.862  -0.277  1.00  0.00     0.074 A 
ATOM     50  C   UNL     1     -13.589   5.837  -5.406  1.00  0.00     0.029 A 
ATOM     51  N   UNL     1     -14.771   7.700  -5.132  1.00  0.00    -0.354 N 
ATOM     52  N   UNL     1     -14.365   7.649  -1.557  1.00  0.00    -0.248 NA
ATOM     53  C   UNL     1     -15.494   7.914   0.428  1.00  0.00     0.031 C 
ATOM     54  C   UNL     1     -14.404   5.695  -4.254  1.00  0.00     0.029 A 
ATOM     55  C   UNL     1     -15.120   6.867  -4.084  1.00  0.00     0.049 A 
ATOM     56  H   UNL     1     -15.167   8.586  -5.300  1.00  0.00     0.167 HD
ATOM     57  C   UNL     1     -15.699   7.514  -1.853  1.00  0.00     0.074 A 
ATOM     58  C   UNL     1     -16.364   7.685  -0.573  1.00  0.00     0.031 C 
ATOM     59  C   UNL     1     -16.143   7.264  -3.122  1.00  0.00     0.031 A 
BRANCH  46  60
ATOM     60  C   UNL     1     -12.694   7.585  -8.272  1.00  0.00    -0.014 A 
ATOM     61  C   UNL     1     -12.787   6.247  -8.703  1.00  0.00     0.010 A 
ATOM     62  C   UNL     1     -12.211   8.512  -9.217  1.00  0.00     0.010 A 
ATOM     63  C   UNL     1     -12.285   5.833  -9.946  1.00  0.00     0.020 A 
ATOM     64  C   UNL     1     -11.658   8.107 -10.441  1.00  0.00     0.020 A 
ATOM     65  C   UNL     1     -11.682   6.761 -10.791  1.00  0.00     0.054 A 
BRANCH  65  66
ATOM     66  S   UNL     1     -10.907   6.187 -12.326  1.00  0.00     0.124 S 
ATOM     67  O   UNL     1     -10.040   5.106 -11.861  1.00  0.00    -0.237 OA
ATOM     68  O   UNL     1     -12.059   5.774 -13.120  1.00  0.00    -0.237 OA
ATOM     69  O   UNL     1     -10.201   7.368 -12.820  1.00  0.00    -0.744 OA
ENDBRANCH  65  66
ENDBRANCH  46  60
BRANCH  47  70
ATOM     70  C   UNL     1     -12.547   9.107   1.404  1.00  0.00    -0.014 A 
ATOM     71  C   UNL     1     -11.766   8.724   2.516  1.00  0.00     0.010 A 
ATOM     72  C   UNL     1     -12.683  10.476   1.122  1.00  0.00     0.010 A 
ATOM     73  C   UNL     1     -11.050   9.670   3.258  1.00  0.00     0.020 A 
ATOM     74  C   UNL     1     -11.960  11.429   1.861  1.00  0.00     0.020 A 
ATOM     75  C   UNL     1     -11.112  11.014   2.893  1.00  0.00     0.054 A 
BRANCH  75  76
ATOM     76  S   UNL     1     -10.027  12.197   3.752  1.00  0.00     0.124 S 
ATOM     77  O   UNL     1     -10.220  11.841   5.155  1.00  0.00    -0.237 OA
ATOM     78  O   UNL     1      -8.713  11.867   3.202  1.00  0.00    -0.237 OA
ATOM     79  O   UNL     1     -10.568  13.492   3.357  1.00  0.00    -0.744 OA
ENDBRANCH  75  76
ENDBRANCH  47  70
BRANCH  59  80
ATOM     80  C   UNL     1     -17.585   7.261  -3.588  1.00  0.00    -0.014 A 
ATOM     81  C   UNL     1     -18.641   7.900  -2.922  1.00  0.00     0.010 A 
ATOM     82  C   UNL     1     -17.889   6.677  -4.845  1.00  0.00     0.010 A 
ATOM     83  C   UNL     1     -19.941   7.912  -3.455  1.00  0.00     0.020 A 
ATOM     84  C   UNL     1     -19.167   6.723  -5.407  1.00  0.00     0.020 A 
ATOM     85  C   UNL     1     -20.196   7.324  -4.694  1.00  0.00     0.054 A 
BRANCH  85  86
ATOM     86  S   UNL     1     -21.853   7.420  -5.417  1.00  0.00     0.124 S 
ATOM     87  O   UNL     1     -22.492   6.229  -4.866  1.00  0.00    -0.237 OA
ATOM     88  O   UNL     1     -22.360   8.694  -4.910  1.00  0.00    -0.237 OA
ATOM     89  O   UNL     1     -21.600   7.390  -6.855  1.00  0.00    -0.744 OA
ENDBRANCH  85  86
ENDBRANCH  59  80
ENDBRANCH  33  34
ENDBRANCH  25  28
ENDBRANCH  23  24
ENDBRANCH  22  23
ENDBRANCH   1  22
TORSDOF 17
