REMARK SMILES CC[NH+]1CCN(c2ccc(NC(=O)C3CCCC3)c(C(=O)NCCCCCCNC(=O)c3ccc(-c4c5nc(c(-c6ccc(S(=O)(=O)[O-])cc6)c6ccc([nH]6)c(-c6ccc(S(=O)(=O)[O-])cc6)c6nc(c(-c7ccc(S(=O)(=O)[O-])cc7)c7ccc4[nH]7)C=C6)C=C5)cc3)c2)CC1
REMARK SMILES IDX 26 1 25 2 24 3 23 4 22 5 20 6 21 7 19 9 7 10 8 11 92 12 9 13
REMARK SMILES IDX 10 14 6 15 3 16 4 17 94 18 5 20 93 21 2 22 1 23 11 24 12 25
REMARK SMILES IDX 13 27 14 28 15 29 18 30 16 31 17 32 27 33 28 34 29 35 30 36
REMARK SMILES IDX 31 38 32 39 33 40 91 41 34 42 90 43 35 44 36 45 37 46 84 47
REMARK SMILES IDX 38 48 89 49 83 50 85 51 39 52 88 53 82 54 81 55 40 57 70 58
REMARK SMILES IDX 51 59 69 60 52 61 55 62 68 63 86 64 53 65 54 66 67 68 87 69
REMARK SMILES IDX 56 70 41 71 42 72 50 73 43 74 49 75 44 76 45 77 46 78 47 79
REMARK SMILES IDX 48 80 71 81 72 82 80 83 73 84 79 85 74 86 75 87 76 88 77 89
REMARK SMILES IDX 78 90 57 91 58 92 66 93 59 94 65 95 60 96 61 97 62 98 63 99
REMARK SMILES IDX 64 100
REMARK H PARENT 22 8 3 19 11 26 29 37 85 56 55 67
REMARK Flexibility Score: inf
ROOT
ATOM      1  C   UNL     1       2.304  -4.531   8.485  1.00  0.00     0.002 C 
ENDROOT
BRANCH   1   2
ATOM      2  C   UNL     1       2.167  -3.067   8.911  1.00  0.00     0.002 C 
BRANCH   2   3
ATOM      3  C   UNL     1       1.530  -2.126   7.895  1.00  0.00     0.021 C 
BRANCH   3   4
ATOM      4  C   UNL     1       0.205  -2.569   7.289  1.00  0.00     0.116 C 
BRANCH   4   5
ATOM      5  N   UNL     1      -0.910  -2.674   8.223  1.00  0.00    -0.352 N 
ATOM      6  C   UNL     1      -2.226  -2.259   8.102  1.00  0.00     0.253 C 
ATOM      7  O   UNL     1      -3.006  -2.459   9.031  1.00  0.00    -0.269 OA
ATOM      8  H   UNL     1      -0.692  -3.110   9.079  1.00  0.00     0.163 HD
BRANCH   6   9
ATOM      9  C   UNL     1      -2.674  -1.471   6.918  1.00  0.00     0.065 A 
ATOM     10  C   UNL     1      -2.157  -0.825   4.617  1.00  0.00     0.038 A 
ATOM     11  C   UNL     1      -2.804   0.380   4.895  1.00  0.00     0.028 A 
ATOM     12  C   UNL     1      -2.163  -1.769   5.644  1.00  0.00     0.042 A 
ATOM     13  C   UNL     1      -3.454   0.614   6.105  1.00  0.00     0.029 A 
ATOM     14  C   UNL     1      -3.514  -0.360   7.078  1.00  0.00     0.054 A 
BRANCH  10  15
ATOM     15  N   UNL     1      -1.483  -1.012   3.430  1.00  0.00    -0.360 N 
ATOM     16  N   UNL     1       1.109  -1.271   2.036  1.00  0.00    -0.332 N 
ATOM     17  C   UNL     1       0.672  -0.037   2.718  1.00  0.00     0.283 C 
ATOM     18  C   UNL     1       0.467  -2.420   2.730  1.00  0.00     0.283 C 
ATOM     19  H   UNL     1       2.126  -1.329   2.087  1.00  0.00     0.348 HD
ATOM     20  C   UNL     1      -0.857   0.144   2.756  1.00  0.00     0.178 C 
ATOM     21  C   UNL     1      -1.077  -2.326   2.891  1.00  0.00     0.178 C 
BRANCH  16  22
ATOM     22  C   UNL     1       0.785  -1.287   0.598  1.00  0.00     0.258 C 
ATOM     23  C   UNL     1       1.312  -0.082  -0.178  1.00  0.00     0.071 C 
ENDBRANCH  16  22
ENDBRANCH  10  15
BRANCH  14  24
ATOM     24  N   UNL     1      -4.397  -0.264   8.167  1.00  0.00    -0.325 N 
ATOM     25  C   UNL     1      -5.610   0.333   8.341  1.00  0.00     0.227 C 
ATOM     26  H   UNL     1      -4.070  -0.725   8.974  1.00  0.00     0.169 HD
ATOM     27  O   UNL     1      -6.104   0.242   9.477  1.00  0.00    -0.274 OA
BRANCH  25  28
ATOM     28  C   UNL     1      -6.425   1.101   7.286  1.00  0.00     0.079 C 
ATOM     29  C   UNL     1      -6.112   2.597   7.268  1.00  0.00     0.013 C 
ATOM     30  C   UNL     1      -6.512   0.639   5.826  1.00  0.00     0.013 C 
ATOM     31  C   UNL     1      -6.506   3.071   5.876  1.00  0.00     0.001 C 
ATOM     32  C   UNL     1      -6.278   1.881   4.959  1.00  0.00     0.001 C 
ENDBRANCH  25  28
ENDBRANCH  14  24
ENDBRANCH   6   9
ENDBRANCH   4   5
ENDBRANCH   3   4
ENDBRANCH   2   3
ENDBRANCH   1   2
BRANCH   1  33
ATOM     33  C   UNL     1       2.986  -4.790   7.139  1.00  0.00     0.021 C 
BRANCH  33  34
ATOM     34  C   UNL     1       4.365  -4.164   6.963  1.00  0.00     0.116 C 
BRANCH  34  35
ATOM     35  N   UNL     1       5.321  -4.632   7.952  1.00  0.00    -0.352 N 
ATOM     36  C   UNL     1       6.556  -5.201   7.770  1.00  0.00     0.251 C 
ATOM     37  H   UNL     1       5.041  -4.526   8.890  1.00  0.00     0.163 HD
ATOM     38  O   UNL     1       7.148  -5.694   8.730  1.00  0.00    -0.269 OA
BRANCH  36  39
ATOM     39  C   UNL     1       7.167  -5.244   6.424  1.00  0.00     0.039 A 
ATOM     40  C   UNL     1       7.781  -6.425   5.998  1.00  0.00     0.014 A 
ATOM     41  C   UNL     1       7.147  -4.125   5.586  1.00  0.00     0.014 A 
ATOM     42  C   UNL     1       8.322  -6.501   4.713  1.00  0.00     0.010 A 
ATOM     43  C   UNL     1       7.619  -4.227   4.279  1.00  0.00     0.010 A 
ATOM     44  C   UNL     1       8.216  -5.414   3.829  1.00  0.00    -0.014 A 
BRANCH  44  45
ATOM     45  C   UNL     1       8.720  -5.504   2.434  1.00  0.00     0.031 A 
ATOM     46  C   UNL     1       9.840  -4.610   1.972  1.00  0.00     0.074 A 
ATOM     47  C   UNL     1       8.130  -6.350   1.566  1.00  0.00     0.049 A 
ATOM     48  N   UNL     1      10.380  -4.512   0.784  1.00  0.00    -0.248 NA
ATOM     49  C   UNL     1      10.414  -3.690   2.968  1.00  0.00     0.031 C 
ATOM     50  C   UNL     1       7.010  -7.240   1.880  1.00  0.00     0.029 A 
ATOM     51  N   UNL     1       8.386  -6.596   0.240  1.00  0.00    -0.354 N 
ATOM     52  C   UNL     1      11.340  -3.512   0.884  1.00  0.00     0.074 A 
ATOM     53  C   UNL     1      11.276  -3.000   2.235  1.00  0.00     0.031 C 
ATOM     54  C   UNL     1       6.693  -7.952   0.786  1.00  0.00     0.029 A 
ATOM     55  C   UNL     1       7.554  -7.539  -0.318  1.00  0.00     0.049 A 
ATOM     56  H   UNL     1       9.098  -6.140  -0.265  1.00  0.00     0.167 HD
ATOM     57  C   UNL     1      12.210  -3.072  -0.057  1.00  0.00     0.031 A 
ATOM     58  C   UNL     1       7.483  -8.013  -1.577  1.00  0.00     0.031 A 
ATOM     59  C   UNL     1      12.273  -3.589  -1.399  1.00  0.00     0.049 A 
ATOM     60  C   UNL     1       8.449  -7.499  -2.609  1.00  0.00     0.074 A 
ATOM     61  C   UNL     1      13.157  -3.250  -2.409  1.00  0.00     0.029 A 
ATOM     62  N   UNL     1      11.418  -4.548  -1.921  1.00  0.00    -0.354 N 
ATOM     63  N   UNL     1       9.398  -6.603  -2.474  1.00  0.00    -0.248 NA
ATOM     64  C   UNL     1       8.342  -8.067  -3.960  1.00  0.00     0.031 C 
ATOM     65  C   UNL     1      12.796  -3.958  -3.560  1.00  0.00     0.029 A 
ATOM     66  C   UNL     1      11.733  -4.790  -3.248  1.00  0.00     0.049 A 
ATOM     67  H   UNL     1      10.694  -4.991  -1.422  1.00  0.00     0.167 HD
ATOM     68  C   UNL     1      10.020  -6.521  -3.716  1.00  0.00     0.074 A 
ATOM     69  C   UNL     1       9.350  -7.470  -4.582  1.00  0.00     0.031 C 
ATOM     70  C   UNL     1      11.055  -5.734  -4.101  1.00  0.00     0.031 A 
BRANCH  57  71
ATOM     71  C   UNL     1      13.156  -1.963   0.329  1.00  0.00    -0.014 A 
ATOM     72  C   UNL     1      14.194  -2.178   1.254  1.00  0.00     0.010 A 
ATOM     73  C   UNL     1      13.033  -0.699  -0.276  1.00  0.00     0.010 A 
ATOM     74  C   UNL     1      15.062  -1.138   1.600  1.00  0.00     0.020 A 
ATOM     75  C   UNL     1      13.918   0.335   0.043  1.00  0.00     0.020 A 
ATOM     76  C   UNL     1      14.917   0.113   0.993  1.00  0.00     0.054 A 
BRANCH  76  77
ATOM     77  S   UNL     1      16.071   1.437   1.446  1.00  0.00     0.124 S 
ATOM     78  O   UNL     1      15.639   1.761   2.803  1.00  0.00    -0.237 OA
ATOM     79  O   UNL     1      17.370   0.778   1.341  1.00  0.00    -0.237 OA
ATOM     80  O   UNL     1      15.819   2.474   0.448  1.00  0.00    -0.744 OA
ENDBRANCH  76  77
ENDBRANCH  57  71
BRANCH  58  81
ATOM     81  C   UNL     1       6.460  -9.038  -1.928  1.00  0.00    -0.014 A 
ATOM     82  C   UNL     1       6.840 -10.357  -2.230  1.00  0.00     0.010 A 
ATOM     83  C   UNL     1       5.094  -8.700  -1.945  1.00  0.00     0.010 A 
ATOM     84  C   UNL     1       5.876 -11.315  -2.560  1.00  0.00     0.020 A 
ATOM     85  C   UNL     1       4.125  -9.662  -2.244  1.00  0.00     0.020 A 
ATOM     86  C   UNL     1       4.524 -10.961  -2.561  1.00  0.00     0.054 A 
BRANCH  86  87
ATOM     87  S   UNL     1       3.286 -12.233  -2.940  1.00  0.00     0.124 S 
ATOM     88  O   UNL     1       3.477 -12.425  -4.374  1.00  0.00    -0.237 OA
ATOM     89  O   UNL     1       3.707 -13.344  -2.090  1.00  0.00    -0.237 OA
ATOM     90  O   UNL     1       2.024 -11.606  -2.554  1.00  0.00    -0.744 OA
ENDBRANCH  86  87
ENDBRANCH  58  81
BRANCH  70  91
ATOM     91  C   UNL     1      11.554  -5.885  -5.515  1.00  0.00    -0.014 A 
ATOM     92  C   UNL     1      10.798  -5.434  -6.611  1.00  0.00     0.010 A 
ATOM     93  C   UNL     1      12.829  -6.436  -5.742  1.00  0.00     0.010 A 
ATOM     94  C   UNL     1      11.294  -5.562  -7.911  1.00  0.00     0.020 A 
ATOM     95  C   UNL     1      13.342  -6.536  -7.038  1.00  0.00     0.020 A 
ATOM     96  C   UNL     1      12.564  -6.111  -8.116  1.00  0.00     0.054 A 
BRANCH  96  97
ATOM     97  S   UNL     1      13.203  -6.223  -9.810  1.00  0.00     0.124 S 
ATOM     98  O   UNL     1      12.391  -7.299 -10.370  1.00  0.00    -0.237 OA
ATOM     99  O   UNL     1      12.933  -4.889 -10.342  1.00  0.00    -0.237 OA
ATOM    100  O   UNL     1      14.618  -6.540  -9.627  1.00  0.00    -0.744 OA
ENDBRANCH  96  97
ENDBRANCH  70  91
ENDBRANCH  44  45
ENDBRANCH  36  39
ENDBRANCH  34  35
ENDBRANCH  33  34
ENDBRANCH   1  33
TORSDOF 20
