REMARK SMILES CCC(CC)(CC(=O)NNC(=O)c1cc(C)oc1C)C(=O)NCCCCCCNC(=O)c1ccc(-c2c3nc(c(-c4ccc(S(=O)(=O)[O-])cc4)c4ccc([nH]4)c(-c4ccc(S(=O)(=O)[O-])cc4)c4nc(c(-c5ccc(S(=O)(=O)[O-])cc5)c5ccc2[nH]5)C=C4)C=C3)cc1
REMARK SMILES IDX 25 1 24 2 23 3 22 4 20 5 21 6 3 8 2 9 1 10 4 11 5 12 6 13
REMARK SMILES IDX 7 14 8 15 9 16 10 18 11 19 12 21 13 22 14 23 18 24 15 25
REMARK SMILES IDX 17 26 19 27 16 28 26 29 27 30 28 31 29 32 30 33 31 35 32 36
REMARK SMILES IDX 33 37 91 38 34 39 90 40 35 41 36 42 37 43 84 44 38 45 89 46
REMARK SMILES IDX 83 47 85 48 39 49 88 50 82 51 81 52 40 54 70 55 51 56 69 57
REMARK SMILES IDX 52 58 55 59 68 60 86 61 53 62 54 63 67 65 87 66 56 67 41 68
REMARK SMILES IDX 42 69 50 70 43 71 49 72 44 73 45 74 46 75 47 76 48 77 71 78
REMARK SMILES IDX 72 79 80 80 73 81 79 82 74 83 75 84 76 85 77 86 78 87 57 88
REMARK SMILES IDX 58 89 66 90 59 91 65 92 60 93 61 94 62 95 63 96 64 97
REMARK H PARENT 22 7 9 17 10 20 29 34 85 53 55 64
REMARK Flexibility Score: inf
ROOT
ATOM      1  C   UNL     1       4.632  -5.266  -3.383  1.00  0.00     0.002 C 
ENDROOT
BRANCH   1   2
ATOM      2  C   UNL     1       3.115  -5.047  -3.397  1.00  0.00     0.021 C 
BRANCH   2   3
ATOM      3  C   UNL     1       2.516  -4.414  -2.142  1.00  0.00     0.116 C 
BRANCH   3   4
ATOM      4  N   UNL     1       2.989  -3.062  -1.912  1.00  0.00    -0.356 N 
ATOM      5  C   UNL     1       2.369  -1.902  -1.575  1.00  0.00     0.226 C 
ATOM      6  O   UNL     1       3.108  -0.915  -1.477  1.00  0.00    -0.274 OA
ATOM      7  H   UNL     1       3.962  -2.965  -2.025  1.00  0.00     0.163 HD
BRANCH   5   8
ATOM      8  C   UNL     1       0.837  -1.779  -1.339  1.00  0.00     0.057 C 
BRANCH   8   9
ATOM      9  C   UNL     1       0.528  -0.304  -0.890  1.00  0.00     0.014 C 
ATOM     10  C   UNL     1       0.983   0.088   0.516  1.00  0.00     0.005 C 
ENDBRANCH   8   9
BRANCH   8  11
ATOM     11  C   UNL     1       0.375  -2.772  -0.229  1.00  0.00     0.014 C 
ATOM     12  C   UNL     1      -1.113  -2.739   0.108  1.00  0.00     0.005 C 
ENDBRANCH   8  11
BRANCH   8  13
ATOM     13  C   UNL     1       0.064  -2.035  -2.664  1.00  0.00     0.118 C 
BRANCH  13  14
ATOM     14  C   UNL     1       0.664  -1.379  -3.899  1.00  0.00     0.239 C 
ATOM     15  O   UNL     1       1.569  -1.924  -4.533  1.00  0.00    -0.273 OA
ATOM     16  N   UNL     1       0.176  -0.178  -4.345  1.00  0.00    -0.267 N 
ATOM     17  H   UNL     1       0.582   0.201  -5.158  1.00  0.00     0.191 HD
BRANCH  16  18
ATOM     18  N   UNL     1      -0.849   0.553  -3.744  1.00  0.00    -0.263 N 
ATOM     19  C   UNL     1      -0.895   1.935  -3.701  1.00  0.00     0.273 C 
ATOM     20  H   UNL     1      -1.587   0.054  -3.324  1.00  0.00     0.191 HD
ATOM     21  O   UNL     1      -1.601   2.488  -2.861  1.00  0.00    -0.267 OA
BRANCH  19  22
ATOM     22  C   UNL     1      -0.126   2.684  -4.678  1.00  0.00     0.082 A 
ATOM     23  C   UNL     1      -0.019   2.487  -6.088  1.00  0.00     0.059 A 
ATOM     24  C   UNL     1       0.602   3.830  -4.411  1.00  0.00     0.113 A 
ATOM     25  C   UNL     1       0.767   3.508  -6.574  1.00  0.00     0.101 A 
ATOM     26  O   UNL     1       1.153   4.323  -5.556  1.00  0.00    -0.466 OA
ATOM     27  C   UNL     1       0.890   4.596  -3.179  1.00  0.00     0.088 C 
ATOM     28  C   UNL     1       1.228   3.886  -7.924  1.00  0.00     0.087 C 
ENDBRANCH  19  22
ENDBRANCH  16  18
ENDBRANCH  13  14
ENDBRANCH   8  13
ENDBRANCH   5   8
ENDBRANCH   3   4
ENDBRANCH   2   3
ENDBRANCH   1   2
BRANCH   1  29
ATOM     29  C   UNL     1       5.189  -6.091  -2.221  1.00  0.00     0.002 C 
BRANCH  29  30
ATOM     30  C   UNL     1       4.545  -7.463  -1.988  1.00  0.00     0.021 C 
BRANCH  30  31
ATOM     31  C   UNL     1       4.493  -8.399  -3.194  1.00  0.00     0.116 C 
BRANCH  31  32
ATOM     32  N   UNL     1       5.805  -8.746  -3.707  1.00  0.00    -0.352 N 
ATOM     33  C   UNL     1       6.242  -9.935  -4.240  1.00  0.00     0.251 C 
ATOM     34  H   UNL     1       6.478  -8.028  -3.667  1.00  0.00     0.163 HD
ATOM     35  O   UNL     1       7.428 -10.069  -4.530  1.00  0.00    -0.269 OA
BRANCH  33  36
ATOM     36  C   UNL     1       5.306 -11.068  -4.435  1.00  0.00     0.039 A 
ATOM     37  C   UNL     1       5.715 -12.344  -4.033  1.00  0.00     0.014 A 
ATOM     38  C   UNL     1       4.056 -10.896  -5.039  1.00  0.00     0.014 A 
ATOM     39  C   UNL     1       4.853 -13.435  -4.180  1.00  0.00     0.010 A 
ATOM     40  C   UNL     1       3.184 -11.982  -5.160  1.00  0.00     0.010 A 
ATOM     41  C   UNL     1       3.574 -13.258  -4.726  1.00  0.00    -0.014 A 
BRANCH  41  42
ATOM     42  C   UNL     1       2.630 -14.396  -4.835  1.00  0.00     0.031 A 
ATOM     43  C   UNL     1       2.338 -15.021  -6.169  1.00  0.00     0.074 A 
ATOM     44  C   UNL     1       1.994 -14.841  -3.735  1.00  0.00     0.049 A 
ATOM     45  N   UNL     1       1.485 -15.969  -6.464  1.00  0.00    -0.248 NA
ATOM     46  C   UNL     1       3.092 -14.503  -7.320  1.00  0.00     0.031 C 
ATOM     47  C   UNL     1       2.164 -14.306  -2.383  1.00  0.00     0.029 A 
ATOM     48  N   UNL     1       1.066 -15.841  -3.587  1.00  0.00    -0.354 N 
ATOM     49  C   UNL     1       1.575 -16.143  -7.838  1.00  0.00     0.074 A 
ATOM     50  C   UNL     1       2.569 -15.204  -8.318  1.00  0.00     0.031 C 
ATOM     51  C   UNL     1       1.371 -14.990  -1.540  1.00  0.00     0.029 A 
ATOM     52  C   UNL     1       0.628 -15.996  -2.295  1.00  0.00     0.049 A 
ATOM     53  H   UNL     1       0.745 -16.394  -4.335  1.00  0.00     0.167 HD
ATOM     54  C   UNL     1       0.891 -17.001  -8.633  1.00  0.00     0.031 A 
ATOM     55  C   UNL     1      -0.273 -16.849  -1.772  1.00  0.00     0.031 A 
ATOM     56  C   UNL     1      -0.080 -17.953  -8.168  1.00  0.00     0.049 A 
ATOM     57  C   UNL     1      -0.973 -17.834  -2.661  1.00  0.00     0.074 A 
ATOM     58  C   UNL     1      -0.810 -18.872  -8.904  1.00  0.00     0.029 A 
ATOM     59  N   UNL     1      -0.450 -18.118  -6.844  1.00  0.00    -0.354 N 
ATOM     60  N   UNL     1      -0.869 -17.985  -3.958  1.00  0.00    -0.248 NA
ATOM     61  C   UNL     1      -1.907 -18.765  -2.012  1.00  0.00     0.031 C 
ATOM     62  C   UNL     1      -1.626 -19.592  -8.020  1.00  0.00     0.029 A 
ATOM     63  C   UNL     1      -1.395 -19.125  -6.737  1.00  0.00     0.049 A 
ATOM     64  H   UNL     1      -0.094 -17.595  -6.089  1.00  0.00     0.167 HD
ATOM     65  C   UNL     1      -1.724 -19.030  -4.283  1.00  0.00     0.074 A 
ATOM     66  C   UNL     1      -2.330 -19.481  -3.046  1.00  0.00     0.031 C 
ATOM     67  C   UNL     1      -1.985 -19.565  -5.501  1.00  0.00     0.031 A 
BRANCH  54  68
ATOM     68  C   UNL     1       1.172 -16.919 -10.104  1.00  0.00    -0.014 A 
ATOM     69  C   UNL     1       2.279 -17.581 -10.662  1.00  0.00     0.010 A 
ATOM     70  C   UNL     1       0.333 -16.152 -10.931  1.00  0.00     0.010 A 
ATOM     71  C   UNL     1       2.569 -17.442 -12.022  1.00  0.00     0.020 A 
ATOM     72  C   UNL     1       0.617 -16.018 -12.292  1.00  0.00     0.020 A 
ATOM     73  C   UNL     1       1.747 -16.645 -12.824  1.00  0.00     0.054 A 
BRANCH  73  74
ATOM     74  S   UNL     1       2.138 -16.440 -14.584  1.00  0.00     0.124 S 
ATOM     75  O   UNL     1       2.986 -15.251 -14.563  1.00  0.00    -0.237 OA
ATOM     76  O   UNL     1       2.817 -17.687 -14.924  1.00  0.00    -0.237 OA
ATOM     77  O   UNL     1       0.826 -16.263 -15.201  1.00  0.00    -0.744 OA
ENDBRANCH  73  74
ENDBRANCH  54  68
BRANCH  55  78
ATOM     78  C   UNL     1      -0.555 -16.804  -0.318  1.00  0.00    -0.014 A 
ATOM     79  C   UNL     1       0.129 -17.662   0.560  1.00  0.00     0.010 A 
ATOM     80  C   UNL     1      -1.470 -15.871   0.197  1.00  0.00     0.010 A 
ATOM     81  C   UNL     1      -0.093 -17.583   1.937  1.00  0.00     0.020 A 
ATOM     82  C   UNL     1      -1.689 -15.785   1.574  1.00  0.00     0.020 A 
ATOM     83  C   UNL     1      -1.001 -16.644   2.435  1.00  0.00     0.054 A 
BRANCH  83  84
ATOM     84  S   UNL     1      -1.225 -16.476   4.229  1.00  0.00     0.124 S 
ATOM     85  O   UNL     1      -2.350 -17.370   4.478  1.00  0.00    -0.237 OA
ATOM     86  O   UNL     1       0.062 -16.913   4.765  1.00  0.00    -0.237 OA
ATOM     87  O   UNL     1      -1.503 -15.050   4.391  1.00  0.00    -0.744 OA
ENDBRANCH  83  84
ENDBRANCH  55  78
BRANCH  67  88
ATOM     88  C   UNL     1      -2.962 -20.702  -5.548  1.00  0.00    -0.014 A 
ATOM     89  C   UNL     1      -4.343 -20.453  -5.620  1.00  0.00     0.010 A 
ATOM     90  C   UNL     1      -2.497 -22.028  -5.549  1.00  0.00     0.010 A 
ATOM     91  C   UNL     1      -5.249 -21.515  -5.674  1.00  0.00     0.020 A 
ATOM     92  C   UNL     1      -3.400 -23.093  -5.607  1.00  0.00     0.020 A 
ATOM     93  C   UNL     1      -4.772 -22.829  -5.657  1.00  0.00     0.054 A 
BRANCH  93  94
ATOM     94  S   UNL     1      -5.947 -24.208  -5.763  1.00  0.00     0.124 S 
ATOM     95  O   UNL     1      -6.251 -24.454  -4.356  1.00  0.00    -0.237 OA
ATOM     96  O   UNL     1      -7.043 -23.653  -6.553  1.00  0.00    -0.237 OA
ATOM     97  O   UNL     1      -5.178 -25.256  -6.430  1.00  0.00    -0.744 OA
ENDBRANCH  93  94
ENDBRANCH  67  88
ENDBRANCH  41  42
ENDBRANCH  33  36
ENDBRANCH  31  32
ENDBRANCH  30  31
ENDBRANCH  29  30
ENDBRANCH   1  29
TORSDOF 22
