REMARK SMILES COc1ccc(OC)c(-c2cc(C(=O)NCCCCCCNC(=O)c3ccc(-c4c5nc(c(-c6ccc(S(=O)(=O)[O-])cc6)c6ccc([nH]6)c(-c6ccc(S(=O)(=O)[O-])cc6)c6nc(c(-c7ccc(S(=O)(=O)[O-])cc7)c7ccc4[nH]7)C=C6)C=C5)cc3)ccn2)c1
REMARK SMILES IDX 19 1 18 2 17 3 16 4 15 5 13 6 14 7 12 9 10 10 11 11 87 12
REMARK SMILES IDX 86 13 85 14 9 15 3 16 4 17 88 18 5 19 6 20 2 21 1 22 7 23
REMARK SMILES IDX 8 24 20 25 21 26 22 27 23 28 24 30 25 31 26 32 84 33 27 34
REMARK SMILES IDX 83 35 28 36 29 37 30 38 77 39 31 40 82 41 76 42 78 43 32 44
REMARK SMILES IDX 81 45 75 46 74 47 33 49 63 50 44 51 62 52 45 53 48 54 61 55
REMARK SMILES IDX 79 56 46 57 47 58 60 60 80 61 49 62 34 63 35 64 43 65 36 66
REMARK SMILES IDX 42 67 37 68 38 69 39 70 40 71 41 72 64 73 65 74 73 75 66 76
REMARK SMILES IDX 72 77 67 78 68 79 69 80 70 81 71 82 50 83 51 84 59 85 52 86
REMARK SMILES IDX 58 87 53 88 54 89 55 90 56 91 57 92
REMARK H PARENT 15 8 22 29 78 48 48 59
REMARK Flexibility Score: inf
ROOT
ATOM      1  C   UNL     1       6.266   5.727   0.944  1.00  0.00     0.002 C 
ENDROOT
BRANCH   1   2
ATOM      2  C   UNL     1       6.382   5.443   2.447  1.00  0.00     0.002 C 
BRANCH   2   3
ATOM      3  C   UNL     1       5.569   4.234   2.929  1.00  0.00     0.021 C 
BRANCH   3   4
ATOM      4  C   UNL     1       6.043   2.920   2.304  1.00  0.00     0.116 C 
BRANCH   4   5
ATOM      5  N   UNL     1       7.209   2.432   3.021  1.00  0.00    -0.352 N 
ATOM      6  C   UNL     1       7.393   1.421   3.927  1.00  0.00     0.251 C 
ATOM      7  O   UNL     1       8.521   1.261   4.393  1.00  0.00    -0.269 OA
ATOM      8  H   UNL     1       8.034   2.928   2.814  1.00  0.00     0.163 HD
BRANCH   6   9
ATOM      9  C   UNL     1       6.322   0.463   4.302  1.00  0.00     0.043 A 
ATOM     10  C   UNL     1       4.047  -0.263   4.486  1.00  0.00     0.075 A 
ATOM     11  C   UNL     1       4.967   0.766   4.305  1.00  0.00     0.043 A 
ATOM     12  N   UNL     1       4.422  -1.531   4.772  1.00  0.00    -0.256 NA
ATOM     13  C   UNL     1       5.744  -1.775   4.894  1.00  0.00     0.112 A 
ATOM     14  C   UNL     1       6.720  -0.827   4.656  1.00  0.00     0.034 A 
BRANCH  10  15
ATOM     15  C   UNL     1       2.619  -0.017   4.262  1.00  0.00     0.046 A 
ATOM     16  C   UNL     1       0.905   0.426   2.547  1.00  0.00     0.119 A 
ATOM     17  C   UNL     1       0.005   0.753   3.552  1.00  0.00     0.050 A 
ATOM     18  C   UNL     1       2.194   0.030   2.903  1.00  0.00     0.060 A 
ATOM     19  C   UNL     1       0.386   0.675   4.891  1.00  0.00     0.051 A 
ATOM     20  C   UNL     1       1.687   0.301   5.266  1.00  0.00     0.128 A 
BRANCH  16  21
ATOM     21  O   UNL     1       0.434   0.604   1.278  1.00  0.00    -0.497 OA
ATOM     22  C   UNL     1       1.115  -0.064   0.225  1.00  0.00     0.278 C 
ENDBRANCH  16  21
BRANCH  20  23
ATOM     23  O   UNL     1       1.856   0.385   6.622  1.00  0.00    -0.496 OA
ATOM     24  C   UNL     1       2.983  -0.214   7.236  1.00  0.00     0.278 C 
ENDBRANCH  20  23
ENDBRANCH  10  15
ENDBRANCH   6   9
ENDBRANCH   4   5
ENDBRANCH   3   4
ENDBRANCH   2   3
ENDBRANCH   1   2
BRANCH   1  25
ATOM     25  C   UNL     1       4.834   5.917   0.437  1.00  0.00     0.021 C 
BRANCH  25  26
ATOM     26  C   UNL     1       4.106   7.097   1.069  1.00  0.00     0.116 C 
BRANCH  26  27
ATOM     27  N   UNL     1       4.752   8.358   0.737  1.00  0.00    -0.352 N 
ATOM     28  C   UNL     1       4.230   9.456   0.100  1.00  0.00     0.251 C 
ATOM     29  H   UNL     1       5.695   8.434   1.007  1.00  0.00     0.163 HD
ATOM     30  O   UNL     1       4.976  10.327  -0.333  1.00  0.00    -0.269 OA
BRANCH  28  31
ATOM     31  C   UNL     1       2.767   9.575  -0.065  1.00  0.00     0.039 A 
ATOM     32  C   UNL     1       2.252  10.001  -1.291  1.00  0.00     0.014 A 
ATOM     33  C   UNL     1       1.907   9.274   0.996  1.00  0.00     0.014 A 
ATOM     34  C   UNL     1       0.869  10.076  -1.468  1.00  0.00     0.010 A 
ATOM     35  C   UNL     1       0.531   9.276   0.793  1.00  0.00     0.010 A 
ATOM     36  C   UNL     1      -0.002   9.687  -0.437  1.00  0.00    -0.014 A 
BRANCH  36  37
ATOM     37  C   UNL     1      -1.474   9.704  -0.625  1.00  0.00     0.031 A 
ATOM     38  C   UNL     1      -2.332  10.618   0.207  1.00  0.00     0.074 A 
ATOM     39  C   UNL     1      -2.042   8.852  -1.501  1.00  0.00     0.049 A 
ATOM     40  N   UNL     1      -3.634  10.746   0.214  1.00  0.00    -0.248 NA
ATOM     41  C   UNL     1      -1.639  11.484   1.176  1.00  0.00     0.031 C 
ATOM     42  C   UNL     1      -1.319   7.892  -2.340  1.00  0.00     0.029 A 
ATOM     43  N   UNL     1      -3.359   8.653  -1.830  1.00  0.00    -0.354 N 
ATOM     44  C   UNL     1      -3.917  11.685   1.200  1.00  0.00     0.074 A 
ATOM     45  C   UNL     1      -2.656  12.060   1.801  1.00  0.00     0.031 C 
ATOM     46  C   UNL     1      -2.198   7.236  -3.114  1.00  0.00     0.029 A 
ATOM     47  C   UNL     1      -3.547   7.692  -2.796  1.00  0.00     0.049 A 
ATOM     48  H   UNL     1      -4.100   9.151  -1.415  1.00  0.00     0.167 HD
ATOM     49  C   UNL     1      -5.117  12.200   1.562  1.00  0.00     0.031 A 
ATOM     50  C   UNL     1      -4.679   7.227  -3.359  1.00  0.00     0.031 A 
ATOM     51  C   UNL     1      -6.367  11.829   0.952  1.00  0.00     0.049 A 
ATOM     52  C   UNL     1      -6.000   7.802  -2.929  1.00  0.00     0.074 A 
ATOM     53  C   UNL     1      -7.628  12.343   1.197  1.00  0.00     0.029 A 
ATOM     54  N   UNL     1      -6.515  10.846  -0.015  1.00  0.00    -0.354 N 
ATOM     55  N   UNL     1      -6.241   8.746  -2.050  1.00  0.00    -0.248 NA
ATOM     56  C   UNL     1      -7.202   7.255  -3.573  1.00  0.00     0.031 C 
ATOM     57  C   UNL     1      -8.548  11.625   0.425  1.00  0.00     0.029 A 
ATOM     58  C   UNL     1      -7.852  10.713  -0.352  1.00  0.00     0.049 A 
ATOM     59  H   UNL     1      -5.779  10.321  -0.405  1.00  0.00     0.167 HD
ATOM     60  C   UNL     1      -7.620   8.928  -2.060  1.00  0.00     0.074 A 
ATOM     61  C   UNL     1      -8.156   8.005  -3.039  1.00  0.00     0.031 C 
ATOM     62  C   UNL     1      -8.372   9.786  -1.327  1.00  0.00     0.031 A 
BRANCH  49  63
ATOM     63  C   UNL     1      -5.136  13.204   2.687  1.00  0.00    -0.014 A 
ATOM     64  C   UNL     1      -4.576  14.486   2.536  1.00  0.00     0.010 A 
ATOM     65  C   UNL     1      -5.754  12.869   3.906  1.00  0.00     0.010 A 
ATOM     66  C   UNL     1      -4.588  15.394   3.599  1.00  0.00     0.020 A 
ATOM     67  C   UNL     1      -5.797  13.786   4.960  1.00  0.00     0.020 A 
ATOM     68  C   UNL     1      -5.196  15.036   4.806  1.00  0.00     0.054 A 
BRANCH  68  69
ATOM     69  S   UNL     1      -5.207  16.239   6.163  1.00  0.00     0.124 S 
ATOM     70  O   UNL     1      -3.808  16.230   6.584  1.00  0.00    -0.237 OA
ATOM     71  O   UNL     1      -5.656  17.462   5.504  1.00  0.00    -0.237 OA
ATOM     72  O   UNL     1      -6.149  15.670   7.124  1.00  0.00    -0.744 OA
ENDBRANCH  68  69
ENDBRANCH  49  63
BRANCH  50  73
ATOM     73  C   UNL     1      -4.607   6.180  -4.416  1.00  0.00    -0.014 A 
ATOM     74  C   UNL     1      -4.915   6.497  -5.750  1.00  0.00     0.010 A 
ATOM     75  C   UNL     1      -4.213   4.867  -4.099  1.00  0.00     0.010 A 
ATOM     76  C   UNL     1      -4.843   5.519  -6.747  1.00  0.00     0.020 A 
ATOM     77  C   UNL     1      -4.111   3.893  -5.097  1.00  0.00     0.020 A 
ATOM     78  C   UNL     1      -4.436   4.224  -6.414  1.00  0.00     0.054 A 
BRANCH  78  79
ATOM     79  S   UNL     1      -4.293   2.988  -7.734  1.00  0.00     0.124 S 
ATOM     80  O   UNL     1      -5.691   2.722  -8.055  1.00  0.00    -0.237 OA
ATOM     81  O   UNL     1      -3.533   3.705  -8.755  1.00  0.00    -0.237 OA
ATOM     82  O   UNL     1      -3.576   1.886  -7.095  1.00  0.00    -0.744 OA
ENDBRANCH  78  79
ENDBRANCH  50  73
BRANCH  62  83
ATOM     83  C   UNL     1      -9.857   9.797  -1.580  1.00  0.00    -0.014 A 
ATOM     84  C   UNL     1     -10.678   8.729  -1.175  1.00  0.00     0.010 A 
ATOM     85  C   UNL     1     -10.447  10.923  -2.185  1.00  0.00     0.010 A 
ATOM     86  C   UNL     1     -12.056   8.774  -1.400  1.00  0.00     0.020 A 
ATOM     87  C   UNL     1     -11.828  10.985  -2.382  1.00  0.00     0.020 A 
ATOM     88  C   UNL     1     -12.623   9.903  -2.001  1.00  0.00     0.054 A 
BRANCH  88  89
ATOM     89  S   UNL     1     -14.420   9.955  -2.240  1.00  0.00     0.124 S 
ATOM     90  O   UNL     1     -14.610   9.001  -3.329  1.00  0.00    -0.237 OA
ATOM     91  O   UNL     1     -14.928   9.531  -0.937  1.00  0.00    -0.237 OA
ATOM     92  O   UNL     1     -14.684  11.351  -2.580  1.00  0.00    -0.744 OA
ENDBRANCH  88  89
ENDBRANCH  62  83
ENDBRANCH  36  37
ENDBRANCH  28  31
ENDBRANCH  26  27
ENDBRANCH  25  26
ENDBRANCH   1  25
TORSDOF 19
