REMARK SMILES CC[C@H](C)[C@H](NC(=O)N1CCc2cc(OC)c(OC)cc2[C@@H]1c1ccc(F)cc1)C(=O)NCCCCCCNC(=O)c1ccc(-c2c3nc(c(-c4ccc(S(=O)(=O)[O-])cc4)c4ccc([nH]4)c(-c4ccc(S(=O)(=O)[O-])cc4)c4nc(c(-c5ccc(S(=O)(=O)[O-])cc5)c5ccc2[nH]5)C=C4)C=C3)cc1
REMARK SMILES IDX 35 1 34 2 33 3 32 4 30 5 31 6 5 8 3 9 4 10 2 11 1 12 6 13
REMARK SMILES IDX 7 14 8 16 9 17 10 18 22 19 11 20 21 21 12 22 20 23 13 24
REMARK SMILES IDX 17 25 14 26 23 27 24 28 29 29 25 30 28 31 26 32 27 33 18 34
REMARK SMILES IDX 19 35 15 36 16 37 36 38 37 39 38 40 39 41 40 42 41 44 42 45
REMARK SMILES IDX 43 46 101 47 44 48 100 49 45 50 46 51 47 52 94 53 48 54
REMARK SMILES IDX 99 55 93 56 95 57 49 58 98 59 92 60 91 61 50 63 80 64 61 65
REMARK SMILES IDX 79 66 62 67 65 68 78 69 96 70 63 71 64 72 77 74 97 75 66 76
REMARK SMILES IDX 51 77 52 78 60 79 53 80 59 81 54 82 55 83 56 84 57 85 58 86
REMARK SMILES IDX 81 87 82 88 90 89 83 90 89 91 84 92 85 93 86 94 87 95 88 96
REMARK SMILES IDX 67 97 68 98 76 99 69 100 75 101 70 102 71 103 72 104 73 105
REMARK SMILES IDX 74 106
REMARK H PARENT 32 7 6 15 39 43 95 62 65 73
REMARK Flexibility Score: inf
ROOT
ATOM      1  C   UNL     1       5.515  -0.206   5.226  1.00  0.00     0.002 C 
ENDROOT
BRANCH   1   2
ATOM      2  C   UNL     1       4.808  -0.990   4.111  1.00  0.00     0.021 C 
BRANCH   2   3
ATOM      3  C   UNL     1       3.945  -2.137   4.633  1.00  0.00     0.116 C 
BRANCH   3   4
ATOM      4  N   UNL     1       2.924  -1.755   5.605  1.00  0.00    -0.354 N 
ATOM      5  C   UNL     1       1.623  -1.340   5.468  1.00  0.00     0.242 C 
ATOM      6  O   UNL     1       1.015  -1.054   6.507  1.00  0.00    -0.273 OA
ATOM      7  H   UNL     1       3.227  -1.806   6.540  1.00  0.00     0.163 HD
BRANCH   5   8
ATOM      8  C   UNL     1       0.913  -1.180   4.084  1.00  0.00     0.176 C 
BRANCH   8   9
ATOM      9  C   UNL     1       0.750  -2.618   3.406  1.00  0.00     0.018 C 
ATOM     10  C   UNL     1       1.578  -2.808   2.124  1.00  0.00     0.010 C 
BRANCH   9  11
ATOM     11  C   UNL     1       0.922  -3.790   4.431  1.00  0.00     0.002 C 
ATOM     12  C   UNL     1       0.682  -5.211   3.950  1.00  0.00     0.004 C 
ENDBRANCH   9  11
ENDBRANCH   8   9
BRANCH   8  13
ATOM     13  N   UNL     1       1.304  -0.065   3.127  1.00  0.00    -0.326 N 
ATOM     14  C   UNL     1       1.205   1.314   3.230  1.00  0.00     0.318 C 
ATOM     15  H   UNL     1       1.698  -0.379   2.281  1.00  0.00     0.166 HD
ATOM     16  O   UNL     1       0.632   1.914   2.320  1.00  0.00    -0.249 OA
BRANCH  14  17
ATOM     17  N   UNL     1       1.809   1.980   4.269  1.00  0.00    -0.313 N 
ATOM     18  C   UNL     1       2.788   1.341   5.080  1.00  0.00     0.127 C 
ATOM     19  C   UNL     1       1.731   3.465   4.538  1.00  0.00     0.148 C 
ATOM     20  C   UNL     1       2.642   1.714   6.545  1.00  0.00     0.057 C 
ATOM     21  C   UNL     1       3.001   3.884   5.400  1.00  0.00    -0.014 A 
ATOM     22  C   UNL     1       3.305   3.061   6.517  1.00  0.00    -0.037 A 
ATOM     23  C   UNL     1       3.955   4.848   5.042  1.00  0.00     0.057 A 
ATOM     24  C   UNL     1       4.443   3.243   7.295  1.00  0.00     0.054 A 
ATOM     25  C   UNL     1       5.168   4.978   5.780  1.00  0.00     0.161 A 
ATOM     26  C   UNL     1       5.401   4.172   6.915  1.00  0.00     0.161 A 
BRANCH  19  27
ATOM     27  C   UNL     1       0.450   3.815   5.339  1.00  0.00    -0.021 A 
ATOM     28  C   UNL     1       0.344   5.057   5.996  1.00  0.00     0.009 A 
ATOM     29  C   UNL     1      -0.582   2.876   5.546  1.00  0.00     0.009 A 
ATOM     30  C   UNL     1      -0.688   5.300   6.907  1.00  0.00     0.039 A 
ATOM     31  C   UNL     1      -1.613   3.120   6.455  1.00  0.00     0.039 A 
ATOM     32  C   UNL     1      -1.643   4.321   7.143  1.00  0.00     0.123 A 
ATOM     33  F   UNL     1      -2.598   4.534   8.058  1.00  0.00    -0.207 F 
ENDBRANCH  19  27
BRANCH  25  34
ATOM     34  O   UNL     1       6.189   5.816   5.421  1.00  0.00    -0.493 OA
ATOM     35  C   UNL     1       5.976   6.749   4.377  1.00  0.00     0.278 C 
ENDBRANCH  25  34
BRANCH  26  36
ATOM     36  O   UNL     1       6.503   4.073   7.722  1.00  0.00    -0.493 OA
ATOM     37  C   UNL     1       7.625   4.907   7.503  1.00  0.00     0.278 C 
ENDBRANCH  26  36
ENDBRANCH  14  17
ENDBRANCH   8  13
ENDBRANCH   5   8
ENDBRANCH   3   4
ENDBRANCH   2   3
ENDBRANCH   1   2
BRANCH   1  38
ATOM     38  C   UNL     1       6.674  -0.936   5.887  1.00  0.00     0.002 C 
BRANCH  38  39
ATOM     39  C   UNL     1       7.796  -1.293   4.922  1.00  0.00     0.021 C 
BRANCH  39  40
ATOM     40  C   UNL     1       8.315  -0.100   4.129  1.00  0.00     0.116 C 
BRANCH  40  41
ATOM     41  N   UNL     1       8.935   0.893   4.998  1.00  0.00    -0.352 N 
ATOM     42  C   UNL     1      10.268   1.231   5.062  1.00  0.00     0.251 C 
ATOM     43  H   UNL     1       8.332   1.376   5.609  1.00  0.00     0.163 HD
ATOM     44  O   UNL     1      10.725   1.891   5.978  1.00  0.00    -0.269 OA
BRANCH  42  45
ATOM     45  C   UNL     1      11.126   0.746   3.965  1.00  0.00     0.039 A 
ATOM     46  C   UNL     1      12.175  -0.129   4.244  1.00  0.00     0.014 A 
ATOM     47  C   UNL     1      10.762   1.048   2.650  1.00  0.00     0.014 A 
ATOM     48  C   UNL     1      12.826  -0.763   3.185  1.00  0.00     0.010 A 
ATOM     49  C   UNL     1      11.354   0.352   1.607  1.00  0.00     0.010 A 
ATOM     50  C   UNL     1      12.391  -0.560   1.863  1.00  0.00    -0.014 A 
BRANCH  50  51
ATOM     51  C   UNL     1      12.998  -1.290   0.723  1.00  0.00     0.031 A 
ATOM     52  C   UNL     1      13.693  -0.515  -0.363  1.00  0.00     0.074 A 
ATOM     53  C   UNL     1      12.838  -2.624   0.616  1.00  0.00     0.049 A 
ATOM     54  N   UNL     1      14.197  -0.948  -1.488  1.00  0.00    -0.248 NA
ATOM     55  C   UNL     1      13.806   0.943  -0.176  1.00  0.00     0.031 C 
ATOM     56  C   UNL     1      12.131  -3.477   1.577  1.00  0.00     0.029 A 
ATOM     57  N   UNL     1      13.243  -3.499  -0.361  1.00  0.00    -0.354 N 
ATOM     58  C   UNL     1      14.656   0.183  -2.154  1.00  0.00     0.074 A 
ATOM     59  C   UNL     1      14.334   1.325  -1.329  1.00  0.00     0.031 C 
ATOM     60  C   UNL     1      12.167  -4.749   1.149  1.00  0.00     0.029 A 
ATOM     61  C   UNL     1      12.860  -4.801  -0.135  1.00  0.00     0.049 A 
ATOM     62  H   UNL     1      13.761  -3.221  -1.151  1.00  0.00     0.167 HD
ATOM     63  C   UNL     1      15.302   0.259  -3.340  1.00  0.00     0.031 A 
ATOM     64  C   UNL     1      13.030  -5.908  -0.884  1.00  0.00     0.031 A 
ATOM     65  C   UNL     1      15.651  -0.885  -4.136  1.00  0.00     0.049 A 
ATOM     66  C   UNL     1      13.762  -5.795  -2.196  1.00  0.00     0.074 A 
ATOM     67  C   UNL     1      16.396  -0.922  -5.301  1.00  0.00     0.029 A 
ATOM     68  N   UNL     1      15.273  -2.188  -3.856  1.00  0.00    -0.354 N 
ATOM     69  N   UNL     1      14.285  -4.730  -2.756  1.00  0.00    -0.248 NA
ATOM     70  C   UNL     1      13.929  -7.030  -2.975  1.00  0.00     0.031 C 
ATOM     71  C   UNL     1      16.416  -2.242  -5.759  1.00  0.00     0.029 A 
ATOM     72  C   UNL     1      15.734  -3.034  -4.849  1.00  0.00     0.049 A 
ATOM     73  H   UNL     1      14.754  -2.470  -3.069  1.00  0.00     0.167 HD
ATOM     74  C   UNL     1      14.860  -5.171  -3.943  1.00  0.00     0.074 A 
ATOM     75  C   UNL     1      14.639  -6.600  -4.010  1.00  0.00     0.031 C 
ATOM     76  C   UNL     1      15.507  -4.456  -4.895  1.00  0.00     0.031 A 
BRANCH  63  77
ATOM     77  C   UNL     1      15.675   1.623  -3.853  1.00  0.00    -0.014 A 
ATOM     78  C   UNL     1      16.693   2.379  -3.244  1.00  0.00     0.010 A 
ATOM     79  C   UNL     1      15.043   2.127  -5.005  1.00  0.00     0.010 A 
ATOM     80  C   UNL     1      17.054   3.625  -3.763  1.00  0.00     0.020 A 
ATOM     81  C   UNL     1      15.420   3.360  -5.542  1.00  0.00     0.020 A 
ATOM     82  C   UNL     1      16.416   4.107  -4.910  1.00  0.00     0.054 A 
BRANCH  82  83
ATOM     83  S   UNL     1      16.944   5.703  -5.591  1.00  0.00     0.124 S 
ATOM     84  O   UNL     1      16.404   6.641  -4.609  1.00  0.00    -0.237 OA
ATOM     85  O   UNL     1      18.399   5.578  -5.606  1.00  0.00    -0.237 OA
ATOM     86  O   UNL     1      16.311   5.746  -6.907  1.00  0.00    -0.744 OA
ENDBRANCH  82  83
ENDBRANCH  63  77
BRANCH  64  87
ATOM     87  C   UNL     1      12.486  -7.218  -0.427  1.00  0.00    -0.014 A 
ATOM     88  C   UNL     1      13.348  -8.259  -0.041  1.00  0.00     0.010 A 
ATOM     89  C   UNL     1      11.096  -7.435  -0.391  1.00  0.00     0.010 A 
ATOM     90  C   UNL     1      12.833  -9.500   0.346  1.00  0.00     0.020 A 
ATOM     91  C   UNL     1      10.576  -8.664   0.023  1.00  0.00     0.020 A 
ATOM     92  C   UNL     1      11.449  -9.695   0.374  1.00  0.00     0.054 A 
BRANCH  92  93
ATOM     93  S   UNL     1      10.799 -11.304   0.906  1.00  0.00     0.124 S 
ATOM     94  O   UNL     1      11.085 -12.145  -0.251  1.00  0.00    -0.237 OA
ATOM     95  O   UNL     1      11.588 -11.583   2.104  1.00  0.00    -0.237 OA
ATOM     96  O   UNL     1       9.384 -11.034   1.152  1.00  0.00    -0.744 OA
ENDBRANCH  92  93
ENDBRANCH  64  87
BRANCH  76  97
ATOM     97  C   UNL     1      16.041  -5.202  -6.086  1.00  0.00    -0.014 A 
ATOM     98  C   UNL     1      15.177  -5.677  -7.088  1.00  0.00     0.010 A 
ATOM     99  C   UNL     1      17.431  -5.349  -6.249  1.00  0.00     0.010 A 
ATOM    100  C   UNL     1      15.693  -6.299  -8.227  1.00  0.00     0.020 A 
ATOM    101  C   UNL     1      17.952  -5.945  -7.400  1.00  0.00     0.020 A 
ATOM    102  C   UNL     1      17.078  -6.423  -8.379  1.00  0.00     0.054 A 
BRANCH 102 103
ATOM    103  S   UNL     1      17.723  -7.166  -9.902  1.00  0.00     0.124 S 
ATOM    104  O   UNL     1      17.397  -8.577  -9.713  1.00  0.00    -0.237 OA
ATOM    105  O   UNL     1      16.962  -6.478 -10.941  1.00  0.00    -0.237 OA
ATOM    106  O   UNL     1      19.149  -6.846  -9.867  1.00  0.00    -0.744 OA
ENDBRANCH 102 103
ENDBRANCH  76  97
ENDBRANCH  50  51
ENDBRANCH  42  45
ENDBRANCH  40  41
ENDBRANCH  39  40
ENDBRANCH  38  39
ENDBRANCH   1  38
TORSDOF 23
