REMARK SMILES CC[C@@H](C)C(=O)Nc1cccc(C(=O)NCCCCCCNC(=O)c2ccc(-c3c4nc(c(-c5ccc(S(=O)(=O)[O-])cc5)c5ccc([nH]5)c(-c5ccc(S(=O)(=O)[O-])cc5)c5nc(c(-c6ccc(S(=O)(=O)[O-])cc6)c6ccc3[nH]6)C=C5)C=C4)cc2)c1
REMARK SMILES IDX 18 1 17 2 16 3 15 4 13 5 14 6 12 8 8 9 9 10 85 11 10 12
REMARK SMILES IDX 11 13 7 14 5 15 6 16 3 18 4 19 2 20 1 21 19 22 20 23 21 24
REMARK SMILES IDX 22 25 23 26 24 28 25 29 26 30 84 31 27 32 83 33 28 34 29 35
REMARK SMILES IDX 30 36 77 37 31 38 82 39 76 40 78 41 32 42 81 43 75 44 74 45
REMARK SMILES IDX 33 47 63 48 44 49 62 50 45 51 48 52 61 53 79 54 46 55 47 56
REMARK SMILES IDX 60 58 80 59 49 60 34 61 35 62 43 63 36 64 42 65 37 66 38 67
REMARK SMILES IDX 39 68 40 69 41 70 64 71 65 72 73 73 66 74 72 75 67 76 68 77
REMARK SMILES IDX 69 78 70 79 71 80 50 81 51 82 59 83 52 84 58 85 53 86 54 87
REMARK SMILES IDX 55 88 56 89 57 90
REMARK H PARENT 15 7 7 17 22 27 78 46 48 57
REMARK Flexibility Score: inf
ROOT
ATOM      1  C   UNL     1       0.464  -2.732   3.515  1.00  0.00     0.002 C 
ENDROOT
BRANCH   1   2
ATOM      2  C   UNL     1      -0.306  -1.413   3.472  1.00  0.00     0.021 C 
BRANCH   2   3
ATOM      3  C   UNL     1      -0.546  -0.882   2.065  1.00  0.00     0.116 C 
BRANCH   3   4
ATOM      4  N   UNL     1      -1.843  -1.251   1.532  1.00  0.00    -0.352 N 
ATOM      5  C   UNL     1      -2.827  -0.597   0.832  1.00  0.00     0.251 C 
ATOM      6  O   UNL     1      -3.741  -1.304   0.399  1.00  0.00    -0.269 OA
ATOM      7  H   UNL     1      -2.071  -2.192   1.713  1.00  0.00     0.163 HD
BRANCH   5   8
ATOM      8  C   UNL     1      -2.860   0.868   0.516  1.00  0.00     0.041 A 
ATOM      9  C   UNL     1      -1.986   3.138   0.564  1.00  0.00     0.041 A 
ATOM     10  C   UNL     1      -2.993   3.583  -0.280  1.00  0.00     0.026 A 
ATOM     11  C   UNL     1      -2.016   1.833   1.056  1.00  0.00     0.040 A 
ATOM     12  C   UNL     1      -3.913   2.661  -0.775  1.00  0.00     0.003 A 
ATOM     13  C   UNL     1      -3.818   1.310  -0.413  1.00  0.00     0.014 A 
BRANCH   9  14
ATOM     14  N   UNL     1      -0.969   4.004   0.969  1.00  0.00    -0.326 N 
ATOM     15  C   UNL     1       0.389   3.796   0.946  1.00  0.00     0.227 C 
ATOM     16  O   UNL     1       1.085   4.446   1.732  1.00  0.00    -0.274 OA
ATOM     17  H   UNL     1      -1.262   4.878   1.317  1.00  0.00     0.169 HD
BRANCH  15  18
ATOM     18  C   UNL     1       1.065   2.896  -0.118  1.00  0.00     0.075 C 
ATOM     19  C   UNL     1       0.587   3.242  -1.528  1.00  0.00     0.018 C 
BRANCH  18  20
ATOM     20  C   UNL     1       1.036   1.395   0.169  1.00  0.00     0.010 C 
ATOM     21  C   UNL     1       1.938   0.543  -0.716  1.00  0.00     0.005 C 
ENDBRANCH  18  20
ENDBRANCH  15  18
ENDBRANCH   9  14
ENDBRANCH   5   8
ENDBRANCH   3   4
ENDBRANCH   2   3
ENDBRANCH   1   2
BRANCH   1  22
ATOM     22  C   UNL     1       1.823  -2.728   2.801  1.00  0.00     0.002 C 
BRANCH  22  23
ATOM     23  C   UNL     1       2.778  -1.594   3.184  1.00  0.00     0.021 C 
BRANCH  23  24
ATOM     24  C   UNL     1       3.091  -1.486   4.673  1.00  0.00     0.116 C 
BRANCH  24  25
ATOM     25  N   UNL     1       3.597  -2.733   5.221  1.00  0.00    -0.352 N 
ATOM     26  C   UNL     1       4.701  -2.961   5.997  1.00  0.00     0.251 C 
ATOM     27  H   UNL     1       3.067  -3.533   5.001  1.00  0.00     0.163 HD
ATOM     28  O   UNL     1       5.067  -4.118   6.208  1.00  0.00    -0.269 OA
BRANCH  26  29
ATOM     29  C   UNL     1       5.458  -1.829   6.569  1.00  0.00     0.039 A 
ATOM     30  C   UNL     1       6.854  -1.887   6.580  1.00  0.00     0.014 A 
ATOM     31  C   UNL     1       4.798  -0.729   7.124  1.00  0.00     0.014 A 
ATOM     32  C   UNL     1       7.587  -0.830   7.120  1.00  0.00     0.010 A 
ATOM     33  C   UNL     1       5.530   0.360   7.586  1.00  0.00     0.010 A 
ATOM     34  C   UNL     1       6.932   0.310   7.613  1.00  0.00    -0.014 A 
BRANCH  34  35
ATOM     35  C   UNL     1       7.693   1.439   8.203  1.00  0.00     0.031 A 
ATOM     36  C   UNL     1       7.516   1.784   9.658  1.00  0.00     0.074 A 
ATOM     37  C   UNL     1       8.506   2.180   7.424  1.00  0.00     0.049 A 
ATOM     38  N   UNL     1       8.058   2.754  10.349  1.00  0.00    -0.248 NA
ATOM     39  C   UNL     1       6.585   0.946  10.432  1.00  0.00     0.031 C 
ATOM     40  C   UNL     1       8.732   1.968   5.992  1.00  0.00     0.029 A 
ATOM     41  N   UNL     1       9.290   3.264   7.727  1.00  0.00    -0.354 N 
ATOM     42  C   UNL     1       7.519   2.655  11.627  1.00  0.00     0.074 A 
ATOM     43  C   UNL     1       6.566   1.568  11.601  1.00  0.00     0.031 C 
ATOM     44  C   UNL     1       9.620   2.873   5.550  1.00  0.00     0.029 A 
ATOM     45  C   UNL     1       9.994   3.753   6.652  1.00  0.00     0.049 A 
ATOM     46  H   UNL     1       9.345   3.654   8.629  1.00  0.00     0.167 HD
ATOM     47  C   UNL     1       7.808   3.386  12.730  1.00  0.00     0.031 A 
ATOM     48  C   UNL     1      10.843   4.795   6.563  1.00  0.00     0.031 A 
ATOM     49  C   UNL     1       8.764   4.461  12.751  1.00  0.00     0.049 A 
ATOM     50  C   UNL     1      11.149   5.595   7.801  1.00  0.00     0.074 A 
ATOM     51  C   UNL     1       9.168   5.233  13.825  1.00  0.00     0.029 A 
ATOM     52  N   UNL     1       9.467   4.915  11.644  1.00  0.00    -0.354 N 
ATOM     53  N   UNL     1      10.675   5.449   9.015  1.00  0.00    -0.248 NA
ATOM     54  C   UNL     1      12.121   6.687   7.659  1.00  0.00     0.031 C 
ATOM     55  C   UNL     1      10.073   6.192  13.357  1.00  0.00     0.029 A 
ATOM     56  C   UNL     1      10.289   5.970  12.006  1.00  0.00     0.049 A 
ATOM     57  H   UNL     1       9.393   4.543  10.736  1.00  0.00     0.167 HD
ATOM     58  C   UNL     1      11.320   6.406   9.792  1.00  0.00     0.074 A 
ATOM     59  C   UNL     1      12.224   7.117   8.909  1.00  0.00     0.031 C 
ATOM     60  C   UNL     1      11.184   6.666  11.116  1.00  0.00     0.031 A 
BRANCH  47  61
ATOM     61  C   UNL     1       7.065   3.053  13.999  1.00  0.00    -0.014 A 
ATOM     62  C   UNL     1       7.273   1.832  14.669  1.00  0.00     0.010 A 
ATOM     63  C   UNL     1       6.159   3.981  14.543  1.00  0.00     0.010 A 
ATOM     64  C   UNL     1       6.549   1.524  15.824  1.00  0.00     0.020 A 
ATOM     65  C   UNL     1       5.458   3.692  15.718  1.00  0.00     0.020 A 
ATOM     66  C   UNL     1       5.643   2.455  16.339  1.00  0.00     0.054 A 
BRANCH  66  67
ATOM     67  S   UNL     1       4.723   2.032  17.844  1.00  0.00     0.124 S 
ATOM     68  O   UNL     1       3.784   1.028  17.350  1.00  0.00    -0.237 OA
ATOM     69  O   UNL     1       5.771   1.528  18.729  1.00  0.00    -0.237 OA
ATOM     70  O   UNL     1       4.123   3.299  18.252  1.00  0.00    -0.744 OA
ENDBRANCH  66  67
ENDBRANCH  47  61
BRANCH  48  71
ATOM     71  C   UNL     1      11.485   5.119   5.259  1.00  0.00    -0.014 A 
ATOM     72  C   UNL     1      12.859   4.893   5.063  1.00  0.00     0.010 A 
ATOM     73  C   UNL     1      10.719   5.632   4.197  1.00  0.00     0.010 A 
ATOM     74  C   UNL     1      13.459   5.190   3.835  1.00  0.00     0.020 A 
ATOM     75  C   UNL     1      11.309   5.902   2.958  1.00  0.00     0.020 A 
ATOM     76  C   UNL     1      12.678   5.689   2.789  1.00  0.00     0.054 A 
BRANCH  76  77
ATOM     77  S   UNL     1      13.468   6.013   1.188  1.00  0.00     0.124 S 
ATOM     78  O   UNL     1      14.266   7.199   1.476  1.00  0.00    -0.237 OA
ATOM     79  O   UNL     1      14.221   4.783   0.955  1.00  0.00    -0.237 OA
ATOM     80  O   UNL     1      12.338   6.222   0.285  1.00  0.00    -0.744 OA
ENDBRANCH  76  77
ENDBRANCH  48  71
BRANCH  60  81
ATOM     81  C   UNL     1      12.075   7.727  11.710  1.00  0.00    -0.014 A 
ATOM     82  C   UNL     1      11.901   9.090  11.412  1.00  0.00     0.010 A 
ATOM     83  C   UNL     1      13.079   7.348  12.620  1.00  0.00     0.010 A 
ATOM     84  C   UNL     1      12.744  10.049  11.980  1.00  0.00     0.020 A 
ATOM     85  C   UNL     1      13.902   8.306  13.215  1.00  0.00     0.020 A 
ATOM     86  C   UNL     1      13.741   9.650  12.877  1.00  0.00     0.054 A 
BRANCH  86  87
ATOM     87  S   UNL     1      14.806  10.916  13.621  1.00  0.00     0.124 S 
ATOM     88  O   UNL     1      15.660  11.293  12.498  1.00  0.00    -0.237 OA
ATOM     89  O   UNL     1      13.845  11.931  14.049  1.00  0.00    -0.237 OA
ATOM     90  O   UNL     1      15.480  10.208  14.707  1.00  0.00    -0.744 OA
ENDBRANCH  86  87
ENDBRANCH  60  81
ENDBRANCH  34  35
ENDBRANCH  26  29
ENDBRANCH  24  25
ENDBRANCH  23  24
ENDBRANCH  22  23
ENDBRANCH   1  22
TORSDOF 19
