REMARK SMILES Cc1cc(C(=O)NCCCCCCNC(=O)c2ccc(-c3c4nc(c(-c5ccc(S(=O)(=O)[O-])cc5)c5ccc([nH]5)c(-c5ccc(S(=O)(=O)[O-])cc5)c5nc(c(-c6ccc(S(=O)(=O)[O-])cc6)c6ccc3[nH]6)C=C5)C=C4)cc2)ccc1NS(=O)(=O)c1ccc(C#N)cc1C
REMARK SMILES IDX 10 1 9 2 8 3 7 4 5 5 6 6 4 8 1 9 2 10 3 11 79 12 78 13 77 14
REMARK SMILES IDX 80 15 81 17 82 18 83 19 84 20 85 21 91 22 86 23 90 24 92 25
REMARK SMILES IDX 87 26 88 27 89 28 11 29 12 30 13 31 14 32 15 33 16 35 17 36
REMARK SMILES IDX 18 37 76 38 19 39 75 40 20 41 21 42 22 43 69 44 23 45 74 46
REMARK SMILES IDX 68 47 70 48 24 49 73 50 67 51 66 52 25 54 55 55 36 56 54 57
REMARK SMILES IDX 37 58 40 59 53 60 71 61 38 62 39 63 52 65 72 66 41 67 26 68
REMARK SMILES IDX 27 69 35 70 28 71 34 72 29 73 30 74 31 75 32 76 33 77 56 78
REMARK SMILES IDX 57 79 65 80 58 81 64 82 59 83 60 84 61 85 62 86 63 87 42 88
REMARK SMILES IDX 43 89 51 90 44 91 50 92 45 93 46 94 47 95 48 96 49 97
REMARK H PARENT 7 7 80 16 14 34 70 53 40 64
REMARK Flexibility Score: inf
ROOT
ATOM      1  C   UNL     1      -5.919  -2.543  -1.116  1.00  0.00     0.002 C 
ENDROOT
BRANCH   1   2
ATOM      2  C   UNL     1      -4.809  -1.484  -1.078  1.00  0.00     0.021 C 
BRANCH   2   3
ATOM      3  C   UNL     1      -3.903  -1.573   0.151  1.00  0.00     0.116 C 
BRANCH   3   4
ATOM      4  N   UNL     1      -2.922  -2.635   0.011  1.00  0.00    -0.352 N 
ATOM      5  C   UNL     1      -1.568  -2.600  -0.219  1.00  0.00     0.251 C 
ATOM      6  O   UNL     1      -0.927  -3.646  -0.137  1.00  0.00    -0.269 OA
ATOM      7  H   UNL     1      -3.294  -3.543   0.096  1.00  0.00     0.163 HD
BRANCH   5   8
ATOM      8  C   UNL     1      -0.841  -1.325  -0.473  1.00  0.00     0.040 A 
ATOM      9  C   UNL     1       2.621   0.013   0.275  1.00  0.00     0.046 C 
ATOM     10  C   UNL     1       1.148   0.016  -0.030  1.00  0.00    -0.026 A 
ATOM     11  C   UNL     1       0.474  -1.218  -0.011  1.00  0.00     0.019 A 
ATOM     12  C   UNL     1       0.445   1.166  -0.429  1.00  0.00     0.052 A 
ATOM     13  C   UNL     1      -0.736   0.998  -1.149  1.00  0.00     0.028 A 
ATOM     14  C   UNL     1      -1.379  -0.245  -1.168  1.00  0.00     0.016 A 
BRANCH  12  15
ATOM     15  N   UNL     1       0.714   2.377   0.285  1.00  0.00    -0.279 N 
ATOM     16  H   UNL     1       1.398   2.314   0.990  1.00  0.00     0.180 HD
BRANCH  15  17
ATOM     17  S   UNL     1       0.019   3.886   0.081  1.00  0.00     0.262 S 
ATOM     18  O   UNL     1       0.578   4.686   1.153  1.00  0.00    -0.201 OA
ATOM     19  O   UNL     1       0.206   4.258  -1.305  1.00  0.00    -0.201 OA
BRANCH  17  20
ATOM     20  C   UNL     1      -1.754   3.830   0.383  1.00  0.00     0.090 A 
ATOM     21  C   UNL     1      -2.385   2.647   0.786  1.00  0.00     0.024 A 
ATOM     22  C   UNL     1      -2.544   4.945   0.023  1.00  0.00    -0.029 A 
ATOM     23  C   UNL     1      -3.772   2.500   0.638  1.00  0.00     0.021 A 
ATOM     24  C   UNL     1      -3.939   4.785  -0.102  1.00  0.00     0.024 A 
ATOM     25  C   UNL     1      -2.004   6.340  -0.155  1.00  0.00     0.046 C 
ATOM     26  C   UNL     1      -4.545   3.554   0.150  1.00  0.00     0.052 A 
BRANCH  26  27
ATOM     27  C   UNL     1      -5.952   3.372  -0.099  1.00  0.00     0.099 C 
ATOM     28  N   UNL     1      -7.071   3.210  -0.318  1.00  0.00    -0.192 NA
ENDBRANCH  26  27
ENDBRANCH  17  20
ENDBRANCH  15  17
ENDBRANCH  12  15
ENDBRANCH   5   8
ENDBRANCH   3   4
ENDBRANCH   2   3
ENDBRANCH   1   2
BRANCH   1  29
ATOM     29  C   UNL     1      -6.864  -2.573   0.096  1.00  0.00     0.002 C 
BRANCH  29  30
ATOM     30  C   UNL     1      -7.413  -1.219   0.542  1.00  0.00     0.021 C 
BRANCH  30  31
ATOM     31  C   UNL     1      -8.403  -0.618  -0.436  1.00  0.00     0.116 C 
BRANCH  31  32
ATOM     32  N   UNL     1      -9.779  -0.975  -0.132  1.00  0.00    -0.352 N 
ATOM     33  C   UNL     1     -10.894  -0.209  -0.445  1.00  0.00     0.251 C 
ATOM     34  H   UNL     1      -9.933  -1.829   0.332  1.00  0.00     0.163 HD
ATOM     35  O   UNL     1     -11.836  -0.029   0.315  1.00  0.00    -0.269 OA
BRANCH  33  36
ATOM     36  C   UNL     1     -10.971   0.238  -1.849  1.00  0.00     0.039 A 
ATOM     37  C   UNL     1     -11.945  -0.349  -2.669  1.00  0.00     0.014 A 
ATOM     38  C   UNL     1      -9.873   0.900  -2.381  1.00  0.00     0.014 A 
ATOM     39  C   UNL     1     -11.690  -0.475  -4.023  1.00  0.00     0.010 A 
ATOM     40  C   UNL     1      -9.529   0.612  -3.666  1.00  0.00     0.010 A 
ATOM     41  C   UNL     1     -10.430  -0.097  -4.466  1.00  0.00    -0.014 A 
BRANCH  41  42
ATOM     42  C   UNL     1      -9.984  -0.155  -5.833  1.00  0.00     0.031 A 
ATOM     43  C   UNL     1     -10.285   1.061  -6.603  1.00  0.00     0.074 A 
ATOM     44  C   UNL     1      -9.110  -1.141  -6.132  1.00  0.00     0.049 A 
ATOM     45  N   UNL     1     -10.184   1.154  -7.871  1.00  0.00    -0.248 NA
ATOM     46  C   UNL     1     -10.774   2.306  -5.987  1.00  0.00     0.031 C 
ATOM     47  C   UNL     1      -8.175  -1.284  -7.238  1.00  0.00     0.029 A 
ATOM     48  N   UNL     1      -9.091  -2.398  -5.525  1.00  0.00    -0.354 N 
ATOM     49  C   UNL     1     -10.191   2.501  -8.171  1.00  0.00     0.074 A 
ATOM     50  C   UNL     1     -10.711   3.164  -7.009  1.00  0.00     0.031 C 
ATOM     51  C   UNL     1      -7.944  -2.599  -7.438  1.00  0.00     0.029 A 
ATOM     52  C   UNL     1      -8.836  -3.331  -6.546  1.00  0.00     0.049 A 
ATOM     53  H   UNL     1      -9.228  -2.593  -4.569  1.00  0.00     0.167 HD
ATOM     54  C   UNL     1      -9.568   2.885  -9.315  1.00  0.00     0.031 A 
ATOM     55  C   UNL     1      -9.885  -4.117  -6.951  1.00  0.00     0.031 A 
ATOM     56  C   UNL     1      -9.111   1.696 -10.035  1.00  0.00     0.049 A 
ATOM     57  C   UNL     1     -10.405  -3.713  -8.324  1.00  0.00     0.074 A 
ATOM     58  C   UNL     1      -7.901   1.026 -10.095  1.00  0.00     0.029 A 
ATOM     59  N   UNL     1     -10.075   0.792 -10.438  1.00  0.00    -0.354 N 
ATOM     60  N   UNL     1     -10.114  -2.583  -8.914  1.00  0.00    -0.248 NA
ATOM     61  C   UNL     1     -11.291  -4.542  -9.139  1.00  0.00     0.031 C 
ATOM     62  C   UNL     1      -8.174  -0.322 -10.489  1.00  0.00     0.029 A 
ATOM     63  C   UNL     1      -9.539  -0.455 -10.677  1.00  0.00     0.049 A 
ATOM     64  H   UNL     1     -11.029   1.012 -10.541  1.00  0.00     0.167 HD
ATOM     65  C   UNL     1     -10.678  -2.539 -10.157  1.00  0.00     0.074 A 
ATOM     66  C   UNL     1     -11.466  -3.762 -10.222  1.00  0.00     0.031 C 
ATOM     67  C   UNL     1     -10.451  -1.525 -11.048  1.00  0.00     0.031 A 
BRANCH  54  68
ATOM     68  C   UNL     1      -9.165   4.280  -9.699  1.00  0.00    -0.014 A 
ATOM     69  C   UNL     1      -8.230   4.414 -10.745  1.00  0.00     0.010 A 
ATOM     70  C   UNL     1      -9.617   5.475  -9.105  1.00  0.00     0.010 A 
ATOM     71  C   UNL     1      -7.751   5.655 -11.168  1.00  0.00     0.020 A 
ATOM     72  C   UNL     1      -9.141   6.734  -9.519  1.00  0.00     0.020 A 
ATOM     73  C   UNL     1      -8.209   6.813 -10.551  1.00  0.00     0.054 A 
BRANCH  73  74
ATOM     74  S   UNL     1      -7.577   8.400 -11.147  1.00  0.00     0.124 S 
ATOM     75  O   UNL     1      -6.142   8.276 -10.902  1.00  0.00    -0.237 OA
ATOM     76  O   UNL     1      -7.979   8.390 -12.550  1.00  0.00    -0.237 OA
ATOM     77  O   UNL     1      -8.263   9.384 -10.312  1.00  0.00    -0.744 OA
ENDBRANCH  73  74
ENDBRANCH  54  68
BRANCH  55  78
ATOM     78  C   UNL     1     -10.709  -4.561  -5.769  1.00  0.00    -0.014 A 
ATOM     79  C   UNL     1     -10.031  -5.302  -4.765  1.00  0.00     0.010 A 
ATOM     80  C   UNL     1     -11.892  -3.893  -5.412  1.00  0.00     0.010 A 
ATOM     81  C   UNL     1     -10.404  -5.206  -3.420  1.00  0.00     0.020 A 
ATOM     82  C   UNL     1     -12.293  -3.834  -4.062  1.00  0.00     0.020 A 
ATOM     83  C   UNL     1     -11.512  -4.438  -3.071  1.00  0.00     0.054 A 
BRANCH  83  84
ATOM     84  S   UNL     1     -11.822  -4.132  -1.305  1.00  0.00     0.124 S 
ATOM     85  O   UNL     1     -12.196  -5.459  -0.827  1.00  0.00    -0.237 OA
ATOM     86  O   UNL     1     -10.527  -3.634  -0.830  1.00  0.00    -0.237 OA
ATOM     87  O   UNL     1     -12.895  -3.145  -1.313  1.00  0.00    -0.744 OA
ENDBRANCH  83  84
ENDBRANCH  55  78
BRANCH  67  88
ATOM     88  C   UNL     1     -11.128  -1.437 -12.388  1.00  0.00    -0.014 A 
ATOM     89  C   UNL     1     -11.351  -2.560 -13.190  1.00  0.00     0.010 A 
ATOM     90  C   UNL     1     -11.500  -0.178 -12.918  1.00  0.00     0.010 A 
ATOM     91  C   UNL     1     -12.050  -2.447 -14.395  1.00  0.00     0.020 A 
ATOM     92  C   UNL     1     -12.160  -0.048 -14.134  1.00  0.00     0.020 A 
ATOM     93  C   UNL     1     -12.470  -1.194 -14.845  1.00  0.00     0.054 A 
BRANCH  93  94
ATOM     94  S   UNL     1     -13.403  -1.075 -16.383  1.00  0.00     0.124 S 
ATOM     95  O   UNL     1     -12.619  -1.909 -17.291  1.00  0.00    -0.237 OA
ATOM     96  O   UNL     1     -14.698  -1.621 -15.986  1.00  0.00    -0.237 OA
ATOM     97  O   UNL     1     -13.395   0.353 -16.689  1.00  0.00    -0.744 OA
ENDBRANCH  93  94
ENDBRANCH  67  88
ENDBRANCH  41  42
ENDBRANCH  33  36
ENDBRANCH  31  32
ENDBRANCH  30  31
ENDBRANCH  29  30
ENDBRANCH   1  29
TORSDOF 20
