REMARK SMILES C[C@H]1Oc2ccccc2C=C1/C=C/C(=O)N[C@H](C(=O)NCCCCCCNC(=O)c1ccc(-c2c3nc(c(-c4ccc(S(=O)(=O)[O-])cc4)c4ccc([nH]4)c(-c4ccc(S(=O)(=O)[O-])cc4)c4nc(c(-c5ccc(S(=O)(=O)[O-])cc5)c5ccc2[nH]5)C=C4)C=C3)cc1)c1ccccc1
REMARK SMILES IDX 23 1 22 2 21 3 20 4 18 5 19 6 17 8 16 9 14 10 15 11 13 13
REMARK SMILES IDX 12 14 11 15 1 16 2 17 3 18 4 19 10 20 5 21 9 22 6 23 8 24
REMARK SMILES IDX 7 25 90 26 91 27 95 28 92 29 94 30 93 31 24 32 25 33 26 34
REMARK SMILES IDX 27 35 28 36 29 38 30 39 31 40 89 41 32 42 88 43 33 44 34 45
REMARK SMILES IDX 35 46 82 47 36 48 87 49 81 50 83 51 37 52 86 53 80 54 79 55
REMARK SMILES IDX 38 57 68 58 49 59 67 60 50 61 53 62 66 63 84 64 51 65 52 66
REMARK SMILES IDX 65 68 85 69 54 70 39 71 40 72 48 73 41 74 47 75 42 76 43 77
REMARK SMILES IDX 44 78 45 79 46 80 69 81 70 82 78 83 71 84 77 85 72 86 73 87
REMARK SMILES IDX 74 88 75 89 76 90 55 91 56 92 64 93 57 94 63 95 58 96 59 97
REMARK SMILES IDX 60 98 61 99 62 100
REMARK H PARENT 20 7 16 12 27 37 83 56 53 67
REMARK Flexibility Score: inf
ROOT
ATOM      1  C   UNL     1       1.746   4.196   4.945  1.00  0.00     0.002 C 
ENDROOT
BRANCH   1   2
ATOM      2  C   UNL     1       1.468   3.110   3.895  1.00  0.00     0.021 C 
BRANCH   2   3
ATOM      3  C   UNL     1       2.458   1.945   3.901  1.00  0.00     0.116 C 
BRANCH   3   4
ATOM      4  N   UNL     1       2.435   1.222   5.160  1.00  0.00    -0.354 N 
ATOM      5  C   UNL     1       1.974  -0.033   5.450  1.00  0.00     0.247 C 
ATOM      6  O   UNL     1       2.203  -0.476   6.580  1.00  0.00    -0.272 OA
ATOM      7  H   UNL     1       2.811   1.712   5.927  1.00  0.00     0.163 HD
BRANCH   5   8
ATOM      8  C   UNL     1       1.326  -0.895   4.342  1.00  0.00     0.202 C 
BRANCH   8   9
ATOM      9  N   UNL     1       2.350  -1.835   3.876  1.00  0.00    -0.337 N 
ATOM     10  C   UNL     1       2.530  -2.537   2.732  1.00  0.00     0.244 C 
ATOM     11  O   UNL     1       3.570  -3.188   2.618  1.00  0.00    -0.270 OA
ATOM     12  H   UNL     1       3.061  -1.989   4.539  1.00  0.00     0.164 HD
BRANCH  10  13
ATOM     13  C   UNL     1       1.562  -2.585   1.600  1.00  0.00     0.071 C 
ATOM     14  C   UNL     1       0.275  -2.221   1.595  1.00  0.00     0.013 C 
BRANCH  14  15
ATOM     15  C   UNL     1      -0.717  -2.337   0.536  1.00  0.00    -0.007 C 
ATOM     16  C   UNL     1      -1.565   0.045   0.412  1.00  0.00     0.058 C 
ATOM     17  C   UNL     1      -1.926  -1.415   0.692  1.00  0.00     0.200 C 
ATOM     18  O   UNL     1      -3.089  -1.730  -0.091  1.00  0.00    -0.485 OA
ATOM     19  C   UNL     1      -2.934  -2.581  -1.144  1.00  0.00     0.127 A 
ATOM     20  C   UNL     1      -0.665  -3.257  -0.436  1.00  0.00     0.019 C 
ATOM     21  C   UNL     1      -4.029  -2.686  -2.002  1.00  0.00     0.047 A 
ATOM     22  C   UNL     1      -1.784  -3.340  -1.367  1.00  0.00     0.017 A 
ATOM     23  C   UNL     1      -3.977  -3.543  -3.099  1.00  0.00     0.004 A 
ATOM     24  C   UNL     1      -1.739  -4.205  -2.466  1.00  0.00     0.012 A 
ATOM     25  C   UNL     1      -2.832  -4.302  -3.331  1.00  0.00     0.001 A 
ENDBRANCH  14  15
ENDBRANCH  10  13
ENDBRANCH   8   9
BRANCH   8  26
ATOM     26  C   UNL     1       0.045  -1.570   4.830  1.00  0.00    -0.016 A 
ATOM     27  C   UNL     1      -0.042  -2.956   5.048  1.00  0.00     0.006 A 
ATOM     28  C   UNL     1      -1.131  -0.803   4.921  1.00  0.00     0.006 A 
ATOM     29  C   UNL     1      -1.279  -3.565   5.265  1.00  0.00     0.000 A 
ATOM     30  C   UNL     1      -2.365  -1.415   5.148  1.00  0.00     0.000 A 
ATOM     31  C   UNL     1      -2.440  -2.797   5.301  1.00  0.00     0.000 A 
ENDBRANCH   8  26
ENDBRANCH   5   8
ENDBRANCH   3   4
ENDBRANCH   2   3
ENDBRANCH   1   2
BRANCH   1  32
ATOM     32  C   UNL     1       3.148   4.813   4.913  1.00  0.00     0.002 C 
BRANCH  32  33
ATOM     33  C   UNL     1       3.580   5.406   3.571  1.00  0.00     0.021 C 
BRANCH  33  34
ATOM     34  C   UNL     1       2.686   6.520   3.035  1.00  0.00     0.116 C 
BRANCH  34  35
ATOM     35  N   UNL     1       2.706   7.712   3.870  1.00  0.00    -0.352 N 
ATOM     36  C   UNL     1       2.936   9.021   3.517  1.00  0.00     0.251 C 
ATOM     37  H   UNL     1       2.529   7.558   4.827  1.00  0.00     0.163 HD
ATOM     38  O   UNL     1       3.050   9.879   4.389  1.00  0.00    -0.269 OA
BRANCH  36  39
ATOM     39  C   UNL     1       3.081   9.389   2.090  1.00  0.00     0.039 A 
ATOM     40  C   UNL     1       2.199   8.891   1.128  1.00  0.00     0.014 A 
ATOM     41  C   UNL     1       4.127  10.234   1.708  1.00  0.00     0.014 A 
ATOM     42  C   UNL     1       2.458   9.103  -0.223  1.00  0.00     0.010 A 
ATOM     43  C   UNL     1       4.338  10.512   0.353  1.00  0.00     0.010 A 
ATOM     44  C   UNL     1       3.534   9.911  -0.627  1.00  0.00    -0.014 A 
BRANCH  44  45
ATOM     45  C   UNL     1       3.797  10.115  -2.076  1.00  0.00     0.031 A 
ATOM     46  C   UNL     1       5.057   9.588  -2.712  1.00  0.00     0.074 A 
ATOM     47  C   UNL     1       2.869  10.732  -2.835  1.00  0.00     0.049 A 
ATOM     48  N   UNL     1       5.434   9.659  -3.964  1.00  0.00    -0.248 NA
ATOM     49  C   UNL     1       6.016   8.892  -1.838  1.00  0.00     0.031 C 
ATOM     50  C   UNL     1       1.597  11.261  -2.338  1.00  0.00     0.029 A 
ATOM     51  N   UNL     1       2.833  10.991  -4.182  1.00  0.00    -0.354 N 
ATOM     52  C   UNL     1       6.672   9.030  -4.026  1.00  0.00     0.074 A 
ATOM     53  C   UNL     1       7.000   8.608  -2.682  1.00  0.00     0.031 C 
ATOM     54  C   UNL     1       0.882  11.728  -3.373  1.00  0.00     0.029 A 
ATOM     55  C   UNL     1       1.669  11.596  -4.596  1.00  0.00     0.049 A 
ATOM     56  H   UNL     1       3.571  10.766  -4.794  1.00  0.00     0.167 HD
ATOM     57  C   UNL     1       7.456   8.812  -5.108  1.00  0.00     0.031 A 
ATOM     58  C   UNL     1       1.274  12.010  -5.816  1.00  0.00     0.031 A 
ATOM     59  C   UNL     1       7.120   9.223  -6.447  1.00  0.00     0.049 A 
ATOM     60  C   UNL     1       2.187  11.807  -6.991  1.00  0.00     0.074 A 
ATOM     61  C   UNL     1       7.851   9.033  -7.607  1.00  0.00     0.029 A 
ATOM     62  N   UNL     1       5.964   9.897  -6.808  1.00  0.00    -0.354 N 
ATOM     63  N   UNL     1       3.355  11.214  -7.026  1.00  0.00    -0.248 NA
ATOM     64  C   UNL     1       1.735  12.332  -8.287  1.00  0.00     0.031 C 
ATOM     65  C   UNL     1       7.165   9.643  -8.660  1.00  0.00     0.029 A 
ATOM     66  C   UNL     1       5.975  10.155  -8.169  1.00  0.00     0.049 A 
ATOM     67  H   UNL     1       5.243  10.155  -6.189  1.00  0.00     0.167 HD
ATOM     68  C   UNL     1       3.777  11.287  -8.348  1.00  0.00     0.074 A 
ATOM     69  C   UNL     1       2.730  11.963  -9.086  1.00  0.00     0.031 C 
ATOM     70  C   UNL     1       4.932  10.836  -8.895  1.00  0.00     0.031 A 
BRANCH  57  71
ATOM     71  C   UNL     1       8.766   8.092  -4.912  1.00  0.00    -0.014 A 
ATOM     72  C   UNL     1       9.978   8.784  -5.097  1.00  0.00     0.010 A 
ATOM     73  C   UNL     1       8.800   6.707  -4.670  1.00  0.00     0.010 A 
ATOM     74  C   UNL     1      11.197   8.101  -5.075  1.00  0.00     0.020 A 
ATOM     75  C   UNL     1      10.019   6.025  -4.621  1.00  0.00     0.020 A 
ATOM     76  C   UNL     1      11.208   6.723  -4.848  1.00  0.00     0.054 A 
BRANCH  76  77
ATOM     77  S   UNL     1      12.798   5.847  -4.848  1.00  0.00     0.124 S 
ATOM     78  O   UNL     1      13.102   5.759  -6.272  1.00  0.00    -0.237 OA
ATOM     79  O   UNL     1      13.655   6.740  -4.071  1.00  0.00    -0.237 OA
ATOM     80  O   UNL     1      12.486   4.577  -4.194  1.00  0.00    -0.744 OA
ENDBRANCH  76  77
ENDBRANCH  57  71
BRANCH  58  81
ATOM     81  C   UNL     1      -0.065  12.643  -5.965  1.00  0.00    -0.014 A 
ATOM     82  C   UNL     1      -0.326  13.897  -5.380  1.00  0.00     0.010 A 
ATOM     83  C   UNL     1      -1.111  11.955  -6.602  1.00  0.00     0.010 A 
ATOM     84  C   UNL     1      -1.621  14.420  -5.370  1.00  0.00     0.020 A 
ATOM     85  C   UNL     1      -2.403  12.489  -6.621  1.00  0.00     0.020 A 
ATOM     86  C   UNL     1      -2.656  13.702  -5.975  1.00  0.00     0.054 A 
BRANCH  86  87
ATOM     87  S   UNL     1      -4.342  14.365  -5.893  1.00  0.00     0.124 S 
ATOM     88  O   UNL     1      -4.731  14.019  -4.528  1.00  0.00    -0.237 OA
ATOM     89  O   UNL     1      -4.141  15.789  -6.148  1.00  0.00    -0.237 OA
ATOM     90  O   UNL     1      -5.045  13.640  -6.947  1.00  0.00    -0.744 OA
ENDBRANCH  86  87
ENDBRANCH  58  81
BRANCH  70  91
ATOM     91  C   UNL     1       5.154  11.055 -10.368  1.00  0.00    -0.014 A 
ATOM     92  C   UNL     1       5.167   9.953 -11.243  1.00  0.00     0.010 A 
ATOM     93  C   UNL     1       5.484  12.328 -10.863  1.00  0.00     0.010 A 
ATOM     94  C   UNL     1       5.544  10.113 -12.578  1.00  0.00     0.020 A 
ATOM     95  C   UNL     1       5.837  12.496 -12.205  1.00  0.00     0.020 A 
ATOM     96  C   UNL     1       5.890  11.383 -13.047  1.00  0.00     0.054 A 
BRANCH  96  97
ATOM     97  S   UNL     1       6.417  11.566 -14.773  1.00  0.00     0.124 S 
ATOM     98  O   UNL     1       7.788  11.069 -14.730  1.00  0.00    -0.237 OA
ATOM     99  O   UNL     1       5.464  10.723 -15.492  1.00  0.00    -0.237 OA
ATOM    100  O   UNL     1       6.278  12.999 -15.023  1.00  0.00    -0.744 OA
ENDBRANCH  96  97
ENDBRANCH  70  91
ENDBRANCH  44  45
ENDBRANCH  36  39
ENDBRANCH  34  35
ENDBRANCH  33  34
ENDBRANCH  32  33
ENDBRANCH   1  32
TORSDOF 20
