REMARK SMILES O=C(NCCCCCCNC(=O)c1ccccc1/C=C1/SC(=S)N(C2CCCC2)C1=O)c1ccc(-c2c3nc(c(-c4ccc(S(=O)(=O)[O-])cc4)c4ccc([nH]4)c(-c4ccc(S(=O)(=O)[O-])cc4)c4nc(c(-c5ccc(S(=O)(=O)[O-])cc5)c5ccc2[nH]5)C=C4)C=C3)cc1
REMARK SMILES IDX 6 1 5 2 4 3 3 4 1 5 2 6 32 8 33 9 91 10 34 11 90 12 35 13
REMARK SMILES IDX 36 14 37 15 84 16 38 17 89 18 83 19 85 20 39 21 88 22 82 23
REMARK SMILES IDX 81 24 40 26 70 27 51 28 69 29 52 30 55 31 68 32 86 33 53 34
REMARK SMILES IDX 54 35 67 37 87 38 56 39 41 40 42 41 50 42 43 43 49 44 44 45
REMARK SMILES IDX 45 46 46 47 47 48 48 49 71 50 72 51 80 52 73 53 79 54 74 55
REMARK SMILES IDX 75 56 76 57 77 58 78 59 57 60 58 61 66 62 59 63 65 64 60 65
REMARK SMILES IDX 61 66 62 67 63 68 64 69 7 70 8 71 9 72 10 73 11 74 12 76
REMARK SMILES IDX 13 77 14 78 18 79 15 80 17 81 16 82 19 83 20 84 21 85 30 86
REMARK SMILES IDX 22 87 24 88 31 89 23 90 25 91 26 92 29 93 27 94 28 95
REMARK H PARENT 3 7 85 25 55 36 10 75
REMARK Flexibility Score: inf
ROOT
ATOM      1  C   UNL     1       4.292  -1.693   3.258  1.00  0.00     0.002 C 
ENDROOT
BRANCH   1   2
ATOM      2  C   UNL     1       4.781  -0.550   2.368  1.00  0.00     0.021 C 
BRANCH   2   3
ATOM      3  C   UNL     1       4.483  -0.716   0.881  1.00  0.00     0.116 C 
BRANCH   3   4
ATOM      4  N   UNL     1       3.060  -0.813   0.610  1.00  0.00    -0.352 N 
ATOM      5  O   UNL     1       1.062  -0.166  -0.204  1.00  0.00    -0.269 OA
ATOM      6  C   UNL     1       2.284  -0.053  -0.229  1.00  0.00     0.251 C 
ATOM      7  H   UNL     1       2.585  -1.525   1.096  1.00  0.00     0.163 HD
BRANCH   6   8
ATOM      8  C   UNL     1       2.924   0.914  -1.145  1.00  0.00     0.039 A 
ATOM      9  C   UNL     1       4.029   0.547  -1.920  1.00  0.00     0.014 A 
ATOM     10  C   UNL     1       2.395   2.203  -1.237  1.00  0.00     0.014 A 
ATOM     11  C   UNL     1       4.671   1.499  -2.707  1.00  0.00     0.010 A 
ATOM     12  C   UNL     1       2.999   3.136  -2.080  1.00  0.00     0.010 A 
ATOM     13  C   UNL     1       4.153   2.799  -2.805  1.00  0.00    -0.014 A 
BRANCH  13  14
ATOM     14  C   UNL     1       4.779   3.793  -3.711  1.00  0.00     0.031 A 
ATOM     15  C   UNL     1       5.399   5.046  -3.162  1.00  0.00     0.074 A 
ATOM     16  C   UNL     1       4.734   3.586  -5.041  1.00  0.00     0.049 A 
ATOM     17  N   UNL     1       5.893   6.072  -3.807  1.00  0.00    -0.248 NA
ATOM     18  C   UNL     1       5.464   5.166  -1.698  1.00  0.00     0.031 C 
ATOM     19  C   UNL     1       4.160   2.405  -5.690  1.00  0.00     0.029 A 
ATOM     20  N   UNL     1       5.157   4.367  -6.085  1.00  0.00    -0.354 N 
ATOM     21  C   UNL     1       6.299   6.974  -2.832  1.00  0.00     0.074 A 
ATOM     22  C   UNL     1       5.976   6.381  -1.551  1.00  0.00     0.031 C 
ATOM     23  C   UNL     1       4.268   2.539  -7.019  1.00  0.00     0.029 A 
ATOM     24  C   UNL     1       4.855   3.841  -7.318  1.00  0.00     0.049 A 
ATOM     25  H   UNL     1       5.631   5.222  -5.963  1.00  0.00     0.167 HD
ATOM     26  C   UNL     1       6.884   8.187  -2.991  1.00  0.00     0.031 A 
ATOM     27  C   UNL     1       4.991   4.359  -8.553  1.00  0.00     0.031 A 
ATOM     28  C   UNL     1       7.178   8.774  -4.274  1.00  0.00     0.049 A 
ATOM     29  C   UNL     1       5.594   5.724  -8.711  1.00  0.00     0.074 A 
ATOM     30  C   UNL     1       7.798   9.981  -4.545  1.00  0.00     0.029 A 
ATOM     31  N   UNL     1       6.856   8.206  -5.499  1.00  0.00    -0.354 N 
ATOM     32  N   UNL     1       6.011   6.548  -7.779  1.00  0.00    -0.248 NA
ATOM     33  C   UNL     1       5.752   6.229 -10.081  1.00  0.00     0.031 C 
ATOM     34  C   UNL     1       7.791  10.173  -5.930  1.00  0.00     0.029 A 
ATOM     35  C   UNL     1       7.237   9.051  -6.528  1.00  0.00     0.049 A 
ATOM     36  H   UNL     1       6.420   7.331  -5.619  1.00  0.00     0.167 HD
ATOM     37  C   UNL     1       6.511   7.657  -8.451  1.00  0.00     0.074 A 
ATOM     38  C   UNL     1       6.343   7.399  -9.867  1.00  0.00     0.031 C 
ATOM     39  C   UNL     1       7.069   8.780  -7.936  1.00  0.00     0.031 A 
BRANCH  26  40
ATOM     40  C   UNL     1       7.189   8.979  -1.745  1.00  0.00    -0.014 A 
ATOM     41  C   UNL     1       8.173   8.562  -0.830  1.00  0.00     0.010 A 
ATOM     42  C   UNL     1       6.479  10.166  -1.487  1.00  0.00     0.010 A 
ATOM     43  C   UNL     1       8.388   9.277   0.353  1.00  0.00     0.020 A 
ATOM     44  C   UNL     1       6.714  10.902  -0.322  1.00  0.00     0.020 A 
ATOM     45  C   UNL     1       7.647  10.436   0.605  1.00  0.00     0.054 A 
BRANCH  45  46
ATOM     46  S   UNL     1       7.921  11.322   2.163  1.00  0.00     0.124 S 
ATOM     47  O   UNL     1       7.291  10.427   3.131  1.00  0.00    -0.237 OA
ATOM     48  O   UNL     1       9.377  11.399   2.237  1.00  0.00    -0.237 OA
ATOM     49  O   UNL     1       7.241  12.599   1.961  1.00  0.00    -0.744 OA
ENDBRANCH  45  46
ENDBRANCH  26  40
BRANCH  27  50
ATOM     50  C   UNL     1       4.522   3.567  -9.721  1.00  0.00    -0.014 A 
ATOM     51  C   UNL     1       5.442   2.953 -10.586  1.00  0.00     0.010 A 
ATOM     52  C   UNL     1       3.145   3.345  -9.915  1.00  0.00     0.010 A 
ATOM     53  C   UNL     1       4.995   2.121 -11.617  1.00  0.00     0.020 A 
ATOM     54  C   UNL     1       2.695   2.493 -10.926  1.00  0.00     0.020 A 
ATOM     55  C   UNL     1       3.625   1.887 -11.772  1.00  0.00     0.054 A 
BRANCH  55  56
ATOM     56  S   UNL     1       3.078   0.720 -13.050  1.00  0.00     0.124 S 
ATOM     57  O   UNL     1       3.330   1.472 -14.275  1.00  0.00    -0.237 OA
ATOM     58  O   UNL     1       3.952  -0.428 -12.820  1.00  0.00    -0.237 OA
ATOM     59  O   UNL     1       1.670   0.495 -12.730  1.00  0.00    -0.744 OA
ENDBRANCH  55  56
ENDBRANCH  27  50
BRANCH  39  60
ATOM     60  C   UNL     1       7.596   9.809  -8.900  1.00  0.00    -0.014 A 
ATOM     61  C   UNL     1       6.734  10.652  -9.621  1.00  0.00     0.010 A 
ATOM     62  C   UNL     1       8.987  10.004  -8.997  1.00  0.00     0.010 A 
ATOM     63  C   UNL     1       7.255  11.673 -10.423  1.00  0.00     0.020 A 
ATOM     64  C   UNL     1       9.510  11.039  -9.775  1.00  0.00     0.020 A 
ATOM     65  C   UNL     1       8.639  11.866 -10.486  1.00  0.00     0.054 A 
BRANCH  65  66
ATOM     66  S   UNL     1       9.285  13.259 -11.454  1.00  0.00     0.124 S 
ATOM     67  O   UNL     1       9.053  12.811 -12.824  1.00  0.00    -0.237 OA
ATOM     68  O   UNL     1       8.452  14.372 -11.005  1.00  0.00    -0.237 OA
ATOM     69  O   UNL     1      10.688  13.338 -11.054  1.00  0.00    -0.744 OA
ENDBRANCH  65  66
ENDBRANCH  39  60
ENDBRANCH  13  14
ENDBRANCH   6   8
ENDBRANCH   3   4
ENDBRANCH   2   3
ENDBRANCH   1   2
BRANCH   1  70
ATOM     70  C   UNL     1       4.731  -3.097   2.832  1.00  0.00     0.002 C 
BRANCH  70  71
ATOM     71  C   UNL     1       6.239  -3.296   2.639  1.00  0.00     0.021 C 
BRANCH  71  72
ATOM     72  C   UNL     1       7.097  -2.924   3.843  1.00  0.00     0.116 C 
BRANCH  72  73
ATOM     73  N   UNL     1       6.798  -3.743   5.002  1.00  0.00    -0.352 N 
ATOM     74  C   UNL     1       7.656  -4.327   5.898  1.00  0.00     0.251 C 
ATOM     75  H   UNL     1       5.841  -3.903   5.169  1.00  0.00     0.163 HD
ATOM     76  O   UNL     1       7.206  -5.096   6.744  1.00  0.00    -0.269 OA
BRANCH  74  77
ATOM     77  C   UNL     1       9.114  -4.060   5.835  1.00  0.00     0.047 A 
ATOM     78  C   UNL     1       9.942  -5.186   5.726  1.00  0.00     0.014 A 
ATOM     79  C   UNL     1       9.677  -2.768   5.929  1.00  0.00    -0.012 A 
ATOM     80  C   UNL     1      11.326  -5.034   5.652  1.00  0.00     0.001 A 
ATOM     81  C   UNL     1      11.069  -2.634   5.830  1.00  0.00     0.009 A 
ATOM     82  C   UNL     1      11.887  -3.759   5.692  1.00  0.00     0.001 A 
BRANCH  79  83
ATOM     83  C   UNL     1       8.885  -1.540   6.096  1.00  0.00     0.030 C 
ATOM     84  C   UNL     1       8.039  -1.291   7.104  1.00  0.00     0.081 C 
ATOM     85  S   UNL     1       6.924   0.013   7.095  1.00  0.00    -0.054 SA
ATOM     86  C   UNL     1       7.842  -2.106   8.331  1.00  0.00     0.266 C 
ATOM     87  C   UNL     1       6.008  -0.647   8.454  1.00  0.00     0.148 C 
ATOM     88  N   UNL     1       6.646  -1.768   8.954  1.00  0.00    -0.290 N 
ATOM     89  O   UNL     1       8.677  -2.894   8.750  1.00  0.00    -0.268 OA
ATOM     90  S   UNL     1       4.599   0.098   8.948  1.00  0.00    -0.052 S 
BRANCH  88  91
ATOM     91  C   UNL     1       6.275  -2.564  10.130  1.00  0.00     0.092 C 
ATOM     92  C   UNL     1       6.352  -1.815  11.457  1.00  0.00     0.025 C 
ATOM     93  C   UNL     1       4.890  -3.212  10.132  1.00  0.00     0.025 C 
ATOM     94  C   UNL     1       5.657  -2.760  12.425  1.00  0.00     0.002 C 
ATOM     95  C   UNL     1       4.590  -3.488  11.607  1.00  0.00     0.002 C 
ENDBRANCH  88  91
ENDBRANCH  79  83
ENDBRANCH  74  77
ENDBRANCH  72  73
ENDBRANCH  71  72
ENDBRANCH  70  71
ENDBRANCH   1  70
TORSDOF 18
