REMARK SMILES CCc1ccccc1NC(=O)CCN1C[C@H](C(=O)NCCCCCCNC(=O)c2ccc(-c3c4nc(c(-c5ccc(S(=O)(=O)[O-])cc5)c5ccc([nH]5)c(-c5ccc(S(=O)(=O)[O-])cc5)c5nc(c(-c6ccc(S(=O)(=O)[O-])cc6)c6ccc3[nH]6)C=C5)C=C4)cc2)CC1=O
REMARK SMILES IDX 21 1 20 2 19 3 17 4 18 5 16 7 14 8 15 9 90 10 89 11 91 12
REMARK SMILES IDX 13 13 12 14 10 15 9 16 11 18 8 19 3 20 4 21 5 22 7 23 6 24
REMARK SMILES IDX 2 25 1 26 22 27 23 28 24 29 25 30 26 31 27 32 28 34 29 35
REMARK SMILES IDX 30 36 88 37 31 38 87 39 32 40 33 41 34 42 81 43 35 44 86 45
REMARK SMILES IDX 80 46 82 47 36 48 85 49 79 50 78 51 37 53 67 54 48 55 66 56
REMARK SMILES IDX 49 57 52 58 65 59 83 60 50 61 51 62 64 64 84 65 53 66 38 67
REMARK SMILES IDX 39 68 47 69 40 70 46 71 41 72 42 73 43 74 44 75 45 76 68 77
REMARK SMILES IDX 69 78 77 79 70 80 76 81 71 82 72 83 73 84 74 85 75 86 54 87
REMARK SMILES IDX 55 88 63 89 56 90 62 91 57 92 58 93 59 94 60 95 61 96
REMARK H PARENT 19 6 9 17 26 33 82 52 52 63
REMARK Flexibility Score: inf
ROOT
ATOM      1  C   UNL     1      -0.528   3.559  -4.724  1.00  0.00     0.021 C 
ENDROOT
BRANCH   1   2
ATOM      2  C   UNL     1       0.816   2.825  -4.983  1.00  0.00     0.116 C 
BRANCH   2   3
ATOM      3  N   UNL     1       2.127   3.600  -4.952  1.00  0.00    -0.356 N 
ATOM      4  C   UNL     1       3.199   4.048  -4.249  1.00  0.00     0.225 C 
ATOM      5  O   UNL     1       4.188   4.102  -5.018  1.00  0.00    -0.275 OA
ATOM      6  H   UNL     1       2.257   3.931  -5.870  1.00  0.00     0.163 HD
BRANCH   4   7
ATOM      7  C   UNL     1       3.499   4.618  -2.807  1.00  0.00     0.107 C 
ATOM      8  N   UNL     1       2.247   5.575  -1.014  1.00  0.00    -0.341 N 
ATOM      9  C   UNL     1       2.735   5.861  -2.355  1.00  0.00     0.133 C 
ATOM     10  C   UNL     1       2.930   4.510  -0.447  1.00  0.00     0.223 C 
ATOM     11  C   UNL     1       3.788   3.847  -1.509  1.00  0.00     0.115 C 
ATOM     12  O   UNL     1       2.903   4.195   0.741  1.00  0.00    -0.275 OA
BRANCH   8  13
ATOM     13  C   UNL     1       1.470   6.532  -0.216  1.00  0.00     0.129 C 
BRANCH  13  14
ATOM     14  C   UNL     1      -0.029   6.265   0.032  1.00  0.00     0.122 C 
BRANCH  14  15
ATOM     15  C   UNL     1      -0.504   5.294   1.149  1.00  0.00     0.226 C 
ATOM     16  N   UNL     1      -0.533   3.915   1.094  1.00  0.00    -0.326 N 
ATOM     17  H   UNL     1      -0.894   3.478   1.899  1.00  0.00     0.169 HD
ATOM     18  O   UNL     1      -0.938   5.803   2.195  1.00  0.00    -0.275 OA
BRANCH  16  19
ATOM     19  C   UNL     1      -0.131   3.034   0.078  1.00  0.00     0.044 A 
ATOM     20  C   UNL     1       0.293   1.698   0.281  1.00  0.00    -0.025 A 
ATOM     21  C   UNL     1       1.079   1.074  -0.718  1.00  0.00     0.006 A 
ATOM     22  C   UNL     1       1.410   1.736  -1.867  1.00  0.00     0.000 A 
ATOM     23  C   UNL     1      -0.039   3.539  -1.181  1.00  0.00     0.026 A 
ATOM     24  C   UNL     1       0.844   2.969  -2.055  1.00  0.00     0.002 A 
BRANCH  20  25
ATOM     25  C   UNL     1      -0.056   0.898   1.513  1.00  0.00     0.034 C 
ATOM     26  C   UNL     1       0.379  -0.574   1.464  1.00  0.00     0.009 C 
ENDBRANCH  20  25
ENDBRANCH  16  19
ENDBRANCH  14  15
ENDBRANCH  13  14
ENDBRANCH   8  13
ENDBRANCH   4   7
ENDBRANCH   2   3
ENDBRANCH   1   2
BRANCH   1  27
ATOM     27  C   UNL     1      -1.796   2.871  -5.277  1.00  0.00     0.002 C 
BRANCH  27  28
ATOM     28  C   UNL     1      -2.150   1.462  -4.770  1.00  0.00     0.002 C 
BRANCH  28  29
ATOM     29  C   UNL     1      -2.786   1.312  -3.375  1.00  0.00     0.021 C 
BRANCH  29  30
ATOM     30  C   UNL     1      -4.071   2.098  -3.080  1.00  0.00     0.116 C 
BRANCH  30  31
ATOM     31  N   UNL     1      -5.064   1.991  -4.138  1.00  0.00    -0.352 N 
ATOM     32  C   UNL     1      -6.373   1.578  -4.132  1.00  0.00     0.251 C 
ATOM     33  H   UNL     1      -4.736   2.267  -5.024  1.00  0.00     0.163 HD
ATOM     34  O   UNL     1      -6.938   1.418  -5.213  1.00  0.00    -0.269 OA
BRANCH  32  35
ATOM     35  C   UNL     1      -7.122   1.321  -2.878  1.00  0.00     0.039 A 
ATOM     36  C   UNL     1      -8.057   0.279  -2.868  1.00  0.00     0.014 A 
ATOM     37  C   UNL     1      -6.995   2.137  -1.752  1.00  0.00     0.014 A 
ATOM     38  C   UNL     1      -8.829   0.034  -1.728  1.00  0.00     0.010 A 
ATOM     39  C   UNL     1      -7.718   1.849  -0.589  1.00  0.00     0.010 A 
ATOM     40  C   UNL     1      -8.650   0.801  -0.566  1.00  0.00    -0.014 A 
BRANCH  40  41
ATOM     41  C   UNL     1      -9.424   0.492   0.668  1.00  0.00     0.031 A 
ATOM     42  C   UNL     1     -10.407   1.481   1.239  1.00  0.00     0.074 A 
ATOM     43  C   UNL     1      -9.218  -0.683   1.296  1.00  0.00     0.049 A 
ATOM     44  N   UNL     1     -11.191   1.357   2.282  1.00  0.00    -0.248 NA
ATOM     45  C   UNL     1     -10.507   2.786   0.568  1.00  0.00     0.031 C 
ATOM     46  C   UNL     1      -8.250  -1.701   0.881  1.00  0.00     0.029 A 
ATOM     47  N   UNL     1      -9.805  -1.222   2.414  1.00  0.00    -0.354 N 
ATOM     48  C   UNL     1     -11.864   2.569   2.400  1.00  0.00     0.074 A 
ATOM     49  C   UNL     1     -11.358   3.431   1.353  1.00  0.00     0.031 C 
ATOM     50  C   UNL     1      -8.332  -2.752   1.711  1.00  0.00     0.029 A 
ATOM     51  C   UNL     1      -9.328  -2.470   2.739  1.00  0.00     0.049 A 
ATOM     52  H   UNL     1     -10.501  -0.759   2.933  1.00  0.00     0.167 HD
ATOM     53  C   UNL     1     -12.826   2.927   3.287  1.00  0.00     0.031 A 
ATOM     54  C   UNL     1      -9.650  -3.299   3.752  1.00  0.00     0.031 A 
ATOM     55  C   UNL     1     -13.317   2.067   4.333  1.00  0.00     0.049 A 
ATOM     56  C   UNL     1     -10.729  -2.890   4.715  1.00  0.00     0.074 A 
ATOM     57  C   UNL     1     -14.333   2.308   5.243  1.00  0.00     0.029 A 
ATOM     58  N   UNL     1     -12.818   0.804   4.622  1.00  0.00    -0.354 N 
ATOM     59  N   UNL     1     -11.421  -1.776   4.751  1.00  0.00    -0.248 NA
ATOM     60  C   UNL     1     -11.086  -3.859   5.758  1.00  0.00     0.031 C 
ATOM     61  C   UNL     1     -14.401   1.222   6.123  1.00  0.00     0.029 A 
ATOM     62  C   UNL     1     -13.481   0.269   5.716  1.00  0.00     0.049 A 
ATOM     63  H   UNL     1     -12.099   0.354   4.123  1.00  0.00     0.167 HD
ATOM     64  C   UNL     1     -12.310  -1.917   5.812  1.00  0.00     0.074 A 
ATOM     65  C   UNL     1     -12.084  -3.236   6.369  1.00  0.00     0.031 C 
ATOM     66  C   UNL     1     -13.229  -1.035   6.281  1.00  0.00     0.031 A 
BRANCH  53  67
ATOM     67  C   UNL     1     -13.390   4.324   3.177  1.00  0.00    -0.014 A 
ATOM     68  C   UNL     1     -14.157   4.722   2.065  1.00  0.00     0.010 A 
ATOM     69  C   UNL     1     -13.167   5.251   4.212  1.00  0.00     0.010 A 
ATOM     70  C   UNL     1     -14.636   6.032   1.963  1.00  0.00     0.020 A 
ATOM     71  C   UNL     1     -13.673   6.552   4.131  1.00  0.00     0.020 A 
ATOM     72  C   UNL     1     -14.385   6.941   2.995  1.00  0.00     0.054 A 
BRANCH  72  73
ATOM     73  S   UNL     1     -15.015   8.635   2.833  1.00  0.00     0.124 S 
ATOM     74  O   UNL     1     -14.146   9.182   1.794  1.00  0.00    -0.237 OA
ATOM     75  O   UNL     1     -16.405   8.423   2.441  1.00  0.00    -0.237 OA
ATOM     76  O   UNL     1     -14.826   9.205   4.165  1.00  0.00    -0.744 OA
ENDBRANCH  72  73
ENDBRANCH  53  67
BRANCH  54  77
ATOM     77  C   UNL     1      -8.940  -4.601   3.888  1.00  0.00    -0.014 A 
ATOM     78  C   UNL     1      -9.596  -5.816   3.624  1.00  0.00     0.010 A 
ATOM     79  C   UNL     1      -7.577  -4.624   4.241  1.00  0.00     0.010 A 
ATOM     80  C   UNL     1      -8.905  -7.029   3.715  1.00  0.00     0.020 A 
ATOM     81  C   UNL     1      -6.876  -5.831   4.302  1.00  0.00     0.020 A 
ATOM     82  C   UNL     1      -7.546  -7.027   4.045  1.00  0.00     0.054 A 
BRANCH  82  83
ATOM     83  S   UNL     1      -6.651  -8.605   4.077  1.00  0.00     0.124 S 
ATOM     84  O   UNL     1      -7.183  -9.233   5.282  1.00  0.00    -0.237 OA
ATOM     85  O   UNL     1      -7.050  -9.219   2.813  1.00  0.00    -0.237 OA
ATOM     86  O   UNL     1      -5.248  -8.201   4.147  1.00  0.00    -0.744 OA
ENDBRANCH  82  83
ENDBRANCH  54  77
BRANCH  66  87
ATOM     87  C   UNL     1     -14.073  -1.482   7.448  1.00  0.00    -0.014 A 
ATOM     88  C   UNL     1     -13.517  -1.676   8.726  1.00  0.00     0.010 A 
ATOM     89  C   UNL     1     -15.450  -1.703   7.263  1.00  0.00     0.010 A 
ATOM     90  C   UNL     1     -14.309  -2.142   9.779  1.00  0.00     0.020 A 
ATOM     91  C   UNL     1     -16.253  -2.133   8.322  1.00  0.00     0.020 A 
ATOM     92  C   UNL     1     -15.672  -2.374   9.568  1.00  0.00     0.054 A 
BRANCH  92  93
ATOM     93  S   UNL     1     -16.678  -2.982  10.948  1.00  0.00     0.124 S 
ATOM     94  O   UNL     1     -16.230  -4.367  11.064  1.00  0.00    -0.237 OA
ATOM     95  O   UNL     1     -16.285  -2.100  12.045  1.00  0.00    -0.237 OA
ATOM     96  O   UNL     1     -18.051  -2.809  10.479  1.00  0.00    -0.744 OA
ENDBRANCH  92  93
ENDBRANCH  66  87
ENDBRANCH  40  41
ENDBRANCH  32  35
ENDBRANCH  30  31
ENDBRANCH  29  30
ENDBRANCH  28  29
ENDBRANCH  27  28
ENDBRANCH   1  27
TORSDOF 21
