REMARK SMILES O=C(CC1CC[NH+](CCC(=O)NC2CC2)CC1)NCCCCCCNC(=O)c1ccc(-c2c3nc(c(-c4ccc(S(=O)(=O)[O-])cc4)c4ccc([nH]4)c(-c4ccc(S(=O)(=O)[O-])cc4)c4nc(c(-c5ccc(S(=O)(=O)[O-])cc5)c5ccc2[nH]5)C=C4)C=C3)cc1
REMARK SMILES IDX 20 1 19 2 18 3 1 4 2 5 3 7 4 8 5 9 17 10 6 11 16 12 7 13
REMARK SMILES IDX 8 15 9 16 10 17 11 18 12 19 13 21 14 22 15 23 21 24 22 25
REMARK SMILES IDX 23 26 24 27 25 28 26 29 27 31 28 32 29 33 87 34 30 35 86 36
REMARK SMILES IDX 31 37 32 38 33 39 80 40 34 41 85 42 79 43 81 44 35 45 84 46
REMARK SMILES IDX 78 47 77 48 36 50 66 51 47 52 65 53 48 54 51 55 64 56 82 57
REMARK SMILES IDX 49 58 50 59 63 61 83 62 52 63 37 64 38 65 46 66 39 67 45 68
REMARK SMILES IDX 40 69 41 70 42 71 43 72 44 73 67 74 68 75 76 76 69 77 75 78
REMARK SMILES IDX 70 79 71 80 72 81 73 82 74 83 53 84 54 85 62 86 55 87 61 88
REMARK SMILES IDX 56 89 57 90 58 91 59 92 60 93
REMARK H PARENT 18 6 7 14 12 20 25 30 81 49 51 60
REMARK Flexibility Score: inf
ROOT
ATOM      1  C   UNL     1       2.805   2.387   2.773  1.00  0.00     0.021 C 
ENDROOT
BRANCH   1   2
ATOM      2  C   UNL     1       2.236   1.989   1.415  1.00  0.00     0.116 C 
BRANCH   2   3
ATOM      3  N   UNL     1       3.163   1.149   0.682  1.00  0.00    -0.356 N 
ATOM      4  O   UNL     1       2.115  -0.842   0.988  1.00  0.00    -0.275 OA
ATOM      5  C   UNL     1       2.996  -0.182   0.444  1.00  0.00     0.220 C 
ATOM      6  H   UNL     1       3.978   1.573   0.330  1.00  0.00     0.163 HD
BRANCH   5   7
ATOM      7  C   UNL     1       4.066  -0.830  -0.436  1.00  0.00     0.104 C 
BRANCH   7   8
ATOM      8  C   UNL     1       4.481  -0.306  -1.845  1.00  0.00     0.009 C 
ATOM      9  C   UNL     1       4.594   1.196  -2.069  1.00  0.00     0.066 C 
ATOM     10  C   UNL     1       3.768  -0.957  -3.049  1.00  0.00     0.066 C 
ATOM     11  C   UNL     1       3.249   1.845  -2.369  1.00  0.00     0.262 C 
ATOM     12  C   UNL     1       2.777  -0.100  -3.872  1.00  0.00     0.262 C 
ATOM     13  N   UNL     1       2.617   1.307  -3.555  1.00  0.00    -0.334 N 
ATOM     14  H   UNL     1       3.238   1.646  -4.290  1.00  0.00     0.348 HD
BRANCH  13  15
ATOM     15  C   UNL     1       1.306   1.911  -3.840  1.00  0.00     0.272 C 
BRANCH  15  16
ATOM     16  C   UNL     1       0.027   1.314  -3.235  1.00  0.00     0.161 C 
BRANCH  16  17
ATOM     17  C   UNL     1      -0.091   1.373  -1.723  1.00  0.00     0.225 C 
ATOM     18  O   UNL     1      -0.262   2.434  -1.123  1.00  0.00    -0.275 OA
ATOM     19  N   UNL     1      -0.034   0.190  -1.026  1.00  0.00    -0.353 N 
ATOM     20  H   UNL     1      -0.409   0.184  -0.116  1.00  0.00     0.163 HD
BRANCH  19  21
ATOM     21  C   UNL     1       0.522  -1.024  -1.508  1.00  0.00     0.082 C 
ATOM     22  C   UNL     1       0.252  -2.351  -0.865  1.00  0.00     0.027 C 
ATOM     23  C   UNL     1      -0.253  -2.067  -2.249  1.00  0.00     0.027 C 
ENDBRANCH  19  21
ENDBRANCH  16  17
ENDBRANCH  15  16
ENDBRANCH  13  15
ENDBRANCH   7   8
ENDBRANCH   5   7
ENDBRANCH   2   3
ENDBRANCH   1   2
BRANCH   1  24
ATOM     24  C   UNL     1       4.277   2.822   2.736  1.00  0.00     0.002 C 
BRANCH  24  25
ATOM     25  C   UNL     1       4.608   3.953   1.756  1.00  0.00     0.002 C 
BRANCH  25  26
ATOM     26  C   UNL     1       3.877   5.268   2.016  1.00  0.00     0.021 C 
BRANCH  26  27
ATOM     27  C   UNL     1       4.023   5.803   3.434  1.00  0.00     0.116 C 
BRANCH  27  28
ATOM     28  N   UNL     1       5.414   6.000   3.814  1.00  0.00    -0.352 N 
ATOM     29  C   UNL     1       5.993   7.075   4.439  1.00  0.00     0.251 C 
ATOM     30  H   UNL     1       6.023   5.260   3.592  1.00  0.00     0.163 HD
ATOM     31  O   UNL     1       7.216   7.143   4.540  1.00  0.00    -0.269 OA
BRANCH  29  32
ATOM     32  C   UNL     1       5.138   8.159   4.962  1.00  0.00     0.039 A 
ATOM     33  C   UNL     1       5.490   9.483   4.696  1.00  0.00     0.014 A 
ATOM     34  C   UNL     1       3.980   7.868   5.690  1.00  0.00     0.014 A 
ATOM     35  C   UNL     1       4.645  10.514   5.108  1.00  0.00     0.010 A 
ATOM     36  C   UNL     1       3.101   8.891   6.028  1.00  0.00     0.010 A 
ATOM     37  C   UNL     1       3.425  10.225   5.743  1.00  0.00    -0.014 A 
BRANCH  37  38
ATOM     38  C   UNL     1       2.473  11.309   6.094  1.00  0.00     0.031 A 
ATOM     39  C   UNL     1       2.123  11.583   7.530  1.00  0.00     0.074 A 
ATOM     40  C   UNL     1       1.887  12.017   5.107  1.00  0.00     0.049 A 
ATOM     41  N   UNL     1       1.316  12.488   8.022  1.00  0.00    -0.248 NA
ATOM     42  C   UNL     1       2.739  10.713   8.545  1.00  0.00     0.031 C 
ATOM     43  C   UNL     1       2.109  11.813   3.673  1.00  0.00     0.029 A 
ATOM     44  N   UNL     1       0.988  13.052   5.160  1.00  0.00    -0.354 N 
ATOM     45  C   UNL     1       1.319  12.291   9.398  1.00  0.00     0.074 A 
ATOM     46  C   UNL     1       2.163  11.145   9.657  1.00  0.00     0.031 C 
ATOM     47  C   UNL     1       1.401  12.722   2.986  1.00  0.00     0.029 A 
ATOM     48  C   UNL     1       0.640  13.543   3.923  1.00  0.00     0.049 A 
ATOM     49  H   UNL     1       0.626  13.409   6.002  1.00  0.00     0.167 HD
ATOM     50  C   UNL     1       0.692  13.010  10.361  1.00  0.00     0.031 A 
ATOM     51  C   UNL     1      -0.196  14.541   3.579  1.00  0.00     0.031 A 
ATOM     52  C   UNL     1      -0.151  14.146  10.094  1.00  0.00     0.049 A 
ATOM     53  C   UNL     1      -0.896  15.313   4.663  1.00  0.00     0.074 A 
ATOM     54  C   UNL     1      -0.786  14.977  11.001  1.00  0.00     0.029 A 
ATOM     55  N   UNL     1      -0.489  14.603   8.829  1.00  0.00    -0.354 N 
ATOM     56  N   UNL     1      -0.816  15.164   5.964  1.00  0.00    -0.248 NA
ATOM     57  C   UNL     1      -1.790  16.395   4.231  1.00  0.00     0.031 C 
ATOM     58  C   UNL     1      -1.560  15.895  10.283  1.00  0.00     0.029 A 
ATOM     59  C   UNL     1      -1.352  15.683   8.929  1.00  0.00     0.049 A 
ATOM     60  H   UNL     1      -0.164  14.217   7.983  1.00  0.00     0.167 HD
ATOM     61  C   UNL     1      -1.633  16.149   6.508  1.00  0.00     0.074 A 
ATOM     62  C   UNL     1      -2.179  16.899   5.395  1.00  0.00     0.031 C 
ATOM     63  C   UNL     1      -1.903  16.410   7.812  1.00  0.00     0.031 A 
BRANCH  50  64
ATOM     64  C   UNL     1       0.883  12.571  11.791  1.00  0.00    -0.014 A 
ATOM     65  C   UNL     1       2.135  12.676  12.428  1.00  0.00     0.010 A 
ATOM     66  C   UNL     1      -0.209  12.064  12.518  1.00  0.00     0.010 A 
ATOM     67  C   UNL     1       2.302  12.232  13.742  1.00  0.00     0.020 A 
ATOM     68  C   UNL     1      -0.054  11.650  13.845  1.00  0.00     0.020 A 
ATOM     69  C   UNL     1       1.206  11.717  14.441  1.00  0.00     0.054 A 
BRANCH  69  70
ATOM     70  S   UNL     1       1.452  11.150  16.146  1.00  0.00     0.124 S 
ATOM     71  O   UNL     1       2.223   9.925  15.947  1.00  0.00    -0.237 OA
ATOM     72  O   UNL     1       2.184  12.260  16.750  1.00  0.00    -0.237 OA
ATOM     73  O   UNL     1       0.094  10.956  16.647  1.00  0.00    -0.744 OA
ENDBRANCH  69  70
ENDBRANCH  50  64
BRANCH  51  74
ATOM     74  C   UNL     1      -0.390  14.881   2.143  1.00  0.00    -0.014 A 
ATOM     75  C   UNL     1       0.125  16.079   1.617  1.00  0.00     0.010 A 
ATOM     76  C   UNL     1      -1.060  13.990   1.283  1.00  0.00     0.010 A 
ATOM     77  C   UNL     1      -0.034  16.385   0.262  1.00  0.00     0.020 A 
ATOM     78  C   UNL     1      -1.194  14.278  -0.078  1.00  0.00     0.020 A 
ATOM     79  C   UNL     1      -0.686  15.478  -0.578  1.00  0.00     0.054 A 
BRANCH  79  80
ATOM     80  S   UNL     1      -0.815  15.865  -2.346  1.00  0.00     0.124 S 
ATOM     81  O   UNL     1      -1.790  16.951  -2.350  1.00  0.00    -0.237 OA
ATOM     82  O   UNL     1       0.555  16.242  -2.686  1.00  0.00    -0.237 OA
ATOM     83  O   UNL     1      -1.272  14.610  -2.939  1.00  0.00    -0.744 OA
ENDBRANCH  79  80
ENDBRANCH  51  74
BRANCH  63  84
ATOM     84  C   UNL     1      -2.818  17.571   8.108  1.00  0.00    -0.014 A 
ATOM     85  C   UNL     1      -4.191  17.515   7.808  1.00  0.00     0.010 A 
ATOM     86  C   UNL     1      -2.301  18.720   8.735  1.00  0.00     0.010 A 
ATOM     87  C   UNL     1      -5.021  18.603   8.094  1.00  0.00     0.020 A 
ATOM     88  C   UNL     1      -3.134  19.796   9.052  1.00  0.00     0.020 A 
ATOM     89  C   UNL     1      -4.487  19.736   8.713  1.00  0.00     0.054 A 
BRANCH  89  90
ATOM     90  S   UNL     1      -5.593  21.120   9.103  1.00  0.00     0.124 S 
ATOM     91  O   UNL     1      -5.857  21.679   7.780  1.00  0.00    -0.237 OA
ATOM     92  O   UNL     1      -6.725  20.455   9.742  1.00  0.00    -0.237 OA
ATOM     93  O   UNL     1      -4.794  21.965   9.987  1.00  0.00    -0.744 OA
ENDBRANCH  89  90
ENDBRANCH  63  84
ENDBRANCH  37  38
ENDBRANCH  29  32
ENDBRANCH  27  28
ENDBRANCH  26  27
ENDBRANCH  25  26
ENDBRANCH  24  25
ENDBRANCH   1  24
TORSDOF 21
