REMARK SMILES Cc1ccc2[nH]cc([C@@H](C(=O)NCCCCCCNC(=O)c3ccc(-c4c5nc(c(-c6ccc(S(=O)(=O)[O-])cc6)c6ccc([nH]6)c(-c6ccc(S(=O)(=O)[O-])cc6)c6nc(c(-c7ccc(S(=O)(=O)[O-])cc7)c7ccc4[nH]7)C=C6)C=C5)cc3)[NH+]3CCN(c4ccc(F)cc4)CC3)c2c1
REMARK SMILES IDX 16 1 15 2 14 3 13 4 12 5 10 6 11 7 9 9 8 10 1 11 2 12 3 13
REMARK SMILES IDX 96 14 4 15 95 16 5 17 6 18 7 19 82 21 83 22 94 23 84 25
REMARK SMILES IDX 93 26 85 27 86 28 87 29 92 30 88 31 91 32 89 33 90 34 17 35
REMARK SMILES IDX 18 36 19 37 20 38 21 40 22 41 23 42 81 43 24 44 80 45 25 46
REMARK SMILES IDX 26 47 27 48 74 49 28 50 79 51 73 52 75 53 29 54 78 55 72 56
REMARK SMILES IDX 71 57 30 59 60 60 41 61 59 62 42 63 45 64 58 65 76 66 43 67
REMARK SMILES IDX 44 68 57 70 77 71 46 72 31 73 32 74 40 75 33 76 39 77 34 78
REMARK SMILES IDX 35 79 36 80 37 81 38 82 61 83 62 84 70 85 63 86 69 87 64 88
REMARK SMILES IDX 65 89 66 90 67 91 68 92 47 93 48 94 56 95 49 96 55 97 50 98
REMARK SMILES IDX 51 99 52 100 53 101 54 102
REMARK H PARENT 12 8 6 20 82 24 19 39 75 58 45 69
REMARK Flexibility Score: inf
ROOT
ATOM      1  C   UNL     1      -0.724  -2.373   5.985  1.00  0.00     0.002 C 
ENDROOT
BRANCH   1   2
ATOM      2  C   UNL     1      -1.617  -1.541   5.062  1.00  0.00     0.002 C 
BRANCH   2   3
ATOM      3  C   UNL     1      -1.050  -1.335   3.655  1.00  0.00     0.021 C 
BRANCH   3   4
ATOM      4  C   UNL     1      -0.769  -2.643   2.916  1.00  0.00     0.116 C 
BRANCH   4   5
ATOM      5  N   UNL     1      -2.004  -3.305   2.557  1.00  0.00    -0.351 N 
ATOM      6  C   UNL     1      -2.674  -3.282   1.360  1.00  0.00     0.283 C 
ATOM      7  O   UNL     1      -3.779  -3.834   1.356  1.00  0.00    -0.268 OA
ATOM      8  H   UNL     1      -2.420  -3.845   3.267  1.00  0.00     0.163 HD
BRANCH   6   9
ATOM      9  C   UNL     1      -1.986  -2.658   0.099  1.00  0.00     0.307 C 
BRANCH   9  10
ATOM     10  C   UNL     1      -1.710  -1.177   0.230  1.00  0.00     0.044 A 
ATOM     11  C   UNL     1       3.384  -0.645  -0.184  1.00  0.00     0.044 C 
ATOM     12  C   UNL     1       1.979  -0.117  -0.116  1.00  0.00    -0.050 A 
ATOM     13  C   UNL     1       1.738   1.254  -0.001  1.00  0.00     0.005 A 
ATOM     14  C   UNL     1       0.897  -1.015  -0.112  1.00  0.00     0.014 A 
ATOM     15  C   UNL     1       0.444   1.753   0.174  1.00  0.00     0.027 A 
ATOM     16  C   UNL     1      -0.419  -0.542   0.098  1.00  0.00     0.009 A 
ATOM     17  C   UNL     1      -0.603   0.830   0.259  1.00  0.00     0.046 A 
ATOM     18  N   UNL     1      -1.936   1.031   0.520  1.00  0.00    -0.361 N 
ATOM     19  C   UNL     1      -2.589  -0.169   0.590  1.00  0.00     0.094 A 
ATOM     20  H   UNL     1      -2.360   1.911   0.640  1.00  0.00     0.166 HD
ENDBRANCH   9  10
BRANCH   9  21
ATOM     21  N   UNL     1      -2.679  -3.030  -1.159  1.00  0.00    -0.318 N 
ATOM     22  C   UNL     1      -4.072  -2.594  -1.344  1.00  0.00     0.284 C 
ATOM     23  C   UNL     1      -1.902  -2.802  -2.388  1.00  0.00     0.284 C 
ATOM     24  H   UNL     1      -2.748  -4.034  -0.996  1.00  0.00     0.349 HD
ATOM     25  C   UNL     1      -4.311  -1.227  -2.017  1.00  0.00     0.178 C 
ATOM     26  C   UNL     1      -2.031  -1.405  -3.037  1.00  0.00     0.178 C 
ATOM     27  N   UNL     1      -3.441  -1.009  -3.175  1.00  0.00    -0.360 N 
BRANCH  27  28
ATOM     28  C   UNL     1      -3.669   0.145  -3.919  1.00  0.00     0.037 A 
ATOM     29  C   UNL     1      -3.821   1.412  -3.333  1.00  0.00     0.029 A 
ATOM     30  C   UNL     1      -3.774   0.036  -5.311  1.00  0.00     0.029 A 
ATOM     31  C   UNL     1      -4.119   2.530  -4.114  1.00  0.00     0.041 A 
ATOM     32  C   UNL     1      -4.078   1.149  -6.096  1.00  0.00     0.041 A 
ATOM     33  C   UNL     1      -4.257   2.384  -5.488  1.00  0.00     0.123 A 
ATOM     34  F   UNL     1      -4.572   3.449  -6.237  1.00  0.00    -0.207 F 
ENDBRANCH  27  28
ENDBRANCH   9  21
ENDBRANCH   6   9
ENDBRANCH   4   5
ENDBRANCH   3   4
ENDBRANCH   2   3
ENDBRANCH   1   2
BRANCH   1  35
ATOM     35  C   UNL     1       0.713  -1.859   6.102  1.00  0.00     0.021 C 
BRANCH  35  36
ATOM     36  C   UNL     1       0.817  -0.428   6.616  1.00  0.00     0.116 C 
BRANCH  36  37
ATOM     37  N   UNL     1       0.272  -0.306   7.959  1.00  0.00    -0.352 N 
ATOM     38  C   UNL     1       0.894   0.115   9.107  1.00  0.00     0.251 C 
ATOM     39  H   UNL     1      -0.673  -0.562   8.058  1.00  0.00     0.163 HD
ATOM     40  O   UNL     1       0.375  -0.084  10.199  1.00  0.00    -0.269 OA
BRANCH  38  41
ATOM     41  C   UNL     1       2.197   0.803   9.011  1.00  0.00     0.039 A 
ATOM     42  C   UNL     1       3.221   0.446   9.889  1.00  0.00     0.014 A 
ATOM     43  C   UNL     1       2.402   1.799   8.051  1.00  0.00     0.014 A 
ATOM     44  C   UNL     1       4.472   1.056   9.770  1.00  0.00     0.010 A 
ATOM     45  C   UNL     1       3.669   2.346   7.883  1.00  0.00     0.010 A 
ATOM     46  C   UNL     1       4.714   1.988   8.747  1.00  0.00    -0.014 A 
BRANCH  46  47
ATOM     47  C   UNL     1       6.052   2.605   8.569  1.00  0.00     0.031 A 
ATOM     48  C   UNL     1       6.227   4.090   8.739  1.00  0.00     0.074 A 
ATOM     49  C   UNL     1       7.096   1.836   8.201  1.00  0.00     0.049 A 
ATOM     50  N   UNL     1       7.303   4.816   8.581  1.00  0.00    -0.248 NA
ATOM     51  C   UNL     1       5.031   4.863   9.113  1.00  0.00     0.031 C 
ATOM     52  C   UNL     1       7.045   0.390   7.973  1.00  0.00     0.029 A 
ATOM     53  N   UNL     1       8.405   2.165   7.952  1.00  0.00    -0.354 N 
ATOM     54  C   UNL     1       6.913   6.128   8.824  1.00  0.00     0.074 A 
ATOM     55  C   UNL     1       5.490   6.105   9.081  1.00  0.00     0.031 C 
ATOM     56  C   UNL     1       8.274  -0.048   7.654  1.00  0.00     0.029 A 
ATOM     57  C   UNL     1       9.188   1.088   7.607  1.00  0.00     0.049 A 
ATOM     58  H   UNL     1       8.751   3.084   8.015  1.00  0.00     0.167 HD
ATOM     59  C   UNL     1       7.674   7.249   8.854  1.00  0.00     0.031 A 
ATOM     60  C   UNL     1      10.494   1.024   7.284  1.00  0.00     0.031 A 
ATOM     61  C   UNL     1       9.090   7.265   8.596  1.00  0.00     0.049 A 
ATOM     62  C   UNL     1      11.311   2.287   7.288  1.00  0.00     0.074 A 
ATOM     63  C   UNL     1       9.960   8.340   8.643  1.00  0.00     0.029 A 
ATOM     64  N   UNL     1       9.843   6.156   8.240  1.00  0.00    -0.354 N 
ATOM     65  N   UNL     1      10.937   3.510   7.580  1.00  0.00    -0.248 NA
ATOM     66  C   UNL     1      12.730   2.159   6.929  1.00  0.00     0.031 C 
ATOM     67  C   UNL     1      11.227   7.893   8.255  1.00  0.00     0.029 A 
ATOM     68  C   UNL     1      11.162   6.526   8.036  1.00  0.00     0.049 A 
ATOM     69  H   UNL     1       9.492   5.242   8.146  1.00  0.00     0.167 HD
ATOM     70  C   UNL     1      12.082   4.292   7.472  1.00  0.00     0.074 A 
ATOM     71  C   UNL     1      13.163   3.401   7.102  1.00  0.00     0.031 C 
ATOM     72  C   UNL     1      12.227   5.627   7.665  1.00  0.00     0.031 A 
BRANCH  59  73
ATOM     73  C   UNL     1       6.981   8.551   9.167  1.00  0.00    -0.014 A 
ATOM     74  C   UNL     1       6.445   8.802  10.444  1.00  0.00     0.010 A 
ATOM     75  C   UNL     1       6.888   9.549   8.180  1.00  0.00     0.010 A 
ATOM     76  C   UNL     1       5.784  10.003  10.712  1.00  0.00     0.020 A 
ATOM     77  C   UNL     1       6.256  10.766   8.455  1.00  0.00     0.020 A 
ATOM     78  C   UNL     1       5.690  10.976   9.714  1.00  0.00     0.054 A 
BRANCH  78  79
ATOM     79  S   UNL     1       4.833  12.529  10.093  1.00  0.00     0.124 S 
ATOM     80  O   UNL     1       3.440  12.096  10.156  1.00  0.00    -0.237 OA
ATOM     81  O   UNL     1       5.428  12.918  11.370  1.00  0.00    -0.237 OA
ATOM     82  O   UNL     1       5.165  13.394   8.964  1.00  0.00    -0.744 OA
ENDBRANCH  78  79
ENDBRANCH  59  73
BRANCH  60  83
ATOM     83  C   UNL     1      11.114  -0.287   6.946  1.00  0.00    -0.014 A 
ATOM     84  C   UNL     1      12.052  -0.876   7.812  1.00  0.00     0.010 A 
ATOM     85  C   UNL     1      10.762  -0.960   5.762  1.00  0.00     0.010 A 
ATOM     86  C   UNL     1      12.642  -2.103   7.491  1.00  0.00     0.020 A 
ATOM     87  C   UNL     1      11.326  -2.201   5.452  1.00  0.00     0.020 A 
ATOM     88  C   UNL     1      12.272  -2.759   6.314  1.00  0.00     0.054 A 
BRANCH  88  89
ATOM     89  S   UNL     1      13.016  -4.371   5.941  1.00  0.00     0.124 S 
ATOM     90  O   UNL     1      14.384  -4.001   5.592  1.00  0.00    -0.237 OA
ATOM     91  O   UNL     1      12.855  -5.090   7.202  1.00  0.00    -0.237 OA
ATOM     92  O   UNL     1      12.202  -4.876   4.837  1.00  0.00    -0.744 OA
ENDBRANCH  88  89
ENDBRANCH  60  83
BRANCH  72  93
ATOM     93  C   UNL     1      13.611   6.203   7.519  1.00  0.00    -0.014 A 
ATOM     94  C   UNL     1      14.231   6.312   6.261  1.00  0.00     0.010 A 
ATOM     95  C   UNL     1      14.279   6.694   8.656  1.00  0.00     0.010 A 
ATOM     96  C   UNL     1      15.507   6.871   6.149  1.00  0.00     0.020 A 
ATOM     97  C   UNL     1      15.540   7.283   8.544  1.00  0.00     0.020 A 
ATOM     98  C   UNL     1      16.152   7.355   7.291  1.00  0.00     0.054 A 
BRANCH  98  99
ATOM     99  S   UNL     1      17.788   8.118   7.111  1.00  0.00     0.124 S 
ATOM    100  O   UNL     1      18.634   6.960   6.835  1.00  0.00    -0.237 OA
ATOM    101  O   UNL     1      17.590   9.034   5.990  1.00  0.00    -0.237 OA
ATOM    102  O   UNL     1      18.015   8.762   8.402  1.00  0.00    -0.744 OA
ENDBRANCH  98  99
ENDBRANCH  72  93
ENDBRANCH  46  47
ENDBRANCH  38  41
ENDBRANCH  36  37
ENDBRANCH  35  36
ENDBRANCH   1  35
TORSDOF 19
