REMARK SMILES CCOc1ccccc1N1CCN(c2ccc(NC(=O)C(C)(C)C)c(C(=O)NCCCCCCNC(=O)c3ccc(-c4c5nc(c(-c6ccc(S(=O)(=O)[O-])cc6)c6ccc([nH]6)c(-c6ccc(S(=O)(=O)[O-])cc6)c6nc(c(-c7ccc(S(=O)(=O)[O-])cc7)c7ccc4[nH]7)C=C6)C=C5)cc3)c2)CC1
REMARK SMILES IDX 31 1 30 2 29 3 28 4 26 5 27 6 25 8 14 9 15 10 98 11 16 12
REMARK SMILES IDX 17 13 13 14 10 15 11 16 100 17 12 18 99 19 9 20 4 21 5 22
REMARK SMILES IDX 6 23 8 24 7 25 3 26 2 27 1 28 18 29 19 30 20 32 21 33 22 34
REMARK SMILES IDX 23 35 24 36 32 37 33 38 34 39 35 40 36 41 37 43 38 44 39 45
REMARK SMILES IDX 97 46 40 47 96 48 41 49 42 50 43 51 90 52 44 53 95 54 89 55
REMARK SMILES IDX 91 56 45 57 94 58 88 59 87 60 46 62 76 63 57 64 75 65 58 66
REMARK SMILES IDX 61 67 74 68 92 69 59 70 60 71 73 73 93 74 62 75 47 76 48 77
REMARK SMILES IDX 56 78 49 79 55 80 50 81 51 82 52 83 53 84 54 85 77 86 78 87
REMARK SMILES IDX 86 88 79 89 85 90 80 91 81 92 82 93 83 94 84 95 63 96 64 97
REMARK SMILES IDX 72 98 65 99 71 100 66 101 67 102 68 103 69 104 70 105
REMARK H PARENT 28 7 18 31 35 42 91 61 61 72
REMARK Flexibility Score: inf
ROOT
ATOM      1  C   UNL     1       2.392  -1.104   7.358  1.00  0.00     0.002 C 
ENDROOT
BRANCH   1   2
ATOM      2  C   UNL     1       2.515  -0.259   6.096  1.00  0.00     0.021 C 
BRANCH   2   3
ATOM      3  C   UNL     1       1.225   0.298   5.511  1.00  0.00     0.116 C 
BRANCH   3   4
ATOM      4  N   UNL     1       0.523   1.320   6.286  1.00  0.00    -0.352 N 
ATOM      5  C   UNL     1      -0.257   2.397   5.865  1.00  0.00     0.253 C 
ATOM      6  O   UNL     1      -0.759   3.135   6.713  1.00  0.00    -0.269 OA
ATOM      7  H   UNL     1       0.616   1.234   7.263  1.00  0.00     0.163 HD
BRANCH   5   8
ATOM      8  C   UNL     1      -0.423   2.739   4.412  1.00  0.00     0.065 A 
ATOM      9  C   UNL     1       0.240   1.928   2.251  1.00  0.00     0.038 A 
ATOM     10  C   UNL     1       0.157   3.227   1.772  1.00  0.00     0.028 A 
ATOM     11  C   UNL     1      -0.328   1.694   3.490  1.00  0.00     0.042 A 
ATOM     12  C   UNL     1      -0.278   4.266   2.589  1.00  0.00     0.029 A 
ATOM     13  C   UNL     1      -0.514   4.072   3.946  1.00  0.00     0.054 A 
BRANCH   9  14
ATOM     14  N   UNL     1       1.033   0.972   1.639  1.00  0.00    -0.368 N 
ATOM     15  N   UNL     1       2.629  -0.808   0.133  1.00  0.00    -0.365 N 
ATOM     16  C   UNL     1       3.268   0.414   0.584  1.00  0.00     0.138 C 
ATOM     17  C   UNL     1       1.740  -1.433   1.108  1.00  0.00     0.138 C 
ATOM     18  C   UNL     1       2.192   1.466   0.864  1.00  0.00     0.138 C 
ATOM     19  C   UNL     1       0.657  -0.458   1.620  1.00  0.00     0.138 C 
BRANCH  15  20
ATOM     20  C   UNL     1       3.181  -1.575  -0.873  1.00  0.00     0.079 A 
ATOM     21  C   UNL     1       2.384  -2.137  -1.889  1.00  0.00     0.142 A 
ATOM     22  C   UNL     1       2.950  -2.885  -2.924  1.00  0.00     0.048 A 
ATOM     23  C   UNL     1       4.330  -3.081  -2.963  1.00  0.00     0.004 A 
ATOM     24  C   UNL     1       4.565  -1.796  -0.932  1.00  0.00     0.030 A 
ATOM     25  C   UNL     1       5.136  -2.545  -1.962  1.00  0.00     0.002 A 
BRANCH  21  26
ATOM     26  O   UNL     1       1.015  -2.014  -1.833  1.00  0.00    -0.492 OA
BRANCH  26  27
ATOM     27  C   UNL     1       0.515  -1.013  -2.725  1.00  0.00     0.226 C 
ATOM     28  C   UNL     1       0.012   0.176  -1.928  1.00  0.00     0.049 C 
ENDBRANCH  26  27
ENDBRANCH  21  26
ENDBRANCH  15  20
ENDBRANCH   9  14
BRANCH  13  29
ATOM     29  N   UNL     1      -0.825   5.124   4.846  1.00  0.00    -0.325 N 
ATOM     30  C   UNL     1      -1.124   6.459   4.765  1.00  0.00     0.229 C 
ATOM     31  H   UNL     1      -0.825   4.811   5.780  1.00  0.00     0.169 HD
ATOM     32  O   UNL     1      -1.313   7.038   5.845  1.00  0.00    -0.274 OA
BRANCH  30  33
ATOM     33  C   UNL     1      -1.236   7.270   3.451  1.00  0.00     0.041 C 
ATOM     34  C   UNL     1       0.169   7.442   2.828  1.00  0.00     0.021 C 
ATOM     35  C   UNL     1      -2.304   6.657   2.516  1.00  0.00     0.021 C 
ATOM     36  C   UNL     1      -1.734   8.710   3.739  1.00  0.00     0.021 C 
ENDBRANCH  30  33
ENDBRANCH  13  29
ENDBRANCH   5   8
ENDBRANCH   3   4
ENDBRANCH   2   3
ENDBRANCH   1   2
BRANCH   1  37
ATOM     37  C   UNL     1       1.427  -2.292   7.300  1.00  0.00     0.002 C 
BRANCH  37  38
ATOM     38  C   UNL     1       1.618  -3.285   6.150  1.00  0.00     0.021 C 
BRANCH  38  39
ATOM     39  C   UNL     1       3.020  -3.868   5.989  1.00  0.00     0.116 C 
BRANCH  39  40
ATOM     40  N   UNL     1       3.480  -4.569   7.176  1.00  0.00    -0.352 N 
ATOM     41  C   UNL     1       3.910  -5.865   7.320  1.00  0.00     0.251 C 
ATOM     42  H   UNL     1       3.485  -4.034   8.002  1.00  0.00     0.163 HD
ATOM     43  O   UNL     1       4.111  -6.320   8.446  1.00  0.00    -0.269 OA
BRANCH  41  44
ATOM     44  C   UNL     1       4.106  -6.724   6.133  1.00  0.00     0.039 A 
ATOM     45  C   UNL     1       3.598  -8.026   6.148  1.00  0.00     0.014 A 
ATOM     46  C   UNL     1       4.788  -6.253   5.007  1.00  0.00     0.014 A 
ATOM     47  C   UNL     1       3.706  -8.826   5.008  1.00  0.00     0.010 A 
ATOM     48  C   UNL     1       4.833  -7.026   3.849  1.00  0.00     0.010 A 
ATOM     49  C   UNL     1       4.286  -8.318   3.834  1.00  0.00    -0.014 A 
BRANCH  49  50
ATOM     50  C   UNL     1       4.304  -9.112   2.577  1.00  0.00     0.031 A 
ATOM     51  C   UNL     1       5.609  -9.532   1.958  1.00  0.00     0.074 A 
ATOM     52  C   UNL     1       3.141  -9.397   1.956  1.00  0.00     0.049 A 
ATOM     53  N   UNL     1       5.822 -10.171   0.836  1.00  0.00    -0.248 NA
ATOM     54  C   UNL     1       6.838  -9.168   2.683  1.00  0.00     0.031 C 
ATOM     55  C   UNL     1       1.810  -9.017   2.435  1.00  0.00     0.029 A 
ATOM     56  N   UNL     1       2.890 -10.066   0.784  1.00  0.00    -0.354 N 
ATOM     57  C   UNL     1       7.202 -10.276   0.714  1.00  0.00     0.074 A 
ATOM     58  C   UNL     1       7.779  -9.591   1.851  1.00  0.00     0.031 C 
ATOM     59  C   UNL     1       0.885  -9.478   1.579  1.00  0.00     0.029 A 
ATOM     60  C   UNL     1       1.554 -10.144   0.467  1.00  0.00     0.049 A 
ATOM     61  H   UNL     1       3.600 -10.453   0.222  1.00  0.00     0.167 HD
ATOM     62  C   UNL     1       7.925 -10.899  -0.248  1.00  0.00     0.031 A 
ATOM     63  C   UNL     1       0.935 -10.678  -0.605  1.00  0.00     0.031 A 
ATOM     64  C   UNL     1       7.346 -11.578  -1.379  1.00  0.00     0.049 A 
ATOM     65  C   UNL     1       1.761 -11.334  -1.677  1.00  0.00     0.074 A 
ATOM     66  C   UNL     1       7.992 -12.283  -2.380  1.00  0.00     0.029 A 
ATOM     67  N   UNL     1       5.990 -11.630  -1.665  1.00  0.00    -0.354 N 
ATOM     68  N   UNL     1       3.063 -11.484  -1.738  1.00  0.00    -0.248 NA
ATOM     69  C   UNL     1       1.033 -11.902  -2.821  1.00  0.00     0.031 C 
ATOM     70  C   UNL     1       7.033 -12.706  -3.305  1.00  0.00     0.029 A 
ATOM     71  C   UNL     1       5.782 -12.326  -2.845  1.00  0.00     0.049 A 
ATOM     72  H   UNL     1       5.280 -11.232  -1.112  1.00  0.00     0.167 HD
ATOM     73  C   UNL     1       3.308 -12.184  -2.914  1.00  0.00     0.074 A 
ATOM     74  C   UNL     1       2.019 -12.446  -3.522  1.00  0.00     0.031 C 
ATOM     75  C   UNL     1       4.494 -12.575  -3.443  1.00  0.00     0.031 A 
BRANCH  62  76
ATOM     76  C   UNL     1       9.427 -10.864  -0.128  1.00  0.00    -0.014 A 
ATOM     77  C   UNL     1      10.094 -11.569   0.891  1.00  0.00     0.010 A 
ATOM     78  C   UNL     1      10.187 -10.153  -1.075  1.00  0.00     0.010 A 
ATOM     79  C   UNL     1      11.487 -11.529   0.986  1.00  0.00     0.020 A 
ATOM     80  C   UNL     1      11.584 -10.136  -1.002  1.00  0.00     0.020 A 
ATOM     81  C   UNL     1      12.223 -10.810   0.039  1.00  0.00     0.054 A 
BRANCH  81  82
ATOM     82  S   UNL     1      14.032 -10.795   0.175  1.00  0.00     0.124 S 
ATOM     83  O   UNL     1      14.237  -9.960   1.356  1.00  0.00    -0.237 OA
ATOM     84  O   UNL     1      14.352 -12.210   0.344  1.00  0.00    -0.237 OA
ATOM     85  O   UNL     1      14.471 -10.205  -1.087  1.00  0.00    -0.744 OA
ENDBRANCH  81  82
ENDBRANCH  62  76
BRANCH  63  86
ATOM     86  C   UNL     1      -0.550 -10.614  -0.715  1.00  0.00    -0.014 A 
ATOM     87  C   UNL     1      -1.326 -11.782  -0.611  1.00  0.00     0.010 A 
ATOM     88  C   UNL     1      -1.197  -9.380  -0.915  1.00  0.00     0.010 A 
ATOM     89  C   UNL     1      -2.718 -11.720  -0.725  1.00  0.00     0.020 A 
ATOM     90  C   UNL     1      -2.590  -9.310  -0.997  1.00  0.00     0.020 A 
ATOM     91  C   UNL     1      -3.342 -10.484  -0.913  1.00  0.00     0.054 A 
BRANCH  91  92
ATOM     92  S   UNL     1      -5.153 -10.423  -1.007  1.00  0.00     0.124 S 
ATOM     93  O   UNL     1      -5.409 -11.021  -2.314  1.00  0.00    -0.237 OA
ATOM     94  O   UNL     1      -5.554 -11.224   0.146  1.00  0.00    -0.237 OA
ATOM     95  O   UNL     1      -5.453  -8.997  -0.901  1.00  0.00    -0.744 OA
ENDBRANCH  91  92
ENDBRANCH  63  86
BRANCH  75  96
ATOM     96  C   UNL     1       4.457 -13.353  -4.733  1.00  0.00    -0.014 A 
ATOM     97  C   UNL     1       4.108 -12.736  -5.948  1.00  0.00     0.010 A 
ATOM     98  C   UNL     1       4.832 -14.709  -4.737  1.00  0.00     0.010 A 
ATOM     99  C   UNL     1       4.106 -13.470  -7.138  1.00  0.00     0.020 A 
ATOM    100  C   UNL     1       4.862 -15.438  -5.929  1.00  0.00     0.020 A 
ATOM    101  C   UNL     1       4.486 -14.816  -7.121  1.00  0.00     0.054 A 
BRANCH 101 102
ATOM    102  S   UNL     1       4.521 -15.730  -8.686  1.00  0.00     0.124 S 
ATOM    103  O   UNL     1       3.099 -15.884  -8.981  1.00  0.00    -0.237 OA
ATOM    104  O   UNL     1       5.252 -14.824  -9.569  1.00  0.00    -0.237 OA
ATOM    105  O   UNL     1       5.225 -16.966  -8.351  1.00  0.00    -0.744 OA
ENDBRANCH 101 102
ENDBRANCH  75  96
ENDBRANCH  49  50
ENDBRANCH  41  44
ENDBRANCH  39  40
ENDBRANCH  38  39
ENDBRANCH  37  38
ENDBRANCH   1  37
TORSDOF 22
