REMARK SMILES O=C(NCCCCCCNC(=O)c1cc(-c2ccn(C(F)F)c(=O)c2)ccc1O)c1ccc(-c2c3nc(c(-c4ccc(S(=O)(=O)[O-])cc4)c4ccc([nH]4)c(-c4ccc(S(=O)(=O)[O-])cc4)c4nc(c(-c5ccc(S(=O)(=O)[O-])cc5)c5ccc2[nH]5)C=C4)C=C3)cc1
REMARK SMILES IDX 6 1 5 2 4 3 3 4 1 5 2 6 30 8 31 9 89 10 32 11 88 12 33 13
REMARK SMILES IDX 34 14 35 15 82 16 36 17 87 18 81 19 83 20 37 21 86 22 80 23
REMARK SMILES IDX 79 24 38 26 68 27 49 28 67 29 50 30 53 31 66 32 84 33 51 34
REMARK SMILES IDX 52 35 65 37 85 38 54 39 39 40 40 41 48 42 41 43 47 44 42 45
REMARK SMILES IDX 43 46 44 47 45 48 46 49 69 50 70 51 78 52 71 53 77 54 72 55
REMARK SMILES IDX 73 56 74 57 75 58 76 59 55 60 56 61 64 62 57 63 63 64 58 65
REMARK SMILES IDX 59 66 60 67 61 68 62 69 7 70 8 71 9 72 10 73 11 74 12 76
REMARK SMILES IDX 13 77 14 78 28 79 15 80 27 81 26 82 29 83 16 85 17 86 25 87
REMARK SMILES IDX 18 88 23 89 19 90 24 91 20 92 21 93 22 94
REMARK H PARENT 3 7 83 25 53 36 10 75 29 84
REMARK Flexibility Score: inf
ROOT
ATOM      1  C   UNL     1       4.346  -1.045  -3.711  1.00  0.00     0.002 C 
ENDROOT
BRANCH   1   2
ATOM      2  C   UNL     1       4.845  -1.324  -2.291  1.00  0.00     0.021 C 
BRANCH   2   3
ATOM      3  C   UNL     1       4.571  -0.221  -1.274  1.00  0.00     0.116 C 
BRANCH   3   4
ATOM      4  N   UNL     1       3.151   0.033  -1.105  1.00  0.00    -0.352 N 
ATOM      5  O   UNL     1       1.175   0.134  -0.044  1.00  0.00    -0.269 OA
ATOM      6  C   UNL     1       2.402   0.086   0.041  1.00  0.00     0.251 C 
ATOM      7  H   UNL     1       2.652   0.191  -1.939  1.00  0.00     0.163 HD
BRANCH   6   8
ATOM      8  C   UNL     1       3.048   0.080   1.373  1.00  0.00     0.039 A 
ATOM      9  C   UNL     1       2.440  -0.637   2.409  1.00  0.00     0.014 A 
ATOM     10  C   UNL     1       4.202   0.827   1.630  1.00  0.00     0.014 A 
ATOM     11  C   UNL     1       2.992  -0.614   3.692  1.00  0.00     0.010 A 
ATOM     12  C   UNL     1       4.792   0.790   2.892  1.00  0.00     0.010 A 
ATOM     13  C   UNL     1       4.175   0.097   3.944  1.00  0.00    -0.014 A 
BRANCH  13  14
ATOM     14  C   UNL     1       4.732   0.196   5.317  1.00  0.00     0.031 A 
ATOM     15  C   UNL     1       4.759   1.531   6.015  1.00  0.00     0.074 A 
ATOM     16  C   UNL     1       5.227  -0.897   5.931  1.00  0.00     0.049 A 
ATOM     17  N   UNL     1       5.237   1.834   7.195  1.00  0.00    -0.248 NA
ATOM     18  C   UNL     1       4.194   2.680   5.286  1.00  0.00     0.031 C 
ATOM     19  C   UNL     1       5.267  -2.242   5.356  1.00  0.00     0.029 A 
ATOM     20  N   UNL     1       5.785  -1.051   7.177  1.00  0.00    -0.354 N 
ATOM     21  C   UNL     1       5.042   3.202   7.341  1.00  0.00     0.074 A 
ATOM     22  C   UNL     1       4.457   3.683   6.111  1.00  0.00     0.031 C 
ATOM     23  C   UNL     1       5.787  -3.089   6.258  1.00  0.00     0.029 A 
ATOM     24  C   UNL     1       6.158  -2.344   7.460  1.00  0.00     0.049 A 
ATOM     25  H   UNL     1       5.907  -0.305   7.808  1.00  0.00     0.167 HD
ATOM     26  C   UNL     1       5.299   3.983   8.416  1.00  0.00     0.031 A 
ATOM     27  C   UNL     1       6.730  -2.875   8.560  1.00  0.00     0.031 A 
ATOM     28  C   UNL     1       5.848   3.492   9.651  1.00  0.00     0.049 A 
ATOM     29  C   UNL     1       7.020  -1.986   9.739  1.00  0.00     0.074 A 
ATOM     30  C   UNL     1       6.096   4.198  10.815  1.00  0.00     0.029 A 
ATOM     31  N   UNL     1       6.221   2.179   9.890  1.00  0.00    -0.354 N 
ATOM     32  N   UNL     1       6.791  -0.702   9.874  1.00  0.00    -0.248 NA
ATOM     33  C   UNL     1       7.633  -2.615  10.918  1.00  0.00     0.031 C 
ATOM     34  C   UNL     1       6.678   3.326  11.736  1.00  0.00     0.029 A 
ATOM     35  C   UNL     1       6.724   2.059  11.174  1.00  0.00     0.049 A 
ATOM     36  H   UNL     1       6.141   1.441   9.243  1.00  0.00     0.167 HD
ATOM     37  C   UNL     1       7.213  -0.372  11.157  1.00  0.00     0.074 A 
ATOM     38  C   UNL     1       7.697  -1.594  11.765  1.00  0.00     0.031 C 
ATOM     39  C   UNL     1       7.202   0.836  11.772  1.00  0.00     0.031 A 
BRANCH  26  40
ATOM     40  C   UNL     1       4.970   5.451   8.326  1.00  0.00    -0.014 A 
ATOM     41  C   UNL     1       6.004   6.405   8.377  1.00  0.00     0.010 A 
ATOM     42  C   UNL     1       3.635   5.893   8.302  1.00  0.00     0.010 A 
ATOM     43  C   UNL     1       5.710   7.769   8.435  1.00  0.00     0.020 A 
ATOM     44  C   UNL     1       3.337   7.258   8.328  1.00  0.00     0.020 A 
ATOM     45  C   UNL     1       4.376   8.187   8.419  1.00  0.00     0.054 A 
BRANCH  45  46
ATOM     46  S   UNL     1       4.011   9.960   8.520  1.00  0.00     0.124 S 
ATOM     47  O   UNL     1       4.253  10.245   9.931  1.00  0.00    -0.237 OA
ATOM     48  O   UNL     1       4.973  10.538   7.584  1.00  0.00    -0.237 OA
ATOM     49  O   UNL     1       2.615  10.046   8.094  1.00  0.00    -0.744 OA
ENDBRANCH  45  46
ENDBRANCH  26  40
BRANCH  27  50
ATOM     50  C   UNL     1       7.017  -4.337   8.594  1.00  0.00    -0.014 A 
ATOM     51  C   UNL     1       8.001  -4.891   7.754  1.00  0.00     0.010 A 
ATOM     52  C   UNL     1       6.245  -5.194   9.398  1.00  0.00     0.010 A 
ATOM     53  C   UNL     1       8.167  -6.275   7.671  1.00  0.00     0.020 A 
ATOM     54  C   UNL     1       6.429  -6.580   9.340  1.00  0.00     0.020 A 
ATOM     55  C   UNL     1       7.367  -7.113   8.452  1.00  0.00     0.054 A 
BRANCH  55  56
ATOM     56  S   UNL     1       7.553  -8.909   8.275  1.00  0.00     0.124 S 
ATOM     57  O   UNL     1       6.881  -9.154   7.002  1.00  0.00    -0.237 OA
ATOM     58  O   UNL     1       9.003  -9.081   8.264  1.00  0.00    -0.237 OA
ATOM     59  O   UNL     1       6.874  -9.441   9.454  1.00  0.00    -0.744 OA
ENDBRANCH  55  56
ENDBRANCH  27  50
BRANCH  39  60
ATOM     60  C   UNL     1       7.724   0.929  13.182  1.00  0.00    -0.014 A 
ATOM     61  C   UNL     1       6.841   1.248  14.232  1.00  0.00     0.010 A 
ATOM     62  C   UNL     1       9.103   0.858  13.445  1.00  0.00     0.010 A 
ATOM     63  C   UNL     1       7.330   1.539  15.507  1.00  0.00     0.020 A 
ATOM     64  C   UNL     1       9.594   1.119  14.728  1.00  0.00     0.020 A 
ATOM     65  C   UNL     1       8.706   1.485  15.743  1.00  0.00     0.054 A 
BRANCH  65  66
ATOM     66  S   UNL     1       9.328   1.914  17.392  1.00  0.00     0.124 S 
ATOM     67  O   UNL     1       9.225   3.370  17.391  1.00  0.00    -0.237 OA
ATOM     68  O   UNL     1       8.398   1.217  18.278  1.00  0.00    -0.237 OA
ATOM     69  O   UNL     1      10.690   1.385  17.393  1.00  0.00    -0.744 OA
ENDBRANCH  65  66
ENDBRANCH  39  60
ENDBRANCH  13  14
ENDBRANCH   6   8
ENDBRANCH   3   4
ENDBRANCH   2   3
ENDBRANCH   1   2
BRANCH   1  70
ATOM     70  C   UNL     1       4.837   0.261  -4.343  1.00  0.00     0.002 C 
BRANCH  70  71
ATOM     71  C   UNL     1       6.354   0.463  -4.353  1.00  0.00     0.021 C 
BRANCH  71  72
ATOM     72  C   UNL     1       7.155  -0.658  -5.007  1.00  0.00     0.116 C 
BRANCH  72  73
ATOM     73  N   UNL     1       6.858  -0.797  -6.422  1.00  0.00    -0.352 N 
ATOM     74  C   UNL     1       7.737  -0.965  -7.461  1.00  0.00     0.255 C 
ATOM     75  H   UNL     1       5.905  -0.768  -6.665  1.00  0.00     0.163 HD
ATOM     76  O   UNL     1       7.332  -1.000  -8.623  1.00  0.00    -0.269 OA
BRANCH  74  77
ATOM     77  C   UNL     1       9.189  -1.027  -7.200  1.00  0.00     0.082 A 
ATOM     78  C   UNL     1       9.997  -0.068  -7.829  1.00  0.00     0.026 A 
ATOM     79  C   UNL     1       9.765  -2.007  -6.382  1.00  0.00     0.128 A 
ATOM     80  C   UNL     1      11.377  -0.060  -7.601  1.00  0.00    -0.017 A 
ATOM     81  C   UNL     1      11.136  -1.993  -6.138  1.00  0.00     0.047 A 
ATOM     82  C   UNL     1      11.935  -1.019  -6.740  1.00  0.00     0.012 A 
BRANCH  79  83
ATOM     83  O   UNL     1       8.993  -2.982  -5.818  1.00  0.00    -0.507 OA
ATOM     84  H   UNL     1       8.070  -3.000  -5.976  1.00  0.00     0.293 HD
ENDBRANCH  79  83
BRANCH  80  85
ATOM     85  C   UNL     1      12.271   0.907  -8.263  1.00  0.00    -0.011 A 
ATOM     86  C   UNL     1      13.295   0.483  -9.199  1.00  0.00     0.027 A 
ATOM     87  C   UNL     1      12.179   2.209  -7.941  1.00  0.00     0.080 A 
ATOM     88  C   UNL     1      14.181   1.359  -9.682  1.00  0.00     0.095 A 
ATOM     89  C   UNL     1      13.143   3.202  -8.495  1.00  0.00     0.255 A 
ATOM     90  N   UNL     1      14.127   2.693  -9.328  1.00  0.00    -0.258 N 
ATOM     91  O   UNL     1      13.024   4.382  -8.172  1.00  0.00    -0.269 OA
BRANCH  90  92
ATOM     92  C   UNL     1      15.126   3.615  -9.804  1.00  0.00     0.451 C 
ATOM     93  F   UNL     1      14.570   4.624 -10.517  1.00  0.00    -0.185 F 
ATOM     94  F   UNL     1      15.818   4.157  -8.773  1.00  0.00    -0.185 F 
ENDBRANCH  90  92
ENDBRANCH  80  85
ENDBRANCH  74  77
ENDBRANCH  72  73
ENDBRANCH  71  72
ENDBRANCH  70  71
ENDBRANCH   1  70
TORSDOF 19
