REMARK SMILES Cc1cccc(C[NH+]2CCC(OCC(=O)NCCCCCCNC(=O)c3ccc(-c4c5nc(c(-c6ccc(S(=O)(=O)[O-])cc6)c6ccc([nH]6)c(-c6ccc(S(=O)(=O)[O-])cc6)c6nc(c(-c7ccc(S(=O)(=O)[O-])cc7)c7ccc4[nH]7)C=C6)C=C5)cc3)CC2)n1
REMARK SMILES IDX 19 1 18 2 17 3 16 4 14 5 15 6 13 8 12 9 11 10 8 11 9 12
REMARK SMILES IDX 87 13 10 15 86 16 7 17 6 18 1 19 2 20 3 21 88 22 4 23 5 24
REMARK SMILES IDX 20 25 21 26 22 27 23 28 24 29 25 31 26 32 27 33 85 34 28 35
REMARK SMILES IDX 84 36 29 37 30 38 31 39 78 40 32 41 83 42 77 43 79 44 33 45
REMARK SMILES IDX 82 46 76 47 75 48 34 50 64 51 45 52 63 53 46 54 49 55 62 56
REMARK SMILES IDX 80 57 47 58 48 59 61 61 81 62 50 63 35 64 36 65 44 66 37 67
REMARK SMILES IDX 43 68 38 69 39 70 40 71 41 72 42 73 65 74 66 75 74 76 67 77
REMARK SMILES IDX 73 78 68 79 69 80 70 81 71 82 72 83 51 84 52 85 60 86 53 87
REMARK SMILES IDX 59 88 54 89 55 90 56 91 57 92 58 93
REMARK H PARENT 16 7 8 14 23 30 79 49 49 60
REMARK Flexibility Score: inf
ROOT
ATOM      1  C   UNL     1       4.316   6.371   2.191  1.00  0.00     0.002 C 
ENDROOT
BRANCH   1   2
ATOM      2  C   UNL     1       3.712   5.873   3.510  1.00  0.00     0.021 C 
BRANCH   2   3
ATOM      3  C   UNL     1       2.749   6.846   4.192  1.00  0.00     0.116 C 
BRANCH   3   4
ATOM      4  N   UNL     1       1.686   7.317   3.326  1.00  0.00    -0.354 N 
ATOM      5  C   UNL     1       0.340   7.128   3.455  1.00  0.00     0.246 C 
ATOM      6  O   UNL     1      -0.423   7.750   2.713  1.00  0.00    -0.272 OA
ATOM      7  H   UNL     1       1.972   7.841   2.543  1.00  0.00     0.163 HD
BRANCH   5   8
ATOM      8  C   UNL     1      -0.189   6.156   4.518  1.00  0.00     0.260 C 
BRANCH   8   9
ATOM      9  O   UNL     1       0.367   4.853   4.570  1.00  0.00    -0.368 OA
BRANCH   9  10
ATOM     10  C   UNL     1       0.026   3.936   3.526  1.00  0.00     0.130 C 
ATOM     11  N   UNL     1      -1.286   3.085   1.089  1.00  0.00    -0.330 N 
ATOM     12  C   UNL     1      -1.744   2.542   2.372  1.00  0.00     0.265 C 
ATOM     13  C   UNL     1       0.164   3.318   1.109  1.00  0.00     0.265 C 
ATOM     14  H   UNL     1      -1.761   3.980   0.973  1.00  0.00     0.348 HD
ATOM     15  C   UNL     1      -1.453   3.534   3.507  1.00  0.00     0.093 C 
ATOM     16  C   UNL     1       0.487   4.379   2.139  1.00  0.00     0.093 C 
BRANCH  11  17
ATOM     17  C   UNL     1      -1.684   2.271  -0.080  1.00  0.00     0.319 C 
BRANCH  17  18
ATOM     18  C   UNL     1      -1.070   0.885  -0.176  1.00  0.00     0.095 A 
ATOM     19  C   UNL     1       2.381  -0.363  -0.248  1.00  0.00     0.067 C 
ATOM     20  C   UNL     1       0.883  -0.385  -0.260  1.00  0.00     0.038 A 
ATOM     21  C   UNL     1       0.167  -1.561  -0.089  1.00  0.00     0.023 A 
ATOM     22  N   UNL     1       0.276   0.816  -0.345  1.00  0.00    -0.252 NA
ATOM     23  C   UNL     1      -1.220  -1.491   0.007  1.00  0.00     0.004 A 
ATOM     24  C   UNL     1      -1.852  -0.252  -0.022  1.00  0.00     0.030 A 
ENDBRANCH  17  18
ENDBRANCH  11  17
ENDBRANCH   9  10
ENDBRANCH   8   9
ENDBRANCH   5   8
ENDBRANCH   3   4
ENDBRANCH   2   3
ENDBRANCH   1   2
BRANCH   1  25
ATOM     25  C   UNL     1       5.070   7.700   2.288  1.00  0.00     0.002 C 
BRANCH  25  26
ATOM     26  C   UNL     1       6.160   7.747   3.360  1.00  0.00     0.021 C 
BRANCH  26  27
ATOM     27  C   UNL     1       7.249   6.691   3.208  1.00  0.00     0.116 C 
BRANCH  27  28
ATOM     28  N   UNL     1       8.051   6.902   2.015  1.00  0.00    -0.352 N 
ATOM     29  C   UNL     1       9.412   7.038   1.903  1.00  0.00     0.251 C 
ATOM     30  H   UNL     1       7.549   6.954   1.170  1.00  0.00     0.163 HD
ATOM     31  O   UNL     1       9.905   7.419   0.842  1.00  0.00    -0.269 OA
BRANCH  29  32
ATOM     32  C   UNL     1      10.282   6.748   3.063  1.00  0.00     0.039 A 
ATOM     33  C   UNL     1      11.321   7.629   3.369  1.00  0.00     0.014 A 
ATOM     34  C   UNL     1      10.075   5.609   3.848  1.00  0.00     0.014 A 
ATOM     35  C   UNL     1      12.116   7.398   4.494  1.00  0.00     0.010 A 
ATOM     36  C   UNL     1      10.819   5.422   5.011  1.00  0.00     0.010 A 
ATOM     37  C   UNL     1      11.852   6.311   5.344  1.00  0.00    -0.014 A 
BRANCH  37  38
ATOM     38  C   UNL     1      12.648   6.092   6.581  1.00  0.00     0.031 A 
ATOM     39  C   UNL     1      13.488   4.851   6.732  1.00  0.00     0.074 A 
ATOM     40  C   UNL     1      12.586   6.991   7.583  1.00  0.00     0.049 A 
ATOM     41  N   UNL     1      14.219   4.469   7.749  1.00  0.00    -0.248 NA
ATOM     42  C   UNL     1      13.495   3.906   5.602  1.00  0.00     0.031 C 
ATOM     43  C   UNL     1      11.786   8.219   7.574  1.00  0.00     0.029 A 
ATOM     44  N   UNL     1      13.209   7.014   8.807  1.00  0.00    -0.354 N 
ATOM     45  C   UNL     1      14.771   3.247   7.382  1.00  0.00     0.074 A 
ATOM     46  C   UNL     1      14.240   2.919   6.077  1.00  0.00     0.031 C 
ATOM     47  C   UNL     1      11.994   8.890   8.719  1.00  0.00     0.029 A 
ATOM     48  C   UNL     1      12.903   8.122   9.563  1.00  0.00     0.049 A 
ATOM     49  H   UNL     1      13.817   6.304   9.114  1.00  0.00     0.167 HD
ATOM     50  C   UNL     1      15.664   2.481   8.054  1.00  0.00     0.031 A 
ATOM     51  C   UNL     1      13.303   8.477  10.800  1.00  0.00     0.031 A 
ATOM     52  C   UNL     1      16.190   2.807   9.353  1.00  0.00     0.049 A 
ATOM     53  C   UNL     1      14.255   7.580  11.547  1.00  0.00     0.074 A 
ATOM     54  C   UNL     1      17.114   2.104  10.108  1.00  0.00     0.029 A 
ATOM     55  N   UNL     1      15.845   3.930  10.089  1.00  0.00    -0.354 N 
ATOM     56  N   UNL     1      14.803   6.453  11.159  1.00  0.00    -0.248 NA
ATOM     57  C   UNL     1      14.652   8.011  12.894  1.00  0.00     0.031 C 
ATOM     58  C   UNL     1      17.288   2.776  11.322  1.00  0.00     0.029 A 
ATOM     59  C   UNL     1      16.523   3.931  11.296  1.00  0.00     0.049 A 
ATOM     60  H   UNL     1      15.211   4.624   9.797  1.00  0.00     0.167 HD
ATOM     61  C   UNL     1      15.638   6.061  12.201  1.00  0.00     0.074 A 
ATOM     62  C   UNL     1      15.536   7.080  13.225  1.00  0.00     0.031 C 
ATOM     63  C   UNL     1      16.419   4.958  12.302  1.00  0.00     0.031 A 
BRANCH  50  64
ATOM     64  C   UNL     1      16.137   1.214   7.387  1.00  0.00    -0.014 A 
ATOM     65  C   UNL     1      16.968   1.266   6.252  1.00  0.00     0.010 A 
ATOM     66  C   UNL     1      15.798  -0.039   7.928  1.00  0.00     0.010 A 
ATOM     67  C   UNL     1      17.420   0.090   5.650  1.00  0.00     0.020 A 
ATOM     68  C   UNL     1      16.275  -1.218   7.347  1.00  0.00     0.020 A 
ATOM     69  C   UNL     1      17.072  -1.146   6.202  1.00  0.00     0.054 A 
BRANCH  69  70
ATOM     70  S   UNL     1      17.705  -2.654   5.418  1.00  0.00     0.124 S 
ATOM     71  O   UNL     1      16.940  -2.691   4.175  1.00  0.00    -0.237 OA
ATOM     72  O   UNL     1      19.129  -2.363   5.271  1.00  0.00    -0.237 OA
ATOM     73  O   UNL     1      17.382  -3.707   6.378  1.00  0.00    -0.744 OA
ENDBRANCH  69  70
ENDBRANCH  50  64
BRANCH  51  74
ATOM     74  C   UNL     1      12.812   9.741  11.419  1.00  0.00    -0.014 A 
ATOM     75  C   UNL     1      13.699  10.801  11.681  1.00  0.00     0.010 A 
ATOM     76  C   UNL     1      11.460   9.879  11.782  1.00  0.00     0.010 A 
ATOM     77  C   UNL     1      13.253  11.955  12.333  1.00  0.00     0.020 A 
ATOM     78  C   UNL     1      11.003  11.045  12.403  1.00  0.00     0.020 A 
ATOM     79  C   UNL     1      11.908  12.067  12.694  1.00  0.00     0.054 A 
BRANCH  79  80
ATOM     80  S   UNL     1      11.349  13.575  13.533  1.00  0.00     0.124 S 
ATOM     81  O   UNL     1      11.924  13.411  14.865  1.00  0.00    -0.237 OA
ATOM     82  O   UNL     1      11.939  14.630  12.714  1.00  0.00    -0.237 OA
ATOM     83  O   UNL     1       9.892  13.484  13.464  1.00  0.00    -0.744 OA
ENDBRANCH  79  80
ENDBRANCH  51  74
BRANCH  63  84
ATOM     84  C   UNL     1      17.266   4.818  13.541  1.00  0.00    -0.014 A 
ATOM     85  C   UNL     1      16.692   4.544  14.795  1.00  0.00     0.010 A 
ATOM     86  C   UNL     1      18.666   4.920  13.437  1.00  0.00     0.010 A 
ATOM     87  C   UNL     1      17.499   4.414  15.928  1.00  0.00     0.020 A 
ATOM     88  C   UNL     1      19.479   4.758  14.561  1.00  0.00     0.020 A 
ATOM     89  C   UNL     1      18.888   4.521  15.803  1.00  0.00     0.054 A 
BRANCH  89  90
ATOM     90  S   UNL     1      19.915   4.310  17.283  1.00  0.00     0.124 S 
ATOM     91  O   UNL     1      19.654   5.546  18.014  1.00  0.00    -0.237 OA
ATOM     92  O   UNL     1      19.366   3.096  17.883  1.00  0.00    -0.237 OA
ATOM     93  O   UNL     1      21.269   4.176  16.750  1.00  0.00    -0.744 OA
ENDBRANCH  89  90
ENDBRANCH  63  84
ENDBRANCH  37  38
ENDBRANCH  29  32
ENDBRANCH  27  28
ENDBRANCH  26  27
ENDBRANCH  25  26
ENDBRANCH   1  25
TORSDOF 20
