REMARK SMILES COc1cc(C(=O)CCC(=O)NCCCCCCNC(=O)c2ccc(-c3c4nc(c(-c5ccc(S(=O)(=O)[O-])cc5)c5ccc([nH]5)c(-c5ccc(S(=O)(=O)[O-])cc5)c5nc(c(-c6ccc(S(=O)(=O)[O-])cc6)c6ccc3[nH]6)C=C5)C=C4)cc2)cc(OC)c1OC
REMARK SMILES IDX 15 1 14 2 13 3 12 4 10 5 11 6 9 8 8 9 6 10 7 11 5 12 3 13
REMARK SMILES IDX 4 14 86 15 83 16 82 17 2 18 1 19 87 20 88 21 84 22 85 23
REMARK SMILES IDX 16 24 17 25 18 26 19 27 20 28 21 30 22 31 23 32 81 33 24 34
REMARK SMILES IDX 80 35 25 36 26 37 27 38 74 39 28 40 79 41 73 42 75 43 29 44
REMARK SMILES IDX 78 45 72 46 71 47 30 49 60 50 41 51 59 52 42 53 45 54 58 55
REMARK SMILES IDX 76 56 43 57 44 58 57 60 77 61 46 62 31 63 32 64 40 65 33 66
REMARK SMILES IDX 39 67 34 68 35 69 36 70 37 71 38 72 61 73 62 74 70 75 63 76
REMARK SMILES IDX 69 77 64 78 65 79 66 80 67 81 68 82 47 83 48 84 56 85 49 86
REMARK SMILES IDX 55 87 50 88 51 89 52 90 53 91 54 92
REMARK H PARENT 12 7 19 29 75 48 45 59
REMARK Flexibility Score: inf
ROOT
ATOM      1  C   UNL     1       0.505  -2.784  -1.413  1.00  0.00     0.002 C 
ENDROOT
BRANCH   1   2
ATOM      2  C   UNL     1      -0.238  -3.880  -0.648  1.00  0.00     0.021 C 
BRANCH   2   3
ATOM      3  C   UNL     1      -0.321  -5.222  -1.370  1.00  0.00     0.116 C 
BRANCH   3   4
ATOM      4  N   UNL     1       0.869  -6.027  -1.128  1.00  0.00    -0.356 N 
ATOM      5  C   UNL     1       1.116  -6.961  -0.166  1.00  0.00     0.220 C 
ATOM      6  O   UNL     1       2.238  -7.469  -0.117  1.00  0.00    -0.275 OA
ATOM      7  H   UNL     1       1.611  -5.872  -1.757  1.00  0.00     0.163 HD
BRANCH   5   8
ATOM      8  C   UNL     1       0.044  -7.356   0.829  1.00  0.00     0.108 C 
BRANCH   8   9
ATOM      9  C   UNL     1       0.439  -7.012   2.263  1.00  0.00     0.091 C 
BRANCH   9  10
ATOM     10  C   UNL     1       0.163  -5.553   2.574  1.00  0.00     0.163 C 
ATOM     11  O   UNL     1      -0.992  -5.172   2.768  1.00  0.00    -0.294 OA
BRANCH  10  12
ATOM     12  C   UNL     1       1.265  -4.539   2.544  1.00  0.00     0.025 A 
ATOM     13  C   UNL     1       1.915  -2.197   2.653  1.00  0.00     0.165 A 
ATOM     14  C   UNL     1       0.958  -3.201   2.843  1.00  0.00     0.062 A 
ATOM     15  C   UNL     1       3.188  -2.509   2.152  1.00  0.00     0.203 A 
ATOM     16  C   UNL     1       3.511  -3.852   1.917  1.00  0.00     0.165 A 
ATOM     17  C   UNL     1       2.557  -4.856   2.122  1.00  0.00     0.062 A 
BRANCH  13  18
ATOM     18  O   UNL     1       1.618  -0.944   3.120  1.00  0.00    -0.493 OA
ATOM     19  C   UNL     1       1.134  -0.070   2.106  1.00  0.00     0.278 C 
ENDBRANCH  13  18
BRANCH  15  20
ATOM     20  O   UNL     1       4.147  -1.540   2.016  1.00  0.00    -0.490 OA
ATOM     21  C   UNL     1       3.982  -0.789   0.810  1.00  0.00     0.278 C 
ENDBRANCH  15  20
BRANCH  16  22
ATOM     22  O   UNL     1       4.749  -4.326   1.571  1.00  0.00    -0.493 OA
ATOM     23  C   UNL     1       5.318  -3.715   0.422  1.00  0.00     0.278 C 
ENDBRANCH  16  22
ENDBRANCH  10  12
ENDBRANCH   9  10
ENDBRANCH   8   9
ENDBRANCH   5   8
ENDBRANCH   3   4
ENDBRANCH   2   3
ENDBRANCH   1   2
BRANCH   1  24
ATOM     24  C   UNL     1      -0.334  -2.064  -2.471  1.00  0.00     0.002 C 
BRANCH  24  25
ATOM     25  C   UNL     1      -1.615  -1.384  -1.971  1.00  0.00     0.021 C 
BRANCH  25  26
ATOM     26  C   UNL     1      -1.474  -0.448  -0.770  1.00  0.00     0.116 C 
BRANCH  26  27
ATOM     27  N   UNL     1      -0.506   0.619  -0.976  1.00  0.00    -0.352 N 
ATOM     28  C   UNL     1      -0.597   1.956  -0.673  1.00  0.00     0.251 C 
ATOM     29  H   UNL     1       0.340   0.341  -1.395  1.00  0.00     0.163 HD
ATOM     30  O   UNL     1       0.332   2.708  -0.955  1.00  0.00    -0.269 OA
BRANCH  28  31
ATOM     31  C   UNL     1      -1.824   2.497  -0.050  1.00  0.00     0.039 A 
ATOM     32  C   UNL     1      -2.458   3.583  -0.662  1.00  0.00     0.014 A 
ATOM     33  C   UNL     1      -2.366   1.928   1.106  1.00  0.00     0.014 A 
ATOM     34  C   UNL     1      -3.684   4.036  -0.171  1.00  0.00     0.010 A 
ATOM     35  C   UNL     1      -3.608   2.357   1.574  1.00  0.00     0.010 A 
ATOM     36  C   UNL     1      -4.289   3.395   0.923  1.00  0.00    -0.014 A 
BRANCH  36  37
ATOM     37  C   UNL     1      -5.679   3.727   1.318  1.00  0.00     0.031 A 
ATOM     38  C   UNL     1      -5.976   4.421   2.614  1.00  0.00     0.074 A 
ATOM     39  C   UNL     1      -6.688   3.320   0.523  1.00  0.00     0.049 A 
ATOM     40  N   UNL     1      -7.132   4.795   3.099  1.00  0.00    -0.248 NA
ATOM     41  C   UNL     1      -4.829   4.716   3.485  1.00  0.00     0.031 C 
ATOM     42  C   UNL     1      -6.526   2.573  -0.727  1.00  0.00     0.029 A 
ATOM     43  N   UNL     1      -8.046   3.464   0.650  1.00  0.00    -0.354 N 
ATOM     44  C   UNL     1      -6.857   5.365   4.335  1.00  0.00     0.074 A 
ATOM     45  C   UNL     1      -5.428   5.250   4.541  1.00  0.00     0.031 C 
ATOM     46  C   UNL     1      -7.736   2.338  -1.259  1.00  0.00     0.029 A 
ATOM     47  C   UNL     1      -8.758   2.897  -0.380  1.00  0.00     0.049 A 
ATOM     48  H   UNL     1      -8.471   3.929   1.407  1.00  0.00     0.167 HD
ATOM     49  C   UNL     1      -7.716   5.941   5.212  1.00  0.00     0.031 A 
ATOM     50  C   UNL     1     -10.085   2.832  -0.598  1.00  0.00     0.031 A 
ATOM     51  C   UNL     1      -9.139   6.031   5.009  1.00  0.00     0.049 A 
ATOM     52  C   UNL     1     -11.019   3.491   0.376  1.00  0.00     0.074 A 
ATOM     53  C   UNL     1     -10.087   6.649   5.806  1.00  0.00     0.029 A 
ATOM     54  N   UNL     1      -9.822   5.469   3.940  1.00  0.00    -0.354 N 
ATOM     55  N   UNL     1     -10.731   4.121   1.490  1.00  0.00    -0.248 NA
ATOM     56  C   UNL     1     -12.451   3.447   0.056  1.00  0.00     0.031 C 
ATOM     57  C   UNL     1     -11.348   6.418   5.243  1.00  0.00     0.029 A 
ATOM     58  C   UNL     1     -11.182   5.701   4.069  1.00  0.00     0.049 A 
ATOM     59  H   UNL     1      -9.402   4.977   3.198  1.00  0.00     0.167 HD
ATOM     60  C   UNL     1     -11.946   4.564   1.998  1.00  0.00     0.074 A 
ATOM     61  C   UNL     1     -12.969   4.143   1.061  1.00  0.00     0.031 C 
ATOM     62  C   UNL     1     -12.190   5.259   3.137  1.00  0.00     0.031 A 
BRANCH  49  63
ATOM     63  C   UNL     1      -7.127   6.497   6.482  1.00  0.00    -0.014 A 
ATOM     64  C   UNL     1      -6.309   7.643   6.462  1.00  0.00     0.010 A 
ATOM     65  C   UNL     1      -7.387   5.866   7.712  1.00  0.00     0.010 A 
ATOM     66  C   UNL     1      -5.709   8.106   7.636  1.00  0.00     0.020 A 
ATOM     67  C   UNL     1      -6.810   6.343   8.893  1.00  0.00     0.020 A 
ATOM     68  C   UNL     1      -5.952   7.444   8.843  1.00  0.00     0.054 A 
BRANCH  68  69
ATOM     69  S   UNL     1      -5.138   8.045  10.349  1.00  0.00     0.124 S 
ATOM     70  O   UNL     1      -3.775   7.553  10.168  1.00  0.00    -0.237 OA
ATOM     71  O   UNL     1      -5.300   9.494  10.247  1.00  0.00    -0.237 OA
ATOM     72  O   UNL     1      -5.893   7.412  11.427  1.00  0.00    -0.744 OA
ENDBRANCH  68  69
ENDBRANCH  49  63
BRANCH  50  73
ATOM     73  C   UNL     1     -10.588   2.143  -1.815  1.00  0.00    -0.014 A 
ATOM     74  C   UNL     1     -11.049   2.886  -2.915  1.00  0.00     0.010 A 
ATOM     75  C   UNL     1     -10.531   0.740  -1.910  1.00  0.00     0.010 A 
ATOM     76  C   UNL     1     -11.436   2.240  -4.093  1.00  0.00     0.020 A 
ATOM     77  C   UNL     1     -10.898   0.092  -3.094  1.00  0.00     0.020 A 
ATOM     78  C   UNL     1     -11.349   0.848  -4.178  1.00  0.00     0.054 A 
BRANCH  78  79
ATOM     79  S   UNL     1     -11.754   0.039  -5.751  1.00  0.00     0.124 S 
ATOM     80  O   UNL     1     -13.212   0.103  -5.760  1.00  0.00    -0.237 OA
ATOM     81  O   UNL     1     -11.077   0.890  -6.727  1.00  0.00    -0.237 OA
ATOM     82  O   UNL     1     -11.184  -1.298  -5.604  1.00  0.00    -0.744 OA
ENDBRANCH  78  79
ENDBRANCH  50  73
BRANCH  62  83
ATOM     83  C   UNL     1     -13.623   5.616   3.430  1.00  0.00    -0.014 A 
ATOM     84  C   UNL     1     -14.538   4.643   3.867  1.00  0.00     0.010 A 
ATOM     85  C   UNL     1     -14.045   6.953   3.312  1.00  0.00     0.010 A 
ATOM     86  C   UNL     1     -15.859   4.995   4.155  1.00  0.00     0.020 A 
ATOM     87  C   UNL     1     -15.359   7.313   3.622  1.00  0.00     0.020 A 
ATOM     88  C   UNL     1     -16.262   6.329   4.029  1.00  0.00     0.054 A 
BRANCH  88  89
ATOM     89  S   UNL     1     -17.970   6.771   4.452  1.00  0.00     0.124 S 
ATOM     90  O   UNL     1     -18.706   6.283   3.289  1.00  0.00    -0.237 OA
ATOM     91  O   UNL     1     -18.196   6.035   5.693  1.00  0.00    -0.237 OA
ATOM     92  O   UNL     1     -17.924   8.225   4.596  1.00  0.00    -0.744 OA
ENDBRANCH  88  89
ENDBRANCH  62  83
ENDBRANCH  36  37
ENDBRANCH  28  31
ENDBRANCH  26  27
ENDBRANCH  25  26
ENDBRANCH  24  25
ENDBRANCH   1  24
TORSDOF 22
