REMARK SMILES C/C(=N/N=c1\[nH]c(O)c(C(=O)NCCCCCCNC(=O)c2ccc(-c3c4nc(c(-c5ccc(S(=O)(=O)[O-])cc5)c5ccc([nH]5)c(-c5ccc(S(=O)(=O)[O-])cc5)c5nc(c(-c6ccc(S(=O)(=O)[O-])cc6)c6ccc3[nH]6)C=C5)C=C4)cc2)s1)c1ccc2c(c1)OCO2
REMARK SMILES IDX 16 1 15 2 14 3 13 4 12 5 10 6 11 7 9 9 4 10 5 11 6 12 82 13
REMARK SMILES IDX 7 14 3 16 1 17 2 18 83 19 84 20 88 21 85 22 87 23 86 24
REMARK SMILES IDX 89 25 91 26 90 27 8 28 17 30 18 31 19 32 20 33 21 35 22 36
REMARK SMILES IDX 23 37 81 38 24 39 80 40 25 41 26 42 27 43 74 44 28 45 79 46
REMARK SMILES IDX 73 47 75 48 29 49 78 50 72 51 71 52 30 54 60 55 41 56 59 57
REMARK SMILES IDX 42 58 45 59 58 60 76 61 43 62 44 63 57 65 77 66 46 67 31 68
REMARK SMILES IDX 32 69 40 70 33 71 39 72 34 73 35 74 36 75 37 76 38 77 61 78
REMARK SMILES IDX 62 79 70 80 63 81 69 82 64 83 65 84 66 85 67 86 68 87 47 88
REMARK SMILES IDX 48 89 56 90 49 91 55 92 50 93 51 94 52 95 53 96 54 97
REMARK H PARENT 12 8 6 15 8 29 19 34 75 53 45 64
REMARK Flexibility Score: inf
ROOT
ATOM      1  C   UNL     1      -3.712  -7.777  -7.117  1.00  0.00     0.002 C 
ENDROOT
BRANCH   1   2
ATOM      2  C   UNL     1      -2.681  -8.262  -6.083  1.00  0.00     0.002 C 
BRANCH   2   3
ATOM      3  C   UNL     1      -2.078  -7.168  -5.192  1.00  0.00     0.021 C 
BRANCH   3   4
ATOM      4  C   UNL     1      -3.136  -6.339  -4.460  1.00  0.00     0.116 C 
BRANCH   4   5
ATOM      5  N   UNL     1      -3.660  -7.054  -3.307  1.00  0.00    -0.351 N 
ATOM      6  C   UNL     1      -3.475  -6.925  -1.958  1.00  0.00     0.266 C 
ATOM      7  O   UNL     1      -4.123  -7.689  -1.239  1.00  0.00    -0.268 OA
ATOM      8  H   UNL     1      -4.277  -7.784  -3.547  1.00  0.00     0.163 HD
BRANCH   6   9
ATOM      9  C   UNL     1      -2.589  -5.888  -1.369  1.00  0.00     0.155 A 
ATOM     10  N   UNL     1      -0.443  -2.872  -1.330  1.00  0.00    -0.121 NA
ATOM     11  C   UNL     1      -1.101  -3.921  -1.010  1.00  0.00     0.211 A 
ATOM     12  N   UNL     1      -1.838  -4.287   0.083  1.00  0.00    -0.300 N 
ATOM     13  S   UNL     1      -1.227  -5.198  -2.221  1.00  0.00    -0.086 S 
ATOM     14  C   UNL     1      -2.690  -5.343  -0.136  1.00  0.00     0.214 A 
ATOM     15  H   UNL     1      -1.764  -3.831   0.953  1.00  0.00     0.172 HD
BRANCH  10  16
ATOM     16  N   UNL     1      -0.362  -1.890  -0.356  1.00  0.00    -0.152 NA
ATOM     17  C   UNL     1       0.825   0.152   0.221  1.00  0.00     0.069 C 
ATOM     18  C   UNL     1       0.450  -0.946  -0.741  1.00  0.00     0.067 C 
BRANCH  18  19
ATOM     19  C   UNL     1       1.067  -0.849  -2.090  1.00  0.00     0.001 A 
ATOM     20  C   UNL     1       0.264  -0.551  -3.214  1.00  0.00     0.014 A 
ATOM     21  C   UNL     1       2.452  -0.974  -2.197  1.00  0.00     0.060 A 
ATOM     22  C   UNL     1       0.860  -0.316  -4.457  1.00  0.00     0.051 A 
ATOM     23  C   UNL     1       3.006  -0.691  -3.423  1.00  0.00     0.166 A 
ATOM     24  C   UNL     1       2.238  -0.356  -4.517  1.00  0.00     0.165 A 
ATOM     25  O   UNL     1       4.337  -0.637  -3.688  1.00  0.00    -0.454 OA
ATOM     26  O   UNL     1       3.003  -0.038  -5.597  1.00  0.00    -0.454 OA
ATOM     27  C   UNL     1       4.315  -0.006  -4.984  1.00  0.00     0.468 C 
ENDBRANCH  18  19
ENDBRANCH  10  16
BRANCH  14  28
ATOM     28  O   UNL     1      -3.583  -5.686   0.832  1.00  0.00    -0.493 OA
ATOM     29  H   UNL     1      -3.570  -5.244   1.659  1.00  0.00     0.295 HD
ENDBRANCH  14  28
ENDBRANCH   6   9
ENDBRANCH   4   5
ENDBRANCH   3   4
ENDBRANCH   2   3
ENDBRANCH   1   2
BRANCH   1  30
ATOM     30  C   UNL     1      -3.275  -6.607  -8.012  1.00  0.00     0.021 C 
BRANCH  30  31
ATOM     31  C   UNL     1      -2.191  -6.989  -9.005  1.00  0.00     0.116 C 
BRANCH  31  32
ATOM     32  N   UNL     1      -2.681  -7.931 -10.017  1.00  0.00    -0.352 N 
ATOM     33  C   UNL     1      -1.975  -8.530 -11.047  1.00  0.00     0.251 C 
ATOM     34  H   UNL     1      -3.635  -8.167  -9.956  1.00  0.00     0.163 HD
ATOM     35  O   UNL     1      -2.542  -8.984 -12.024  1.00  0.00    -0.269 OA
BRANCH  33  36
ATOM     36  C   UNL     1      -0.512  -8.623 -10.905  1.00  0.00     0.039 A 
ATOM     37  C   UNL     1       0.366  -8.392 -11.967  1.00  0.00     0.014 A 
ATOM     38  C   UNL     1      -0.038  -8.905  -9.629  1.00  0.00     0.014 A 
ATOM     39  C   UNL     1       1.735  -8.385 -11.704  1.00  0.00     0.010 A 
ATOM     40  C   UNL     1       1.271  -8.669  -9.336  1.00  0.00     0.010 A 
ATOM     41  C   UNL     1       2.174  -8.515 -10.377  1.00  0.00    -0.014 A 
BRANCH  41  42
ATOM     42  C   UNL     1       3.573  -8.399  -9.999  1.00  0.00     0.031 A 
ATOM     43  C   UNL     1       4.193  -7.106 -10.376  1.00  0.00     0.074 A 
ATOM     44  C   UNL     1       4.152  -9.271  -9.142  1.00  0.00     0.049 A 
ATOM     45  N   UNL     1       5.065  -6.896 -11.305  1.00  0.00    -0.248 NA
ATOM     46  C   UNL     1       3.653  -5.871  -9.778  1.00  0.00     0.031 C 
ATOM     47  C   UNL     1       3.537 -10.411  -8.441  1.00  0.00     0.029 A 
ATOM     48  N   UNL     1       5.397  -9.246  -8.605  1.00  0.00    -0.354 N 
ATOM     49  C   UNL     1       5.382  -5.546 -11.220  1.00  0.00     0.074 A 
ATOM     50  C   UNL     1       4.326  -4.936 -10.452  1.00  0.00     0.031 C 
ATOM     51  C   UNL     1       4.322 -10.792  -7.409  1.00  0.00     0.029 A 
ATOM     52  C   UNL     1       5.570 -10.058  -7.487  1.00  0.00     0.049 A 
ATOM     53  H   UNL     1       6.124  -8.695  -8.977  1.00  0.00     0.167 HD
ATOM     54  C   UNL     1       6.636  -5.099 -11.515  1.00  0.00     0.031 A 
ATOM     55  C   UNL     1       6.656 -10.107  -6.672  1.00  0.00     0.031 A 
ATOM     56  C   UNL     1       7.407  -6.111 -12.198  1.00  0.00     0.049 A 
ATOM     57  C   UNL     1       7.789  -9.549  -7.452  1.00  0.00     0.074 A 
ATOM     58  C   UNL     1       7.249  -6.832 -13.366  1.00  0.00     0.029 A 
ATOM     59  N   UNL     1       8.310  -6.820 -11.437  1.00  0.00    -0.354 N 
ATOM     60  N   UNL     1       8.245 -10.108  -8.540  1.00  0.00    -0.248 NA
ATOM     61  C   UNL     1       8.069  -8.128  -7.318  1.00  0.00     0.031 C 
ATOM     62  C   UNL     1       7.672  -8.155 -13.039  1.00  0.00     0.029 A 
ATOM     63  C   UNL     1       8.150  -8.152 -11.726  1.00  0.00     0.049 A 
ATOM     64  H   UNL     1       8.956  -6.439 -10.800  1.00  0.00     0.167 HD
ATOM     65  C   UNL     1       8.462  -9.053  -9.417  1.00  0.00     0.074 A 
ATOM     66  C   UNL     1       8.427  -7.854  -8.577  1.00  0.00     0.031 C 
ATOM     67  C   UNL     1       8.358  -9.223 -10.770  1.00  0.00     0.031 A 
BRANCH  54  68
ATOM     68  C   UNL     1       7.299  -3.947 -10.796  1.00  0.00    -0.014 A 
ATOM     69  C   UNL     1       8.591  -3.552 -11.199  1.00  0.00     0.010 A 
ATOM     70  C   UNL     1       6.828  -3.427  -9.572  1.00  0.00     0.010 A 
ATOM     71  C   UNL     1       9.395  -2.748 -10.380  1.00  0.00     0.020 A 
ATOM     72  C   UNL     1       7.603  -2.590  -8.769  1.00  0.00     0.020 A 
ATOM     73  C   UNL     1       8.897  -2.284  -9.162  1.00  0.00     0.054 A 
BRANCH  73  74
ATOM     74  S   UNL     1       9.972  -1.331  -8.064  1.00  0.00     0.124 S 
ATOM     75  O   UNL     1      10.973  -2.325  -7.689  1.00  0.00    -0.237 OA
ATOM     76  O   UNL     1      10.435  -0.259  -8.940  1.00  0.00    -0.237 OA
ATOM     77  O   UNL     1       9.073  -0.907  -6.992  1.00  0.00    -0.744 OA
ENDBRANCH  73  74
ENDBRANCH  54  68
BRANCH  55  78
ATOM     78  C   UNL     1       6.681 -10.269  -5.193  1.00  0.00    -0.014 A 
ATOM     79  C   UNL     1       7.874 -10.546  -4.498  1.00  0.00     0.010 A 
ATOM     80  C   UNL     1       5.564  -9.869  -4.428  1.00  0.00     0.010 A 
ATOM     81  C   UNL     1       7.960 -10.379  -3.101  1.00  0.00     0.020 A 
ATOM     82  C   UNL     1       5.641  -9.702  -3.038  1.00  0.00     0.020 A 
ATOM     83  C   UNL     1       6.845  -9.938  -2.381  1.00  0.00     0.054 A 
BRANCH  83  84
ATOM     84  S   UNL     1       7.003  -9.568  -0.606  1.00  0.00     0.124 S 
ATOM     85  O   UNL     1       7.174 -10.895  -0.023  1.00  0.00    -0.237 OA
ATOM     86  O   UNL     1       8.178  -8.703  -0.562  1.00  0.00    -0.237 OA
ATOM     87  O   UNL     1       5.740  -8.907  -0.278  1.00  0.00    -0.744 OA
ENDBRANCH  83  84
ENDBRANCH  55  78
BRANCH  67  88
ATOM     88  C   UNL     1       8.235 -10.634 -11.312  1.00  0.00    -0.014 A 
ATOM     89  C   UNL     1       7.139 -11.484 -11.055  1.00  0.00     0.010 A 
ATOM     90  C   UNL     1       9.190 -11.050 -12.255  1.00  0.00     0.010 A 
ATOM     91  C   UNL     1       7.016 -12.722 -11.711  1.00  0.00     0.020 A 
ATOM     92  C   UNL     1       9.066 -12.273 -12.921  1.00  0.00     0.020 A 
ATOM     93  C   UNL     1       7.984 -13.108 -12.642  1.00  0.00     0.054 A 
BRANCH  93  94
ATOM     94  S   UNL     1       7.805 -14.685 -13.525  1.00  0.00     0.124 S 
ATOM     95  O   UNL     1       8.010 -15.669 -12.466  1.00  0.00    -0.237 OA
ATOM     96  O   UNL     1       6.447 -14.609 -14.059  1.00  0.00    -0.237 OA
ATOM     97  O   UNL     1       8.861 -14.640 -14.537  1.00  0.00    -0.744 OA
ENDBRANCH  93  94
ENDBRANCH  67  88
ENDBRANCH  41  42
ENDBRANCH  33  36
ENDBRANCH  31  32
ENDBRANCH  30  31
ENDBRANCH   1  30
TORSDOF 19
