REMARK SMILES Cc1cc(OCC(=O)Nc2sccc2C(=O)NCCCCCCNC(=O)c2ccc(-c3c4nc(c(-c5ccc(S(=O)(=O)[O-])cc5)c5ccc([nH]5)c(-c5ccc(S(=O)(=O)[O-])cc5)c5nc(c(-c6ccc(S(=O)(=O)[O-])cc6)c6ccc3[nH]6)C=C5)C=C4)cc2)ccc1Cl
REMARK SMILES IDX 20 1 19 2 18 3 17 4 15 5 16 6 14 8 10 9 11 10 12 11 13 12
REMARK SMILES IDX 9 13 7 14 8 15 6 17 5 18 4 19 1 20 2 21 3 22 89 23 88 24
REMARK SMILES IDX 90 25 87 26 21 27 22 28 23 29 24 30 25 31 26 33 27 34 28 35
REMARK SMILES IDX 86 36 29 37 85 38 30 39 31 40 32 41 79 42 33 43 84 44 78 45
REMARK SMILES IDX 80 46 34 47 83 48 77 49 76 50 35 52 65 53 46 54 64 55 47 56
REMARK SMILES IDX 50 57 63 58 81 59 48 60 49 61 62 63 82 64 51 65 36 66 37 67
REMARK SMILES IDX 45 68 38 69 44 70 39 71 40 72 41 73 42 74 43 75 66 76 67 77
REMARK SMILES IDX 75 78 68 79 74 80 69 81 70 82 71 83 72 84 73 85 52 86 53 87
REMARK SMILES IDX 61 88 54 89 60 90 55 91 56 92 57 93 58 94 59 95
REMARK H PARENT 17 7 9 16 24 32 80 51 50 62
REMARK Flexibility Score: inf
ROOT
ATOM      1  C   UNL     1      -0.567   2.307   1.977  1.00  0.00     0.002 C 
ENDROOT
BRANCH   1   2
ATOM      2  C   UNL     1      -1.383   1.960   3.227  1.00  0.00     0.021 C 
BRANCH   2   3
ATOM      3  C   UNL     1      -2.712   1.252   2.953  1.00  0.00     0.116 C 
BRANCH   3   4
ATOM      4  N   UNL     1      -2.545  -0.032   2.303  1.00  0.00    -0.352 N 
ATOM      5  C   UNL     1      -3.462  -1.022   2.060  1.00  0.00     0.254 C 
ATOM      6  O   UNL     1      -3.029  -2.153   1.826  1.00  0.00    -0.269 OA
ATOM      7  H   UNL     1      -1.633  -0.223   1.986  1.00  0.00     0.163 HD
BRANCH   5   8
ATOM      8  C   UNL     1      -4.897  -0.803   2.212  1.00  0.00     0.074 A 
ATOM      9  C   UNL     1      -5.684   0.302   1.943  1.00  0.00     0.108 A 
ATOM     10  S   UNL     1      -7.238   0.178   2.663  1.00  0.00    -0.126 S 
ATOM     11  C   UNL     1      -7.007  -1.462   3.050  1.00  0.00     0.068 A 
ATOM     12  C   UNL     1      -5.728  -1.863   2.753  1.00  0.00     0.028 A 
BRANCH   9  13
ATOM     13  N   UNL     1      -5.552   1.530   1.347  1.00  0.00    -0.314 N 
ATOM     14  C   UNL     1      -4.827   1.958   0.276  1.00  0.00     0.262 C 
ATOM     15  O   UNL     1      -4.661   3.181   0.173  1.00  0.00    -0.271 OA
ATOM     16  H   UNL     1      -6.083   2.239   1.776  1.00  0.00     0.170 HD
BRANCH  14  17
ATOM     17  C   UNL     1      -4.456   1.046  -0.905  1.00  0.00     0.329 C 
BRANCH  17  18
ATOM     18  O   UNL     1      -3.776  -0.169  -0.739  1.00  0.00    -0.484 OA
BRANCH  18  19
ATOM     19  C   UNL     1      -2.442  -0.277  -1.011  1.00  0.00     0.120 A 
ATOM     20  C   UNL     1       0.828   1.617  -1.553  1.00  0.00     0.046 C 
ATOM     21  C   UNL     1      -0.145   0.484  -1.356  1.00  0.00    -0.029 A 
ATOM     22  C   UNL     1      -1.535   0.745  -1.290  1.00  0.00     0.051 A 
ATOM     23  C   UNL     1       0.309  -0.828  -1.149  1.00  0.00     0.044 A 
ATOM     24  C   UNL     1      -0.599  -1.861  -0.947  1.00  0.00     0.024 A 
ATOM     25  Cl  UNL     1       1.992  -1.216  -1.095  1.00  0.00    -0.084 Cl
ATOM     26  C   UNL     1      -1.963  -1.584  -0.898  1.00  0.00     0.048 A 
ENDBRANCH  18  19
ENDBRANCH  17  18
ENDBRANCH  14  17
ENDBRANCH   9  13
ENDBRANCH   5   8
ENDBRANCH   3   4
ENDBRANCH   2   3
ENDBRANCH   1   2
BRANCH   1  27
ATOM     27  C   UNL     1      -1.260   3.221   0.964  1.00  0.00     0.002 C 
BRANCH  27  28
ATOM     28  C   UNL     1      -1.568   4.644   1.407  1.00  0.00     0.021 C 
BRANCH  28  29
ATOM     29  C   UNL     1      -0.371   5.415   1.939  1.00  0.00     0.116 C 
BRANCH  29  30
ATOM     30  N   UNL     1       0.783   5.428   1.049  1.00  0.00    -0.352 N 
ATOM     31  C   UNL     1       1.768   6.383   0.935  1.00  0.00     0.251 C 
ATOM     32  H   UNL     1       0.871   4.652   0.450  1.00  0.00     0.163 HD
ATOM     33  O   UNL     1       2.652   6.263   0.094  1.00  0.00    -0.269 OA
BRANCH  31  34
ATOM     34  C   UNL     1       1.712   7.582   1.800  1.00  0.00     0.039 A 
ATOM     35  C   UNL     1       1.891   8.841   1.223  1.00  0.00     0.014 A 
ATOM     36  C   UNL     1       1.411   7.469   3.159  1.00  0.00     0.014 A 
ATOM     37  C   UNL     1       1.680   9.986   1.994  1.00  0.00     0.010 A 
ATOM     38  C   UNL     1       1.096   8.605   3.893  1.00  0.00     0.010 A 
ATOM     39  C   UNL     1       1.233   9.876   3.322  1.00  0.00    -0.014 A 
BRANCH  39  40
ATOM     40  C   UNL     1       0.907  11.082   4.124  1.00  0.00     0.031 A 
ATOM     41  C   UNL     1       1.668  11.380   5.388  1.00  0.00     0.074 A 
ATOM     42  C   UNL     1      -0.114  11.877   3.743  1.00  0.00     0.049 A 
ATOM     43  N   UNL     1       1.532  12.387   6.213  1.00  0.00    -0.248 NA
ATOM     44  C   UNL     1       2.691  10.404   5.800  1.00  0.00     0.031 C 
ATOM     45  C   UNL     1      -0.980  11.650   2.583  1.00  0.00     0.029 A 
ATOM     46  N   UNL     1      -0.591  13.042   4.288  1.00  0.00    -0.354 N 
ATOM     47  C   UNL     1       2.436  12.155   7.243  1.00  0.00     0.074 A 
ATOM     48  C   UNL     1       3.065  10.881   6.977  1.00  0.00     0.031 C 
ATOM     49  C   UNL     1      -1.846  12.670   2.473  1.00  0.00     0.029 A 
ATOM     50  C   UNL     1      -1.618  13.607   3.568  1.00  0.00     0.049 A 
ATOM     51  H   UNL     1      -0.233  13.436   5.116  1.00  0.00     0.167 HD
ATOM     52  C   UNL     1       2.741  12.945   8.300  1.00  0.00     0.031 A 
ATOM     53  C   UNL     1      -2.287  14.761   3.757  1.00  0.00     0.031 A 
ATOM     54  C   UNL     1       2.130  14.223   8.547  1.00  0.00     0.049 A 
ATOM     55  C   UNL     1      -1.899  15.647   4.908  1.00  0.00     0.074 A 
ATOM     56  C   UNL     1       2.408  15.131   9.553  1.00  0.00     0.029 A 
ATOM     57  N   UNL     1       1.121  14.776   7.774  1.00  0.00    -0.354 N 
ATOM     58  N   UNL     1      -0.986  15.448   5.829  1.00  0.00    -0.248 NA
ATOM     59  C   UNL     1      -2.613  16.924   5.030  1.00  0.00     0.031 C 
ATOM     60  C   UNL     1       1.540  16.219   9.408  1.00  0.00     0.029 A 
ATOM     61  C   UNL     1       0.757  16.010   8.283  1.00  0.00     0.049 A 
ATOM     62  H   UNL     1       0.721  14.353   6.979  1.00  0.00     0.167 HD
ATOM     63  C   UNL     1      -0.995  16.589   6.623  1.00  0.00     0.074 A 
ATOM     64  C   UNL     1      -1.995  17.477   6.065  1.00  0.00     0.031 C 
ATOM     65  C   UNL     1      -0.241  16.878   7.713  1.00  0.00     0.031 A 
BRANCH  52  66
ATOM     66  C   UNL     1       3.791  12.443   9.256  1.00  0.00    -0.014 A 
ATOM     67  C   UNL     1       5.140  12.344   8.865  1.00  0.00     0.010 A 
ATOM     68  C   UNL     1       3.431  12.072  10.563  1.00  0.00     0.010 A 
ATOM     69  C   UNL     1       6.098  11.832   9.743  1.00  0.00     0.020 A 
ATOM     70  C   UNL     1       4.392  11.587  11.456  1.00  0.00     0.020 A 
ATOM     71  C   UNL     1       5.716  11.450  11.032  1.00  0.00     0.054 A 
BRANCH  71  72
ATOM     72  S   UNL     1       6.979  10.792  12.154  1.00  0.00     0.124 S 
ATOM     73  O   UNL     1       7.182   9.447  11.622  1.00  0.00    -0.237 OA
ATOM     74  O   UNL     1       8.093  11.717  11.963  1.00  0.00    -0.237 OA
ATOM     75  O   UNL     1       6.342  10.853  13.467  1.00  0.00    -0.744 OA
ENDBRANCH  71  72
ENDBRANCH  52  66
BRANCH  53  76
ATOM     76  C   UNL     1      -3.346  15.170   2.795  1.00  0.00    -0.014 A 
ATOM     77  C   UNL     1      -3.113  16.217   1.885  1.00  0.00     0.010 A 
ATOM     78  C   UNL     1      -4.582  14.499   2.763  1.00  0.00     0.010 A 
ATOM     79  C   UNL     1      -4.101  16.597   0.972  1.00  0.00     0.020 A 
ATOM     80  C   UNL     1      -5.563  14.860   1.834  1.00  0.00     0.020 A 
ATOM     81  C   UNL     1      -5.320  15.914   0.951  1.00  0.00     0.054 A 
BRANCH  81  82
ATOM     82  S   UNL     1      -6.566  16.384  -0.281  1.00  0.00     0.124 S 
ATOM     83  O   UNL     1      -7.081  17.634   0.269  1.00  0.00    -0.237 OA
ATOM     84  O   UNL     1      -5.774  16.509  -1.502  1.00  0.00    -0.237 OA
ATOM     85  O   UNL     1      -7.501  15.261  -0.268  1.00  0.00    -0.744 OA
ENDBRANCH  81  82
ENDBRANCH  53  76
BRANCH  65  86
ATOM     86  C   UNL     1      -0.442  18.226   8.349  1.00  0.00    -0.014 A 
ATOM     87  C   UNL     1      -1.598  18.519   9.093  1.00  0.00     0.010 A 
ATOM     88  C   UNL     1       0.566  19.201   8.231  1.00  0.00     0.010 A 
ATOM     89  C   UNL     1      -1.762  19.779   9.673  1.00  0.00     0.020 A 
ATOM     90  C   UNL     1       0.417  20.453   8.833  1.00  0.00     0.020 A 
ATOM     91  C   UNL     1      -0.755  20.739   9.535  1.00  0.00     0.054 A 
BRANCH  91  92
ATOM     92  S   UNL     1      -0.977  22.360  10.319  1.00  0.00     0.124 S 
ATOM     93  O   UNL     1      -1.926  23.005   9.416  1.00  0.00    -0.237 OA
ATOM     94  O   UNL     1      -1.502  22.011  11.637  1.00  0.00    -0.237 OA
ATOM     95  O   UNL     1       0.368  22.929  10.323  1.00  0.00    -0.744 OA
ENDBRANCH  91  92
ENDBRANCH  65  86
ENDBRANCH  39  40
ENDBRANCH  31  34
ENDBRANCH  29  30
ENDBRANCH  28  29
ENDBRANCH  27  28
ENDBRANCH   1  27
TORSDOF 20
