REMARK SMILES CC[C@](C)(NC(=O)c1cc(F)ccc1C)C(=O)NCCCCCCNC(=O)c1ccc(-c2c3nc(c(-c4ccc(S(=O)(=O)[O-])cc4)c4ccc([nH]4)c(-c4ccc(S(=O)(=O)[O-])cc4)c4nc(c(-c5ccc(S(=O)(=O)[O-])cc5)c5ccc2[nH]5)C=C4)C=C3)cc1
REMARK SMILES IDX 22 1 21 2 20 3 19 4 18 5 16 6 17 7 3 9 4 10 2 11 1 12 5 13
REMARK SMILES IDX 6 14 7 16 8 17 9 18 14 19 10 20 13 21 15 22 11 23 12 24
REMARK SMILES IDX 23 25 24 26 25 27 26 28 27 30 28 31 29 32 87 33 30 34 86 35
REMARK SMILES IDX 31 36 32 37 33 38 80 39 34 40 85 41 79 42 81 43 35 44 84 45
REMARK SMILES IDX 78 46 77 47 36 49 66 50 47 51 65 52 48 53 51 54 64 55 82 56
REMARK SMILES IDX 49 57 50 58 63 60 83 61 52 62 37 63 38 64 46 65 39 66 45 67
REMARK SMILES IDX 40 68 41 69 42 70 43 71 44 72 67 73 68 74 76 75 69 76 75 77
REMARK SMILES IDX 70 78 71 79 72 80 73 81 74 82 53 83 54 84 62 85 55 86 61 87
REMARK SMILES IDX 56 88 57 89 58 90 59 91 60 92
REMARK H PARENT 18 8 5 15 25 29 81 48 51 59
REMARK Flexibility Score: inf
ROOT
ATOM      1  C   UNL     1       5.742   3.941   6.039  1.00  0.00     0.002 C 
ENDROOT
BRANCH   1   2
ATOM      2  C   UNL     1       5.172   2.654   5.437  1.00  0.00     0.002 C 
BRANCH   2   3
ATOM      3  C   UNL     1       3.648   2.629   5.210  1.00  0.00     0.021 C 
BRANCH   3   4
ATOM      4  C   UNL     1       3.024   2.792   3.800  1.00  0.00     0.116 C 
BRANCH   4   5
ATOM      5  N   UNL     1       3.302   1.724   2.829  1.00  0.00    -0.354 N 
ATOM      6  C   UNL     1       2.686   0.796   2.045  1.00  0.00     0.245 C 
ATOM      7  O   UNL     1       3.491   0.395   1.175  1.00  0.00    -0.272 OA
ATOM      8  H   UNL     1       4.276   1.654   2.701  1.00  0.00     0.163 HD
BRANCH   6   9
ATOM      9  C   UNL     1       1.153   0.216   1.965  1.00  0.00     0.116 C 
ATOM     10  C   UNL     1       1.166  -0.717   0.712  1.00  0.00     0.045 C 
BRANCH   9  11
ATOM     11  C   UNL     1       0.207   1.431   1.696  1.00  0.00     0.035 C 
ATOM     12  C   UNL     1      -1.091   1.109   0.939  1.00  0.00     0.007 C 
ENDBRANCH   9  11
BRANCH   9  13
ATOM     13  N   UNL     1       0.444  -0.622   3.014  1.00  0.00    -0.338 N 
ATOM     14  C   UNL     1       0.793  -1.844   3.566  1.00  0.00     0.252 C 
ATOM     15  H   UNL     1      -0.395  -0.237   3.356  1.00  0.00     0.164 HD
ATOM     16  O   UNL     1      -0.030  -2.732   3.737  1.00  0.00    -0.269 OA
BRANCH  14  17
ATOM     17  C   UNL     1       2.160  -1.982   4.081  1.00  0.00     0.045 A 
ATOM     18  C   UNL     1       2.902  -3.148   3.919  1.00  0.00     0.053 A 
ATOM     19  C   UNL     1       2.696  -0.888   4.753  1.00  0.00    -0.038 A 
ATOM     20  C   UNL     1       4.270  -3.089   4.138  1.00  0.00     0.124 A 
ATOM     21  C   UNL     1       4.088  -0.790   4.781  1.00  0.00     0.007 A 
ATOM     22  C   UNL     1       1.742   0.084   5.407  1.00  0.00     0.045 C 
ATOM     23  F   UNL     1       5.019  -4.190   4.010  1.00  0.00    -0.207 F 
ATOM     24  C   UNL     1       4.882  -1.884   4.447  1.00  0.00     0.039 A 
ENDBRANCH  14  17
ENDBRANCH   9  13
ENDBRANCH   6   9
ENDBRANCH   4   5
ENDBRANCH   3   4
ENDBRANCH   2   3
ENDBRANCH   1   2
BRANCH   1  25
ATOM     25  C   UNL     1       4.972   4.525   7.233  1.00  0.00     0.021 C 
BRANCH  25  26
ATOM     26  C   UNL     1       4.731   3.559   8.394  1.00  0.00     0.116 C 
BRANCH  26  27
ATOM     27  N   UNL     1       5.975   3.220   9.065  1.00  0.00    -0.352 N 
ATOM     28  C   UNL     1       6.494   3.769  10.214  1.00  0.00     0.251 C 
ATOM     29  H   UNL     1       6.512   2.511   8.645  1.00  0.00     0.163 HD
ATOM     30  O   UNL     1       7.690   3.669  10.462  1.00  0.00    -0.269 OA
BRANCH  28  31
ATOM     31  C   UNL     1       5.592   4.473  11.149  1.00  0.00     0.039 A 
ATOM     32  C   UNL     1       5.965   5.716  11.664  1.00  0.00     0.014 A 
ATOM     33  C   UNL     1       4.385   3.880  11.536  1.00  0.00     0.014 A 
ATOM     34  C   UNL     1       5.106   6.381  12.542  1.00  0.00     0.010 A 
ATOM     35  C   UNL     1       3.501   4.576  12.354  1.00  0.00     0.010 A 
ATOM     36  C   UNL     1       3.860   5.825  12.881  1.00  0.00    -0.014 A 
BRANCH  36  37
ATOM     37  C   UNL     1       2.934   6.537  13.796  1.00  0.00     0.031 A 
ATOM     38  C   UNL     1       2.598   5.952  15.143  1.00  0.00     0.074 A 
ATOM     39  C   UNL     1       2.369   7.693  13.397  1.00  0.00     0.049 A 
ATOM     40  N   UNL     1       1.847   6.448  16.093  1.00  0.00    -0.248 NA
ATOM     41  C   UNL     1       3.159   4.627  15.454  1.00  0.00     0.031 C 
ATOM     42  C   UNL     1       2.578   8.329  12.094  1.00  0.00     0.029 A 
ATOM     43  N   UNL     1       1.516   8.546  14.050  1.00  0.00    -0.354 N 
ATOM     44  C   UNL     1       1.831   5.492  17.102  1.00  0.00     0.074 A 
ATOM     45  C   UNL     1       2.602   4.365  16.627  1.00  0.00     0.031 C 
ATOM     46  C   UNL     1       1.915   9.497  12.064  1.00  0.00     0.029 A 
ATOM     47  C   UNL     1       1.208   9.675  13.328  1.00  0.00     0.049 A 
ATOM     48  H   UNL     1       1.157   8.366  14.949  1.00  0.00     0.167 HD
ATOM     49  C   UNL     1       1.244   5.554  18.322  1.00  0.00     0.031 A 
ATOM     50  C   UNL     1       0.455  10.742  13.655  1.00  0.00     0.031 A 
ATOM     51  C   UNL     1       0.483   6.684  18.787  1.00  0.00     0.049 A 
ATOM     52  C   UNL     1      -0.180  10.793  15.017  1.00  0.00     0.074 A 
ATOM     53  C   UNL     1      -0.093   6.884  20.029  1.00  0.00     0.029 A 
ATOM     54  N   UNL     1       0.183   7.803  18.023  1.00  0.00    -0.354 N 
ATOM     55  N   UNL     1      -0.109   9.919  15.993  1.00  0.00    -0.248 NA
ATOM     56  C   UNL     1      -0.983  11.983  15.325  1.00  0.00     0.031 C 
ATOM     57  C   UNL     1      -0.793   8.095  19.995  1.00  0.00     0.029 A 
ATOM     58  C   UNL     1      -0.599   8.681  18.754  1.00  0.00     0.049 A 
ATOM     59  H   UNL     1       0.483   7.950  17.097  1.00  0.00     0.167 HD
ATOM     60  C   UNL     1      -0.841  10.464  17.043  1.00  0.00     0.074 A 
ATOM     61  C   UNL     1      -1.324  11.753  16.586  1.00  0.00     0.031 C 
ATOM     62  C   UNL     1      -1.089   9.949  18.273  1.00  0.00     0.031 A 
BRANCH  49  63
ATOM     63  C   UNL     1       1.386   4.354  19.225  1.00  0.00    -0.014 A 
ATOM     64  C   UNL     1       2.631   3.989  19.771  1.00  0.00     0.010 A 
ATOM     65  C   UNL     1       0.253   3.583  19.543  1.00  0.00     0.010 A 
ATOM     66  C   UNL     1       2.750   2.847  20.569  1.00  0.00     0.020 A 
ATOM     67  C   UNL     1       0.361   2.458  20.367  1.00  0.00     0.020 A 
ATOM     68  C   UNL     1       1.614   2.085  20.857  1.00  0.00     0.054 A 
BRANCH  68  69
ATOM     69  S   UNL     1       1.796   0.609  21.895  1.00  0.00     0.124 S 
ATOM     70  O   UNL     1       2.467  -0.317  20.985  1.00  0.00    -0.237 OA
ATOM     71  O   UNL     1       2.609   1.096  23.006  1.00  0.00    -0.237 OA
ATOM     72  O   UNL     1       0.421   0.255  22.240  1.00  0.00    -0.744 OA
ENDBRANCH  68  69
ENDBRANCH  49  63
BRANCH  50  73
ATOM     73  C   UNL     1       0.306  11.869  12.694  1.00  0.00    -0.014 A 
ATOM     74  C   UNL     1       0.930  13.104  12.946  1.00  0.00     0.010 A 
ATOM     75  C   UNL     1      -0.432  11.707  11.508  1.00  0.00     0.010 A 
ATOM     76  C   UNL     1       0.808  14.159  12.037  1.00  0.00     0.020 A 
ATOM     77  C   UNL     1      -0.532  12.750  10.582  1.00  0.00     0.020 A 
ATOM     78  C   UNL     1       0.082  13.973  10.857  1.00  0.00     0.054 A 
BRANCH  78  79
ATOM     79  S   UNL     1      -0.005  15.334   9.661  1.00  0.00     0.124 S 
ATOM     80  O   UNL     1      -0.901  16.271  10.330  1.00  0.00    -0.237 OA
ATOM     81  O   UNL     1       1.391  15.754   9.559  1.00  0.00    -0.237 OA
ATOM     82  O   UNL     1      -0.544  14.699   8.460  1.00  0.00    -0.744 OA
ENDBRANCH  78  79
ENDBRANCH  50  73
BRANCH  62  83
ATOM     83  C   UNL     1      -1.908  10.794  19.213  1.00  0.00    -0.014 A 
ATOM     84  C   UNL     1      -3.279  11.017  18.988  1.00  0.00     0.010 A 
ATOM     85  C   UNL     1      -1.299  11.361  20.347  1.00  0.00     0.010 A 
ATOM     86  C   UNL     1      -4.011  11.838  19.849  1.00  0.00     0.020 A 
ATOM     87  C   UNL     1      -2.035  12.154  21.229  1.00  0.00     0.020 A 
ATOM     88  C   UNL     1      -3.382  12.407  20.961  1.00  0.00     0.054 A 
BRANCH  88  89
ATOM     89  S   UNL     1      -4.354  13.465  22.067  1.00  0.00     0.124 S 
ATOM     90  O   UNL     1      -4.489  14.685  21.276  1.00  0.00    -0.237 OA
ATOM     91  O   UNL     1      -5.582  12.695  22.250  1.00  0.00    -0.237 OA
ATOM     92  O   UNL     1      -3.517  13.583  23.258  1.00  0.00    -0.744 OA
ENDBRANCH  88  89
ENDBRANCH  62  83
ENDBRANCH  36  37
ENDBRANCH  28  31
ENDBRANCH  26  27
ENDBRANCH  25  26
ENDBRANCH   1  25
TORSDOF 19
