REMARK SMILES O=C(NCCCCCCNC(=O)c1ccn(-c2cc(-c3ccncc3)nc(-c3ccccc3F)n2)n1)c1ccc(-c2c3nc(c(-c4ccc(S(=O)(=O)[O-])cc4)c4ccc([nH]4)c(-c4ccc(S(=O)(=O)[O-])cc4)c4nc(c(-c5ccc(S(=O)(=O)[O-])cc5)c5ccc2[nH]5)C=C4)C=C3)cc1
REMARK SMILES IDX 6 1 5 2 4 3 3 4 1 5 2 6 37 8 38 9 96 10 39 11 95 12 40 13
REMARK SMILES IDX 41 14 42 15 89 16 43 17 94 18 88 19 90 20 44 21 93 22 87 23
REMARK SMILES IDX 86 24 45 26 75 27 56 28 74 29 57 30 60 31 73 32 91 33 58 34
REMARK SMILES IDX 59 35 72 37 92 38 61 39 46 40 47 41 55 42 48 43 54 44 49 45
REMARK SMILES IDX 50 46 51 47 52 48 53 49 76 50 77 51 85 52 78 53 84 54 79 55
REMARK SMILES IDX 80 56 81 57 82 58 83 59 62 60 63 61 71 62 64 63 70 64 65 65
REMARK SMILES IDX 66 66 67 67 68 68 69 69 7 70 8 71 9 72 10 73 11 74 12 76
REMARK SMILES IDX 13 77 14 78 36 79 15 80 16 81 17 82 18 83 35 84 19 85 27 86
REMARK SMILES IDX 26 87 20 88 21 89 25 90 22 91 24 92 23 93 28 94 29 95 33 96
REMARK SMILES IDX 30 97 32 98 34 99 31 100
REMARK H PARENT 3 7 90 25 60 36 10 75
REMARK Flexibility Score: inf
ROOT
ATOM      1  C   UNL     1       4.243   3.233   1.176  1.00  0.00     0.002 C 
ENDROOT
BRANCH   1   2
ATOM      2  C   UNL     1       4.750   2.185   0.176  1.00  0.00     0.021 C 
BRANCH   2   3
ATOM      3  C   UNL     1       4.568   0.740   0.632  1.00  0.00     0.116 C 
BRANCH   3   4
ATOM      4  N   UNL     1       3.186   0.353   0.815  1.00  0.00    -0.352 N 
ATOM      5  O   UNL     1       1.140  -0.425   0.543  1.00  0.00    -0.269 OA
ATOM      6  C   UNL     1       2.197  -0.105  -0.009  1.00  0.00     0.251 C 
ATOM      7  H   UNL     1       2.889   0.441   1.750  1.00  0.00     0.163 HD
BRANCH   6   8
ATOM      8  C   UNL     1       2.280  -0.180  -1.494  1.00  0.00     0.039 A 
ATOM      9  C   UNL     1       3.450  -0.159  -2.255  1.00  0.00     0.014 A 
ATOM     10  C   UNL     1       1.046  -0.283  -2.166  1.00  0.00     0.014 A 
ATOM     11  C   UNL     1       3.385  -0.157  -3.648  1.00  0.00     0.010 A 
ATOM     12  C   UNL     1       0.977  -0.296  -3.554  1.00  0.00     0.010 A 
ATOM     13  C   UNL     1       2.148  -0.199  -4.298  1.00  0.00    -0.014 A 
BRANCH  13  14
ATOM     14  C   UNL     1       2.126  -0.318  -5.756  1.00  0.00     0.031 A 
ATOM     15  C   UNL     1       2.725  -1.581  -6.285  1.00  0.00     0.074 A 
ATOM     16  C   UNL     1       1.482   0.541  -6.574  1.00  0.00     0.049 A 
ATOM     17  N   UNL     1       3.732  -1.719  -7.084  1.00  0.00    -0.248 NA
ATOM     18  C   UNL     1       2.193  -2.856  -5.773  1.00  0.00     0.031 C 
ATOM     19  C   UNL     1       0.603   1.655  -6.208  1.00  0.00     0.029 A 
ATOM     20  N   UNL     1       1.396   0.524  -7.935  1.00  0.00    -0.354 N 
ATOM     21  C   UNL     1       3.861  -3.088  -7.317  1.00  0.00     0.074 A 
ATOM     22  C   UNL     1       2.973  -3.743  -6.391  1.00  0.00     0.031 C 
ATOM     23  C   UNL     1      -0.100   2.049  -7.298  1.00  0.00     0.029 A 
ATOM     24  C   UNL     1       0.382   1.320  -8.459  1.00  0.00     0.049 A 
ATOM     25  H   UNL     1       2.002  -0.008  -8.500  1.00  0.00     0.167 HD
ATOM     26  C   UNL     1       4.557  -3.591  -8.376  1.00  0.00     0.031 A 
ATOM     27  C   UNL     1      -0.062   1.338  -9.744  1.00  0.00     0.031 A 
ATOM     28  C   UNL     1       5.433  -2.614  -8.960  1.00  0.00     0.049 A 
ATOM     29  C   UNL     1       1.007   0.753 -10.587  1.00  0.00     0.074 A 
ATOM     30  C   UNL     1       6.527  -1.903  -8.509  1.00  0.00     0.029 A 
ATOM     31  N   UNL     1       4.991  -1.952 -10.080  1.00  0.00    -0.354 N 
ATOM     32  N   UNL     1       2.170   1.314 -10.761  1.00  0.00    -0.248 NA
ATOM     33  C   UNL     1       0.952  -0.671 -10.870  1.00  0.00     0.031 C 
ATOM     34  C   UNL     1       6.369  -0.600  -9.066  1.00  0.00     0.029 A 
ATOM     35  C   UNL     1       5.235  -0.616  -9.880  1.00  0.00     0.049 A 
ATOM     36  H   UNL     1       4.578  -2.359 -10.876  1.00  0.00     0.167 HD
ATOM     37  C   UNL     1       3.076   0.264 -10.747  1.00  0.00     0.074 A 
ATOM     38  C   UNL     1       2.260  -0.940 -10.899  1.00  0.00     0.031 C 
ATOM     39  C   UNL     1       4.368   0.447 -10.345  1.00  0.00     0.031 A 
BRANCH  26  40
ATOM     40  C   UNL     1       4.197  -4.876  -9.078  1.00  0.00    -0.014 A 
ATOM     41  C   UNL     1       5.044  -5.382 -10.085  1.00  0.00     0.010 A 
ATOM     42  C   UNL     1       2.921  -5.467  -8.961  1.00  0.00     0.010 A 
ATOM     43  C   UNL     1       4.617  -6.397 -10.955  1.00  0.00     0.020 A 
ATOM     44  C   UNL     1       2.501  -6.505  -9.795  1.00  0.00     0.020 A 
ATOM     45  C   UNL     1       3.342  -6.946 -10.807  1.00  0.00     0.054 A 
BRANCH  45  46
ATOM     46  S   UNL     1       2.768  -8.194 -11.986  1.00  0.00     0.124 S 
ATOM     47  O   UNL     1       2.710  -7.433 -13.230  1.00  0.00    -0.237 OA
ATOM     48  O   UNL     1       3.823  -9.201 -11.909  1.00  0.00    -0.237 OA
ATOM     49  O   UNL     1       1.476  -8.610 -11.444  1.00  0.00    -0.744 OA
ENDBRANCH  45  46
ENDBRANCH  26  40
BRANCH  27  50
ATOM     50  C   UNL     1      -1.456   1.498 -10.238  1.00  0.00    -0.014 A 
ATOM     51  C   UNL     1      -1.730   1.747 -11.598  1.00  0.00     0.010 A 
ATOM     52  C   UNL     1      -2.534   1.105  -9.418  1.00  0.00     0.010 A 
ATOM     53  C   UNL     1      -3.020   1.551 -12.127  1.00  0.00     0.020 A 
ATOM     54  C   UNL     1      -3.820   0.911  -9.937  1.00  0.00     0.020 A 
ATOM     55  C   UNL     1      -4.053   1.112 -11.296  1.00  0.00     0.054 A 
BRANCH  55  56
ATOM     56  S   UNL     1      -5.668   0.683 -12.016  1.00  0.00     0.124 S 
ATOM     57  O   UNL     1      -6.203   1.990 -12.385  1.00  0.00    -0.237 OA
ATOM     58  O   UNL     1      -5.300  -0.186 -13.130  1.00  0.00    -0.237 OA
ATOM     59  O   UNL     1      -6.368   0.015 -10.920  1.00  0.00    -0.744 OA
ENDBRANCH  55  56
ENDBRANCH  27  50
BRANCH  39  60
ATOM     60  C   UNL     1       4.867   1.863 -10.145  1.00  0.00    -0.014 A 
ATOM     61  C   UNL     1       4.312   2.768  -9.217  1.00  0.00     0.010 A 
ATOM     62  C   UNL     1       6.042   2.239 -10.819  1.00  0.00     0.010 A 
ATOM     63  C   UNL     1       4.903   4.023  -8.993  1.00  0.00     0.020 A 
ATOM     64  C   UNL     1       6.645   3.477 -10.588  1.00  0.00     0.020 A 
ATOM     65  C   UNL     1       6.069   4.368  -9.683  1.00  0.00     0.054 A 
BRANCH  65  66
ATOM     66  S   UNL     1       6.858   5.971  -9.360  1.00  0.00     0.124 S 
ATOM     67  O   UNL     1       5.901   6.918  -9.926  1.00  0.00    -0.237 OA
ATOM     68  O   UNL     1       6.975   5.989  -7.903  1.00  0.00    -0.237 OA
ATOM     69  O   UNL     1       8.133   5.881 -10.072  1.00  0.00    -0.744 OA
ENDBRANCH  65  66
ENDBRANCH  39  60
ENDBRANCH  13  14
ENDBRANCH   6   8
ENDBRANCH   3   4
ENDBRANCH   2   3
ENDBRANCH   1   2
BRANCH   1  70
ATOM     70  C   UNL     1       4.815   3.124   2.595  1.00  0.00     0.002 C 
BRANCH  70  71
ATOM     71  C   UNL     1       6.346   3.123   2.687  1.00  0.00     0.021 C 
BRANCH  71  72
ATOM     72  C   UNL     1       7.013   4.380   2.130  1.00  0.00     0.116 C 
BRANCH  72  73
ATOM     73  N   UNL     1       6.697   5.536   2.948  1.00  0.00    -0.351 N 
ATOM     74  C   UNL     1       7.553   6.278   3.717  1.00  0.00     0.271 C 
ATOM     75  H   UNL     1       5.755   5.821   2.950  1.00  0.00     0.163 HD
ATOM     76  O   UNL     1       7.086   7.067   4.548  1.00  0.00    -0.267 OA
BRANCH  74  77
ATOM     77  C   UNL     1       8.991   6.145   3.486  1.00  0.00     0.150 A 
ATOM     78  C   UNL     1       9.683   6.432   2.279  1.00  0.00     0.056 A 
ATOM     79  N   UNL     1       9.841   5.738   4.446  1.00  0.00    -0.161 NA
ATOM     80  C   UNL     1      11.013   6.330   2.600  1.00  0.00     0.118 A 
ATOM     81  N   UNL     1      11.072   5.960   3.921  1.00  0.00    -0.222 N 
BRANCH  81  82
ATOM     82  C   UNL     1      12.251   5.838   4.701  1.00  0.00     0.158 A 
ATOM     83  C   UNL     1      12.245   4.985   5.782  1.00  0.00     0.078 A 
ATOM     84  N   UNL     1      13.328   6.569   4.341  1.00  0.00    -0.209 NA
ATOM     85  C   UNL     1      13.437   4.872   6.467  1.00  0.00     0.077 A 
ATOM     86  C   UNL     1      14.408   6.463   5.131  1.00  0.00     0.165 A 
ATOM     87  N   UNL     1      14.515   5.635   6.186  1.00  0.00    -0.228 NA
BRANCH  85  88
ATOM     88  C   UNL     1      13.614   3.864   7.514  1.00  0.00     0.003 A 
ATOM     89  C   UNL     1      13.549   2.499   7.205  1.00  0.00     0.030 A 
ATOM     90  C   UNL     1      13.839   4.227   8.844  1.00  0.00     0.030 A 
ATOM     91  C   UNL     1      13.691   1.572   8.224  1.00  0.00     0.111 A 
ATOM     92  C   UNL     1      13.960   3.225   9.794  1.00  0.00     0.111 A 
ATOM     93  N   UNL     1      13.887   1.906   9.516  1.00  0.00    -0.265 NA
ENDBRANCH  85  88
BRANCH  86  94
ATOM     94  C   UNL     1      15.483   7.415   4.887  1.00  0.00     0.055 A 
ATOM     95  C   UNL     1      15.261   8.799   5.022  1.00  0.00     0.015 A 
ATOM     96  C   UNL     1      16.752   6.994   4.486  1.00  0.00     0.134 A 
ATOM     97  C   UNL     1      16.280   9.722   4.769  1.00  0.00     0.001 A 
ATOM     98  C   UNL     1      17.772   7.910   4.221  1.00  0.00     0.040 A 
ATOM     99  F   UNL     1      17.012   5.689   4.313  1.00  0.00    -0.206 F 
ATOM    100  C   UNL     1      17.536   9.276   4.365  1.00  0.00     0.003 A 
ENDBRANCH  86  94
ENDBRANCH  81  82
ENDBRANCH  74  77
ENDBRANCH  72  73
ENDBRANCH  71  72
ENDBRANCH  70  71
ENDBRANCH   1  70
TORSDOF 19
