REMARK SMILES COCCCC(=O)N[C@H]1CC[C@@H](C(=O)NCCCCCCNC(=O)c2ccc(-c3c4nc(c(-c5ccc(S(=O)(=O)[O-])cc5)c5ccc([nH]5)c(-c5ccc(S(=O)(=O)[O-])cc5)c5nc(c(-c6ccc(S(=O)(=O)[O-])cc6)c6ccc3[nH]6)C=C5)C=C4)cc2)CC1
REMARK SMILES IDX 17 1 16 2 15 3 13 4 14 5 12 7 9 8 10 9 86 10 11 11 85 12
REMARK SMILES IDX 8 13 6 14 7 15 5 17 4 18 3 19 2 20 1 21 18 22 19 23 20 24
REMARK SMILES IDX 21 25 22 26 23 27 24 29 25 30 26 31 84 32 27 33 83 34 28 35
REMARK SMILES IDX 29 36 30 37 77 38 31 39 82 40 76 41 78 42 32 43 81 44 75 45
REMARK SMILES IDX 74 46 33 48 63 49 44 50 62 51 45 52 48 53 61 54 79 55 46 56
REMARK SMILES IDX 47 57 60 59 80 60 49 61 34 62 35 63 43 64 36 65 42 66 37 67
REMARK SMILES IDX 38 68 39 69 40 70 41 71 64 72 65 73 73 74 66 75 72 76 67 77
REMARK SMILES IDX 68 78 69 79 70 80 71 81 50 82 51 83 59 84 52 85 58 86 53 87
REMARK SMILES IDX 54 88 55 89 56 90 57 91
REMARK H PARENT 15 6 8 16 22 28 78 47 48 58
REMARK Flexibility Score: inf
ROOT
ATOM      1  C   UNL     1       5.790  -0.405   1.312  1.00  0.00     0.021 C 
ENDROOT
BRANCH   1   2
ATOM      2  C   UNL     1       5.573  -1.736   0.585  1.00  0.00     0.116 C 
BRANCH   2   3
ATOM      3  N   UNL     1       5.199  -2.820   1.470  1.00  0.00    -0.356 N 
ATOM      4  C   UNL     1       4.111  -3.619   1.573  1.00  0.00     0.223 C 
ATOM      5  O   UNL     1       4.239  -4.592   2.329  1.00  0.00    -0.275 OA
ATOM      6  H   UNL     1       5.888  -3.020   2.144  1.00  0.00     0.163 HD
BRANCH   4   7
ATOM      7  C   UNL     1       2.756  -3.393   0.887  1.00  0.00     0.078 C 
ATOM      8  C   UNL     1       2.216  -1.015  -0.845  1.00  0.00     0.082 C 
ATOM      9  C   UNL     1       2.794  -2.296  -1.464  1.00  0.00     0.026 C 
ATOM     10  C   UNL     1       2.292  -0.893   0.676  1.00  0.00     0.026 C 
ATOM     11  C   UNL     1       2.682  -3.561  -0.628  1.00  0.00     0.015 C 
ATOM     12  C   UNL     1       1.977  -2.188   1.402  1.00  0.00     0.015 C 
BRANCH   8  13
ATOM     13  N   UNL     1       2.845   0.122  -1.504  1.00  0.00    -0.353 N 
ATOM     14  C   UNL     1       2.348   1.215  -2.127  1.00  0.00     0.220 C 
ATOM     15  O   UNL     1       3.168   1.958  -2.673  1.00  0.00    -0.275 OA
ATOM     16  H   UNL     1       3.829   0.088  -1.493  1.00  0.00     0.163 HD
BRANCH  14  17
ATOM     17  C   UNL     1       0.885   1.587  -2.062  1.00  0.00     0.102 C 
BRANCH  17  18
ATOM     18  C   UNL     1      -0.109   0.865  -2.970  1.00  0.00     0.038 C 
BRANCH  18  19
ATOM     19  C   UNL     1      -0.603  -0.552  -2.662  1.00  0.00     0.160 C 
BRANCH  19  20
ATOM     20  O   UNL     1      -1.123  -0.920  -1.385  1.00  0.00    -0.385 OA
ATOM     21  C   UNL     1      -1.395   0.080  -0.426  1.00  0.00     0.194 C 
ENDBRANCH  19  20
ENDBRANCH  18  19
ENDBRANCH  17  18
ENDBRANCH  14  17
ENDBRANCH   8  13
ENDBRANCH   4   7
ENDBRANCH   2   3
ENDBRANCH   1   2
BRANCH   1  22
ATOM     22  C   UNL     1       7.226   0.112   1.257  1.00  0.00     0.002 C 
BRANCH  22  23
ATOM     23  C   UNL     1       7.771   0.380  -0.152  1.00  0.00     0.002 C 
BRANCH  23  24
ATOM     24  C   UNL     1       6.987   1.387  -1.004  1.00  0.00     0.021 C 
BRANCH  24  25
ATOM     25  C   UNL     1       6.781   2.764  -0.374  1.00  0.00     0.116 C 
BRANCH  25  26
ATOM     26  N   UNL     1       8.034   3.352   0.077  1.00  0.00    -0.352 N 
ATOM     27  C   UNL     1       8.724   4.442  -0.393  1.00  0.00     0.251 C 
ATOM     28  H   UNL     1       8.454   2.895   0.841  1.00  0.00     0.163 HD
ATOM     29  O   UNL     1       9.883   4.628  -0.033  1.00  0.00    -0.269 OA
BRANCH  27  30
ATOM     30  C   UNL     1       8.080   5.385  -1.330  1.00  0.00     0.039 A 
ATOM     31  C   UNL     1       8.797   5.827  -2.446  1.00  0.00     0.014 A 
ATOM     32  C   UNL     1       6.786   5.855  -1.095  1.00  0.00     0.014 A 
ATOM     33  C   UNL     1       8.188   6.683  -3.366  1.00  0.00     0.010 A 
ATOM     34  C   UNL     1       6.160   6.662  -2.042  1.00  0.00     0.010 A 
ATOM     35  C   UNL     1       6.850   7.074  -3.191  1.00  0.00    -0.014 A 
BRANCH  35  36
ATOM     36  C   UNL     1       6.136   7.867  -4.223  1.00  0.00     0.031 A 
ATOM     37  C   UNL     1       5.659   9.260  -3.920  1.00  0.00     0.074 A 
ATOM     38  C   UNL     1       5.841   7.291  -5.405  1.00  0.00     0.049 A 
ATOM     39  N   UNL     1       4.947  10.066  -4.666  1.00  0.00    -0.248 NA
ATOM     40  C   UNL     1       6.010   9.813  -2.602  1.00  0.00     0.031 C 
ATOM     41  C   UNL     1       6.222   5.933  -5.801  1.00  0.00     0.029 A 
ATOM     42  N   UNL     1       5.142   7.768  -6.485  1.00  0.00    -0.354 N 
ATOM     43  C   UNL     1       4.748  11.211  -3.903  1.00  0.00     0.074 A 
ATOM     44  C   UNL     1       5.386  10.982  -2.625  1.00  0.00     0.031 C 
ATOM     45  C   UNL     1       5.772   5.695  -7.043  1.00  0.00     0.029 A 
ATOM     46  C   UNL     1       5.029   6.859  -7.512  1.00  0.00     0.049 A 
ATOM     47  H   UNL     1       4.759   8.673  -6.522  1.00  0.00     0.167 HD
ATOM     48  C   UNL     1       4.098  12.351  -4.242  1.00  0.00     0.031 A 
ATOM     49  C   UNL     1       4.383   6.945  -8.691  1.00  0.00     0.031 A 
ATOM     50  C   UNL     1       3.468  12.570  -5.518  1.00  0.00     0.049 A 
ATOM     51  C   UNL     1       3.636   8.205  -9.026  1.00  0.00     0.074 A 
ATOM     52  C   UNL     1       2.848  13.717  -5.984  1.00  0.00     0.029 A 
ATOM     53  N   UNL     1       3.362  11.621  -6.524  1.00  0.00    -0.354 N 
ATOM     54  N   UNL     1       3.525   9.307  -8.324  1.00  0.00    -0.248 NA
ATOM     55  C   UNL     1       2.925   8.233 -10.312  1.00  0.00     0.031 C 
ATOM     56  C   UNL     1       2.314  13.441  -7.247  1.00  0.00     0.029 A 
ATOM     57  C   UNL     1       2.651  12.142  -7.593  1.00  0.00     0.049 A 
ATOM     58  H   UNL     1       3.737  10.712  -6.485  1.00  0.00     0.167 HD
ATOM     59  C   UNL     1       2.747  10.167  -9.090  1.00  0.00     0.074 A 
ATOM     60  C   UNL     1       2.429   9.463 -10.316  1.00  0.00     0.031 C 
ATOM     61  C   UNL     1       2.333  11.425  -8.803  1.00  0.00     0.031 A 
BRANCH  48  62
ATOM     62  C   UNL     1       4.017  13.444  -3.209  1.00  0.00    -0.014 A 
ATOM     63  C   UNL     1       5.153  14.187  -2.841  1.00  0.00     0.010 A 
ATOM     64  C   UNL     1       2.774  13.765  -2.632  1.00  0.00     0.010 A 
ATOM     65  C   UNL     1       5.056  15.201  -1.885  1.00  0.00     0.020 A 
ATOM     66  C   UNL     1       2.668  14.797  -1.695  1.00  0.00     0.020 A 
ATOM     67  C   UNL     1       3.815  15.498  -1.315  1.00  0.00     0.054 A 
BRANCH  67  68
ATOM     68  S   UNL     1       3.716  16.832  -0.089  1.00  0.00     0.124 S 
ATOM     69  O   UNL     1       4.356  16.221   1.073  1.00  0.00    -0.237 OA
ATOM     70  O   UNL     1       4.468  17.910  -0.727  1.00  0.00    -0.237 OA
ATOM     71  O   UNL     1       2.281  17.074   0.046  1.00  0.00    -0.744 OA
ENDBRANCH  67  68
ENDBRANCH  48  62
BRANCH  49  72
ATOM     72  C   UNL     1       4.419   5.800  -9.641  1.00  0.00    -0.014 A 
ATOM     73  C   UNL     1       5.155   5.893 -10.835  1.00  0.00     0.010 A 
ATOM     74  C   UNL     1       3.739   4.603  -9.348  1.00  0.00     0.010 A 
ATOM     75  C   UNL     1       5.202   4.815 -11.724  1.00  0.00     0.020 A 
ATOM     76  C   UNL     1       3.805   3.514 -10.222  1.00  0.00     0.020 A 
ATOM     77  C   UNL     1       4.529   3.631 -11.410  1.00  0.00     0.054 A 
BRANCH  77  78
ATOM     78  S   UNL     1       4.653   2.226 -12.551  1.00  0.00     0.124 S 
ATOM     79  O   UNL     1       3.804   2.657 -13.657  1.00  0.00    -0.237 OA
ATOM     80  O   UNL     1       6.085   2.175 -12.835  1.00  0.00    -0.237 OA
ATOM     81  O   UNL     1       4.141   1.103 -11.769  1.00  0.00    -0.744 OA
ENDBRANCH  77  78
ENDBRANCH  49  72
BRANCH  61  82
ATOM     82  C   UNL     1       1.498  12.133  -9.836  1.00  0.00    -0.014 A 
ATOM     83  C   UNL     1       0.155  11.775 -10.048  1.00  0.00     0.010 A 
ATOM     84  C   UNL     1       2.043  13.213 -10.553  1.00  0.00     0.010 A 
ATOM     85  C   UNL     1      -0.624  12.474 -10.974  1.00  0.00     0.020 A 
ATOM     86  C   UNL     1       1.260  13.931 -11.460  1.00  0.00     0.020 A 
ATOM     87  C   UNL     1      -0.067  13.551 -11.672  1.00  0.00     0.054 A 
BRANCH  87  88
ATOM     88  S   UNL     1      -1.118  14.482 -12.820  1.00  0.00     0.124 S 
ATOM     89  O   UNL     1      -1.245  13.552 -13.939  1.00  0.00    -0.237 OA
ATOM     90  O   UNL     1      -2.334  14.696 -12.040  1.00  0.00    -0.237 OA
ATOM     91  O   UNL     1      -0.343  15.689 -13.098  1.00  0.00    -0.744 OA
ENDBRANCH  87  88
ENDBRANCH  61  82
ENDBRANCH  35  36
ENDBRANCH  27  30
ENDBRANCH  25  26
ENDBRANCH  24  25
ENDBRANCH  23  24
ENDBRANCH  22  23
ENDBRANCH   1  22
TORSDOF 21
