REMARK SMILES O=C(NCCCCCCNC(=O)c1cccc(Nc2ccc([N+](=O)[O-])cc2)c1)c1ccc(-c2c3nc(c(-c4ccc(S(=O)(=O)[O-])cc4)c4ccc([nH]4)c(-c4ccc(S(=O)(=O)[O-])cc4)c4nc(c(-c5ccc(S(=O)(=O)[O-])cc5)c5ccc2[nH]5)C=C4)C=C3)cc1
REMARK SMILES IDX 6 1 5 2 4 3 3 4 1 5 2 6 29 8 30 9 88 10 31 11 87 12 32 13
REMARK SMILES IDX 33 14 34 15 81 16 35 17 86 18 80 19 82 20 36 21 85 22 79 23
REMARK SMILES IDX 78 24 37 26 67 27 48 28 66 29 49 30 52 31 65 32 83 33 50 34
REMARK SMILES IDX 51 35 64 37 84 38 53 39 38 40 39 41 47 42 40 43 46 44 41 45
REMARK SMILES IDX 42 46 43 47 44 48 45 49 68 50 69 51 77 52 70 53 76 54 71 55
REMARK SMILES IDX 72 56 73 57 74 58 75 59 54 60 55 61 63 62 56 63 62 64 57 65
REMARK SMILES IDX 58 66 59 67 60 68 61 69 7 70 8 71 9 72 10 73 11 74 12 76
REMARK SMILES IDX 13 77 14 78 28 79 15 80 17 81 16 82 18 83 19 85 20 86 27 87
REMARK SMILES IDX 21 88 26 89 22 90 23 91 24 92 25 93
REMARK H PARENT 3 7 82 25 52 36 10 75 18 84
REMARK Flexibility Score: inf
ROOT
ATOM      1  C   UNL     1       4.175  -1.342  -3.590  1.00  0.00     0.002 C 
ENDROOT
BRANCH   1   2
ATOM      2  C   UNL     1       4.641  -1.515  -2.144  1.00  0.00     0.021 C 
BRANCH   2   3
ATOM      3  C   UNL     1       4.398  -0.315  -1.237  1.00  0.00     0.116 C 
BRANCH   3   4
ATOM      4  N   UNL     1       2.986  -0.026  -1.056  1.00  0.00    -0.352 N 
ATOM      5  O   UNL     1       1.057   0.228   0.083  1.00  0.00    -0.269 OA
ATOM      6  C   UNL     1       2.281   0.142   0.111  1.00  0.00     0.251 C 
ATOM      7  H   UNL     1       2.461   0.061  -1.885  1.00  0.00     0.163 HD
BRANCH   6   8
ATOM      8  C   UNL     1       3.001   0.193   1.403  1.00  0.00     0.039 A 
ATOM      9  C   UNL     1       4.156   0.966   1.546  1.00  0.00     0.014 A 
ATOM     10  C   UNL     1       2.508  -0.539   2.487  1.00  0.00     0.014 A 
ATOM     11  C   UNL     1       4.886   0.906   2.728  1.00  0.00     0.010 A 
ATOM     12  C   UNL     1       3.201  -0.534   3.701  1.00  0.00     0.010 A 
ATOM     13  C   UNL     1       4.410   0.169   3.825  1.00  0.00    -0.014 A 
BRANCH  13  14
ATOM     14  C   UNL     1       5.152   0.212   5.110  1.00  0.00     0.031 A 
ATOM     15  C   UNL     1       5.805  -1.017   5.680  1.00  0.00     0.074 A 
ATOM     16  C   UNL     1       5.246   1.390   5.757  1.00  0.00     0.049 A 
ATOM     17  N   UNL     1       6.508  -1.137   6.778  1.00  0.00    -0.248 NA
ATOM     18  C   UNL     1       5.647  -2.272   4.929  1.00  0.00     0.031 C 
ATOM     19  C   UNL     1       4.641   2.648   5.308  1.00  0.00     0.029 A 
ATOM     20  N   UNL     1       5.894   1.730   6.917  1.00  0.00    -0.354 N 
ATOM     21  C   UNL     1       6.858  -2.479   6.863  1.00  0.00     0.074 A 
ATOM     22  C   UNL     1       6.276  -3.138   5.713  1.00  0.00     0.031 C 
ATOM     23  C   UNL     1       4.983   3.628   6.156  1.00  0.00     0.029 A 
ATOM     24  C   UNL     1       5.778   3.061   7.240  1.00  0.00     0.049 A 
ATOM     25  H   UNL     1       6.394   1.083   7.465  1.00  0.00     0.167 HD
ATOM     26  C   UNL     1       7.599  -3.102   7.812  1.00  0.00     0.031 A 
ATOM     27  C   UNL     1       6.242   3.752   8.297  1.00  0.00     0.031 A 
ATOM     28  C   UNL     1       8.176  -2.440   8.954  1.00  0.00     0.049 A 
ATOM     29  C   UNL     1       7.046   3.034   9.341  1.00  0.00     0.074 A 
ATOM     30  C   UNL     1       8.973  -2.979   9.949  1.00  0.00     0.029 A 
ATOM     31  N   UNL     1       8.013  -1.096   9.259  1.00  0.00    -0.354 N 
ATOM     32  N   UNL     1       7.398   1.772   9.381  1.00  0.00    -0.248 NA
ATOM     33  C   UNL     1       7.515   3.833  10.480  1.00  0.00     0.031 C 
ATOM     34  C   UNL     1       9.251  -1.974  10.882  1.00  0.00     0.029 A 
ATOM     35  C   UNL     1       8.673  -0.795  10.439  1.00  0.00     0.049 A 
ATOM     36  H   UNL     1       7.504  -0.452   8.716  1.00  0.00     0.167 HD
ATOM     37  C   UNL     1       8.142   1.626  10.545  1.00  0.00     0.074 A 
ATOM     38  C   UNL     1       8.207   2.934  11.167  1.00  0.00     0.031 C 
ATOM     39  C   UNL     1       8.718   0.509  11.053  1.00  0.00     0.031 A 
BRANCH  26  40
ATOM     40  C   UNL     1       7.810  -4.588   7.673  1.00  0.00    -0.014 A 
ATOM     41  C   UNL     1       8.673  -5.114   6.695  1.00  0.00     0.010 A 
ATOM     42  C   UNL     1       7.177  -5.467   8.571  1.00  0.00     0.010 A 
ATOM     43  C   UNL     1       8.870  -6.495   6.595  1.00  0.00     0.020 A 
ATOM     44  C   UNL     1       7.390  -6.847   8.489  1.00  0.00     0.020 A 
ATOM     45  C   UNL     1       8.224  -7.353   7.490  1.00  0.00     0.054 A 
BRANCH  45  46
ATOM     46  S   UNL     1       8.513  -9.139   7.349  1.00  0.00     0.124 S 
ATOM     47  O   UNL     1       7.741  -9.474   6.155  1.00  0.00    -0.237 OA
ATOM     48  O   UNL     1       9.964  -9.219   7.200  1.00  0.00    -0.237 OA
ATOM     49  O   UNL     1       7.988  -9.676   8.601  1.00  0.00    -0.744 OA
ENDBRANCH  45  46
ENDBRANCH  26  40
BRANCH  27  50
ATOM     50  C   UNL     1       5.939   5.203   8.414  1.00  0.00    -0.014 A 
ATOM     51  C   UNL     1       6.946   6.163   8.221  1.00  0.00     0.010 A 
ATOM     52  C   UNL     1       4.622   5.630   8.671  1.00  0.00     0.010 A 
ATOM     53  C   UNL     1       6.643   7.526   8.289  1.00  0.00     0.020 A 
ATOM     54  C   UNL     1       4.311   6.990   8.712  1.00  0.00     0.020 A 
ATOM     55  C   UNL     1       5.326   7.931   8.529  1.00  0.00     0.054 A 
BRANCH  55  56
ATOM     56  S   UNL     1       4.941   9.704   8.540  1.00  0.00     0.124 S 
ATOM     57  O   UNL     1       5.460  10.118   9.840  1.00  0.00    -0.237 OA
ATOM     58  O   UNL     1       5.677  10.195   7.378  1.00  0.00    -0.237 OA
ATOM     59  O   UNL     1       3.486   9.737   8.405  1.00  0.00    -0.744 OA
ENDBRANCH  55  56
ENDBRANCH  27  50
BRANCH  39  60
ATOM     60  C   UNL     1       9.485   0.657  12.338  1.00  0.00    -0.014 A 
ATOM     61  C   UNL     1       8.819   0.838  13.563  1.00  0.00     0.010 A 
ATOM     62  C   UNL     1      10.889   0.576  12.323  1.00  0.00     0.010 A 
ATOM     63  C   UNL     1       9.547   0.968  14.749  1.00  0.00     0.020 A 
ATOM     64  C   UNL     1      11.618   0.680  13.510  1.00  0.00     0.020 A 
ATOM     65  C   UNL     1      10.943   0.891  14.714  1.00  0.00     0.054 A 
BRANCH  65  66
ATOM     66  S   UNL     1      11.866   1.025  16.270  1.00  0.00     0.124 S 
ATOM     67  O   UNL     1      11.793   2.458  16.543  1.00  0.00    -0.237 OA
ATOM     68  O   UNL     1      11.098   0.172  17.174  1.00  0.00    -0.237 OA
ATOM     69  O   UNL     1      13.194   0.522  15.928  1.00  0.00    -0.744 OA
ENDBRANCH  65  66
ENDBRANCH  39  60
ENDBRANCH  13  14
ENDBRANCH   6   8
ENDBRANCH   3   4
ENDBRANCH   2   3
ENDBRANCH   1   2
BRANCH   1  70
ATOM     70  C   UNL     1       4.729  -0.117  -4.321  1.00  0.00     0.002 C 
BRANCH  70  71
ATOM     71  C   UNL     1       6.255   0.029  -4.314  1.00  0.00     0.021 C 
BRANCH  71  72
ATOM     72  C   UNL     1       7.028  -1.180  -4.833  1.00  0.00     0.116 C 
BRANCH  72  73
ATOM     73  N   UNL     1       6.697  -1.484  -6.214  1.00  0.00    -0.352 N 
ATOM     74  C   UNL     1       7.526  -1.596  -7.299  1.00  0.00     0.251 C 
ATOM     75  H   UNL     1       5.741  -1.631  -6.397  1.00  0.00     0.163 HD
ATOM     76  O   UNL     1       7.059  -1.677  -8.432  1.00  0.00    -0.269 OA
BRANCH  74  77
ATOM     77  C   UNL     1       8.989  -1.613  -7.111  1.00  0.00     0.041 A 
ATOM     78  C   UNL     1       9.772  -0.755  -7.884  1.00  0.00     0.014 A 
ATOM     79  C   UNL     1       9.587  -2.511  -6.216  1.00  0.00     0.039 A 
ATOM     80  C   UNL     1      11.154  -0.767  -7.728  1.00  0.00     0.003 A 
ATOM     81  C   UNL     1      10.977  -2.537  -6.053  1.00  0.00     0.039 A 
ATOM     82  C   UNL     1      11.745  -1.645  -6.814  1.00  0.00     0.026 A 
BRANCH  81  83
ATOM     83  N   UNL     1      11.537  -3.432  -5.123  1.00  0.00    -0.356 N 
ATOM     84  H   UNL     1      10.906  -4.090  -4.751  1.00  0.00     0.167 HD
BRANCH  83  85
ATOM     85  C   UNL     1      12.851  -3.538  -4.641  1.00  0.00     0.039 A 
ATOM     86  C   UNL     1      13.470  -4.796  -4.632  1.00  0.00     0.033 A 
ATOM     87  C   UNL     1      13.602  -2.416  -4.265  1.00  0.00     0.033 A 
ATOM     88  C   UNL     1      14.820  -4.931  -4.296  1.00  0.00     0.088 A 
ATOM     89  C   UNL     1      14.950  -2.535  -3.915  1.00  0.00     0.088 A 
ATOM     90  C   UNL     1      15.560  -3.794  -3.952  1.00  0.00     0.269 A 
BRANCH  90  91
ATOM     91  N   UNL     1      16.995  -3.918  -3.670  1.00  0.00     0.062 N 
ATOM     92  O   UNL     1      17.505  -5.044  -3.758  1.00  0.00    -0.258 OA
ATOM     93  O   UNL     1      17.619  -2.885  -3.388  1.00  0.00    -0.258 OA
ENDBRANCH  90  91
ENDBRANCH  83  85
ENDBRANCH  81  83
ENDBRANCH  74  77
ENDBRANCH  72  73
ENDBRANCH  71  72
ENDBRANCH  70  71
ENDBRANCH   1  70
TORSDOF 19
