REMARK SMILES CC1(C)CC[C@@]2(C(=O)NCCCCCCNC(=O)c3ccc(-c4c5nc(c(-c6ccc(S(=O)(=O)[O-])cc6)c6ccc([nH]6)c(-c6ccc(S(=O)(=O)[O-])cc6)c6nc(c(-c7ccc(S(=O)(=O)[O-])cc7)c7ccc4[nH]7)C=C6)C=C5)cc3)CC[C@@]3(C)C(=CC[C@H]4[C@@]5(C)CC[C@H](O)C(C)(C)[C@@H]5CC[C@]43C)[C@@H]2C1
REMARK SMILES IDX 13 1 12 2 11 3 10 4 9 5 7 6 8 7 6 9 1 10 2 11 3 12 4 13
REMARK SMILES IDX 102 14 5 15 101 16 83 17 79 18 81 19 84 20 80 21 82 22 99 23
REMARK SMILES IDX 85 24 86 25 98 26 100 27 87 28 97 29 88 30 89 31 96 32 90 33
REMARK SMILES IDX 93 34 91 35 94 36 95 37 92 38 14 40 15 41 16 42 17 43 18 45
REMARK SMILES IDX 19 46 20 47 78 48 21 49 77 50 22 51 23 52 24 53 71 54 25 55
REMARK SMILES IDX 76 56 70 57 72 58 26 59 75 60 69 61 68 62 27 64 57 65 38 66
REMARK SMILES IDX 56 67 39 68 42 69 55 70 73 71 40 72 41 73 54 75 74 76 43 77
REMARK SMILES IDX 28 78 29 79 37 80 30 81 36 82 31 83 32 84 33 85 34 86 35 87
REMARK SMILES IDX 58 88 59 89 67 90 60 91 66 92 61 93 62 94 63 95 64 96 65 97
REMARK SMILES IDX 44 98 45 99 53 100 46 101 52 102 47 103 48 104 49 105 50 106
REMARK SMILES IDX 51 107
REMARK H PARENT 9 8 92 39 16 44 72 63 42 74
REMARK Flexibility Score: inf
ROOT
ATOM      1  C   UNL     1      -0.392  -0.426  -4.236  1.00  0.00     0.002 C 
ENDROOT
BRANCH   1   2
ATOM      2  C   UNL     1      -1.213  -1.628  -3.792  1.00  0.00     0.002 C 
BRANCH   2   3
ATOM      3  C   UNL     1      -0.540  -2.774  -3.013  1.00  0.00     0.021 C 
BRANCH   3   4
ATOM      4  C   UNL     1       0.055  -2.531  -1.626  1.00  0.00     0.116 C 
BRANCH   4   5
ATOM      5  N   UNL     1      -0.740  -1.914  -0.591  1.00  0.00    -0.356 N 
ATOM      6  C   UNL     1      -0.796  -2.279   0.745  1.00  0.00     0.226 C 
ATOM      7  O   UNL     1      -0.884  -3.456   1.093  1.00  0.00    -0.274 OA
ATOM      8  H   UNL     1      -1.303  -1.154  -0.864  1.00  0.00     0.163 HD
BRANCH   6   9
ATOM      9  C   UNL     1      -0.564  -1.126   1.797  1.00  0.00     0.056 C 
ATOM     10  C   UNL     1       3.078   0.569   1.341  1.00  0.00     0.011 C 
ATOM     11  C   UNL     1       2.092  -0.346   0.590  1.00  0.00    -0.035 C 
ATOM     12  C   UNL     1       2.840  -0.776  -0.707  1.00  0.00     0.011 C 
ATOM     13  C   UNL     1       1.890  -1.614   1.442  1.00  0.00     0.007 C 
ATOM     14  C   UNL     1       0.756   0.463   0.258  1.00  0.00     0.015 C 
ATOM     15  C   UNL     1       0.789  -1.454   2.469  1.00  0.00     0.018 C 
ATOM     16  C   UNL     1      -0.530   0.296   1.186  1.00  0.00     0.031 C 
ATOM     17  C   UNL     1      -1.990   0.578   0.611  1.00  0.00    -0.064 C 
ATOM     18  C   UNL     1      -1.596  -1.115   2.943  1.00  0.00     0.018 C 
ATOM     19  C   UNL     1      -3.235   0.370   1.553  1.00  0.00    -0.006 C 
ATOM     20  C   UNL     1      -2.184   0.867  -0.687  1.00  0.00    -0.027 C 
ATOM     21  C   UNL     1      -3.016  -0.857   2.471  1.00  0.00     0.013 C 
ATOM     22  C   UNL     1      -3.238   1.636   2.473  1.00  0.00     0.017 C 
ATOM     23  C   UNL     1      -4.710   0.235   0.772  1.00  0.00    -0.020 C 
ATOM     24  C   UNL     1      -3.461   0.631  -1.430  1.00  0.00     0.032 C 
ATOM     25  C   UNL     1      -4.541  -0.228  -0.714  1.00  0.00     0.006 C 
ATOM     26  C   UNL     1      -5.820  -0.641   1.489  1.00  0.00     0.008 C 
ATOM     27  C   UNL     1      -5.385   1.660   0.666  1.00  0.00     0.012 C 
ATOM     28  C   UNL     1      -4.718  -1.789  -1.121  1.00  0.00    -0.025 C 
ATOM     29  C   UNL     1      -6.532  -1.716   0.621  1.00  0.00     0.005 C 
ATOM     30  C   UNL     1      -5.423  -1.718  -2.510  1.00  0.00     0.012 C 
ATOM     31  C   UNL     1      -3.452  -2.616  -1.278  1.00  0.00     0.010 C 
ATOM     32  C   UNL     1      -5.482  -2.607  -0.029  1.00  0.00     0.003 C 
ATOM     33  C   UNL     1      -3.624  -4.070  -1.728  1.00  0.00     0.033 C 
ATOM     34  C   UNL     1      -5.824  -4.115  -0.401  1.00  0.00    -0.006 C 
ATOM     35  C   UNL     1      -4.492  -4.852  -0.758  1.00  0.00     0.120 C 
ATOM     36  C   UNL     1      -6.852  -4.289  -1.534  1.00  0.00     0.014 C 
ATOM     37  C   UNL     1      -6.402  -4.857   0.828  1.00  0.00     0.014 C 
BRANCH  35  38
ATOM     38  O   UNL     1      -4.739  -6.149  -1.302  1.00  0.00    -0.393 OA
ATOM     39  H   UNL     1      -5.220  -6.062  -2.140  1.00  0.00     0.210 HD
ENDBRANCH  35  38
ENDBRANCH   6   9
ENDBRANCH   4   5
ENDBRANCH   3   4
ENDBRANCH   2   3
ENDBRANCH   1   2
BRANCH   1  40
ATOM     40  C   UNL     1       0.780  -0.728  -5.152  1.00  0.00     0.021 C 
BRANCH  40  41
ATOM     41  C   UNL     1       0.531  -1.810  -6.188  1.00  0.00     0.116 C 
BRANCH  41  42
ATOM     42  N   UNL     1      -0.598  -1.573  -7.072  1.00  0.00    -0.352 N 
ATOM     43  C   UNL     1      -0.812  -2.201  -8.289  1.00  0.00     0.251 C 
ATOM     44  H   UNL     1      -1.267  -0.910  -6.783  1.00  0.00     0.163 HD
ATOM     45  O   UNL     1      -1.775  -1.976  -8.978  1.00  0.00    -0.269 OA
BRANCH  43  46
ATOM     46  C   UNL     1       0.251  -3.139  -8.716  1.00  0.00     0.039 A 
ATOM     47  C   UNL     1       1.121  -2.730  -9.726  1.00  0.00     0.014 A 
ATOM     48  C   UNL     1       0.504  -4.282  -7.953  1.00  0.00     0.014 A 
ATOM     49  C   UNL     1       2.290  -3.455  -9.943  1.00  0.00     0.010 A 
ATOM     50  C   UNL     1       1.708  -4.955  -8.123  1.00  0.00     0.010 A 
ATOM     51  C   UNL     1       2.608  -4.551  -9.123  1.00  0.00    -0.014 A 
BRANCH  51  52
ATOM     52  C   UNL     1       3.869  -5.303  -9.327  1.00  0.00     0.031 A 
ATOM     53  C   UNL     1       3.807  -6.733  -9.789  1.00  0.00     0.074 A 
ATOM     54  C   UNL     1       5.056  -4.716  -9.072  1.00  0.00     0.049 A 
ATOM     55  N   UNL     1       4.788  -7.560 -10.037  1.00  0.00    -0.248 NA
ATOM     56  C   UNL     1       2.467  -7.317  -9.970  1.00  0.00     0.031 C 
ATOM     57  C   UNL     1       5.238  -3.352  -8.569  1.00  0.00     0.029 A 
ATOM     58  N   UNL     1       6.336  -5.192  -9.205  1.00  0.00    -0.354 N 
ATOM     59  C   UNL     1       4.184  -8.762 -10.386  1.00  0.00     0.074 A 
ATOM     60  C   UNL     1       2.757  -8.575 -10.264  1.00  0.00     0.031 C 
ATOM     61  C   UNL     1       6.553  -3.093  -8.465  1.00  0.00     0.029 A 
ATOM     62  C   UNL     1       7.306  -4.278  -8.866  1.00  0.00     0.049 A 
ATOM     63  H   UNL     1       6.541  -6.104  -9.514  1.00  0.00     0.167 HD
ATOM     64  C   UNL     1       4.766  -9.912 -10.797  1.00  0.00     0.031 A 
ATOM     65  C   UNL     1       8.649  -4.383  -8.880  1.00  0.00     0.031 A 
ATOM     66  C   UNL     1       6.185 -10.084 -10.939  1.00  0.00     0.049 A 
ATOM     67  C   UNL     1       9.273  -5.667  -9.359  1.00  0.00     0.074 A 
ATOM     68  C   UNL     1       6.875 -11.184 -11.416  1.00  0.00     0.029 A 
ATOM     69  N   UNL     1       7.133  -9.129 -10.603  1.00  0.00    -0.354 N 
ATOM     70  N   UNL     1       8.684  -6.764  -9.771  1.00  0.00    -0.248 NA
ATOM     71  C   UNL     1      10.741  -5.722  -9.390  1.00  0.00     0.031 C 
ATOM     72  C   UNL     1       8.243 -10.913 -11.318  1.00  0.00     0.029 A 
ATOM     73  C   UNL     1       8.403  -9.623 -10.836  1.00  0.00     0.049 A 
ATOM     74  H   UNL     1       6.931  -8.232 -10.250  1.00  0.00     0.167 HD
ATOM     75  C   UNL     1       9.708  -7.632 -10.131  1.00  0.00     0.074 A 
ATOM     76  C   UNL     1      10.953  -6.925  -9.906  1.00  0.00     0.031 C 
ATOM     77  C   UNL     1       9.628  -8.901 -10.604  1.00  0.00     0.031 A 
BRANCH  64  78
ATOM     78  C   UNL     1       3.862 -11.072 -11.120  1.00  0.00    -0.014 A 
ATOM     79  C   UNL     1       3.027 -11.052 -12.252  1.00  0.00     0.010 A 
ATOM     80  C   UNL     1       3.872 -12.212 -10.296  1.00  0.00     0.010 A 
ATOM     81  C   UNL     1       2.190 -12.134 -12.533  1.00  0.00     0.020 A 
ATOM     82  C   UNL     1       3.058 -13.309 -10.591  1.00  0.00     0.020 A 
ATOM     83  C   UNL     1       2.210 -13.256 -11.700  1.00  0.00     0.054 A 
BRANCH  83  84
ATOM     84  S   UNL     1       1.138 -14.660 -12.108  1.00  0.00     0.124 S 
ATOM     85  O   UNL     1      -0.181 -14.145 -11.749  1.00  0.00    -0.237 OA
ATOM     86  O   UNL     1       1.374 -14.838 -13.538  1.00  0.00    -0.237 OA
ATOM     87  O   UNL     1       1.638 -15.738 -11.258  1.00  0.00    -0.744 OA
ENDBRANCH  83  84
ENDBRANCH  64  78
BRANCH  65  88
ATOM     88  C   UNL     1       9.494  -3.236  -8.444  1.00  0.00    -0.014 A 
ATOM     89  C   UNL     1      10.259  -2.510  -9.374  1.00  0.00     0.010 A 
ATOM     90  C   UNL     1       9.533  -2.860  -7.089  1.00  0.00     0.010 A 
ATOM     91  C   UNL     1      11.061  -1.443  -8.956  1.00  0.00     0.020 A 
ATOM     92  C   UNL     1      10.312  -1.777  -6.670  1.00  0.00     0.020 A 
ATOM     93  C   UNL     1      11.081  -1.082  -7.606  1.00  0.00     0.054 A 
BRANCH  93  94
ATOM     94  S   UNL     1      12.089   0.337  -7.091  1.00  0.00     0.124 S 
ATOM     95  O   UNL     1      13.440  -0.210  -7.159  1.00  0.00    -0.237 OA
ATOM     96  O   UNL     1      11.760   1.341  -8.099  1.00  0.00    -0.237 OA
ATOM     97  O   UNL     1      11.599   0.633  -5.746  1.00  0.00    -0.744 OA
ENDBRANCH  93  94
ENDBRANCH  65  88
BRANCH  77  98
ATOM     98  C   UNL     1      10.919  -9.599 -10.936  1.00  0.00    -0.014 A 
ATOM     99  C   UNL     1      11.781 -10.053  -9.923  1.00  0.00     0.010 A 
ATOM    100  C   UNL     1      11.239  -9.861 -12.281  1.00  0.00     0.010 A 
ATOM    101  C   UNL     1      12.958 -10.731 -10.252  1.00  0.00     0.020 A 
ATOM    102  C   UNL     1      12.399 -10.564 -12.612  1.00  0.00     0.020 A 
ATOM    103  C   UNL     1      13.259 -10.982 -11.594  1.00  0.00     0.054 A 
BRANCH 103 104
ATOM    104  S   UNL     1      14.768 -11.905 -11.992  1.00  0.00     0.124 S 
ATOM    105  O   UNL     1      15.806 -10.908 -11.746  1.00  0.00    -0.237 OA
ATOM    106  O   UNL     1      14.726 -13.015 -11.043  1.00  0.00    -0.237 OA
ATOM    107  O   UNL     1      14.585 -12.283 -13.391  1.00  0.00    -0.744 OA
ENDBRANCH 103 104
ENDBRANCH  77  98
ENDBRANCH  51  52
ENDBRANCH  43  46
ENDBRANCH  41  42
ENDBRANCH  40  41
ENDBRANCH   1  40
TORSDOF 17
