REMARK SMILES CCC(C)(C)n1c(SCC(=O)NCCCCCCNC(=O)c2ccc(-c3c4nc(c(-c5ccc(S(=O)(=O)[O-])cc5)c5ccc([nH]5)c(-c5ccc(S(=O)(=O)[O-])cc5)c5nc(c(-c6ccc(S(=O)(=O)[O-])cc6)c6ccc3[nH]6)C=C5)C=C4)cc2)nc2cccnc21
REMARK SMILES IDX 15 1 14 2 13 3 12 4 10 5 11 6 9 8 8 9 7 10 6 11 88 12 82 13
REMARK SMILES IDX 83 14 87 15 84 16 86 17 85 18 3 19 4 20 5 21 2 22 1 23 16 24
REMARK SMILES IDX 17 25 18 26 19 27 20 28 21 30 22 31 23 32 81 33 24 34 80 35
REMARK SMILES IDX 25 36 26 37 27 38 74 39 28 40 79 41 73 42 75 43 29 44 78 45
REMARK SMILES IDX 72 46 71 47 30 49 60 50 41 51 59 52 42 53 45 54 58 55 76 56
REMARK SMILES IDX 43 57 44 58 57 60 77 61 46 62 31 63 32 64 40 65 33 66 39 67
REMARK SMILES IDX 34 68 35 69 36 70 37 71 38 72 61 73 62 74 70 75 63 76 69 77
REMARK SMILES IDX 64 78 65 79 66 80 67 81 68 82 47 83 48 84 56 85 49 86 55 87
REMARK SMILES IDX 50 88 51 89 52 90 53 91 54 92
REMARK H PARENT 12 7 19 29 75 48 45 59
REMARK Flexibility Score: inf
ROOT
ATOM      1  C   UNL     1       2.186  -1.934   3.397  1.00  0.00     0.002 C 
ENDROOT
BRANCH   1   2
ATOM      2  C   UNL     1       2.755  -2.890   2.342  1.00  0.00     0.021 C 
BRANCH   2   3
ATOM      3  C   UNL     1       1.789  -3.948   1.824  1.00  0.00     0.116 C 
BRANCH   3   4
ATOM      4  N   UNL     1       0.604  -3.378   1.231  1.00  0.00    -0.355 N 
ATOM      5  C   UNL     1       0.090  -3.610  -0.001  1.00  0.00     0.230 C 
ATOM      6  O   UNL     1      -1.121  -3.400  -0.142  1.00  0.00    -0.274 OA
ATOM      7  H   UNL     1       0.105  -2.741   1.792  1.00  0.00     0.163 HD
BRANCH   5   8
ATOM      8  C   UNL     1       0.910  -4.192  -1.137  1.00  0.00     0.178 C 
BRANCH   8   9
ATOM      9  S   UNL     1       2.538  -3.565  -1.440  1.00  0.00    -0.078 SA
BRANCH   9  10
ATOM     10  C   UNL     1       2.917  -1.985  -2.027  1.00  0.00     0.171 A 
ATOM     11  N   UNL     1       2.243  -0.878  -2.536  1.00  0.00    -0.298 N 
ATOM     12  C   UNL     1       3.233   0.076  -2.809  1.00  0.00     0.161 A 
ATOM     13  N   UNL     1       4.226  -1.771  -2.033  1.00  0.00    -0.221 NA
ATOM     14  C   UNL     1       4.438  -0.520  -2.503  1.00  0.00     0.109 A 
ATOM     15  N   UNL     1       3.060   1.337  -3.265  1.00  0.00    -0.237 NA
ATOM     16  C   UNL     1       5.617   0.209  -2.698  1.00  0.00     0.034 A 
ATOM     17  C   UNL     1       4.222   2.009  -3.439  1.00  0.00     0.113 A 
ATOM     18  C   UNL     1       5.491   1.510  -3.184  1.00  0.00     0.022 A 
BRANCH  11  19
ATOM     19  C   UNL     1       0.828  -0.509  -2.728  1.00  0.00     0.043 C 
ATOM     20  C   UNL     1      -0.151  -1.666  -2.620  1.00  0.00     0.035 C 
ATOM     21  C   UNL     1       0.571   0.013  -4.173  1.00  0.00     0.035 C 
BRANCH  19  22
ATOM     22  C   UNL     1       0.406   0.592  -1.696  1.00  0.00     0.025 C 
ATOM     23  C   UNL     1       0.852   0.348  -0.252  1.00  0.00     0.006 C 
ENDBRANCH  19  22
ENDBRANCH  11  19
ENDBRANCH   9  10
ENDBRANCH   8   9
ENDBRANCH   5   8
ENDBRANCH   3   4
ENDBRANCH   2   3
ENDBRANCH   1   2
BRANCH   1  24
ATOM     24  C   UNL     1       1.379  -2.572   4.537  1.00  0.00     0.002 C 
BRANCH  24  25
ATOM     25  C   UNL     1       2.019  -3.774   5.245  1.00  0.00     0.021 C 
BRANCH  25  26
ATOM     26  C   UNL     1       3.333  -3.451   5.931  1.00  0.00     0.116 C 
BRANCH  26  27
ATOM     27  N   UNL     1       3.124  -2.607   7.094  1.00  0.00    -0.352 N 
ATOM     28  C   UNL     1       4.040  -2.247   8.054  1.00  0.00     0.251 C 
ATOM     29  H   UNL     1       2.214  -2.249   7.210  1.00  0.00     0.163 HD
ATOM     30  O   UNL     1       3.655  -1.892   9.159  1.00  0.00    -0.269 OA
BRANCH  28  31
ATOM     31  C   UNL     1       5.480  -2.278   7.734  1.00  0.00     0.039 A 
ATOM     32  C   UNL     1       6.400  -2.628   8.728  1.00  0.00     0.014 A 
ATOM     33  C   UNL     1       5.917  -1.885   6.466  1.00  0.00     0.014 A 
ATOM     34  C   UNL     1       7.758  -2.613   8.430  1.00  0.00     0.010 A 
ATOM     35  C   UNL     1       7.255  -1.943   6.145  1.00  0.00     0.010 A 
ATOM     36  C   UNL     1       8.174  -2.269   7.137  1.00  0.00    -0.014 A 
BRANCH  36  37
ATOM     37  C   UNL     1       9.578  -2.372   6.774  1.00  0.00     0.031 A 
ATOM     38  C   UNL     1      10.105  -3.762   6.773  1.00  0.00     0.074 A 
ATOM     39  C   UNL     1      10.281  -1.340   6.266  1.00  0.00     0.049 A 
ATOM     40  N   UNL     1      10.960  -4.282   7.588  1.00  0.00    -0.248 NA
ATOM     41  C   UNL     1       9.501  -4.731   5.843  1.00  0.00     0.031 C 
ATOM     42  C   UNL     1       9.799  -0.005   5.902  1.00  0.00     0.029 A 
ATOM     43  N   UNL     1      11.576  -1.315   5.854  1.00  0.00    -0.354 N 
ATOM     44  C   UNL     1      11.166  -5.585   7.145  1.00  0.00     0.074 A 
ATOM     45  C   UNL     1      10.113  -5.861   6.201  1.00  0.00     0.031 C 
ATOM     46  C   UNL     1      10.721   0.608   5.123  1.00  0.00     0.029 A 
ATOM     47  C   UNL     1      11.910  -0.225   5.057  1.00  0.00     0.049 A 
ATOM     48  H   UNL     1      12.226  -2.013   6.101  1.00  0.00     0.167 HD
ATOM     49  C   UNL     1      12.327  -6.252   7.396  1.00  0.00     0.031 A 
ATOM     50  C   UNL     1      13.065  -0.060   4.360  1.00  0.00     0.031 A 
ATOM     51  C   UNL     1      13.117  -5.587   8.399  1.00  0.00     0.049 A 
ATOM     52  C   UNL     1      14.067  -0.956   4.995  1.00  0.00     0.074 A 
ATOM     53  C   UNL     1      12.911  -5.233   9.717  1.00  0.00     0.029 A 
ATOM     54  N   UNL     1      14.162  -4.810   7.952  1.00  0.00    -0.354 N 
ATOM     55  N   UNL     1      14.502  -0.798   6.215  1.00  0.00    -0.248 NA
ATOM     56  C   UNL     1      14.246  -2.289   4.437  1.00  0.00     0.031 C 
ATOM     57  C   UNL     1      13.499  -3.942   9.842  1.00  0.00     0.029 A 
ATOM     58  C   UNL     1      14.097  -3.616   8.621  1.00  0.00     0.049 A 
ATOM     59  H   UNL     1      14.832  -5.065   7.277  1.00  0.00     0.167 HD
ATOM     60  C   UNL     1      14.612  -2.084   6.722  1.00  0.00     0.074 A 
ATOM     61  C   UNL     1      14.533  -2.962   5.555  1.00  0.00     0.031 C 
ATOM     62  C   UNL     1      14.473  -2.336   8.056  1.00  0.00     0.031 A 
BRANCH  49  63
ATOM     63  C   UNL     1      12.930  -7.269   6.459  1.00  0.00    -0.014 A 
ATOM     64  C   UNL     1      14.094  -7.957   6.856  1.00  0.00     0.010 A 
ATOM     65  C   UNL     1      12.559  -7.367   5.102  1.00  0.00     0.010 A 
ATOM     66  C   UNL     1      14.880  -8.652   5.927  1.00  0.00     0.020 A 
ATOM     67  C   UNL     1      13.309  -8.094   4.177  1.00  0.00     0.020 A 
ATOM     68  C   UNL     1      14.484  -8.707   4.590  1.00  0.00     0.054 A 
BRANCH  68  69
ATOM     69  S   UNL     1      15.566  -9.501   3.377  1.00  0.00     0.124 S 
ATOM     70  O   UNL     1      16.802  -8.741   3.527  1.00  0.00    -0.237 OA
ATOM     71  O   UNL     1      15.604 -10.879   3.860  1.00  0.00    -0.237 OA
ATOM     72  O   UNL     1      14.863  -9.307   2.111  1.00  0.00    -0.744 OA
ENDBRANCH  68  69
ENDBRANCH  49  63
BRANCH  50  73
ATOM     73  C   UNL     1      13.267   0.555   3.018  1.00  0.00    -0.014 A 
ATOM     74  C   UNL     1      14.561   0.659   2.465  1.00  0.00     0.010 A 
ATOM     75  C   UNL     1      12.178   0.780   2.151  1.00  0.00     0.010 A 
ATOM     76  C   UNL     1      14.753   0.877   1.088  1.00  0.00     0.020 A 
ATOM     77  C   UNL     1      12.360   1.011   0.780  1.00  0.00     0.020 A 
ATOM     78  C   UNL     1      13.647   1.017   0.248  1.00  0.00     0.054 A 
BRANCH  78  79
ATOM     79  S   UNL     1      13.894   1.094  -1.551  1.00  0.00     0.124 S 
ATOM     80  O   UNL     1      14.739   2.275  -1.706  1.00  0.00    -0.237 OA
ATOM     81  O   UNL     1      14.538  -0.186  -1.831  1.00  0.00    -0.237 OA
ATOM     82  O   UNL     1      12.537   1.232  -2.081  1.00  0.00    -0.744 OA
ENDBRANCH  78  79
ENDBRANCH  50  73
BRANCH  62  83
ATOM     83  C   UNL     1      14.455  -1.178   9.026  1.00  0.00    -0.014 A 
ATOM     84  C   UNL     1      13.383  -0.268   9.123  1.00  0.00     0.010 A 
ATOM     85  C   UNL     1      15.429  -1.183  10.039  1.00  0.00     0.010 A 
ATOM     86  C   UNL     1      13.276   0.592  10.229  1.00  0.00     0.020 A 
ATOM     87  C   UNL     1      15.319  -0.342  11.148  1.00  0.00     0.020 A 
ATOM     88  C   UNL     1      14.235   0.531  11.246  1.00  0.00     0.054 A 
BRANCH  88  89
ATOM     89  S   UNL     1      14.022   1.545  12.738  1.00  0.00     0.124 S 
ATOM     90  O   UNL     1      14.027   2.905  12.208  1.00  0.00    -0.237 OA
ATOM     91  O   UNL     1      12.741   1.078  13.262  1.00  0.00    -0.237 OA
ATOM     92  O   UNL     1      15.181   1.201  13.563  1.00  0.00    -0.744 OA
ENDBRANCH  88  89
ENDBRANCH  62  83
ENDBRANCH  36  37
ENDBRANCH  28  31
ENDBRANCH  26  27
ENDBRANCH  25  26
ENDBRANCH  24  25
ENDBRANCH   1  24
TORSDOF 20
