REMARK SMILES Cc1c(NCc2ccccn2)cccc1C(=O)N1CCOC[C@@H]1CC(=O)NCCCCCCNC(=O)c1ccc(-c2c3nc(c(-c4ccc(S(=O)(=O)[O-])cc4)c4ccc([nH]4)c(-c4ccc(S(=O)(=O)[O-])cc4)c4nc(c(-c5ccc(S(=O)(=O)[O-])cc5)c5ccc2[nH]5)C=C4)C=C3)cc1
REMARK SMILES IDX 29 1 28 2 27 3 25 4 26 5 24 7 23 8 18 9 19 10 20 11 22 12
REMARK SMILES IDX 21 13 16 14 17 15 15 16 1 17 2 18 3 19 12 20 14 21 13 22
REMARK SMILES IDX 4 23 5 25 6 26 7 27 11 28 8 29 10 30 9 31 30 32 31 33 32 34
REMARK SMILES IDX 33 35 34 36 35 37 36 39 37 40 38 41 96 42 39 43 95 44 40 45
REMARK SMILES IDX 41 46 42 47 89 48 43 49 94 50 88 51 90 52 44 53 93 54 87 55
REMARK SMILES IDX 86 56 45 58 75 59 56 60 74 61 57 62 60 63 73 64 91 65 58 66
REMARK SMILES IDX 59 67 72 69 92 70 61 71 46 72 47 73 55 74 48 75 54 76 49 77
REMARK SMILES IDX 50 78 51 79 52 80 53 81 76 82 77 83 85 84 78 85 84 86 79 87
REMARK SMILES IDX 80 88 81 89 82 90 83 91 62 92 63 93 71 94 64 95 70 96 65 97
REMARK SMILES IDX 66 98 67 99 68 100 69 101
REMARK H PARENT 27 6 4 24 34 38 90 57 60 68
REMARK Flexibility Score: inf
ROOT
ATOM      1  C   UNL     1       1.064   0.944   2.541  1.00  0.00     0.021 C 
ENDROOT
BRANCH   1   2
ATOM      2  C   UNL     1       0.444   2.272   2.972  1.00  0.00     0.116 C 
BRANCH   2   3
ATOM      3  N   UNL     1       1.398   2.971   3.798  1.00  0.00    -0.356 N 
ATOM      4  C   UNL     1       2.519   3.604   3.356  1.00  0.00     0.222 C 
ATOM      5  O   UNL     1       3.472   3.721   4.127  1.00  0.00    -0.275 OA
ATOM      6  H   UNL     1       1.223   2.991   4.767  1.00  0.00     0.163 HD
BRANCH   4   7
ATOM      7  C   UNL     1       2.532   4.232   1.978  1.00  0.00     0.127 C 
BRANCH   7   8
ATOM      8  C   UNL     1       3.280   3.533   0.831  1.00  0.00     0.120 C 
ATOM      9  N   UNL     1       2.516   2.703  -0.145  1.00  0.00    -0.331 N 
ATOM     10  C   UNL     1       3.374   2.383  -1.303  1.00  0.00     0.148 C 
ATOM     11  C   UNL     1       4.715   1.746  -0.884  1.00  0.00     0.181 C 
ATOM     12  C   UNL     1       4.507   2.715   1.285  1.00  0.00     0.185 C 
ATOM     13  O   UNL     1       5.375   2.482   0.158  1.00  0.00    -0.377 OA
BRANCH   9  14
ATOM     14  C   UNL     1       1.171   2.961  -0.414  1.00  0.00     0.254 C 
ATOM     15  O   UNL     1       0.727   4.102  -0.508  1.00  0.00    -0.269 OA
BRANCH  14  16
ATOM     16  C   UNL     1       0.192   1.820  -0.409  1.00  0.00     0.045 A 
ATOM     17  C   UNL     1       2.068  -0.386  -0.572  1.00  0.00     0.047 C 
ATOM     18  C   UNL     1       0.648   0.070  -0.455  1.00  0.00    -0.015 A 
ATOM     19  C   UNL     1      -0.634  -1.200  -0.338  1.00  0.00     0.038 A 
ATOM     20  C   UNL     1      -2.372  -0.747  -0.191  1.00  0.00     0.026 A 
ATOM     21  C   UNL     1      -1.553   2.290  -0.280  1.00  0.00     0.014 A 
ATOM     22  C   UNL     1      -2.833   1.006  -0.158  1.00  0.00     0.003 A 
BRANCH  19  23
ATOM     23  N   UNL     1      -0.272  -2.534  -0.407  1.00  0.00    -0.379 N 
ATOM     24  H   UNL     1       0.500  -2.873   0.102  1.00  0.00     0.160 HD
BRANCH  23  25
ATOM     25  C   UNL     1      -1.058  -3.425  -1.250  1.00  0.00     0.169 C 
BRANCH  25  26
ATOM     26  C   UNL     1      -0.279  -3.782  -2.511  1.00  0.00     0.059 A 
ATOM     27  C   UNL     1       1.390  -3.083  -2.837  1.00  0.00     0.026 A 
ATOM     28  N   UNL     1      -0.803  -5.334  -3.289  1.00  0.00    -0.259 NA
ATOM     29  C   UNL     1       2.557  -4.016  -3.910  1.00  0.00     0.004 A 
ATOM     30  C   UNL     1       0.311  -6.266  -4.342  1.00  0.00     0.111 A 
ATOM     31  C   UNL     1       2.009  -5.683  -4.624  1.00  0.00     0.020 A 
ENDBRANCH  25  26
ENDBRANCH  23  25
ENDBRANCH  19  23
ENDBRANCH  14  16
ENDBRANCH   9  14
ENDBRANCH   7   8
ENDBRANCH   4   7
ENDBRANCH   2   3
ENDBRANCH   1   2
BRANCH   1  32
ATOM     32  C   UNL     1       0.100  -0.085   1.939  1.00  0.00     0.002 C 
BRANCH  32  33
ATOM     33  C   UNL     1      -1.011   0.515   0.787  1.00  0.00     0.002 C 
BRANCH  33  34
ATOM     34  C   UNL     1      -1.204   0.519  -1.390  1.00  0.00     0.021 C 
BRANCH  34  35
ATOM     35  C   UNL     1      -1.791  -0.529  -2.592  1.00  0.00     0.116 C 
BRANCH  35  36
ATOM     36  N   UNL     1      -3.233  -0.718  -2.844  1.00  0.00    -0.352 N 
ATOM     37  C   UNL     1      -3.871  -1.164  -3.999  1.00  0.00     0.251 C 
ATOM     38  H   UNL     1      -3.826  -0.499  -2.090  1.00  0.00     0.163 HD
ATOM     39  O   UNL     1      -5.088  -1.085  -4.130  1.00  0.00    -0.269 OA
BRANCH  37  40
ATOM     40  C   UNL     1      -3.057  -1.887  -5.009  1.00  0.00     0.039 A 
ATOM     41  C   UNL     1      -3.235  -3.271  -5.033  1.00  0.00     0.014 A 
ATOM     42  C   UNL     1      -1.849  -1.328  -5.384  1.00  0.00     0.014 A 
ATOM     43  C   UNL     1      -2.110  -4.085  -5.072  1.00  0.00     0.010 A 
ATOM     44  C   UNL     1      -0.726  -2.108  -5.169  1.00  0.00     0.010 A 
ATOM     45  C   UNL     1      -0.847  -3.493  -4.901  1.00  0.00    -0.014 A 
BRANCH  45  46
ATOM     46  C   UNL     1       0.568  -4.243  -4.387  1.00  0.00     0.031 A 
ATOM     47  C   UNL     1       1.355  -3.934  -6.033  1.00  0.00     0.074 A 
ATOM     48  C   UNL     1       1.198  -5.146  -2.864  1.00  0.00     0.049 A 
ATOM     49  N   UNL     1       2.591  -4.230  -6.305  1.00  0.00    -0.248 NA
ATOM     50  C   UNL     1       0.751  -3.400  -7.279  1.00  0.00     0.031 C 
ATOM     51  C   UNL     1       2.741  -5.701  -2.305  1.00  0.00     0.029 A 
ATOM     52  N   UNL     1       0.608  -5.811  -1.610  1.00  0.00    -0.354 N 
ATOM     53  C   UNL     1       2.949  -4.019  -7.580  1.00  0.00     0.074 A 
ATOM     54  C   UNL     1       1.794  -3.366  -8.137  1.00  0.00     0.031 C 
ATOM     55  C   UNL     1       2.631  -6.740  -1.466  1.00  0.00     0.029 A 
ATOM     56  C   UNL     1       1.240  -7.048  -1.388  1.00  0.00     0.049 A 
ATOM     57  H   UNL     1      -0.105  -5.429  -1.049  1.00  0.00     0.167 HD
ATOM     58  C   UNL     1       4.232  -4.373  -7.867  1.00  0.00     0.031 A 
ATOM     59  C   UNL     1       0.661  -8.207  -1.817  1.00  0.00     0.031 A 
ATOM     60  C   UNL     1       4.751  -5.411  -6.918  1.00  0.00     0.049 A 
ATOM     61  C   UNL     1       1.560  -8.865  -2.895  1.00  0.00     0.074 A 
ATOM     62  C   UNL     1       5.523  -5.355  -5.765  1.00  0.00     0.029 A 
ATOM     63  N   UNL     1       4.211  -6.712  -6.930  1.00  0.00    -0.354 N 
ATOM     64  N   UNL     1       2.357  -8.237  -3.740  1.00  0.00    -0.248 NA
ATOM     65  C   UNL     1       1.729 -10.308  -2.988  1.00  0.00     0.031 C 
ATOM     66  C   UNL     1       5.335  -6.571  -5.026  1.00  0.00     0.029 A 
ATOM     67  C   UNL     1       4.475  -7.406  -5.729  1.00  0.00     0.049 A 
ATOM     68  H   UNL     1       3.708  -7.092  -7.686  1.00  0.00     0.167 HD
ATOM     69  C   UNL     1       3.106  -9.120  -4.487  1.00  0.00     0.074 A 
ATOM     70  C   UNL     1       2.703 -10.407  -3.913  1.00  0.00     0.031 C 
ATOM     71  C   UNL     1       3.987  -8.796  -5.510  1.00  0.00     0.031 A 
BRANCH  58  72
ATOM     72  C   UNL     1       5.087  -3.515  -8.771  1.00  0.00    -0.014 A 
ATOM     73  C   UNL     1       6.487  -3.516  -8.595  1.00  0.00     0.010 A 
ATOM     74  C   UNL     1       4.576  -2.577  -9.692  1.00  0.00     0.010 A 
ATOM     75  C   UNL     1       7.323  -2.604  -9.261  1.00  0.00     0.020 A 
ATOM     76  C   UNL     1       5.400  -1.658 -10.363  1.00  0.00     0.020 A 
ATOM     77  C   UNL     1       6.771  -1.669 -10.133  1.00  0.00     0.054 A 
BRANCH  77  78
ATOM     78  S   UNL     1       7.859  -0.470 -10.950  1.00  0.00     0.124 S 
ATOM     79  O   UNL     1       8.412   0.272  -9.820  1.00  0.00    -0.237 OA
ATOM     80  O   UNL     1       8.800  -1.331 -11.660  1.00  0.00    -0.237 OA
ATOM     81  O   UNL     1       6.953   0.295 -11.806  1.00  0.00    -0.744 OA
ENDBRANCH  77  78
ENDBRANCH  58  72
BRANCH  59  82
ATOM     82  C   UNL     1      -0.865  -8.154  -1.674  1.00  0.00    -0.014 A 
ATOM     83  C   UNL     1      -1.372  -7.628  -0.445  1.00  0.00     0.010 A 
ATOM     84  C   UNL     1      -1.766  -8.191  -2.749  1.00  0.00     0.010 A 
ATOM     85  C   UNL     1      -2.579  -6.910  -0.380  1.00  0.00     0.020 A 
ATOM     86  C   UNL     1      -2.995  -7.478  -2.685  1.00  0.00     0.020 A 
ATOM     87  C   UNL     1      -3.352  -6.778  -1.527  1.00  0.00     0.054 A 
BRANCH  87  88
ATOM     88  S   UNL     1      -4.697  -5.540  -1.525  1.00  0.00     0.124 S 
ATOM     89  O   UNL     1      -5.680  -6.153  -0.635  1.00  0.00    -0.237 OA
ATOM     90  O   UNL     1      -4.051  -4.342  -0.986  1.00  0.00    -0.237 OA
ATOM     91  O   UNL     1      -5.097  -5.450  -2.927  1.00  0.00    -0.744 OA
ENDBRANCH  87  88
ENDBRANCH  59  82
BRANCH  71  92
ATOM     92  C   UNL     1       4.586  -9.845  -6.437  1.00  0.00    -0.014 A 
ATOM     93  C   UNL     1       4.029 -11.114  -6.653  1.00  0.00     0.010 A 
ATOM     94  C   UNL     1       5.710  -9.505  -7.230  1.00  0.00     0.010 A 
ATOM     95  C   UNL     1       4.630 -12.039  -7.512  1.00  0.00     0.020 A 
ATOM     96  C   UNL     1       6.271 -10.390  -8.152  1.00  0.00     0.020 A 
ATOM     97  C   UNL     1       5.752 -11.673  -8.251  1.00  0.00     0.054 A 
BRANCH  97  98
ATOM     98  S   UNL     1       6.494 -12.872  -9.379  1.00  0.00     0.124 S 
ATOM     99  O   UNL     1       7.347 -13.638  -8.475  1.00  0.00    -0.237 OA
ATOM    100  O   UNL     1       5.331 -13.587  -9.901  1.00  0.00    -0.237 OA
ATOM    101  O   UNL     1       7.194 -12.039 -10.352  1.00  0.00    -0.744 OA
ENDBRANCH  97  98
ENDBRANCH  71  92
ENDBRANCH  45  46
ENDBRANCH  37  40
ENDBRANCH  35  36
ENDBRANCH  34  35
ENDBRANCH  33  34
ENDBRANCH  32  33
ENDBRANCH   1  32
TORSDOF 22
