REMARK SMILES NS(=O)(=O)c1ccc(-c2cc(Cl)cc3c2O[C@H](C(F)(F)F)C(C(=O)NCCCCCCNC(=O)c2ccc(-c4c5nc(c(-c6ccc(S(=O)(=O)[O-])cc6)c6ccc([nH]6)c(-c6ccc(S(=O)(=O)[O-])cc6)c6nc(c(-c7ccc(S(=O)(=O)[O-])cc7)c7ccc4[nH]7)C=C6)C=C5)cc2)=C3)cc1
REMARK SMILES IDX 28 1 27 2 26 3 25 4 23 5 24 6 22 8 9 9 10 10 15 11 11 12
REMARK SMILES IDX 14 13 16 14 12 15 13 16 95 17 17 18 8 19 5 20 6 21 97 22
REMARK SMILES IDX 7 23 96 24 2 25 3 26 4 27 1 28 18 31 19 32 20 33 21 34 29 35
REMARK SMILES IDX 30 36 31 37 32 38 33 39 34 41 35 42 36 43 94 44 37 45 93 46
REMARK SMILES IDX 38 47 39 48 40 49 87 50 41 51 92 52 86 53 88 54 42 55 91 56
REMARK SMILES IDX 85 57 84 58 43 60 73 61 54 62 72 63 55 64 58 65 71 66 89 67
REMARK SMILES IDX 56 68 57 69 70 71 90 72 59 73 44 74 45 75 53 76 46 77 52 78
REMARK SMILES IDX 47 79 48 80 49 81 50 82 51 83 74 84 75 85 83 86 76 87 82 88
REMARK SMILES IDX 77 89 78 90 79 91 80 92 81 93 60 94 61 95 69 96 62 97 68 98
REMARK SMILES IDX 63 99 64 100 65 101 66 102 67 103
REMARK H PARENT 25 7 1 29 1 30 32 40 88 59 58 70
REMARK Flexibility Score: inf
ROOT
ATOM      1  C   UNL     1       5.867  12.099  -8.932  1.00  0.00     0.002 C 
ENDROOT
BRANCH   1   2
ATOM      2  C   UNL     1       6.049  11.718  -7.453  1.00  0.00     0.021 C 
BRANCH   2   3
ATOM      3  C   UNL     1       4.743  11.404  -6.708  1.00  0.00     0.116 C 
BRANCH   3   4
ATOM      4  N   UNL     1       4.048  10.324  -7.377  1.00  0.00    -0.352 N 
ATOM      5  C   UNL     1       3.769   9.120  -6.821  1.00  0.00     0.251 C 
ATOM      6  O   UNL     1       4.066   8.087  -7.410  1.00  0.00    -0.270 OA
ATOM      7  H   UNL     1       3.755  10.475  -8.304  1.00  0.00     0.163 HD
BRANCH   5   8
ATOM      8  C   UNL     1       2.931   9.150  -5.588  1.00  0.00     0.067 C 
ATOM      9  C   UNL     1       2.378   5.168  -5.031  1.00  0.00     0.026 A 
ATOM     10  C   UNL     1       2.135   4.629  -6.322  1.00  0.00     0.033 A 
ATOM     11  C   UNL     1       2.324   6.569  -4.925  1.00  0.00     0.135 A 
ATOM     12  C   UNL     1       1.650   5.401  -7.376  1.00  0.00     0.042 A 
ATOM     13  C   UNL     1       1.705   7.310  -5.961  1.00  0.00     0.019 A 
ATOM     14  O   UNL     1       2.908   7.285  -3.886  1.00  0.00    -0.475 OA
ATOM     15  Cl  UNL     1       1.388   4.679  -8.913  1.00  0.00    -0.084 Cl
ATOM     16  C   UNL     1       1.346   6.731  -7.174  1.00  0.00     0.032 A 
ATOM     17  C   UNL     1       1.656   8.780  -5.816  1.00  0.00     0.025 C 
ATOM     18  C   UNL     1       3.568   8.554  -4.343  1.00  0.00     0.314 C 
BRANCH   9  19
ATOM     19  C   UNL     1       2.350   4.166  -3.927  1.00  0.00    -0.015 A 
ATOM     20  C   UNL     1       1.448   1.843  -2.583  1.00  0.00     0.082 A 
ATOM     21  C   UNL     1       2.562   1.771  -3.420  1.00  0.00     0.022 A 
ATOM     22  C   UNL     1       0.842   3.075  -2.330  1.00  0.00     0.022 A 
ATOM     23  C   UNL     1       3.024   2.931  -4.061  1.00  0.00     0.010 A 
ATOM     24  C   UNL     1       1.304   4.229  -2.985  1.00  0.00     0.010 A 
BRANCH  20  25
ATOM     25  S   UNL     1       0.700   0.351  -1.985  1.00  0.00     0.238 S 
ATOM     26  O   UNL     1       1.298  -0.787  -2.639  1.00  0.00    -0.207 OA
ATOM     27  O   UNL     1      -0.735   0.533  -1.921  1.00  0.00    -0.207 OA
BRANCH  25  28
ATOM     28  N   UNL     1       1.227   0.289  -0.395  1.00  0.00    -0.225 NA
ATOM     29  H   UNL     1       0.851  -0.545   0.056  1.00  0.00     0.137 HD
ATOM     30  H   UNL     1       0.905   1.119   0.102  1.00  0.00     0.137 HD
ENDBRANCH  25  28
ENDBRANCH  20  25
ENDBRANCH   9  19
BRANCH  18  31
ATOM     31  C   UNL     1       3.566   9.648  -3.249  1.00  0.00     0.429 C 
ATOM     32  F   UNL     1       2.720   9.367  -2.233  1.00  0.00    -0.167 F 
ATOM     33  F   UNL     1       4.802   9.820  -2.723  1.00  0.00    -0.167 F 
ATOM     34  F   UNL     1       3.193  10.864  -3.734  1.00  0.00    -0.167 F 
ENDBRANCH  18  31
ENDBRANCH   5   8
ENDBRANCH   3   4
ENDBRANCH   2   3
ENDBRANCH   1   2
BRANCH   1  35
ATOM     35  C   UNL     1       4.880  13.242  -9.180  1.00  0.00     0.002 C 
BRANCH  35  36
ATOM     36  C   UNL     1       5.239  14.548  -8.472  1.00  0.00     0.021 C 
BRANCH  36  37
ATOM     37  C   UNL     1       6.636  15.065  -8.787  1.00  0.00     0.116 C 
BRANCH  37  38
ATOM     38  N   UNL     1       6.809  15.348 -10.201  1.00  0.00    -0.352 N 
ATOM     39  C   UNL     1       7.364  16.452 -10.795  1.00  0.00     0.251 C 
ATOM     40  H   UNL     1       6.485  14.652 -10.817  1.00  0.00     0.163 HD
ATOM     41  O   UNL     1       7.256  16.616 -12.006  1.00  0.00    -0.269 OA
BRANCH  39  42
ATOM     42  C   UNL     1       8.077  17.448  -9.966  1.00  0.00     0.039 A 
ATOM     43  C   UNL     1       7.889  18.806 -10.232  1.00  0.00     0.014 A 
ATOM     44  C   UNL     1       8.943  17.045  -8.945  1.00  0.00     0.014 A 
ATOM     45  C   UNL     1       8.556  19.758  -9.460  1.00  0.00     0.010 A 
ATOM     46  C   UNL     1       9.533  17.994  -8.118  1.00  0.00     0.010 A 
ATOM     47  C   UNL     1       9.375  19.360  -8.389  1.00  0.00    -0.014 A 
BRANCH  47  48
ATOM     48  C   UNL     1      10.128  20.360  -7.591  1.00  0.00     0.031 A 
ATOM     49  C   UNL     1      11.636  20.346  -7.607  1.00  0.00     0.074 A 
ATOM     50  C   UNL     1       9.465  21.261  -6.840  1.00  0.00     0.049 A 
ATOM     51  N   UNL     1      12.475  21.126  -6.975  1.00  0.00    -0.248 NA
ATOM     52  C   UNL     1      12.287  19.305  -8.421  1.00  0.00     0.031 C 
ATOM     53  C   UNL     1       8.009  21.353  -6.715  1.00  0.00     0.029 A 
ATOM     54  N   UNL     1       9.931  22.276  -6.043  1.00  0.00    -0.354 N 
ATOM     55  C   UNL     1      13.744  20.662  -7.304  1.00  0.00     0.074 A 
ATOM     56  C   UNL     1      13.566  19.494  -8.134  1.00  0.00     0.031 C 
ATOM     57  C   UNL     1       7.701  22.394  -5.924  1.00  0.00     0.029 A 
ATOM     58  C   UNL     1       8.934  23.016  -5.452  1.00  0.00     0.049 A 
ATOM     59  H   UNL     1      10.889  22.458  -5.908  1.00  0.00     0.167 HD
ATOM     60  C   UNL     1      14.951  21.179  -6.971  1.00  0.00     0.031 A 
ATOM     61  C   UNL     1       9.006  24.078  -4.625  1.00  0.00     0.031 A 
ATOM     62  C   UNL     1      15.123  22.349  -6.153  1.00  0.00     0.049 A 
ATOM     63  C   UNL     1      10.360  24.624  -4.255  1.00  0.00     0.074 A 
ATOM     64  C   UNL     1      16.299  22.979  -5.790  1.00  0.00     0.029 A 
ATOM     65  N   UNL     1      14.087  23.068  -5.574  1.00  0.00    -0.354 N 
ATOM     66  N   UNL     1      11.548  24.204  -4.621  1.00  0.00    -0.248 NA
ATOM     67  C   UNL     1      10.381  25.801  -3.377  1.00  0.00     0.031 C 
ATOM     68  C   UNL     1      15.979  24.044  -4.942  1.00  0.00     0.029 A 
ATOM     69  C   UNL     1      14.599  24.124  -4.840  1.00  0.00     0.049 A 
ATOM     70  H   UNL     1      13.130  22.858  -5.670  1.00  0.00     0.167 HD
ATOM     71  C   UNL     1      12.455  25.093  -4.054  1.00  0.00     0.074 A 
ATOM     72  C   UNL     1      11.676  26.077  -3.330  1.00  0.00     0.031 C 
ATOM     73  C   UNL     1      13.810  25.100  -4.131  1.00  0.00     0.031 A 
BRANCH  60  74
ATOM     74  C   UNL     1      16.179  20.476  -7.492  1.00  0.00    -0.014 A 
ATOM     75  C   UNL     1      16.487  20.467  -8.865  1.00  0.00     0.010 A 
ATOM     76  C   UNL     1      17.058  19.845  -6.592  1.00  0.00     0.010 A 
ATOM     77  C   UNL     1      17.625  19.805  -9.333  1.00  0.00     0.020 A 
ATOM     78  C   UNL     1      18.216  19.211  -7.052  1.00  0.00     0.020 A 
ATOM     79  C   UNL     1      18.483  19.181  -8.422  1.00  0.00     0.054 A 
BRANCH  79  80
ATOM     80  S   UNL     1      19.967  18.353  -9.056  1.00  0.00     0.124 S 
ATOM     81  O   UNL     1      19.397  17.187  -9.729  1.00  0.00    -0.237 OA
ATOM     82  O   UNL     1      20.545  19.365  -9.936  1.00  0.00    -0.237 OA
ATOM     83  O   UNL     1      20.742  18.059  -7.853  1.00  0.00    -0.744 OA
ENDBRANCH  79  80
ENDBRANCH  60  74
BRANCH  61  84
ATOM     84  C   UNL     1       7.760  24.711  -4.111  1.00  0.00    -0.014 A 
ATOM     85  C   UNL     1       7.391  26.006  -4.520  1.00  0.00     0.010 A 
ATOM     86  C   UNL     1       6.933  24.022  -3.205  1.00  0.00     0.010 A 
ATOM     87  C   UNL     1       6.238  26.610  -4.009  1.00  0.00     0.020 A 
ATOM     88  C   UNL     1       5.762  24.609  -2.718  1.00  0.00     0.020 A 
ATOM     89  C   UNL     1       5.430  25.906  -3.112  1.00  0.00     0.054 A 
BRANCH  89  90
ATOM     90  S   UNL     1       3.920  26.697  -2.489  1.00  0.00     0.124 S 
ATOM     91  O   UNL     1       4.458  27.719  -1.597  1.00  0.00    -0.237 OA
ATOM     92  O   UNL     1       3.295  27.189  -3.714  1.00  0.00    -0.237 OA
ATOM     93  O   UNL     1       3.208  25.603  -1.831  1.00  0.00    -0.744 OA
ENDBRANCH  89  90
ENDBRANCH  61  84
BRANCH  73  94
ATOM     94  C   UNL     1      14.538  26.242  -3.471  1.00  0.00    -0.014 A 
ATOM     95  C   UNL     1      14.594  26.377  -2.073  1.00  0.00     0.010 A 
ATOM     96  C   UNL     1      15.217  27.177  -4.277  1.00  0.00     0.010 A 
ATOM     97  C   UNL     1      15.276  27.451  -1.495  1.00  0.00     0.020 A 
ATOM     98  C   UNL     1      15.929  28.231  -3.701  1.00  0.00     0.020 A 
ATOM     99  C   UNL     1      15.938  28.372  -2.313  1.00  0.00     0.054 A 
BRANCH  99 100
ATOM    100  S   UNL     1      16.836  29.743  -1.537  1.00  0.00     0.124 S 
ATOM    101  O   UNL     1      15.745  30.590  -1.061  1.00  0.00    -0.237 OA
ATOM    102  O   UNL     1      17.610  29.070  -0.497  1.00  0.00    -0.237 OA
ATOM    103  O   UNL     1      17.627  30.303  -2.631  1.00  0.00    -0.744 OA
ENDBRANCH  99 100
ENDBRANCH  73  94
ENDBRANCH  47  48
ENDBRANCH  39  42
ENDBRANCH  37  38
ENDBRANCH  36  37
ENDBRANCH  35  36
ENDBRANCH   1  35
TORSDOF 20
