REMARK SMILES O=C(NCCCCCCNC(=O)c1ccccc1Nc1cccc(S(F)(F)(F)(F)F)c1)c1ccc(-c2c3nc(c(-c4ccc(S(=O)(=O)[O-])cc4)c4ccc([nH]4)c(-c4ccc(S(=O)(=O)[O-])cc4)c4nc(c(-c5ccc(S(=O)(=O)[O-])cc5)c5ccc2[nH]5)C=C4)C=C3)cc1
REMARK SMILES IDX 6 1 5 2 4 3 3 4 1 5 2 6 32 8 33 9 91 10 34 11 90 12 35 13
REMARK SMILES IDX 36 14 37 15 84 16 38 17 89 18 83 19 85 20 39 21 88 22 82 23
REMARK SMILES IDX 81 24 40 26 70 27 51 28 69 29 52 30 55 31 68 32 86 33 53 34
REMARK SMILES IDX 54 35 67 37 87 38 56 39 41 40 42 41 50 42 43 43 49 44 44 45
REMARK SMILES IDX 45 46 46 47 47 48 48 49 71 50 72 51 80 52 73 53 79 54 74 55
REMARK SMILES IDX 75 56 76 57 77 58 78 59 57 60 58 61 66 62 59 63 65 64 60 65
REMARK SMILES IDX 61 66 62 67 63 68 64 69 7 70 8 71 9 72 10 73 11 74 12 76
REMARK SMILES IDX 13 77 14 78 18 79 15 80 17 81 16 82 19 83 20 85 21 86 31 87
REMARK SMILES IDX 22 88 24 89 23 90 25 91 26 92 27 93 28 94 29 95 30 96
REMARK H PARENT 3 7 85 25 55 36 10 75 19 84
REMARK Flexibility Score: inf
ROOT
ATOM      1  C   UNL     1       4.404  -2.290  -2.904  1.00  0.00     0.002 C 
ENDROOT
BRANCH   1   2
ATOM      2  C   UNL     1       4.910  -1.854  -1.539  1.00  0.00     0.021 C 
BRANCH   2   3
ATOM      3  C   UNL     1       4.404  -0.453  -1.234  1.00  0.00     0.116 C 
BRANCH   3   4
ATOM      4  N   UNL     1       2.934  -0.453  -1.234  1.00  0.00    -0.352 N 
ATOM      5  O   UNL     1       0.928  -0.066  -0.022  1.00  0.00    -0.269 OA
ATOM      6  C   UNL     1       2.199  -0.066  -0.022  1.00  0.00     0.251 C 
ATOM      7  H   UNL     1       2.441  -0.713  -2.046  1.00  0.00     0.163 HD
BRANCH   6   8
ATOM      8  C   UNL     1       2.959   0.335   1.232  1.00  0.00     0.039 A 
ATOM      9  C   UNL     1       4.076   1.148   1.134  1.00  0.00     0.014 A 
ATOM     10  C   UNL     1       2.564  -0.155   2.401  1.00  0.00     0.014 A 
ATOM     11  C   UNL     1       4.885   1.152   2.295  1.00  0.00     0.010 A 
ATOM     12  C   UNL     1       3.340   0.003   3.524  1.00  0.00     0.010 A 
ATOM     13  C   UNL     1       4.488   0.744   3.486  1.00  0.00    -0.014 A 
BRANCH  13  14
ATOM     14  C   UNL     1       5.266   1.081   4.748  1.00  0.00     0.031 A 
ATOM     15  C   UNL     1       5.757   0.018   5.508  1.00  0.00     0.074 A 
ATOM     16  C   UNL     1       5.482   2.414   5.052  1.00  0.00     0.049 A 
ATOM     17  N   UNL     1       6.520   0.082   6.599  1.00  0.00    -0.248 NA
ATOM     18  C   UNL     1       5.499  -1.398   5.206  1.00  0.00     0.031 C 
ATOM     19  C   UNL     1       4.998   3.493   4.286  1.00  0.00     0.029 A 
ATOM     20  N   UNL     1       6.183   2.936   6.117  1.00  0.00    -0.354 N 
ATOM     21  C   UNL     1       6.805  -1.147   7.036  1.00  0.00     0.074 A 
ATOM     22  C   UNL     1       6.147  -2.116   6.150  1.00  0.00     0.031 C 
ATOM     23  C   UNL     1       5.391   4.647   4.887  1.00  0.00     0.029 A 
ATOM     24  C   UNL     1       6.128   4.309   6.038  1.00  0.00     0.049 A 
ATOM     25  H   UNL     1       6.644   2.416   6.815  1.00  0.00     0.167 HD
ATOM     26  C   UNL     1       7.588  -1.496   8.137  1.00  0.00     0.031 A 
ATOM     27  C   UNL     1       6.681   5.233   6.911  1.00  0.00     0.031 A 
ATOM     28  C   UNL     1       8.177  -0.572   8.986  1.00  0.00     0.049 A 
ATOM     29  C   UNL     1       7.416   4.883   8.046  1.00  0.00     0.074 A 
ATOM     30  C   UNL     1       8.976  -0.908  10.095  1.00  0.00     0.029 A 
ATOM     31  N   UNL     1       8.101   0.801   8.920  1.00  0.00    -0.354 N 
ATOM     32  N   UNL     1       7.733   3.655   8.460  1.00  0.00    -0.248 NA
ATOM     33  C   UNL     1       7.979   5.852   8.996  1.00  0.00     0.031 C 
ATOM     34  C   UNL     1       9.369   0.247  10.697  1.00  0.00     0.029 A 
ATOM     35  C   UNL     1       8.821   1.323   9.973  1.00  0.00     0.049 A 
ATOM     36  H   UNL     1       7.616   1.321   8.239  1.00  0.00     0.167 HD
ATOM     37  C   UNL     1       8.462   3.720   9.576  1.00  0.00     0.074 A 
ATOM     38  C   UNL     1       8.624   5.134   9.941  1.00  0.00     0.031 C 
ATOM     39  C   UNL     1       9.002   2.657  10.302  1.00  0.00     0.031 A 
BRANCH  26  40
ATOM     40  C   UNL     1       7.807  -2.973   8.422  1.00  0.00    -0.014 A 
ATOM     41  C   UNL     1       8.380  -3.775   7.448  1.00  0.00     0.010 A 
ATOM     42  C   UNL     1       7.406  -3.478   9.582  1.00  0.00     0.010 A 
ATOM     43  C   UNL     1       8.222  -5.162   7.682  1.00  0.00     0.020 A 
ATOM     44  C   UNL     1       7.407  -4.837   9.791  1.00  0.00     0.020 A 
ATOM     45  C   UNL     1       7.904  -5.693   8.848  1.00  0.00     0.054 A 
BRANCH  45  46
ATOM     46  S   UNL     1       8.113  -7.460   9.180  1.00  0.00     0.124 S 
ATOM     47  O   UNL     1       7.270  -8.268   8.191  1.00  0.00    -0.237 OA
ATOM     48  O   UNL     1       9.588  -7.838   9.021  1.00  0.00    -0.237 OA
ATOM     49  O   UNL     1       7.605  -7.804  10.777  1.00  0.00    -0.744 OA
ENDBRANCH  45  46
ENDBRANCH  26  40
BRANCH  27  50
ATOM     50  C   UNL     1       6.475   6.710   6.617  1.00  0.00    -0.014 A 
ATOM     51  C   UNL     1       7.606   7.482   6.406  1.00  0.00     0.010 A 
ATOM     52  C   UNL     1       5.259   7.238   6.551  1.00  0.00     0.010 A 
ATOM     53  C   UNL     1       7.359   8.875   6.417  1.00  0.00     0.020 A 
ATOM     54  C   UNL     1       5.092   8.596   6.425  1.00  0.00     0.020 A 
ATOM     55  C   UNL     1       6.168   9.426   6.272  1.00  0.00     0.054 A 
BRANCH  55  56
ATOM     56  S   UNL     1       5.970  11.184   5.892  1.00  0.00     0.124 S 
ATOM     57  O   UNL     1       6.603  12.021   7.006  1.00  0.00    -0.237 OA
ATOM     58  O   UNL     1       6.659  11.500   4.563  1.00  0.00    -0.237 OA
ATOM     59  O   UNL     1       4.305  11.558   5.775  1.00  0.00    -0.744 OA
ENDBRANCH  55  56
ENDBRANCH  27  50
BRANCH  39  60
ATOM     60  C   UNL     1       9.838   2.983  11.529  1.00  0.00    -0.014 A 
ATOM     61  C   UNL     1       9.284   3.720  12.562  1.00  0.00     0.010 A 
ATOM     62  C   UNL     1      11.104   2.583  11.569  1.00  0.00     0.010 A 
ATOM     63  C   UNL     1      10.236   4.236  13.473  1.00  0.00     0.020 A 
ATOM     64  C   UNL     1      11.943   3.019  12.565  1.00  0.00     0.020 A 
ATOM     65  C   UNL     1      11.477   3.799  13.587  1.00  0.00     0.054 A 
BRANCH  65  66
ATOM     66  S   UNL     1      12.505   4.210  15.019  1.00  0.00     0.124 S 
ATOM     67  O   UNL     1      12.665   5.730  15.112  1.00  0.00    -0.237 OA
ATOM     68  O   UNL     1      11.837   3.688  16.293  1.00  0.00    -0.237 OA
ATOM     69  O   UNL     1      14.043   3.485  14.843  1.00  0.00    -0.744 OA
ENDBRANCH  65  66
ENDBRANCH  39  60
ENDBRANCH  13  14
ENDBRANCH   6   8
ENDBRANCH   3   4
ENDBRANCH   2   3
ENDBRANCH   1   2
BRANCH   1  70
ATOM     70  C   UNL     1       4.910  -1.326  -3.964  1.00  0.00     0.002 C 
BRANCH  70  71
ATOM     71  C   UNL     1       6.430  -1.326  -3.964  1.00  0.00     0.021 C 
BRANCH  71  72
ATOM     72  C   UNL     1       6.937  -2.727  -4.269  1.00  0.00     0.116 C 
BRANCH  72  73
ATOM     73  N   UNL     1       6.447  -3.149  -5.589  1.00  0.00    -0.352 N 
ATOM     74  C   UNL     1       7.402  -3.489  -6.653  1.00  0.00     0.253 C 
ATOM     75  H   UNL     1       5.479  -3.203  -5.760  1.00  0.00     0.163 HD
ATOM     76  O   UNL     1       6.979  -3.854  -7.794  1.00  0.00    -0.269 OA
BRANCH  74  77
ATOM     77  C   UNL     1       8.897  -3.404  -6.388  1.00  0.00     0.063 A 
ATOM     78  C   UNL     1       9.721  -2.809  -7.330  1.00  0.00     0.016 A 
ATOM     79  C   UNL     1       9.387  -3.902  -5.260  1.00  0.00     0.051 A 
ATOM     80  C   UNL     1      11.099  -3.047  -7.117  1.00  0.00     0.001 A 
ATOM     81  C   UNL     1      10.745  -3.980  -5.061  1.00  0.00     0.027 A 
ATOM     82  C   UNL     1      11.620  -3.465  -5.977  1.00  0.00     0.002 A 
BRANCH  79  83
ATOM     83  N   UNL     1       8.470  -4.375  -4.213  1.00  0.00    -0.355 N 
ATOM     84  H   UNL     1       7.497  -4.321  -4.350  1.00  0.00     0.167 HD
BRANCH  83  85
ATOM     85  C   UNL     1       9.006  -4.928  -2.961  1.00  0.00     0.040 A 
ATOM     86  C   UNL     1       8.587  -6.187  -2.563  1.00  0.00     0.026 A 
ATOM     87  C   UNL     1       9.777  -4.180  -2.179  1.00  0.00     0.050 A 
ATOM     88  C   UNL     1       8.799  -6.455  -1.190  1.00  0.00     0.004 A 
ATOM     89  C   UNL     1      10.054  -4.570  -0.891  1.00  0.00     0.109 A 
ATOM     90  C   UNL     1       9.622  -5.775  -0.413  1.00  0.00     0.024 A 
BRANCH  89  91
ATOM     91  S   UNL     1      11.006  -3.471   0.188  1.00  0.00     0.310 S 
ATOM     92  F   UNL     1       9.873  -3.681   1.278  1.00  0.00    -0.094 F 
ATOM     93  F   UNL     1      10.116  -2.321  -0.417  1.00  0.00    -0.094 F 
ATOM     94  F   UNL     1      11.680  -2.472   1.170  1.00  0.00    -0.094 F 
ATOM     95  F   UNL     1      11.786  -4.660   0.875  1.00  0.00    -0.094 F 
ATOM     96  F   UNL     1      10.249  -4.516  -0.726  1.00  0.00    -0.094 F 
ENDBRANCH  89  91
ENDBRANCH  83  85
ENDBRANCH  79  83
ENDBRANCH  74  77
ENDBRANCH  72  73
ENDBRANCH  71  72
ENDBRANCH  70  71
ENDBRANCH   1  70
TORSDOF 19
