REMARK SMILES Cc1ccccc1C(=O)Nc1ccc(N2CCCCC2)cc1C(=O)NCCCCCCNC(=O)c1ccc(-c2c3nc(c(-c4ccc(S(=O)(=O)[O-])cc4)c4ccc([nH]4)c(-c4ccc(S(=O)(=O)[O-])cc4)c4nc(c(-c5ccc(S(=O)(=O)[O-])cc5)c5ccc2[nH]5)C=C4)C=C3)cc1
REMARK SMILES IDX 29 1 28 2 27 3 26 4 25 5 23 6 24 7 22 9 11 10 12 11 13 12
REMARK SMILES IDX 21 13 14 14 10 15 8 16 9 17 7 19 1 20 2 21 3 22 4 23 6 24
REMARK SMILES IDX 5 25 15 26 16 27 20 28 17 29 19 30 18 31 30 32 31 33 32 34
REMARK SMILES IDX 33 35 34 37 35 38 36 39 94 40 37 41 93 42 38 43 39 44 40 45
REMARK SMILES IDX 87 46 41 47 92 48 86 49 88 50 42 51 91 52 85 53 84 54 43 56
REMARK SMILES IDX 73 57 54 58 72 59 55 60 58 61 71 62 89 63 56 64 57 65 70 67
REMARK SMILES IDX 90 68 59 69 44 70 45 71 53 72 46 73 52 74 47 75 48 76 49 77
REMARK SMILES IDX 50 78 51 79 74 80 75 81 83 82 76 83 82 84 77 85 78 86 79 87
REMARK SMILES IDX 80 88 81 89 60 90 61 91 69 92 62 93 68 94 63 95 64 96 65 97
REMARK SMILES IDX 66 98 67 99
REMARK H PARENT 25 8 10 18 32 36 88 55 58 66
REMARK Flexibility Score: inf
ROOT
ATOM      1  C   UNL     1       0.328  -2.971  -5.160  1.00  0.00     0.002 C 
ENDROOT
BRANCH   1   2
ATOM      2  C   UNL     1      -0.351  -2.911  -3.787  1.00  0.00     0.002 C 
BRANCH   2   3
ATOM      3  C   UNL     1       0.536  -3.017  -2.543  1.00  0.00     0.021 C 
BRANCH   3   4
ATOM      4  C   UNL     1       1.760  -2.109  -2.455  1.00  0.00     0.116 C 
BRANCH   4   5
ATOM      5  N   UNL     1       1.517  -0.700  -2.700  1.00  0.00    -0.352 N 
ATOM      6  C   UNL     1       2.176   0.413  -2.224  1.00  0.00     0.253 C 
ATOM      7  O   UNL     1       1.859   1.520  -2.656  1.00  0.00    -0.269 OA
ATOM      8  H   UNL     1       0.761  -0.509  -3.301  1.00  0.00     0.163 HD
BRANCH   6   9
ATOM      9  C   UNL     1       3.261   0.311  -1.210  1.00  0.00     0.065 A 
ATOM     10  C   UNL     1       3.386   1.250  -0.169  1.00  0.00     0.054 A 
ATOM     11  C   UNL     1       4.528   1.220   0.644  1.00  0.00     0.029 A 
ATOM     12  C   UNL     1       5.431   0.167   0.554  1.00  0.00     0.028 A 
ATOM     13  C   UNL     1       4.262  -0.671  -1.360  1.00  0.00     0.042 A 
ATOM     14  C   UNL     1       5.283  -0.825  -0.416  1.00  0.00     0.038 A 
BRANCH  10  15
ATOM     15  N   UNL     1       2.454   2.222   0.225  1.00  0.00    -0.321 N 
ATOM     16  C   UNL     1       1.085   2.223   0.323  1.00  0.00     0.255 C 
ATOM     17  O   UNL     1       0.538   3.293   0.609  1.00  0.00    -0.269 OA
ATOM     18  H   UNL     1       2.866   3.078   0.482  1.00  0.00     0.170 HD
BRANCH  16  19
ATOM     19  C   UNL     1       0.231   1.006   0.239  1.00  0.00     0.043 A 
ATOM     20  C   UNL     1       1.655  -0.524   1.759  1.00  0.00     0.045 C 
ATOM     21  C   UNL     1       0.463  -0.217   0.901  1.00  0.00    -0.038 A 
ATOM     22  C   UNL     1      -0.499  -1.241   0.778  1.00  0.00     0.004 A 
ATOM     23  C   UNL     1      -1.694  -1.038   0.088  1.00  0.00     0.000 A 
ATOM     24  C   UNL     1      -0.989   1.200  -0.439  1.00  0.00     0.014 A 
ATOM     25  C   UNL     1      -1.946   0.189  -0.510  1.00  0.00     0.001 A 
ENDBRANCH  16  19
ENDBRANCH  10  15
BRANCH  14  26
ATOM     26  N   UNL     1       6.096  -1.952  -0.345  1.00  0.00    -0.372 N 
ATOM     27  C   UNL     1       5.754  -2.859   0.766  1.00  0.00     0.116 C 
ATOM     28  C   UNL     1       6.557  -2.612  -1.564  1.00  0.00     0.116 C 
ATOM     29  C   UNL     1       6.970  -3.703   1.132  1.00  0.00     0.021 C 
ATOM     30  C   UNL     1       7.803  -3.437  -1.233  1.00  0.00     0.021 C 
ATOM     31  C   UNL     1       7.542  -4.418  -0.090  1.00  0.00     0.004 C 
ENDBRANCH  14  26
ENDBRANCH   6   9
ENDBRANCH   4   5
ENDBRANCH   3   4
ENDBRANCH   2   3
ENDBRANCH   1   2
BRANCH   1  32
ATOM     32  C   UNL     1       1.314  -4.114  -5.393  1.00  0.00     0.021 C 
BRANCH  32  33
ATOM     33  C   UNL     1       0.708  -5.511  -5.302  1.00  0.00     0.116 C 
BRANCH  33  34
ATOM     34  N   UNL     1       0.627  -6.185  -6.592  1.00  0.00    -0.352 N 
ATOM     35  C   UNL     1       0.402  -7.532  -6.834  1.00  0.00     0.251 C 
ATOM     36  H   UNL     1       0.746  -5.616  -7.386  1.00  0.00     0.163 HD
ATOM     37  O   UNL     1       0.471  -8.020  -7.945  1.00  0.00    -0.269 OA
BRANCH  35  38
ATOM     38  C   UNL     1      -0.004  -8.354  -5.675  1.00  0.00     0.039 A 
ATOM     39  C   UNL     1      -1.340  -8.761  -5.605  1.00  0.00     0.014 A 
ATOM     40  C   UNL     1       0.842  -8.455  -4.574  1.00  0.00     0.014 A 
ATOM     41  C   UNL     1      -1.884  -9.095  -4.368  1.00  0.00     0.010 A 
ATOM     42  C   UNL     1       0.278  -8.694  -3.335  1.00  0.00     0.010 A 
ATOM     43  C   UNL     1      -1.097  -8.955  -3.224  1.00  0.00    -0.014 A 
BRANCH  43  44
ATOM     44  C   UNL     1      -1.645  -8.952  -1.870  1.00  0.00     0.031 A 
ATOM     45  C   UNL     1      -1.399 -10.099  -0.962  1.00  0.00     0.074 A 
ATOM     46  C   UNL     1      -2.341  -7.884  -1.414  1.00  0.00     0.049 A 
ATOM     47  N   UNL     1      -2.125 -10.382   0.070  1.00  0.00    -0.248 NA
ATOM     48  C   UNL     1      -0.351 -11.085  -1.208  1.00  0.00     0.031 C 
ATOM     49  C   UNL     1      -2.677  -7.596  -0.021  1.00  0.00     0.029 A 
ATOM     50  N   UNL     1      -3.085  -6.947  -2.137  1.00  0.00    -0.354 N 
ATOM     51  C   UNL     1      -1.478 -11.370   0.776  1.00  0.00     0.074 A 
ATOM     52  C   UNL     1      -0.463 -11.860  -0.125  1.00  0.00     0.031 C 
ATOM     53  C   UNL     1      -3.758  -6.803   0.004  1.00  0.00     0.029 A 
ATOM     54  C   UNL     1      -4.224  -6.665  -1.365  1.00  0.00     0.049 A 
ATOM     55  H   UNL     1      -2.856  -6.562  -3.013  1.00  0.00     0.167 HD
ATOM     56  C   UNL     1      -1.775 -11.561   2.093  1.00  0.00     0.031 A 
ATOM     57  C   UNL     1      -5.512  -6.846  -1.778  1.00  0.00     0.031 A 
ATOM     58  C   UNL     1      -2.966 -10.811   2.493  1.00  0.00     0.049 A 
ATOM     59  C   UNL     1      -6.311  -7.748  -0.865  1.00  0.00     0.074 A 
ATOM     60  C   UNL     1      -3.156  -9.653   3.227  1.00  0.00     0.029 A 
ATOM     61  N   UNL     1      -4.191 -11.112   1.905  1.00  0.00    -0.354 N 
ATOM     62  N   UNL     1      -5.779  -8.504   0.055  1.00  0.00    -0.248 NA
ATOM     63  C   UNL     1      -7.760  -7.920  -0.953  1.00  0.00     0.031 C 
ATOM     64  C   UNL     1      -4.486  -9.206   3.001  1.00  0.00     0.029 A 
ATOM     65  C   UNL     1      -5.110 -10.114   2.162  1.00  0.00     0.049 A 
ATOM     66  H   UNL     1      -4.376 -11.923   1.379  1.00  0.00     0.167 HD
ATOM     67  C   UNL     1      -6.751  -9.265   0.646  1.00  0.00     0.074 A 
ATOM     68  C   UNL     1      -7.980  -8.847  -0.004  1.00  0.00     0.031 C 
ATOM     69  C   UNL     1      -6.456 -10.189   1.607  1.00  0.00     0.031 A 
BRANCH  56  70
ATOM     70  C   UNL     1      -0.842 -12.220   3.098  1.00  0.00    -0.014 A 
ATOM     71  C   UNL     1      -1.099 -12.089   4.481  1.00  0.00     0.010 A 
ATOM     72  C   UNL     1       0.358 -12.879   2.766  1.00  0.00     0.010 A 
ATOM     73  C   UNL     1      -0.183 -12.516   5.460  1.00  0.00     0.020 A 
ATOM     74  C   UNL     1       1.280 -13.316   3.728  1.00  0.00     0.020 A 
ATOM     75  C   UNL     1       1.016 -13.110   5.074  1.00  0.00     0.054 A 
BRANCH  75  76
ATOM     76  S   UNL     1       2.236 -13.581   6.326  1.00  0.00     0.124 S 
ATOM     77  O   UNL     1       2.592 -12.292   6.914  1.00  0.00    -0.237 OA
ATOM     78  O   UNL     1       1.476 -14.482   7.187  1.00  0.00    -0.237 OA
ATOM     79  O   UNL     1       3.300 -14.218   5.551  1.00  0.00    -0.744 OA
ENDBRANCH  75  76
ENDBRANCH  56  70
BRANCH  57  80
ATOM     80  C   UNL     1      -5.719  -6.728  -3.245  1.00  0.00    -0.014 A 
ATOM     81  C   UNL     1      -5.642  -5.437  -3.806  1.00  0.00     0.010 A 
ATOM     82  C   UNL     1      -5.550  -7.849  -4.076  1.00  0.00     0.010 A 
ATOM     83  C   UNL     1      -5.221  -5.264  -5.125  1.00  0.00     0.020 A 
ATOM     84  C   UNL     1      -5.127  -7.677  -5.401  1.00  0.00     0.020 A 
ATOM     85  C   UNL     1      -4.899  -6.386  -5.889  1.00  0.00     0.054 A 
BRANCH  85  86
ATOM     86  S   UNL     1      -3.978  -6.125  -7.435  1.00  0.00     0.124 S 
ATOM     87  O   UNL     1      -4.884  -5.275  -8.199  1.00  0.00    -0.237 OA
ATOM     88  O   UNL     1      -2.761  -5.476  -6.948  1.00  0.00    -0.237 OA
ATOM     89  O   UNL     1      -3.797  -7.479  -7.949  1.00  0.00    -0.744 OA
ENDBRANCH  85  86
ENDBRANCH  57  80
BRANCH  69  90
ATOM     90  C   UNL     1      -7.418 -11.206   2.172  1.00  0.00    -0.014 A 
ATOM     91  C   UNL     1      -8.550 -11.683   1.492  1.00  0.00     0.010 A 
ATOM     92  C   UNL     1      -7.112 -11.816   3.412  1.00  0.00     0.010 A 
ATOM     93  C   UNL     1      -9.377 -12.668   2.052  1.00  0.00     0.020 A 
ATOM     94  C   UNL     1      -7.904 -12.829   3.960  1.00  0.00     0.020 A 
ATOM     95  C   UNL     1      -9.053 -13.230   3.287  1.00  0.00     0.054 A 
BRANCH  95  96
ATOM     96  S   UNL     1     -10.093 -14.540   3.983  1.00  0.00     0.124 S 
ATOM     97  O   UNL     1     -11.062 -13.772   4.760  1.00  0.00    -0.237 OA
ATOM     98  O   UNL     1     -10.628 -15.203   2.796  1.00  0.00    -0.237 OA
ATOM     99  O   UNL     1      -9.153 -15.340   4.764  1.00  0.00    -0.744 OA
ENDBRANCH  95  96
ENDBRANCH  69  90
ENDBRANCH  43  44
ENDBRANCH  35  38
ENDBRANCH  33  34
ENDBRANCH  32  33
ENDBRANCH   1  32
TORSDOF 19
