REMARK SMILES Cc1ncccc1OC1(C(=O)NCCCCCCNC(=O)c2ccc(-c3c4nc(c(-c5ccc(S(=O)(=O)[O-])cc5)c5ccc([nH]5)c(-c5ccc(S(=O)(=O)[O-])cc5)c5nc(c(-c6ccc(S(=O)(=O)[O-])cc6)c6ccc3[nH]6)C=C5)C=C4)cc2)CCN(C(=O)c2ccc(O)nn2)CC1
REMARK SMILES IDX 16 1 15 2 14 3 13 4 12 5 10 6 11 7 9 9 82 10 95 11 83 12
REMARK SMILES IDX 94 13 84 14 85 15 86 16 8 17 7 18 1 19 2 20 3 21 4 22 6 23
REMARK SMILES IDX 5 24 87 25 88 26 93 27 89 28 92 29 90 30 91 31 17 33 18 34
REMARK SMILES IDX 19 35 20 36 21 38 22 39 23 40 81 41 24 42 80 43 25 44 26 45
REMARK SMILES IDX 27 46 74 47 28 48 79 49 73 50 75 51 29 52 78 53 72 54 71 55
REMARK SMILES IDX 30 57 60 58 41 59 59 60 42 61 45 62 58 63 76 64 43 65 44 66
REMARK SMILES IDX 57 68 77 69 46 70 31 71 32 72 40 73 33 74 39 75 34 76 35 77
REMARK SMILES IDX 36 78 37 79 38 80 61 81 62 82 70 83 63 84 69 85 64 86 65 87
REMARK SMILES IDX 66 88 67 89 68 90 47 91 48 92 56 93 49 94 55 95 50 96 51 97
REMARK SMILES IDX 52 98 53 99 54 100
REMARK H PARENT 12 8 91 32 19 37 75 56 45 67
REMARK Flexibility Score: inf
ROOT
ATOM      1  C   UNL     1       7.627  -5.227   0.098  1.00  0.00     0.002 C 
ENDROOT
BRANCH   1   2
ATOM      2  C   UNL     1       6.643  -5.091   1.267  1.00  0.00     0.002 C 
BRANCH   2   3
ATOM      3  C   UNL     1       5.870  -3.770   1.334  1.00  0.00     0.021 C 
BRANCH   3   4
ATOM      4  C   UNL     1       4.993  -3.489   0.116  1.00  0.00     0.116 C 
BRANCH   4   5
ATOM      5  N   UNL     1       3.687  -4.100   0.225  1.00  0.00    -0.353 N 
ATOM      6  C   UNL     1       2.424  -3.581   0.193  1.00  0.00     0.264 C 
ATOM      7  O   UNL     1       1.524  -4.429   0.259  1.00  0.00    -0.270 OA
ATOM      8  H   UNL     1       3.713  -5.077   0.344  1.00  0.00     0.163 HD
BRANCH   6   9
ATOM      9  C   UNL     1       2.119  -2.033   0.078  1.00  0.00     0.190 C 
ATOM     10  C   UNL     1       2.573  -1.353   1.366  1.00  0.00     0.080 C 
ATOM     11  C   UNL     1       2.643  -1.545  -1.268  1.00  0.00     0.080 C 
ATOM     12  C   UNL     1       3.812  -0.480   1.285  1.00  0.00     0.124 C 
ATOM     13  C   UNL     1       3.780  -0.536  -1.262  1.00  0.00     0.124 C 
ATOM     14  N   UNL     1       4.129   0.121  -0.003  1.00  0.00    -0.337 N 
ATOM     15  C   UNL     1       5.082   1.165   0.030  1.00  0.00     0.274 C 
ATOM     16  O   UNL     1       5.648   1.513   1.066  1.00  0.00    -0.267 OA
BRANCH   9  17
ATOM     17  O   UNL     1       0.665  -2.067   0.027  1.00  0.00    -0.475 OA
BRANCH  17  18
ATOM     18  C   UNL     1      -0.283  -1.097   0.014  1.00  0.00     0.142 A 
ATOM     19  C   UNL     1       0.940   1.182  -0.058  1.00  0.00     0.071 C 
ATOM     20  C   UNL     1      -0.256   0.300  -0.018  1.00  0.00     0.079 A 
ATOM     21  N   UNL     1      -1.398   1.057  -0.003  1.00  0.00    -0.258 NA
ATOM     22  C   UNL     1      -2.591   0.442   0.026  1.00  0.00     0.111 A 
ATOM     23  C   UNL     1      -1.561  -1.685   0.035  1.00  0.00     0.050 A 
ATOM     24  C   UNL     1      -2.725  -0.924   0.041  1.00  0.00     0.024 A 
ENDBRANCH  17  18
ENDBRANCH   9  17
BRANCH  15  25
ATOM     25  C   UNL     1       5.479   1.817  -1.242  1.00  0.00     0.151 A 
ATOM     26  C   UNL     1       6.802   1.787  -1.654  1.00  0.00     0.042 A 
ATOM     27  N   UNL     1       4.483   2.359  -1.988  1.00  0.00    -0.142 NA
ATOM     28  C   UNL     1       7.096   2.306  -2.908  1.00  0.00     0.072 A 
ATOM     29  N   UNL     1       4.777   2.869  -3.213  1.00  0.00    -0.112 NA
ATOM     30  C   UNL     1       6.054   2.828  -3.642  1.00  0.00     0.230 A 
BRANCH  30  31
ATOM     31  O   UNL     1       6.269   3.323  -4.887  1.00  0.00    -0.492 OA
ATOM     32  H   UNL     1       7.134   3.325  -5.247  1.00  0.00     0.295 HD
ENDBRANCH  30  31
ENDBRANCH  15  25
ENDBRANCH   6   9
ENDBRANCH   4   5
ENDBRANCH   3   4
ENDBRANCH   2   3
ENDBRANCH   1   2
BRANCH   1  33
ATOM     33  C   UNL     1       8.626  -4.078  -0.079  1.00  0.00     0.021 C 
BRANCH  33  34
ATOM     34  C   UNL     1       9.526  -3.794   1.123  1.00  0.00     0.116 C 
BRANCH  34  35
ATOM     35  N   UNL     1      10.380  -4.921   1.456  1.00  0.00    -0.352 N 
ATOM     36  C   UNL     1      11.741  -4.976   1.632  1.00  0.00     0.251 C 
ATOM     37  H   UNL     1       9.911  -5.779   1.573  1.00  0.00     0.163 HD
ATOM     38  O   UNL     1      12.290  -6.068   1.752  1.00  0.00    -0.269 OA
BRANCH  36  39
ATOM     39  C   UNL     1      12.554  -3.738   1.656  1.00  0.00     0.039 A 
ATOM     40  C   UNL     1      13.770  -3.721   0.965  1.00  0.00     0.014 A 
ATOM     41  C   UNL     1      12.152  -2.612   2.381  1.00  0.00     0.014 A 
ATOM     42  C   UNL     1      14.552  -2.562   0.951  1.00  0.00     0.010 A 
ATOM     43  C   UNL     1      12.906  -1.439   2.323  1.00  0.00     0.010 A 
ATOM     44  C   UNL     1      14.112  -1.402   1.607  1.00  0.00    -0.014 A 
BRANCH  44  45
ATOM     45  C   UNL     1      14.896  -0.141   1.547  1.00  0.00     0.031 A 
ATOM     46  C   UNL     1      15.534   0.421   2.788  1.00  0.00     0.074 A 
ATOM     47  C   UNL     1      14.984   0.534   0.383  1.00  0.00     0.049 A 
ATOM     48  N   UNL     1      16.198   1.539   2.940  1.00  0.00    -0.248 NA
ATOM     49  C   UNL     1      15.388  -0.365   4.024  1.00  0.00     0.031 C 
ATOM     50  C   UNL     1      14.384   0.117  -0.886  1.00  0.00     0.029 A 
ATOM     51  N   UNL     1      15.604   1.722   0.083  1.00  0.00    -0.354 N 
ATOM     52  C   UNL     1      16.532   1.602   4.288  1.00  0.00     0.074 A 
ATOM     53  C   UNL     1      15.967   0.426   4.916  1.00  0.00     0.031 C 
ATOM     54  C   UNL     1      14.680   1.024  -1.831  1.00  0.00     0.029 A 
ATOM     55  C   UNL     1      15.460   2.102  -1.231  1.00  0.00     0.049 A 
ATOM     56  H   UNL     1      16.104   2.251   0.745  1.00  0.00     0.167 HD
ATOM     57  C   UNL     1      17.254   2.543   4.942  1.00  0.00     0.031 A 
ATOM     58  C   UNL     1      15.899   3.197  -1.880  1.00  0.00     0.031 A 
ATOM     59  C   UNL     1      17.828   3.705   4.318  1.00  0.00     0.049 A 
ATOM     60  C   UNL     1      16.702   4.226  -1.136  1.00  0.00     0.074 A 
ATOM     61  C   UNL     1      18.621   4.687   4.888  1.00  0.00     0.029 A 
ATOM     62  N   UNL     1      17.672   4.044   2.982  1.00  0.00    -0.354 N 
ATOM     63  N   UNL     1      17.051   4.239   0.128  1.00  0.00    -0.248 NA
ATOM     64  C   UNL     1      17.177   5.383  -1.907  1.00  0.00     0.031 C 
ATOM     65  C   UNL     1      18.914   5.639   3.905  1.00  0.00     0.029 A 
ATOM     66  C   UNL     1      18.339   5.228   2.713  1.00  0.00     0.049 A 
ATOM     67  H   UNL     1      17.163   3.521   2.323  1.00  0.00     0.167 HD
ATOM     68  C   UNL     1      17.805   5.395   0.299  1.00  0.00     0.074 A 
ATOM     69  C   UNL     1      17.870   6.048  -0.993  1.00  0.00     0.031 C 
ATOM     70  C   UNL     1      18.392   5.870   1.425  1.00  0.00     0.031 A 
BRANCH  57  71
ATOM     71  C   UNL     1      17.454   2.354   6.422  1.00  0.00    -0.014 A 
ATOM     72  C   UNL     1      18.318   1.358   6.914  1.00  0.00     0.010 A 
ATOM     73  C   UNL     1      16.790   3.195   7.332  1.00  0.00     0.010 A 
ATOM     74  C   UNL     1      18.476   1.176   8.290  1.00  0.00     0.020 A 
ATOM     75  C   UNL     1      16.964   3.032   8.710  1.00  0.00     0.020 A 
ATOM     76  C   UNL     1      17.790   2.008   9.180  1.00  0.00     0.054 A 
BRANCH  76  77
ATOM     77  S   UNL     1      18.012   1.754  10.962  1.00  0.00     0.124 S 
ATOM     78  O   UNL     1      17.178   0.578  11.203  1.00  0.00    -0.237 OA
ATOM     79  O   UNL     1      19.452   1.536  11.081  1.00  0.00    -0.237 OA
ATOM     80  O   UNL     1      17.523   2.997  11.553  1.00  0.00    -0.744 OA
ENDBRANCH  76  77
ENDBRANCH  57  71
BRANCH  58  81
ATOM     81  C   UNL     1      15.600   3.365  -3.327  1.00  0.00    -0.014 A 
ATOM     82  C   UNL     1      16.607   3.167  -4.287  1.00  0.00     0.010 A 
ATOM     83  C   UNL     1      14.301   3.695  -3.751  1.00  0.00     0.010 A 
ATOM     84  C   UNL     1      16.322   3.303  -5.649  1.00  0.00     0.020 A 
ATOM     85  C   UNL     1      14.007   3.811  -5.113  1.00  0.00     0.020 A 
ATOM     86  C   UNL     1      15.023   3.622  -6.053  1.00  0.00     0.054 A 
BRANCH  86  87
ATOM     87  S   UNL     1      14.654   3.723  -7.827  1.00  0.00     0.124 S 
ATOM     88  O   UNL     1      15.192   5.034  -8.174  1.00  0.00    -0.237 OA
ATOM     89  O   UNL     1      15.379   2.576  -8.368  1.00  0.00    -0.237 OA
ATOM     90  O   UNL     1      13.198   3.607  -7.876  1.00  0.00    -0.744 OA
ENDBRANCH  86  87
ENDBRANCH  58  81
BRANCH  70  91
ATOM     91  C   UNL     1      19.176   7.147   1.307  1.00  0.00    -0.014 A 
ATOM     92  C   UNL     1      18.527   8.389   1.196  1.00  0.00     0.010 A 
ATOM     93  C   UNL     1      20.581   7.107   1.357  1.00  0.00     0.010 A 
ATOM     94  C   UNL     1      19.271   9.569   1.109  1.00  0.00     0.020 A 
ATOM     95  C   UNL     1      21.328   8.286   1.293  1.00  0.00     0.020 A 
ATOM     96  C   UNL     1      20.668   9.509   1.155  1.00  0.00     0.054 A 
BRANCH  96  97
ATOM     97  S   UNL     1      21.614  11.056   1.086  1.00  0.00     0.124 S 
ATOM     98  O   UNL     1      21.558  11.382  -0.336  1.00  0.00    -0.237 OA
ATOM     99  O   UNL     1      20.853  11.941   1.964  1.00  0.00    -0.237 OA
ATOM    100  O   UNL     1      22.933  10.676   1.588  1.00  0.00    -0.744 OA
ENDBRANCH  96  97
ENDBRANCH  70  91
ENDBRANCH  44  45
ENDBRANCH  36  39
ENDBRANCH  34  35
ENDBRANCH  33  34
ENDBRANCH   1  33
TORSDOF 20
