REMARK SMILES Cc1cccc(Nc2ccccc2C(=O)NCCCCCCNC(=O)c2ccc(-c3c4nc(c(-c5ccc(S(=O)(=O)[O-])cc5)c5ccc([nH]5)c(-c5ccc(S(=O)(=O)[O-])cc5)c5nc(c(-c6ccc(S(=O)(=O)[O-])cc6)c6ccc3[nH]6)C=C5)C=C4)cc2)c1C
REMARK SMILES IDX 20 1 19 2 18 3 17 4 16 5 14 6 15 7 13 9 8 10 9 11 10 12
REMARK SMILES IDX 12 13 11 14 7 15 6 17 1 18 2 19 3 20 86 21 4 22 87 23 5 24
REMARK SMILES IDX 21 25 22 26 23 27 24 28 25 30 26 31 27 32 85 33 28 34 84 35
REMARK SMILES IDX 29 36 30 37 31 38 78 39 32 40 83 41 77 42 79 43 33 44 82 45
REMARK SMILES IDX 76 46 75 47 34 49 64 50 45 51 63 52 46 53 49 54 62 55 80 56
REMARK SMILES IDX 47 57 48 58 61 60 81 61 50 62 35 63 36 64 44 65 37 66 43 67
REMARK SMILES IDX 38 68 39 69 40 70 41 71 42 72 65 73 66 74 74 75 67 76 73 77
REMARK SMILES IDX 68 78 69 79 70 80 71 81 72 82 51 83 52 84 60 85 53 86 59 87
REMARK SMILES IDX 54 88 55 89 56 90 57 91 58 92
REMARK H PARENT 16 8 7 16 23 29 79 48 49 59
REMARK Flexibility Score: inf
ROOT
ATOM      1  C   UNL     1      -3.079   0.400   2.194  1.00  0.00     0.002 C 
ENDROOT
BRANCH   1   2
ATOM      2  C   UNL     1      -2.993  -0.805   3.141  1.00  0.00     0.002 C 
BRANCH   2   3
ATOM      3  C   UNL     1      -2.661  -2.172   2.525  1.00  0.00     0.021 C 
BRANCH   3   4
ATOM      4  C   UNL     1      -1.416  -2.240   1.645  1.00  0.00     0.116 C 
BRANCH   4   5
ATOM      5  N   UNL     1      -0.169  -2.104   2.356  1.00  0.00    -0.352 N 
ATOM      6  C   UNL     1       1.089  -2.553   2.032  1.00  0.00     0.253 C 
ATOM      7  O   UNL     1       2.013  -2.196   2.771  1.00  0.00    -0.269 OA
ATOM      8  H   UNL     1      -0.228  -1.612   3.207  1.00  0.00     0.163 HD
BRANCH   6   9
ATOM      9  C   UNL     1       1.391  -3.537   0.943  1.00  0.00     0.063 A 
ATOM     10  C   UNL     1       0.885  -3.584  -0.373  1.00  0.00     0.051 A 
ATOM     11  C   UNL     1       1.282  -4.666  -1.200  1.00  0.00     0.027 A 
ATOM     12  C   UNL     1       2.205  -5.626  -0.787  1.00  0.00     0.002 A 
ATOM     13  C   UNL     1       2.343  -4.513   1.333  1.00  0.00     0.016 A 
ATOM     14  C   UNL     1       2.756  -5.536   0.478  1.00  0.00     0.001 A 
BRANCH  10  15
ATOM     15  N   UNL     1       0.121  -2.605  -1.039  1.00  0.00    -0.355 N 
ATOM     16  H   UNL     1      -0.603  -2.990  -1.583  1.00  0.00     0.167 HD
BRANCH  15  17
ATOM     17  C   UNL     1       0.162  -1.196  -1.101  1.00  0.00     0.042 A 
ATOM     18  C   UNL     1       2.164   1.906  -0.084  1.00  0.00     0.044 C 
ATOM     19  C   UNL     1       1.062   1.011  -0.584  1.00  0.00    -0.046 A 
ATOM     20  C   UNL     1      -0.166   1.593  -0.928  1.00  0.00     0.004 A 
ATOM     21  C   UNL     1       1.256  -0.388  -0.737  1.00  0.00    -0.025 A 
ATOM     22  C   UNL     1      -1.205   0.812  -1.407  1.00  0.00     0.002 A 
ATOM     23  C   UNL     1       2.645  -0.949  -0.570  1.00  0.00     0.047 C 
ATOM     24  C   UNL     1      -1.043  -0.567  -1.481  1.00  0.00     0.026 A 
ENDBRANCH  15  17
ENDBRANCH  10  15
ENDBRANCH   6   9
ENDBRANCH   4   5
ENDBRANCH   3   4
ENDBRANCH   2   3
ENDBRANCH   1   2
BRANCH   1  25
ATOM     25  C   UNL     1      -3.926   0.230   0.932  1.00  0.00     0.021 C 
BRANCH  25  26
ATOM     26  C   UNL     1      -5.382  -0.168   1.142  1.00  0.00     0.116 C 
BRANCH  26  27
ATOM     27  N   UNL     1      -6.156   0.853   1.825  1.00  0.00    -0.352 N 
ATOM     28  C   UNL     1      -7.307   1.499   1.438  1.00  0.00     0.251 C 
ATOM     29  H   UNL     1      -5.802   1.125   2.702  1.00  0.00     0.163 HD
ATOM     30  O   UNL     1      -7.721   2.443   2.105  1.00  0.00    -0.269 OA
BRANCH  28  31
ATOM     31  C   UNL     1      -8.039   1.086   0.215  1.00  0.00     0.039 A 
ATOM     32  C   UNL     1      -8.567   2.077  -0.621  1.00  0.00     0.014 A 
ATOM     33  C   UNL     1      -8.240  -0.260  -0.098  1.00  0.00     0.014 A 
ATOM     34  C   UNL     1      -9.241   1.719  -1.794  1.00  0.00     0.010 A 
ATOM     35  C   UNL     1      -8.843  -0.614  -1.304  1.00  0.00     0.010 A 
ATOM     36  C   UNL     1      -9.359   0.370  -2.162  1.00  0.00    -0.014 A 
BRANCH  36  37
ATOM     37  C   UNL     1     -10.033  -0.043  -3.422  1.00  0.00     0.031 A 
ATOM     38  C   UNL     1     -11.274  -0.895  -3.366  1.00  0.00     0.074 A 
ATOM     39  C   UNL     1      -9.486   0.270  -4.614  1.00  0.00     0.049 A 
ATOM     40  N   UNL     1     -11.934  -1.458  -4.345  1.00  0.00    -0.248 NA
ATOM     41  C   UNL     1     -11.825  -1.176  -2.031  1.00  0.00     0.031 C 
ATOM     42  C   UNL     1      -8.268   1.060  -4.808  1.00  0.00     0.029 A 
ATOM     43  N   UNL     1      -9.876  -0.055  -5.890  1.00  0.00    -0.354 N 
ATOM     44  C   UNL     1     -12.954  -2.188  -3.744  1.00  0.00     0.074 A 
ATOM     45  C   UNL     1     -12.801  -2.026  -2.314  1.00  0.00     0.031 C 
ATOM     46  C   UNL     1      -8.018   1.167  -6.123  1.00  0.00     0.029 A 
ATOM     47  C   UNL     1      -9.030   0.421  -6.865  1.00  0.00     0.049 A 
ATOM     48  H   UNL     1     -10.685  -0.579  -6.089  1.00  0.00     0.167 HD
ATOM     49  C   UNL     1     -13.937  -2.916  -4.326  1.00  0.00     0.031 A 
ATOM     50  C   UNL     1      -9.053   0.263  -8.203  1.00  0.00     0.031 A 
ATOM     51  C   UNL     1     -14.103  -3.051  -5.749  1.00  0.00     0.049 A 
ATOM     52  C   UNL     1     -10.160  -0.537  -8.832  1.00  0.00     0.074 A 
ATOM     53  C   UNL     1     -15.108  -3.707  -6.438  1.00  0.00     0.029 A 
ATOM     54  N   UNL     1     -13.243  -2.523  -6.700  1.00  0.00    -0.354 N 
ATOM     55  N   UNL     1     -11.151  -1.168  -8.249  1.00  0.00    -0.248 NA
ATOM     56  C   UNL     1     -10.159  -0.640 -10.298  1.00  0.00     0.031 C 
ATOM     57  C   UNL     1     -14.830  -3.615  -7.806  1.00  0.00     0.029 A 
ATOM     58  C   UNL     1     -13.682  -2.856  -7.970  1.00  0.00     0.049 A 
ATOM     59  H   UNL     1     -12.440  -1.990  -6.501  1.00  0.00     0.167 HD
ATOM     60  C   UNL     1     -11.906  -1.721  -9.277  1.00  0.00     0.074 A 
ATOM     61  C   UNL     1     -11.262  -1.344 -10.519  1.00  0.00     0.031 C 
ATOM     62  C   UNL     1     -13.033  -2.470  -9.198  1.00  0.00     0.031 A 
BRANCH  49  63
ATOM     63  C   UNL     1     -14.901  -3.635  -3.419  1.00  0.00    -0.014 A 
ATOM     64  C   UNL     1     -15.838  -2.930  -2.642  1.00  0.00     0.010 A 
ATOM     65  C   UNL     1     -14.884  -5.040  -3.359  1.00  0.00     0.010 A 
ATOM     66  C   UNL     1     -16.701  -3.613  -1.781  1.00  0.00     0.020 A 
ATOM     67  C   UNL     1     -15.766  -5.730  -2.522  1.00  0.00     0.020 A 
ATOM     68  C   UNL     1     -16.653  -5.009  -1.720  1.00  0.00     0.054 A 
BRANCH  68  69
ATOM     69  S   UNL     1     -17.783  -5.871  -0.594  1.00  0.00     0.124 S 
ATOM     70  O   UNL     1     -17.171  -5.605   0.706  1.00  0.00    -0.237 OA
ATOM     71  O   UNL     1     -19.057  -5.198  -0.837  1.00  0.00    -0.237 OA
ATOM     72  O   UNL     1     -17.722  -7.262  -1.038  1.00  0.00    -0.744 OA
ENDBRANCH  68  69
ENDBRANCH  49  63
BRANCH  50  73
ATOM     73  C   UNL     1      -7.991   0.891  -9.035  1.00  0.00    -0.014 A 
ATOM     74  C   UNL     1      -8.277   2.019  -9.824  1.00  0.00     0.010 A 
ATOM     75  C   UNL     1      -6.676   0.390  -9.010  1.00  0.00     0.010 A 
ATOM     76  C   UNL     1      -7.269   2.632 -10.575  1.00  0.00     0.020 A 
ATOM     77  C   UNL     1      -5.661   1.015  -9.740  1.00  0.00     0.020 A 
ATOM     78  C   UNL     1      -5.966   2.129 -10.524  1.00  0.00     0.054 A 
BRANCH  78  79
ATOM     79  S   UNL     1      -4.659   2.987 -11.445  1.00  0.00     0.124 S 
ATOM     80  O   UNL     1      -4.951   2.598 -12.821  1.00  0.00    -0.237 OA
ATOM     81  O   UNL     1      -4.910   4.388 -11.117  1.00  0.00    -0.237 OA
ATOM     82  O   UNL     1      -3.428   2.435 -10.884  1.00  0.00    -0.744 OA
ENDBRANCH  78  79
ENDBRANCH  50  73
BRANCH  62  83
ATOM     83  C   UNL     1     -13.674  -2.910 -10.486  1.00  0.00    -0.014 A 
ATOM     84  C   UNL     1     -13.122  -3.947 -11.257  1.00  0.00     0.010 A 
ATOM     85  C   UNL     1     -14.898  -2.337 -10.880  1.00  0.00     0.010 A 
ATOM     86  C   UNL     1     -13.777  -4.396 -12.407  1.00  0.00     0.020 A 
ATOM     87  C   UNL     1     -15.567  -2.799 -12.015  1.00  0.00     0.020 A 
ATOM     88  C   UNL     1     -14.998  -3.823 -12.776  1.00  0.00     0.054 A 
BRANCH  88  89
ATOM     89  S   UNL     1     -15.867  -4.476 -14.229  1.00  0.00     0.124 S 
ATOM     90  O   UNL     1     -15.069  -3.937 -15.327  1.00  0.00    -0.237 OA
ATOM     91  O   UNL     1     -15.775  -5.921 -14.034  1.00  0.00    -0.237 OA
ATOM     92  O   UNL     1     -17.213  -3.921 -14.106  1.00  0.00    -0.744 OA
ENDBRANCH  88  89
ENDBRANCH  62  83
ENDBRANCH  36  37
ENDBRANCH  28  31
ENDBRANCH  26  27
ENDBRANCH  25  26
ENDBRANCH   1  25
TORSDOF 18
