REMARK SMILES C[C@@H](C(=O)NCCCCCCNC(=O)c1ccc(-c2c3nc(c(-c4ccc(S(=O)(=O)[O-])cc4)c4ccc([nH]4)c(-c4ccc(S(=O)(=O)[O-])cc4)c4nc(c(-c5ccc(S(=O)(=O)[O-])cc5)c5ccc2[nH]5)C=C4)C=C3)cc1)c1ccc(C[C@H]2CCCC2=O)c(-c2ccccc2)c1
REMARK SMILES IDX 8 1 7 2 6 3 5 4 3 5 4 6 2 8 1 9 75 10 76 11 93 12 77 13
REMARK SMILES IDX 86 14 78 15 87 16 88 17 92 18 89 19 91 20 90 21 79 22 80 23
REMARK SMILES IDX 81 24 84 25 82 26 83 27 85 28 9 29 10 30 11 31 12 32 13 33
REMARK SMILES IDX 14 35 15 36 16 37 74 38 17 39 73 40 18 41 19 42 20 43 67 44
REMARK SMILES IDX 21 45 72 46 66 47 68 48 22 49 71 50 65 51 64 52 23 54 53 55
REMARK SMILES IDX 34 56 52 57 35 58 38 59 51 60 69 61 36 62 37 63 50 65 70 66
REMARK SMILES IDX 39 67 24 68 25 69 33 70 26 71 32 72 27 73 28 74 29 75 30 76
REMARK SMILES IDX 31 77 54 78 55 79 63 80 56 81 62 82 57 83 58 84 59 85 60 86
REMARK SMILES IDX 61 87 40 88 41 89 49 90 42 91 48 92 43 93 44 94 45 95 46 96
REMARK SMILES IDX 47 97
REMARK H PARENT 5 7 12 34 68 53 38 64
REMARK Flexibility Score: inf
ROOT
ATOM      1  C   UNL     1       5.048  -0.651  -2.686  1.00  0.00     0.002 C 
ENDROOT
BRANCH   1   2
ATOM      2  C   UNL     1       4.300  -0.187  -1.428  1.00  0.00     0.021 C 
BRANCH   2   3
ATOM      3  C   UNL     1       3.495   1.099  -1.635  1.00  0.00     0.116 C 
BRANCH   3   4
ATOM      4  N   UNL     1       2.412   0.858  -2.563  1.00  0.00    -0.356 N 
ATOM      5  C   UNL     1       1.094   0.611  -2.317  1.00  0.00     0.227 C 
ATOM      6  O   UNL     1       0.416   0.212  -3.267  1.00  0.00    -0.274 OA
ATOM      7  H   UNL     1       2.664   0.875  -3.515  1.00  0.00     0.163 HD
BRANCH   5   8
ATOM      8  C   UNL     1       0.515   0.887  -0.922  1.00  0.00     0.105 C 
ATOM      9  C   UNL     1       0.990  -0.118   0.138  1.00  0.00     0.023 C 
BRANCH   8  10
ATOM     10  C   UNL     1      -1.008   0.950  -0.959  1.00  0.00    -0.035 A 
ATOM     11  C   UNL     1      -1.663   2.172  -1.091  1.00  0.00     0.005 A 
ATOM     12  C   UNL     1      -1.783  -0.217  -0.890  1.00  0.00     0.013 A 
ATOM     13  C   UNL     1      -3.057   2.222  -1.089  1.00  0.00     0.004 A 
ATOM     14  C   UNL     1      -3.191  -0.194  -0.838  1.00  0.00    -0.015 A 
ATOM     15  C   UNL     1      -3.837   1.060  -0.914  1.00  0.00    -0.039 A 
BRANCH  14  16
ATOM     16  C   UNL     1      -3.883  -1.487  -0.670  1.00  0.00    -0.018 A 
ATOM     17  C   UNL     1      -4.790  -1.972  -1.624  1.00  0.00     0.009 A 
ATOM     18  C   UNL     1      -3.604  -2.297   0.446  1.00  0.00     0.009 A 
ATOM     19  C   UNL     1      -5.434  -3.199  -1.444  1.00  0.00     0.001 A 
ATOM     20  C   UNL     1      -4.232  -3.531   0.619  1.00  0.00     0.001 A 
ATOM     21  C   UNL     1      -5.157  -3.977  -0.321  1.00  0.00     0.000 A 
ENDBRANCH  14  16
BRANCH  15  22
ATOM     22  C   UNL     1      -5.337   1.234  -0.777  1.00  0.00     0.047 C 
BRANCH  22  23
ATOM     23  C   UNL     1      -5.848   1.774   0.566  1.00  0.00     0.060 C 
ATOM     24  C   UNL     1      -5.366   1.062   1.832  1.00  0.00     0.012 C 
ATOM     25  C   UNL     1      -5.414   3.198   0.820  1.00  0.00     0.136 C 
ATOM     26  C   UNL     1      -4.198   1.883   2.368  1.00  0.00     0.009 C 
ATOM     27  C   UNL     1      -4.525   3.330   2.028  1.00  0.00     0.076 C 
ATOM     28  O   UNL     1      -5.765   4.150   0.131  1.00  0.00    -0.299 OA
ENDBRANCH  22  23
ENDBRANCH  15  22
ENDBRANCH   8  10
ENDBRANCH   5   8
ENDBRANCH   3   4
ENDBRANCH   2   3
ENDBRANCH   1   2
BRANCH   1  29
ATOM     29  C   UNL     1       6.014   0.384  -3.272  1.00  0.00     0.002 C 
BRANCH  29  30
ATOM     30  C   UNL     1       7.055   0.915  -2.285  1.00  0.00     0.021 C 
BRANCH  30  31
ATOM     31  C   UNL     1       7.962  -0.158  -1.695  1.00  0.00     0.116 C 
BRANCH  31  32
ATOM     32  N   UNL     1       8.778  -0.794  -2.717  1.00  0.00    -0.352 N 
ATOM     33  C   UNL     1      10.139  -0.953  -2.758  1.00  0.00     0.251 C 
ATOM     34  H   UNL     1       8.285  -1.162  -3.485  1.00  0.00     0.163 HD
ATOM     35  O   UNL     1      10.683  -1.315  -3.802  1.00  0.00    -0.269 OA
BRANCH  33  36
ATOM     36  C   UNL     1      10.949  -0.675  -1.555  1.00  0.00     0.039 A 
ATOM     37  C   UNL     1      12.144   0.035  -1.691  1.00  0.00     0.014 A 
ATOM     38  C   UNL     1      10.536  -1.124  -0.296  1.00  0.00     0.014 A 
ATOM     39  C   UNL     1      12.901   0.335  -0.557  1.00  0.00     0.010 A 
ATOM     40  C   UNL     1      11.252  -0.757   0.840  1.00  0.00     0.010 A 
ATOM     41  C   UNL     1      12.448  -0.035   0.721  1.00  0.00    -0.014 A 
BRANCH  41  42
ATOM     42  C   UNL     1      13.222   0.312   1.940  1.00  0.00     0.031 A 
ATOM     43  C   UNL     1      13.803  -0.776   2.802  1.00  0.00     0.074 A 
ATOM     44  C   UNL     1      13.361   1.604   2.296  1.00  0.00     0.049 A 
ATOM     45  N   UNL     1      14.483  -0.671   3.916  1.00  0.00    -0.248 NA
ATOM     46  C   UNL     1      13.571  -2.165   2.371  1.00  0.00     0.031 C 
ATOM     47  C   UNL     1      12.814   2.749   1.563  1.00  0.00     0.029 A 
ATOM     48  N   UNL     1      14.007   2.174   3.364  1.00  0.00    -0.354 N 
ATOM     49  C   UNL     1      14.745  -1.974   4.324  1.00  0.00     0.074 A 
ATOM     50  C   UNL     1      14.103  -2.852   3.371  1.00  0.00     0.031 C 
ATOM     51  C   UNL     1      13.178   3.883   2.183  1.00  0.00     0.029 A 
ATOM     52  C   UNL     1      13.947   3.547   3.378  1.00  0.00     0.049 A 
ATOM     53  H   UNL     1      14.470   1.648   4.056  1.00  0.00     0.167 HD
ATOM     54  C   UNL     1      15.471  -2.403   5.385  1.00  0.00     0.031 A 
ATOM     55  C   UNL     1      14.452   4.438   4.254  1.00  0.00     0.031 A 
ATOM     56  C   UNL     1      16.113  -1.525   6.327  1.00  0.00     0.049 A 
ATOM     57  C   UNL     1      15.239   3.937   5.434  1.00  0.00     0.074 A 
ATOM     58  C   UNL     1      16.914  -1.858   7.405  1.00  0.00     0.029 A 
ATOM     59  N   UNL     1      16.024  -0.141   6.308  1.00  0.00    -0.354 N 
ATOM     60  N   UNL     1      15.531   2.702   5.766  1.00  0.00    -0.248 NA
ATOM     61  C   UNL     1      15.775   4.953   6.350  1.00  0.00     0.031 C 
ATOM     62  C   UNL     1      17.262  -0.679   8.072  1.00  0.00     0.029 A 
ATOM     63  C   UNL     1      16.733   0.393   7.371  1.00  0.00     0.049 A 
ATOM     64  H   UNL     1      15.529   0.384   5.638  1.00  0.00     0.167 HD
ATOM     65  C   UNL     1      16.315   2.795   6.912  1.00  0.00     0.074 A 
ATOM     66  C   UNL     1      16.460   4.206   7.206  1.00  0.00     0.031 C 
ATOM     67  C   UNL     1      16.867   1.801   7.652  1.00  0.00     0.031 A 
BRANCH  54  68
ATOM     68  C   UNL     1      15.598  -3.892   5.585  1.00  0.00    -0.014 A 
ATOM     69  C   UNL     1      16.333  -4.689   4.687  1.00  0.00     0.010 A 
ATOM     70  C   UNL     1      14.998  -4.501   6.702  1.00  0.00     0.010 A 
ATOM     71  C   UNL     1      16.422  -6.071   4.875  1.00  0.00     0.020 A 
ATOM     72  C   UNL     1      15.111  -5.878   6.911  1.00  0.00     0.020 A 
ATOM     73  C   UNL     1      15.807  -6.657   5.984  1.00  0.00     0.054 A 
BRANCH  73  74
ATOM     74  S   UNL     1      15.947  -8.452   6.208  1.00  0.00     0.124 S 
ATOM     75  O   UNL     1      15.070  -8.956   5.154  1.00  0.00    -0.237 OA
ATOM     76  O   UNL     1      17.374  -8.689   6.004  1.00  0.00    -0.237 OA
ATOM     77  O   UNL     1      15.470  -8.671   7.571  1.00  0.00    -0.744 OA
ENDBRANCH  73  74
ENDBRANCH  54  68
BRANCH  55  78
ATOM     78  C   UNL     1      14.249   5.896   4.033  1.00  0.00    -0.014 A 
ATOM     79  C   UNL     1      15.331   6.721   3.678  1.00  0.00     0.010 A 
ATOM     80  C   UNL     1      12.970   6.468   4.168  1.00  0.00     0.010 A 
ATOM     81  C   UNL     1      15.144   8.092   3.482  1.00  0.00     0.020 A 
ATOM     82  C   UNL     1      12.773   7.834   3.943  1.00  0.00     0.020 A 
ATOM     83  C   UNL     1      13.864   8.640   3.613  1.00  0.00     0.054 A 
BRANCH  83  84
ATOM     84  S   UNL     1      13.636  10.413   3.308  1.00  0.00     0.124 S 
ATOM     85  O   UNL     1      14.258  11.007   4.487  1.00  0.00    -0.237 OA
ATOM     86  O   UNL     1      14.349  10.609   2.048  1.00  0.00    -0.237 OA
ATOM     87  O   UNL     1      12.185  10.561   3.223  1.00  0.00    -0.744 OA
ENDBRANCH  83  84
ENDBRANCH  55  78
BRANCH  67  88
ATOM     88  C   UNL     1      17.715   2.204   8.830  1.00  0.00    -0.014 A 
ATOM     89  C   UNL     1      17.144   2.760   9.989  1.00  0.00     0.010 A 
ATOM     90  C   UNL     1      19.104   1.979   8.791  1.00  0.00     0.010 A 
ATOM     91  C   UNL     1      17.952   3.119  11.071  1.00  0.00     0.020 A 
ATOM     92  C   UNL     1      19.910   2.306   9.883  1.00  0.00     0.020 A 
ATOM     93  C   UNL     1      19.331   2.890  11.011  1.00  0.00     0.054 A 
BRANCH  93  94
ATOM     94  S   UNL     1      20.352   3.331  12.443  1.00  0.00     0.124 S 
ATOM     95  O   UNL     1      20.372   4.789  12.365  1.00  0.00    -0.237 OA
ATOM     96  O   UNL     1      19.595   2.771  13.560  1.00  0.00    -0.237 OA
ATOM     97  O   UNL     1      21.630   2.675  12.174  1.00  0.00    -0.744 OA
ENDBRANCH  93  94
ENDBRANCH  67  88
ENDBRANCH  41  42
ENDBRANCH  33  36
ENDBRANCH  31  32
ENDBRANCH  30  31
ENDBRANCH  29  30
ENDBRANCH   1  29
TORSDOF 20
