REMARK SMILES CNC(=O)c1cccc(-c2cnc(O)c(C(=O)NCCCCCCNC(=O)c3ccc(-c4c5nc(c(-c6ccc(S(=O)(=O)[O-])cc6)c6ccc([nH]6)c(-c6ccc(S(=O)(=O)[O-])cc6)c6nc(c(-c7ccc(S(=O)(=O)[O-])cc7)c7ccc4[nH]7)C=C6)C=C5)cc3)c2)c1
REMARK SMILES IDX 22 1 21 2 20 3 19 4 18 5 16 6 17 7 15 9 10 10 11 11 88 12
REMARK SMILES IDX 12 13 13 14 9 15 5 16 6 17 89 18 7 19 8 20 3 21 1 22 2 23
REMARK SMILES IDX 4 25 14 26 23 28 24 29 25 30 26 31 27 33 28 34 29 35 87 36
REMARK SMILES IDX 30 37 86 38 31 39 32 40 33 41 80 42 34 43 85 44 79 45 81 46
REMARK SMILES IDX 35 47 84 48 78 49 77 50 36 52 66 53 47 54 65 55 48 56 51 57
REMARK SMILES IDX 64 58 82 59 49 60 50 61 63 63 83 64 52 65 37 66 38 67 46 68
REMARK SMILES IDX 39 69 45 70 40 71 41 72 42 73 43 74 44 75 67 76 68 77 76 78
REMARK SMILES IDX 69 79 75 80 70 81 71 82 72 83 73 84 74 85 53 86 54 87 62 88
REMARK SMILES IDX 55 89 61 90 56 91 57 92 58 93 59 94 60 95
REMARK H PARENT 18 8 2 24 14 27 25 32 81 51 51 62
REMARK Flexibility Score: inf
ROOT
ATOM      1  C   UNL     1      -6.669  -1.390  -1.454  1.00  0.00     0.002 C 
ENDROOT
BRANCH   1   2
ATOM      2  C   UNL     1      -6.933  -0.050  -0.756  1.00  0.00     0.002 C 
BRANCH   2   3
ATOM      3  C   UNL     1      -5.675   0.687  -0.277  1.00  0.00     0.021 C 
BRANCH   3   4
ATOM      4  C   UNL     1      -4.776   1.159  -1.422  1.00  0.00     0.116 C 
BRANCH   4   5
ATOM      5  N   UNL     1      -5.291   2.392  -1.999  1.00  0.00    -0.352 N 
ATOM      6  C   UNL     1      -4.904   3.703  -1.889  1.00  0.00     0.256 C 
ATOM      7  O   UNL     1      -5.498   4.544  -2.569  1.00  0.00    -0.269 OA
ATOM      8  H   UNL     1      -6.071   2.259  -2.585  1.00  0.00     0.163 HD
BRANCH   6   9
ATOM      9  C   UNL     1      -3.769   4.167  -1.058  1.00  0.00     0.102 A 
ATOM     10  C   UNL     1      -2.141   3.902   0.728  1.00  0.00     0.001 A 
ATOM     11  C   UNL     1      -1.535   5.064   0.267  1.00  0.00     0.124 A 
ATOM     12  C   UNL     1      -3.317   3.502   0.080  1.00  0.00     0.029 A 
ATOM     13  N   UNL     1      -1.995   5.798  -0.772  1.00  0.00    -0.221 NA
ATOM     14  C   UNL     1      -3.089   5.334  -1.416  1.00  0.00     0.223 A 
BRANCH  10  15
ATOM     15  C   UNL     1      -1.553   3.059   1.771  1.00  0.00    -0.016 A 
ATOM     16  C   UNL     1      -0.613   0.906   2.427  1.00  0.00     0.040 A 
ATOM     17  C   UNL     1      -0.528   1.343   3.751  1.00  0.00     0.014 A 
ATOM     18  C   UNL     1      -1.136   1.754   1.448  1.00  0.00     0.022 A 
ATOM     19  C   UNL     1      -0.924   2.640   4.082  1.00  0.00     0.001 A 
ATOM     20  C   UNL     1      -1.427   3.495   3.097  1.00  0.00     0.009 A 
BRANCH  16  21
ATOM     21  C   UNL     1      -0.267  -0.497   2.115  1.00  0.00     0.251 C 
ATOM     22  C   UNL     1       1.273   0.068   0.165  1.00  0.00     0.143 C 
ATOM     23  N   UNL     1       0.518  -0.805   1.034  1.00  0.00    -0.355 N 
ATOM     24  H   UNL     1       0.575  -1.763   0.817  1.00  0.00     0.163 HD
ATOM     25  O   UNL     1      -0.705  -1.389   2.833  1.00  0.00    -0.269 OA
ENDBRANCH  16  21
ENDBRANCH  10  15
BRANCH  14  26
ATOM     26  O   UNL     1      -3.465   6.119  -2.471  1.00  0.00    -0.493 OA
ATOM     27  H   UNL     1      -2.979   6.894  -2.675  1.00  0.00     0.295 HD
ENDBRANCH  14  26
ENDBRANCH   6   9
ENDBRANCH   4   5
ENDBRANCH   3   4
ENDBRANCH   2   3
ENDBRANCH   1   2
BRANCH   1  28
ATOM     28  C   UNL     1      -5.885  -2.416  -0.630  1.00  0.00     0.021 C 
BRANCH  28  29
ATOM     29  C   UNL     1      -6.550  -2.833   0.681  1.00  0.00     0.116 C 
BRANCH  29  30
ATOM     30  N   UNL     1      -7.825  -3.493   0.453  1.00  0.00    -0.352 N 
ATOM     31  C   UNL     1      -8.276  -4.709   0.899  1.00  0.00     0.251 C 
ATOM     32  H   UNL     1      -8.461  -2.991  -0.106  1.00  0.00     0.163 HD
ATOM     33  O   UNL     1      -9.301  -5.185   0.419  1.00  0.00    -0.269 OA
BRANCH  31  34
ATOM     34  C   UNL     1      -7.534  -5.452   1.942  1.00  0.00     0.039 A 
ATOM     35  C   UNL     1      -7.396  -6.837   1.807  1.00  0.00     0.014 A 
ATOM     36  C   UNL     1      -7.019  -4.807   3.071  1.00  0.00     0.014 A 
ATOM     37  C   UNL     1      -6.708  -7.565   2.780  1.00  0.00     0.010 A 
ATOM     38  C   UNL     1      -6.282  -5.526   4.012  1.00  0.00     0.010 A 
ATOM     39  C   UNL     1      -6.127  -6.914   3.881  1.00  0.00    -0.014 A 
BRANCH  39  40
ATOM     40  C   UNL     1      -5.353  -7.681   4.889  1.00  0.00     0.031 A 
ATOM     41  C   UNL     1      -5.862  -7.831   6.297  1.00  0.00     0.074 A 
ATOM     42  C   UNL     1      -4.170  -8.224   4.540  1.00  0.00     0.049 A 
ATOM     43  N   UNL     1      -5.337  -8.493   7.297  1.00  0.00    -0.248 NA
ATOM     44  C   UNL     1      -7.113  -7.132   6.632  1.00  0.00     0.031 C 
ATOM     45  C   UNL     1      -3.541  -8.103   3.223  1.00  0.00     0.029 A 
ATOM     46  N   UNL     1      -3.289  -8.988   5.261  1.00  0.00    -0.354 N 
ATOM     47  C   UNL     1      -6.184  -8.283   8.379  1.00  0.00     0.074 A 
ATOM     48  C   UNL     1      -7.233  -7.395   7.925  1.00  0.00     0.031 C 
ATOM     49  C   UNL     1      -2.392  -8.798   3.220  1.00  0.00     0.029 A 
ATOM     50  C   UNL     1      -2.192  -9.392   4.538  1.00  0.00     0.049 A 
ATOM     51  H   UNL     1      -3.429  -9.226   6.206  1.00  0.00     0.167 HD
ATOM     52  C   UNL     1      -6.106  -8.795   9.631  1.00  0.00     0.031 A 
ATOM     53  C   UNL     1      -1.146 -10.163   4.891  1.00  0.00     0.031 A 
ATOM     54  C   UNL     1      -5.065  -9.681  10.081  1.00  0.00     0.049 A 
ATOM     55  C   UNL     1      -1.096 -10.742   6.277  1.00  0.00     0.074 A 
ATOM     56  C   UNL     1      -4.928 -10.297  11.313  1.00  0.00     0.029 A 
ATOM     57  N   UNL     1      -3.979 -10.078   9.315  1.00  0.00    -0.354 N 
ATOM     58  N   UNL     1      -1.945 -10.588   7.265  1.00  0.00    -0.248 NA
ATOM     59  C   UNL     1       0.043 -11.616   6.586  1.00  0.00     0.031 C 
ATOM     60  C   UNL     1      -3.739 -11.037  11.304  1.00  0.00     0.029 A 
ATOM     61  C   UNL     1      -3.160 -10.918  10.051  1.00  0.00     0.049 A 
ATOM     62  H   UNL     1      -3.815  -9.804   8.384  1.00  0.00     0.167 HD
ATOM     63  C   UNL     1      -1.450 -11.360   8.310  1.00  0.00     0.074 A 
ATOM     64  C   UNL     1      -0.241 -11.996   7.824  1.00  0.00     0.031 C 
ATOM     65  C   UNL     1      -1.950 -11.527   9.560  1.00  0.00     0.031 A 
BRANCH  52  66
ATOM     66  C   UNL     1      -7.185  -8.400  10.606  1.00  0.00    -0.014 A 
ATOM     67  C   UNL     1      -8.498  -8.889  10.470  1.00  0.00     0.010 A 
ATOM     68  C   UNL     1      -6.881  -7.548  11.682  1.00  0.00     0.010 A 
ATOM     69  C   UNL     1      -9.497  -8.494  11.364  1.00  0.00     0.020 A 
ATOM     70  C   UNL     1      -7.873  -7.171  12.594  1.00  0.00     0.020 A 
ATOM     71  C   UNL     1      -9.180  -7.630  12.416  1.00  0.00     0.054 A 
BRANCH  71  72
ATOM     72  S   UNL     1     -10.493  -7.138  13.567  1.00  0.00     0.124 S 
ATOM     73  O   UNL     1     -11.230  -6.155  12.777  1.00  0.00    -0.237 OA
ATOM     74  O   UNL     1     -11.193  -8.395  13.816  1.00  0.00    -0.237 OA
ATOM     75  O   UNL     1      -9.764  -6.597  14.712  1.00  0.00    -0.744 OA
ENDBRANCH  71  72
ENDBRANCH  52  66
BRANCH  53  76
ATOM     76  C   UNL     1      -0.082 -10.464   3.897  1.00  0.00    -0.014 A 
ATOM     77  C   UNL     1       0.000 -11.737   3.307  1.00  0.00     0.010 A 
ATOM     78  C   UNL     1       0.836  -9.469   3.514  1.00  0.00     0.010 A 
ATOM     79  C   UNL     1       0.989 -12.015   2.360  1.00  0.00     0.020 A 
ATOM     80  C   UNL     1       1.811  -9.737   2.550  1.00  0.00     0.020 A 
ATOM     81  C   UNL     1       1.888 -11.012   1.985  1.00  0.00     0.054 A 
BRANCH  81  82
ATOM     82  S   UNL     1       3.121 -11.371   0.703  1.00  0.00     0.124 S 
ATOM     83  O   UNL     1       4.112 -12.145   1.443  1.00  0.00    -0.237 OA
ATOM     84  O   UNL     1       2.344 -12.115  -0.286  1.00  0.00    -0.237 OA
ATOM     85  O   UNL     1       3.555 -10.045   0.269  1.00  0.00    -0.744 OA
ENDBRANCH  81  82
ENDBRANCH  53  76
BRANCH  65  86
ATOM     86  C   UNL     1      -1.192 -12.447  10.477  1.00  0.00    -0.014 A 
ATOM     87  C   UNL     1       0.043 -12.065  11.030  1.00  0.00     0.010 A 
ATOM     88  C   UNL     1      -1.725 -13.710  10.794  1.00  0.00     0.010 A 
ATOM     89  C   UNL     1       0.757 -12.949  11.842  1.00  0.00     0.020 A 
ATOM     90  C   UNL     1      -1.025 -14.587  11.626  1.00  0.00     0.020 A 
ATOM     91  C   UNL     1       0.223 -14.209  12.127  1.00  0.00     0.054 A 
BRANCH  91  92
ATOM     92  S   UNL     1       1.163 -15.344  13.185  1.00  0.00     0.124 S 
ATOM     93  O   UNL     1       2.161 -15.867  12.255  1.00  0.00    -0.237 OA
ATOM     94  O   UNL     1       1.679 -14.462  14.229  1.00  0.00    -0.237 OA
ATOM     95  O   UNL     1       0.161 -16.308  13.633  1.00  0.00    -0.744 OA
ENDBRANCH  91  92
ENDBRANCH  65  86
ENDBRANCH  39  40
ENDBRANCH  31  34
ENDBRANCH  29  30
ENDBRANCH  28  29
ENDBRANCH   1  28
TORSDOF 19
