REMARK SMILES CSCC[C@@H](C(=O)NCCCCCCNC(=O)c1ccc(-c2c3nc(c(-c4ccc(S(=O)(=O)[O-])cc4)c4ccc([nH]4)c(-c4ccc(S(=O)(=O)[O-])cc4)c4nc(c(-c5ccc(S(=O)(=O)[O-])cc5)c5ccc2[nH]5)C=C4)C=C3)cc1)N1C(=O)/C(=C/c2ccc(-c3ccccc3Cl)o2)SC1=S
REMARK SMILES IDX 11 1 10 2 9 3 8 4 6 5 7 6 5 8 4 9 3 10 2 11 1 12 78 13 79 14
REMARK SMILES IDX 96 15 80 16 81 17 95 18 97 19 82 20 83 21 84 22 94 23 85 24
REMARK SMILES IDX 86 25 87 26 88 27 92 28 89 29 91 30 93 31 90 32 12 33 13 34
REMARK SMILES IDX 14 35 15 36 16 37 17 39 18 40 19 41 77 42 20 43 76 44 21 45
REMARK SMILES IDX 22 46 23 47 70 48 24 49 75 50 69 51 71 52 25 53 74 54 68 55
REMARK SMILES IDX 67 56 26 58 56 59 37 60 55 61 38 62 41 63 54 64 72 65 39 66
REMARK SMILES IDX 40 67 53 69 73 70 42 71 27 72 28 73 36 74 29 75 35 76 30 77
REMARK SMILES IDX 31 78 32 79 33 80 34 81 57 82 58 83 66 84 59 85 65 86 60 87
REMARK SMILES IDX 61 88 62 89 63 90 64 91 43 92 44 93 52 94 45 95 51 96 46 97
REMARK SMILES IDX 47 98 48 99 49 100 50 101
REMARK H PARENT 8 7 15 38 71 57 41 68
REMARK Flexibility Score: inf
ROOT
ATOM      1  C   UNL     1       5.011  -0.886  -3.125  1.00  0.00     0.002 C 
ENDROOT
BRANCH   1   2
ATOM      2  C   UNL     1       3.551  -0.424  -3.141  1.00  0.00     0.021 C 
BRANCH   2   3
ATOM      3  C   UNL     1       3.084   0.145  -1.809  1.00  0.00     0.116 C 
BRANCH   3   4
ATOM      4  N   UNL     1       3.412   1.535  -1.635  1.00  0.00    -0.354 N 
ATOM      5  C   UNL     1       2.611   2.563  -1.250  1.00  0.00     0.243 C 
ATOM      6  O   UNL     1       3.183   3.469  -0.628  1.00  0.00    -0.273 OA
ATOM      7  H   UNL     1       4.349   1.774  -1.822  1.00  0.00     0.163 HD
BRANCH   5   8
ATOM      8  C   UNL     1       1.066   2.595  -1.465  1.00  0.00     0.182 C 
BRANCH   8   9
ATOM      9  C   UNL     1       0.414   2.048  -2.748  1.00  0.00     0.046 C 
BRANCH   9  10
ATOM     10  C   UNL     1      -0.112   0.606  -2.832  1.00  0.00     0.072 C 
BRANCH  10  11
ATOM     11  S   UNL     1      -1.282  -0.030  -1.579  1.00  0.00    -0.165 SA
ATOM     12  C   UNL     1      -0.299  -0.195  -0.060  1.00  0.00     0.085 C 
ENDBRANCH  10  11
ENDBRANCH   9  10
ENDBRANCH   8   9
BRANCH   8  13
ATOM     13  N   UNL     1       0.643   4.022  -1.308  1.00  0.00    -0.280 N 
ATOM     14  C   UNL     1      -0.445   4.296  -0.495  1.00  0.00     0.267 C 
ATOM     15  C   UNL     1       1.117   5.086  -2.058  1.00  0.00     0.149 C 
ATOM     16  O   UNL     1      -1.100   3.472   0.136  1.00  0.00    -0.268 OA
ATOM     17  C   UNL     1      -0.811   5.733  -0.577  1.00  0.00     0.084 C 
ATOM     18  S   UNL     1       0.358   6.572  -1.514  1.00  0.00    -0.054 SA
ATOM     19  S   UNL     1       2.184   5.102  -3.344  1.00  0.00    -0.052 S 
ATOM     20  C   UNL     1      -1.926   6.220  -0.014  1.00  0.00     0.068 C 
BRANCH  20  21
ATOM     21  C   UNL     1      -2.304   7.587  -0.111  1.00  0.00     0.128 A 
ATOM     22  C   UNL     1      -2.439   8.403  -1.230  1.00  0.00     0.051 A 
ATOM     23  O   UNL     1      -2.595   8.352   0.995  1.00  0.00    -0.457 OA
ATOM     24  C   UNL     1      -2.725   9.710  -0.781  1.00  0.00     0.051 A 
ATOM     25  C   UNL     1      -2.776   9.639   0.592  1.00  0.00     0.136 A 
BRANCH  25  26
ATOM     26  C   UNL     1      -2.976  10.641   1.629  1.00  0.00     0.036 A 
ATOM     27  C   UNL     1      -3.999  11.589   1.444  1.00  0.00     0.013 A 
ATOM     28  C   UNL     1      -2.147  10.765   2.757  1.00  0.00     0.052 A 
ATOM     29  C   UNL     1      -4.180  12.642   2.344  1.00  0.00     0.001 A 
ATOM     30  C   UNL     1      -2.332  11.823   3.657  1.00  0.00     0.021 A 
ATOM     31  Cl  UNL     1      -0.820   9.698   3.075  1.00  0.00    -0.084 Cl
ATOM     32  C   UNL     1      -3.340  12.763   3.446  1.00  0.00     0.002 A 
ENDBRANCH  25  26
ENDBRANCH  20  21
ENDBRANCH   8  13
ENDBRANCH   5   8
ENDBRANCH   3   4
ENDBRANCH   2   3
ENDBRANCH   1   2
BRANCH   1  33
ATOM     33  C   UNL     1       5.335  -1.962  -2.079  1.00  0.00     0.002 C 
BRANCH  33  34
ATOM     34  C   UNL     1       4.454  -3.215  -2.133  1.00  0.00     0.021 C 
BRANCH  34  35
ATOM     35  C   UNL     1       4.466  -3.939  -3.476  1.00  0.00     0.116 C 
BRANCH  35  36
ATOM     36  N   UNL     1       5.813  -4.324  -3.868  1.00  0.00    -0.352 N 
ATOM     37  C   UNL     1       6.320  -5.568  -4.140  1.00  0.00     0.251 C 
ATOM     38  H   UNL     1       6.454  -3.582  -3.949  1.00  0.00     0.163 HD
ATOM     39  O   UNL     1       7.534  -5.732  -4.213  1.00  0.00    -0.269 OA
BRANCH  37  40
ATOM     40  C   UNL     1       5.400  -6.706  -4.340  1.00  0.00     0.039 A 
ATOM     41  C   UNL     1       5.703  -7.936  -3.752  1.00  0.00     0.014 A 
ATOM     42  C   UNL     1       4.252  -6.562  -5.124  1.00  0.00     0.014 A 
ATOM     43  C   UNL     1       4.826  -9.010  -3.910  1.00  0.00     0.010 A 
ATOM     44  C   UNL     1       3.342  -7.610  -5.217  1.00  0.00     0.010 A 
ATOM     45  C   UNL     1       3.624  -8.848  -4.620  1.00  0.00    -0.014 A 
BRANCH  45  46
ATOM     46  C   UNL     1       2.654  -9.962  -4.754  1.00  0.00     0.031 A 
ATOM     47  C   UNL     1       2.338 -10.529  -6.112  1.00  0.00     0.074 A 
ATOM     48  C   UNL     1       2.015 -10.423  -3.661  1.00  0.00     0.049 A 
ATOM     49  N   UNL     1       1.482 -11.464  -6.436  1.00  0.00    -0.248 NA
ATOM     50  C   UNL     1       3.059  -9.952  -7.260  1.00  0.00     0.031 C 
ATOM     51  C   UNL     1       2.209  -9.929  -2.295  1.00  0.00     0.029 A 
ATOM     52  N   UNL     1       1.069 -11.408  -3.525  1.00  0.00    -0.354 N 
ATOM     53  C   UNL     1       1.551 -11.577  -7.820  1.00  0.00     0.074 A 
ATOM     54  C   UNL     1       2.491 -10.579  -8.280  1.00  0.00     0.031 C 
ATOM     55  C   UNL     1       1.429 -10.632  -1.458  1.00  0.00     0.029 A 
ATOM     56  C   UNL     1       0.647 -11.593  -2.229  1.00  0.00     0.049 A 
ATOM     57  H   UNL     1       0.724 -11.932  -4.284  1.00  0.00     0.167 HD
ATOM     58  C   UNL     1       0.905 -12.447  -8.633  1.00  0.00     0.031 A 
ATOM     59  C   UNL     1      -0.272 -12.435  -1.719  1.00  0.00     0.031 A 
ATOM     60  C   UNL     1      -0.025 -13.441  -8.167  1.00  0.00     0.049 A 
ATOM     61  C   UNL     1      -0.992 -13.378  -2.645  1.00  0.00     0.074 A 
ATOM     62  C   UNL     1      -0.694 -14.405  -8.903  1.00  0.00     0.029 A 
ATOM     63  N   UNL     1      -0.423 -13.598  -6.848  1.00  0.00    -0.354 N 
ATOM     64  N   UNL     1      -0.864 -13.516  -3.943  1.00  0.00    -0.248 NA
ATOM     65  C   UNL     1      -1.972 -14.287  -2.035  1.00  0.00     0.031 C 
ATOM     66  C   UNL     1      -1.542 -15.103  -8.038  1.00  0.00     0.029 A 
ATOM     67  C   UNL     1      -1.349 -14.623  -6.752  1.00  0.00     0.049 A 
ATOM     68  H   UNL     1      -0.096 -13.060  -6.091  1.00  0.00     0.167 HD
ATOM     69  C   UNL     1      -1.724 -14.548  -4.301  1.00  0.00     0.074 A 
ATOM     70  C   UNL     1      -2.355 -15.008  -3.080  1.00  0.00     0.031 C 
ATOM     71  C   UNL     1      -1.969 -15.069  -5.529  1.00  0.00     0.031 A 
BRANCH  58  72
ATOM     72  C   UNL     1       1.176 -12.354 -10.113  1.00  0.00    -0.014 A 
ATOM     73  C   UNL     1       2.429 -12.705 -10.648  1.00  0.00     0.010 A 
ATOM     74  C   UNL     1       0.150 -11.950 -10.987  1.00  0.00     0.010 A 
ATOM     75  C   UNL     1       2.665 -12.613 -12.022  1.00  0.00     0.020 A 
ATOM     76  C   UNL     1       0.372 -11.887 -12.366  1.00  0.00     0.020 A 
ATOM     77  C   UNL     1       1.634 -12.203 -12.873  1.00  0.00     0.054 A 
BRANCH  77  78
ATOM     78  S   UNL     1       1.962 -12.115 -14.655  1.00  0.00     0.124 S 
ATOM     79  O   UNL     1       2.846 -10.955 -14.741  1.00  0.00    -0.237 OA
ATOM     80  O   UNL     1       2.591 -13.405 -14.927  1.00  0.00    -0.237 OA
ATOM     81  O   UNL     1       0.638 -11.933 -15.244  1.00  0.00    -0.744 OA
ENDBRANCH  77  78
ENDBRANCH  58  72
BRANCH  59  82
ATOM     82  C   UNL     1      -0.554 -12.432  -0.257  1.00  0.00    -0.014 A 
ATOM     83  C   UNL     1      -0.181 -13.524   0.547  1.00  0.00     0.010 A 
ATOM     84  C   UNL     1      -1.189 -11.329   0.343  1.00  0.00     0.010 A 
ATOM     85  C   UNL     1      -0.455 -13.521   1.918  1.00  0.00     0.020 A 
ATOM     86  C   UNL     1      -1.436 -11.309   1.719  1.00  0.00     0.020 A 
ATOM     87  C   UNL     1      -1.078 -12.412   2.496  1.00  0.00     0.054 A 
BRANCH  87  88
ATOM     88  S   UNL     1      -1.379 -12.411   4.285  1.00  0.00     0.124 S 
ATOM     89  O   UNL     1      -2.459 -13.385   4.411  1.00  0.00    -0.237 OA
ATOM     90  O   UNL     1      -0.086 -12.826   4.821  1.00  0.00    -0.237 OA
ATOM     91  O   UNL     1      -1.748 -11.026   4.569  1.00  0.00    -0.744 OA
ENDBRANCH  87  88
ENDBRANCH  59  82
BRANCH  71  92
ATOM     92  C   UNL     1      -2.931 -16.225  -5.613  1.00  0.00    -0.014 A 
ATOM     93  C   UNL     1      -4.311 -16.047  -5.409  1.00  0.00     0.010 A 
ATOM     94  C   UNL     1      -2.450 -17.501  -5.961  1.00  0.00     0.010 A 
ATOM     95  C   UNL     1      -5.186 -17.131  -5.518  1.00  0.00     0.020 A 
ATOM     96  C   UNL     1      -3.325 -18.579  -6.104  1.00  0.00     0.020 A 
ATOM     97  C   UNL     1      -4.688 -18.390  -5.867  1.00  0.00     0.054 A 
BRANCH  97  98
ATOM     98  S   UNL     1      -5.851 -19.769  -6.048  1.00  0.00     0.124 S 
ATOM     99  O   UNL     1      -6.222 -20.038  -4.661  1.00  0.00    -0.237 OA
ATOM    100  O   UNL     1      -6.905 -19.192  -6.880  1.00  0.00    -0.237 OA
ATOM    101  O   UNL     1      -5.057 -20.812  -6.694  1.00  0.00    -0.744 OA
ENDBRANCH  97  98
ENDBRANCH  71  92
ENDBRANCH  45  46
ENDBRANCH  37  40
ENDBRANCH  35  36
ENDBRANCH  34  35
ENDBRANCH  33  34
ENDBRANCH   1  33
TORSDOF 22
