REMARK SMILES Cc1ccc(-c2cc([C@@H](C)C(=O)NCCCCCCNC(=O)c3ccc(-c4c5nc(c(-c6ccc(S(=O)(=O)[O-])cc6)c6ccc([nH]6)c(-c6ccc(S(=O)(=O)[O-])cc6)c6nc(c(-c7ccc(S(=O)(=O)[O-])cc7)c7ccc4[nH]7)C=C6)C=C5)cc3)ccc2C[C@H]2CCCC2=O)cc1
REMARK SMILES IDX 16 1 15 2 14 3 13 4 11 5 12 6 9 8 10 9 8 10 6 11 7 12 85 13
REMARK SMILES IDX 84 14 83 15 5 16 1 17 2 18 3 19 94 20 4 21 93 22 86 23 87 24
REMARK SMILES IDX 88 25 91 26 89 27 90 28 92 29 17 30 18 31 19 32 20 33 21 34
REMARK SMILES IDX 22 36 23 37 24 38 82 39 25 40 81 41 26 42 27 43 28 44 75 45
REMARK SMILES IDX 29 46 80 47 74 48 76 49 30 50 79 51 73 52 72 53 31 55 61 56
REMARK SMILES IDX 42 57 60 58 43 59 46 60 59 61 77 62 44 63 45 64 58 66 78 67
REMARK SMILES IDX 47 68 32 69 33 70 41 71 34 72 40 73 35 74 36 75 37 76 38 77
REMARK SMILES IDX 39 78 62 79 63 80 71 81 64 82 70 83 65 84 66 85 67 86 68 87
REMARK SMILES IDX 69 88 48 89 49 90 57 91 50 92 56 93 51 94 52 95 53 96 54 97
REMARK SMILES IDX 55 98
REMARK H PARENT 13 7 20 35 76 54 46 65
REMARK Flexibility Score: inf
ROOT
ATOM      1  C   UNL     1      -9.546   2.025   1.647  1.00  0.00     0.002 C 
ENDROOT
BRANCH   1   2
ATOM      2  C   UNL     1      -8.624   1.129   0.812  1.00  0.00     0.021 C 
BRANCH   2   3
ATOM      3  C   UNL     1      -8.727   1.317  -0.703  1.00  0.00     0.116 C 
BRANCH   3   4
ATOM      4  N   UNL     1      -7.845   2.357  -1.197  1.00  0.00    -0.356 N 
ATOM      5  C   UNL     1      -6.675   2.311  -1.890  1.00  0.00     0.227 C 
ATOM      6  O   UNL     1      -6.154   3.402  -2.162  1.00  0.00    -0.274 OA
ATOM      7  H   UNL     1      -8.152   3.270  -0.993  1.00  0.00     0.163 HD
BRANCH   5   8
ATOM      8  C   UNL     1      -5.993   1.013  -2.353  1.00  0.00     0.105 C 
ATOM      9  C   UNL     1      -6.837   0.139  -3.281  1.00  0.00     0.023 C 
BRANCH   8  10
ATOM     10  C   UNL     1      -5.268   0.277  -1.238  1.00  0.00    -0.035 A 
ATOM     11  C   UNL     1      -3.180  -0.100   0.032  1.00  0.00    -0.015 A 
ATOM     12  C   UNL     1      -3.897   0.513  -1.020  1.00  0.00     0.013 A 
ATOM     13  C   UNL     1      -3.898  -0.887   0.959  1.00  0.00    -0.039 A 
ATOM     14  C   UNL     1      -5.241  -1.192   0.688  1.00  0.00     0.004 A 
ATOM     15  C   UNL     1      -5.905  -0.640  -0.405  1.00  0.00     0.005 A 
BRANCH  11  16
ATOM     16  C   UNL     1      -1.709   0.018   0.050  1.00  0.00    -0.018 A 
ATOM     17  C   UNL     1       2.619   0.226  -0.015  1.00  0.00     0.044 C 
ATOM     18  C   UNL     1       1.121   0.169  -0.009  1.00  0.00    -0.051 A 
ATOM     19  C   UNL     1       0.476  -1.063  -0.136  1.00  0.00     0.004 A 
ATOM     20  C   UNL     1       0.346   1.325   0.144  1.00  0.00     0.004 A 
ATOM     21  C   UNL     1      -0.918  -1.133  -0.118  1.00  0.00     0.009 A 
ATOM     22  C   UNL     1      -1.054   1.250   0.169  1.00  0.00     0.009 A 
ENDBRANCH  11  16
BRANCH  13  23
ATOM     23  C   UNL     1      -3.308  -1.402   2.261  1.00  0.00     0.047 C 
BRANCH  23  24
ATOM     24  C   UNL     1      -3.712  -0.640   3.534  1.00  0.00     0.060 C 
ATOM     25  C   UNL     1      -3.400   0.863   3.551  1.00  0.00     0.012 C 
ATOM     26  C   UNL     1      -5.203  -0.660   3.815  1.00  0.00     0.136 C 
ATOM     27  C   UNL     1      -4.719   1.572   3.270  1.00  0.00     0.009 C 
ATOM     28  C   UNL     1      -5.772   0.725   3.968  1.00  0.00     0.076 C 
ATOM     29  O   UNL     1      -5.869  -1.684   3.922  1.00  0.00    -0.299 OA
ENDBRANCH  23  24
ENDBRANCH  13  23
ENDBRANCH   8  10
ENDBRANCH   5   8
ENDBRANCH   3   4
ENDBRANCH   2   3
ENDBRANCH   1   2
BRANCH   1  30
ATOM     30  C   UNL     1     -11.051   1.942   1.343  1.00  0.00     0.002 C 
BRANCH  30  31
ATOM     31  C   UNL     1     -11.650   0.537   1.237  1.00  0.00     0.021 C 
BRANCH  31  32
ATOM     32  C   UNL     1     -11.632  -0.238   2.553  1.00  0.00     0.116 C 
BRANCH  32  33
ATOM     33  N   UNL     1     -12.964  -0.640   2.981  1.00  0.00    -0.352 N 
ATOM     34  C   UNL     1     -13.295  -1.504   4.006  1.00  0.00     0.251 C 
ATOM     35  H   UNL     1     -13.718  -0.250   2.481  1.00  0.00     0.163 HD
ATOM     36  O   UNL     1     -14.418  -1.960   4.145  1.00  0.00    -0.269 OA
BRANCH  34  37
ATOM     37  C   UNL     1     -12.254  -1.751   5.023  1.00  0.00     0.039 A 
ATOM     38  C   UNL     1     -12.422  -1.129   6.265  1.00  0.00     0.014 A 
ATOM     39  C   UNL     1     -11.052  -2.364   4.679  1.00  0.00     0.014 A 
ATOM     40  C   UNL     1     -11.330  -1.001   7.119  1.00  0.00     0.010 A 
ATOM     41  C   UNL     1      -9.950  -2.171   5.498  1.00  0.00     0.010 A 
ATOM     42  C   UNL     1     -10.077  -1.453   6.699  1.00  0.00    -0.014 A 
BRANCH  42  43
ATOM     43  C   UNL     1      -8.837  -1.104   7.392  1.00  0.00     0.031 A 
ATOM     44  C   UNL     1      -8.100  -2.106   8.205  1.00  0.00     0.074 A 
ATOM     45  C   UNL     1      -8.325   0.145   7.299  1.00  0.00     0.049 A 
ATOM     46  N   UNL     1      -7.339  -1.812   9.213  1.00  0.00    -0.248 NA
ATOM     47  C   UNL     1      -8.214  -3.541   7.968  1.00  0.00     0.031 C 
ATOM     48  C   UNL     1      -6.977   0.555   7.684  1.00  0.00     0.029 A 
ATOM     49  N   UNL     1      -8.986   1.350   7.051  1.00  0.00    -0.354 N 
ATOM     50  C   UNL     1      -6.655  -2.956   9.559  1.00  0.00     0.074 A 
ATOM     51  C   UNL     1      -7.293  -4.018   8.812  1.00  0.00     0.031 C 
ATOM     52  C   UNL     1      -6.988   1.870   7.943  1.00  0.00     0.029 A 
ATOM     53  C   UNL     1      -8.368   2.317   7.859  1.00  0.00     0.049 A 
ATOM     54  H   UNL     1      -9.737   1.493   6.431  1.00  0.00     0.167 HD
ATOM     55  C   UNL     1      -5.524  -2.892  10.321  1.00  0.00     0.031 A 
ATOM     56  C   UNL     1      -9.006   3.096   8.780  1.00  0.00     0.031 A 
ATOM     57  C   UNL     1      -5.193  -1.530  10.728  1.00  0.00     0.049 A 
ATOM     58  C   UNL     1      -8.400   3.025  10.162  1.00  0.00     0.074 A 
ATOM     59  C   UNL     1      -4.291  -0.598  10.240  1.00  0.00     0.029 A 
ATOM     60  N   UNL     1      -6.001  -0.861  11.636  1.00  0.00    -0.354 N 
ATOM     61  N   UNL     1      -7.510   2.142  10.517  1.00  0.00    -0.248 NA
ATOM     62  C   UNL     1      -8.804   3.882  11.276  1.00  0.00     0.031 C 
ATOM     63  C   UNL     1      -4.597   0.657  10.821  1.00  0.00     0.029 A 
ATOM     64  C   UNL     1      -5.676   0.482  11.670  1.00  0.00     0.049 A 
ATOM     65  H   UNL     1      -6.705  -1.283  12.179  1.00  0.00     0.167 HD
ATOM     66  C   UNL     1      -7.260   2.257  11.857  1.00  0.00     0.074 A 
ATOM     67  C   UNL     1      -8.068   3.383  12.285  1.00  0.00     0.031 C 
ATOM     68  C   UNL     1      -6.430   1.396  12.510  1.00  0.00     0.031 A 
BRANCH  55  69
ATOM     69  C   UNL     1      -4.546  -4.043  10.419  1.00  0.00    -0.014 A 
ATOM     70  C   UNL     1      -3.163  -3.780  10.503  1.00  0.00     0.010 A 
ATOM     71  C   UNL     1      -4.920  -5.399  10.368  1.00  0.00     0.010 A 
ATOM     72  C   UNL     1      -2.204  -4.796  10.394  1.00  0.00     0.020 A 
ATOM     73  C   UNL     1      -3.972  -6.424  10.216  1.00  0.00     0.020 A 
ATOM     74  C   UNL     1      -2.616  -6.112  10.207  1.00  0.00     0.054 A 
BRANCH  74  75
ATOM     75  S   UNL     1      -1.365  -7.389   9.911  1.00  0.00     0.124 S 
ATOM     76  O   UNL     1      -0.573  -6.812   8.826  1.00  0.00    -0.237 OA
ATOM     77  O   UNL     1      -0.693  -7.476  11.203  1.00  0.00    -0.237 OA
ATOM     78  O   UNL     1      -2.152  -8.563   9.537  1.00  0.00    -0.744 OA
ENDBRANCH  74  75
ENDBRANCH  55  69
BRANCH  56  79
ATOM     79  C   UNL     1     -10.447   3.329   8.508  1.00  0.00    -0.014 A 
ATOM     80  C   UNL     1     -10.780   4.159   7.418  1.00  0.00     0.010 A 
ATOM     81  C   UNL     1     -11.417   2.453   9.025  1.00  0.00     0.010 A 
ATOM     82  C   UNL     1     -11.998   4.000   6.755  1.00  0.00     0.020 A 
ATOM     83  C   UNL     1     -12.641   2.294   8.362  1.00  0.00     0.020 A 
ATOM     84  C   UNL     1     -12.892   3.023   7.196  1.00  0.00     0.054 A 
BRANCH  84  85
ATOM     85  S   UNL     1     -14.289   2.598   6.114  1.00  0.00     0.124 S 
ATOM     86  O   UNL     1     -14.966   3.882   5.958  1.00  0.00    -0.237 OA
ATOM     87  O   UNL     1     -13.605   2.099   4.922  1.00  0.00    -0.237 OA
ATOM     88  O   UNL     1     -15.014   1.592   6.883  1.00  0.00    -0.744 OA
ENDBRANCH  84  85
ENDBRANCH  56  79
BRANCH  68  89
ATOM     89  C   UNL     1      -6.206   1.369  13.996  1.00  0.00    -0.014 A 
ATOM     90  C   UNL     1      -7.207   1.665  14.935  1.00  0.00     0.010 A 
ATOM     91  C   UNL     1      -4.968   0.896  14.488  1.00  0.00     0.010 A 
ATOM     92  C   UNL     1      -6.966   1.544  16.311  1.00  0.00     0.020 A 
ATOM     93  C   UNL     1      -4.729   0.742  15.856  1.00  0.00     0.020 A 
ATOM     94  C   UNL     1      -5.726   1.088  16.763  1.00  0.00     0.054 A 
BRANCH  94  95
ATOM     95  S   UNL     1      -5.435   0.864  18.538  1.00  0.00     0.124 S 
ATOM     96  O   UNL     1      -4.824   2.139  18.906  1.00  0.00    -0.237 OA
ATOM     97  O   UNL     1      -6.777   0.638  19.071  1.00  0.00    -0.237 OA
ATOM     98  O   UNL     1      -4.549  -0.296  18.590  1.00  0.00    -0.744 OA
ENDBRANCH  94  95
ENDBRANCH  68  89
ENDBRANCH  42  43
ENDBRANCH  34  37
ENDBRANCH  32  33
ENDBRANCH  31  32
ENDBRANCH  30  31
ENDBRANCH   1  30
TORSDOF 20
