REMARK SMILES Cc1c(NC(=O)[C@@H]2CC=CC[C@@H]2C(=O)NCCCCCCNC(=O)c2ccc(-c3c4nc(c(-c5ccc(S(=O)(=O)[O-])cc5)c5ccc([nH]5)c(-c5ccc(S(=O)(=O)[O-])cc5)c5nc(c(-c6ccc(S(=O)(=O)[O-])cc6)c6ccc3[nH]6)C=C5)C=C4)cc2)cccc1C(=O)N1CCOCC1
REMARK SMILES IDX 18 1 17 2 16 3 15 4 13 5 14 6 12 8 7 9 8 10 9 11 11 12 10 13
REMARK SMILES IDX 5 14 4 15 6 17 3 18 1 19 2 20 88 21 85 22 87 23 86 24 89 25
REMARK SMILES IDX 90 26 91 27 92 28 96 29 93 30 95 31 94 32 19 33 20 34 21 35
REMARK SMILES IDX 22 36 23 37 24 39 25 40 26 41 84 42 27 43 83 44 28 45 29 46
REMARK SMILES IDX 30 47 77 48 31 49 82 50 76 51 78 52 32 53 81 54 75 55 74 56
REMARK SMILES IDX 33 58 63 59 44 60 62 61 45 62 48 63 61 64 79 65 46 66 47 67
REMARK SMILES IDX 60 69 80 70 49 71 34 72 35 73 43 74 36 75 42 76 37 77 38 78
REMARK SMILES IDX 39 79 40 80 41 81 64 82 65 83 73 84 66 85 72 86 67 87 68 88
REMARK SMILES IDX 69 89 70 90 71 91 50 92 51 93 59 94 52 95 58 96 53 97 54 98
REMARK SMILES IDX 55 99 56 100 57 101
REMARK H PARENT 15 7 4 16 22 38 78 57 48 68
REMARK Flexibility Score: inf
ROOT
ATOM      1  C   UNL     1      -6.160  -5.063   1.761  1.00  0.00     0.002 C 
ENDROOT
BRANCH   1   2
ATOM      2  C   UNL     1      -4.668  -4.713   1.734  1.00  0.00     0.021 C 
BRANCH   2   3
ATOM      3  C   UNL     1      -4.034  -4.637   0.344  1.00  0.00     0.116 C 
BRANCH   3   4
ATOM      4  N   UNL     1      -4.272  -3.362  -0.303  1.00  0.00    -0.356 N 
ATOM      5  C   UNL     1      -3.526  -2.423  -0.925  1.00  0.00     0.224 C 
ATOM      6  O   UNL     1      -4.210  -1.536  -1.465  1.00  0.00    -0.275 OA
ATOM      7  H   UNL     1      -5.225  -3.116  -0.284  1.00  0.00     0.163 HD
BRANCH   5   8
ATOM      8  C   UNL     1      -1.990  -2.371  -1.110  1.00  0.00     0.095 C 
ATOM      9  C   UNL     1      -1.002  -3.227  -0.280  1.00  0.00     0.095 C 
ATOM     10  C   UNL     1      -1.168  -2.914   1.216  1.00  0.00     0.041 C 
ATOM     11  C   UNL     1      -1.148  -1.430   1.471  1.00  0.00    -0.030 C 
ATOM     12  C   UNL     1      -1.546  -0.888  -0.940  1.00  0.00     0.041 C 
ATOM     13  C   UNL     1      -1.289  -0.519   0.496  1.00  0.00    -0.030 C 
BRANCH   9  14
ATOM     14  C   UNL     1      -1.016  -4.676  -0.746  1.00  0.00     0.228 C 
ATOM     15  N   UNL     1      -0.334  -5.686  -0.152  1.00  0.00    -0.326 N 
ATOM     16  H   UNL     1      -0.677  -6.567  -0.427  1.00  0.00     0.169 HD
ATOM     17  O   UNL     1      -1.702  -5.018  -1.719  1.00  0.00    -0.274 OA
BRANCH  15  18
ATOM     18  C   UNL     1       0.734  -5.803   0.754  1.00  0.00     0.044 A 
ATOM     19  C   UNL     1      -0.212  -8.074   1.333  1.00  0.00     0.047 C 
ATOM     20  C   UNL     1       0.901  -7.058   1.406  1.00  0.00    -0.015 A 
ATOM     21  C   UNL     1       2.067  -7.290   2.172  1.00  0.00     0.045 A 
ATOM     22  C   UNL     1       1.663  -4.784   0.963  1.00  0.00     0.026 A 
ATOM     23  C   UNL     1       2.971  -6.237   2.382  1.00  0.00     0.014 A 
ATOM     24  C   UNL     1       2.761  -4.990   1.798  1.00  0.00     0.003 A 
BRANCH  21  25
ATOM     25  C   UNL     1       2.331  -8.536   2.952  1.00  0.00     0.254 C 
ATOM     26  O   UNL     1       2.720  -8.398   4.111  1.00  0.00    -0.269 OA
ATOM     27  N   UNL     1       2.106  -9.797   2.408  1.00  0.00    -0.334 N 
ATOM     28  C   UNL     1       2.239 -10.179   0.999  1.00  0.00     0.148 C 
ATOM     29  C   UNL     1       2.019 -10.933   3.329  1.00  0.00     0.148 C 
ATOM     30  C   UNL     1       1.212 -11.256   0.608  1.00  0.00     0.181 C 
ATOM     31  C   UNL     1       0.943 -11.914   2.860  1.00  0.00     0.181 C 
ATOM     32  O   UNL     1       1.221 -12.363   1.523  1.00  0.00    -0.378 OA
ENDBRANCH  21  25
ENDBRANCH  15  18
ENDBRANCH   9  14
ENDBRANCH   5   8
ENDBRANCH   3   4
ENDBRANCH   2   3
ENDBRANCH   1   2
BRANCH   1  33
ATOM     33  C   UNL     1      -6.574  -6.381   1.085  1.00  0.00     0.002 C 
BRANCH  33  34
ATOM     34  C   UNL     1      -5.689  -7.597   1.365  1.00  0.00     0.021 C 
BRANCH  34  35
ATOM     35  C   UNL     1      -5.628  -8.003   2.831  1.00  0.00     0.116 C 
BRANCH  35  36
ATOM     36  N   UNL     1      -6.565  -9.050   3.187  1.00  0.00    -0.352 N 
ATOM     37  C   UNL     1      -6.669  -9.727   4.389  1.00  0.00     0.251 C 
ATOM     38  H   UNL     1      -7.206  -9.312   2.488  1.00  0.00     0.163 HD
ATOM     39  O   UNL     1      -7.202 -10.823   4.449  1.00  0.00    -0.269 OA
BRANCH  37  40
ATOM     40  C   UNL     1      -6.239  -9.025   5.621  1.00  0.00     0.039 A 
ATOM     41  C   UNL     1      -7.208  -8.816   6.612  1.00  0.00     0.014 A 
ATOM     42  C   UNL     1      -4.996  -8.409   5.709  1.00  0.00     0.014 A 
ATOM     43  C   UNL     1      -6.990  -7.865   7.611  1.00  0.00     0.010 A 
ATOM     44  C   UNL     1      -4.816  -7.408   6.644  1.00  0.00     0.010 A 
ATOM     45  C   UNL     1      -5.821  -7.112   7.580  1.00  0.00    -0.014 A 
BRANCH  45  46
ATOM     46  C   UNL     1      -5.527  -5.967   8.438  1.00  0.00     0.031 A 
ATOM     47  C   UNL     1      -4.447  -6.057   9.455  1.00  0.00     0.074 A 
ATOM     48  C   UNL     1      -6.059  -4.755   8.165  1.00  0.00     0.049 A 
ATOM     49  N   UNL     1      -4.218  -5.162  10.357  1.00  0.00    -0.248 NA
ATOM     50  C   UNL     1      -3.567  -7.216   9.570  1.00  0.00     0.031 C 
ATOM     51  C   UNL     1      -5.488  -3.460   8.529  1.00  0.00     0.029 A 
ATOM     52  N   UNL     1      -7.333  -4.439   7.698  1.00  0.00    -0.354 N 
ATOM     53  C   UNL     1      -3.006  -5.455  10.939  1.00  0.00     0.074 A 
ATOM     54  C   UNL     1      -2.702  -6.796  10.498  1.00  0.00     0.031 C 
ATOM     55  C   UNL     1      -6.470  -2.549   8.554  1.00  0.00     0.029 A 
ATOM     56  C   UNL     1      -7.719  -3.265   8.376  1.00  0.00     0.049 A 
ATOM     57  H   UNL     1      -7.858  -4.935   7.029  1.00  0.00     0.167 HD
ATOM     58  C   UNL     1      -2.336  -4.483  11.623  1.00  0.00     0.031 A 
ATOM     59  C   UNL     1      -8.817  -3.153   9.183  1.00  0.00     0.031 A 
ATOM     60  C   UNL     1      -3.124  -3.258  11.766  1.00  0.00     0.049 A 
ATOM     61  C   UNL     1      -8.519  -2.644  10.581  1.00  0.00     0.074 A 
ATOM     62  C   UNL     1      -3.051  -1.979  11.239  1.00  0.00     0.029 A 
ATOM     63  N   UNL     1      -4.331  -3.323  12.440  1.00  0.00    -0.354 N 
ATOM     64  N   UNL     1      -7.327  -2.350  11.018  1.00  0.00    -0.248 NA
ATOM     65  C   UNL     1      -9.530  -2.545  11.638  1.00  0.00     0.031 C 
ATOM     66  C   UNL     1      -4.213  -1.263  11.647  1.00  0.00     0.029 A 
ATOM     67  C   UNL     1      -4.985  -2.109  12.419  1.00  0.00     0.049 A 
ATOM     68  H   UNL     1      -4.678  -4.133  12.879  1.00  0.00     0.167 HD
ATOM     69  C   UNL     1      -7.375  -2.146  12.371  1.00  0.00     0.074 A 
ATOM     70  C   UNL     1      -8.780  -2.240  12.712  1.00  0.00     0.031 C 
ATOM     71  C   UNL     1      -6.249  -1.998  13.123  1.00  0.00     0.031 A 
BRANCH  58  72
ATOM     72  C   UNL     1      -0.873  -4.547  12.022  1.00  0.00    -0.014 A 
ATOM     73  C   UNL     1      -0.212  -3.363  12.417  1.00  0.00     0.010 A 
ATOM     74  C   UNL     1      -0.075  -5.704  11.981  1.00  0.00     0.010 A 
ATOM     75  C   UNL     1       1.170  -3.319  12.660  1.00  0.00     0.020 A 
ATOM     76  C   UNL     1       1.309  -5.676  12.209  1.00  0.00     0.020 A 
ATOM     77  C   UNL     1       1.929  -4.476  12.526  1.00  0.00     0.054 A 
BRANCH  77  78
ATOM     78  S   UNL     1       3.721  -4.397  12.758  1.00  0.00     0.124 S 
ATOM     79  O   UNL     1       4.133  -3.489  11.691  1.00  0.00    -0.237 OA
ATOM     80  O   UNL     1       3.844  -3.874  14.115  1.00  0.00    -0.237 OA
ATOM     81  O   UNL     1       4.154  -5.783  12.588  1.00  0.00    -0.744 OA
ENDBRANCH  77  78
ENDBRANCH  58  72
BRANCH  59  82
ATOM     82  C   UNL     1      -9.899  -4.120   8.859  1.00  0.00    -0.014 A 
ATOM     83  C   UNL     1     -10.593  -3.932   7.647  1.00  0.00     0.010 A 
ATOM     84  C   UNL     1      -9.889  -5.392   9.461  1.00  0.00     0.010 A 
ATOM     85  C   UNL     1     -11.090  -5.033   6.948  1.00  0.00     0.020 A 
ATOM     86  C   UNL     1     -10.397  -6.493   8.766  1.00  0.00     0.020 A 
ATOM     87  C   UNL     1     -10.922  -6.311   7.483  1.00  0.00     0.054 A 
BRANCH  87  88
ATOM     88  S   UNL     1     -11.164  -7.733   6.376  1.00  0.00     0.124 S 
ATOM     89  O   UNL     1     -12.561  -7.589   5.982  1.00  0.00    -0.237 OA
ATOM     90  O   UNL     1     -10.179  -7.462   5.331  1.00  0.00    -0.237 OA
ATOM     91  O   UNL     1     -10.860  -8.879   7.229  1.00  0.00    -0.744 OA
ENDBRANCH  87  88
ENDBRANCH  59  82
BRANCH  71  92
ATOM     92  C   UNL     1      -6.240  -1.808  14.613  1.00  0.00    -0.014 A 
ATOM     93  C   UNL     1      -7.108  -0.922  15.269  1.00  0.00     0.010 A 
ATOM     94  C   UNL     1      -5.240  -2.436  15.391  1.00  0.00     0.010 A 
ATOM     95  C   UNL     1      -7.006  -0.705  16.651  1.00  0.00     0.020 A 
ATOM     96  C   UNL     1      -5.119  -2.215  16.764  1.00  0.00     0.020 A 
ATOM     97  C   UNL     1      -6.014  -1.357  17.391  1.00  0.00     0.054 A 
BRANCH  97  98
ATOM     98  S   UNL     1      -5.868  -1.026  19.166  1.00  0.00     0.124 S 
ATOM     99  O   UNL     1      -5.965   0.431  19.228  1.00  0.00    -0.237 OA
ATOM    100  O   UNL     1      -7.015  -1.753  19.703  1.00  0.00    -0.237 OA
ATOM    101  O   UNL     1      -4.561  -1.574  19.518  1.00  0.00    -0.744 OA
ENDBRANCH  97  98
ENDBRANCH  71  92
ENDBRANCH  45  46
ENDBRANCH  37  40
ENDBRANCH  35  36
ENDBRANCH  34  35
ENDBRANCH  33  34
ENDBRANCH   1  33
TORSDOF 19
