REMARK SMILES COc1cc(-c2cccc(C(N)=O)c2)ccc1C(=O)NCCCCCCNC(=O)c1ccc(-c2c3nc(c(-c4ccc(S(=O)(=O)[O-])cc4)c4ccc([nH]4)c(-c4ccc(S(=O)(=O)[O-])cc4)c4nc(c(-c5ccc(S(=O)(=O)[O-])cc5)c5ccc2[nH]5)C=C4)C=C3)cc1
REMARK SMILES IDX 24 1 23 2 22 3 21 4 20 5 18 6 19 7 17 9 3 10 4 11 5 12 16 13
REMARK SMILES IDX 15 14 2 15 1 16 6 17 7 18 14 19 8 20 10 21 9 22 11 23 12 24
REMARK SMILES IDX 13 25 25 28 26 29 27 30 28 31 29 33 30 34 31 35 89 36 32 37
REMARK SMILES IDX 88 38 33 39 34 40 35 41 82 42 36 43 87 44 81 45 83 46 37 47
REMARK SMILES IDX 86 48 80 49 79 50 38 52 68 53 49 54 67 55 50 56 53 57 66 58
REMARK SMILES IDX 84 59 51 60 52 61 65 63 85 64 54 65 39 66 40 67 48 68 41 69
REMARK SMILES IDX 47 70 42 71 43 72 44 73 45 74 46 75 69 76 70 77 78 78 71 79
REMARK SMILES IDX 77 80 72 81 73 82 74 83 75 84 76 85 55 86 56 87 64 88 57 89
REMARK SMILES IDX 63 90 58 91 59 92 60 93 61 94 62 95
REMARK H PARENT 20 8 12 26 12 27 27 32 83 51 53 62
REMARK Flexibility Score: inf
ROOT
ATOM      1  C   UNL     1       1.568  -3.158   0.957  1.00  0.00     0.002 C 
ENDROOT
BRANCH   1   2
ATOM      2  C   UNL     1       2.369  -3.290  -0.343  1.00  0.00     0.002 C 
BRANCH   2   3
ATOM      3  C   UNL     1       1.892  -2.465  -1.542  1.00  0.00     0.021 C 
BRANCH   3   4
ATOM      4  C   UNL     1       1.652  -0.984  -1.277  1.00  0.00     0.116 C 
BRANCH   4   5
ATOM      5  N   UNL     1       2.828  -0.235  -0.883  1.00  0.00    -0.352 N 
ATOM      6  C   UNL     1       3.054   1.121  -0.933  1.00  0.00     0.255 C 
ATOM      7  O   UNL     1       4.122   1.552  -0.494  1.00  0.00    -0.269 OA
ATOM      8  H   UNL     1       3.572  -0.774  -0.529  1.00  0.00     0.163 HD
BRANCH   6   9
ATOM      9  C   UNL     1       2.104   2.077  -1.572  1.00  0.00     0.081 A 
ATOM     10  C   UNL     1       0.710   2.054  -1.473  1.00  0.00     0.132 A 
ATOM     11  C   UNL     1      -0.066   2.888  -2.288  1.00  0.00     0.056 A 
ATOM     12  C   UNL     1       0.514   3.835  -3.147  1.00  0.00    -0.015 A 
ATOM     13  C   UNL     1       2.693   3.081  -2.363  1.00  0.00     0.018 A 
ATOM     14  C   UNL     1       1.910   3.951  -3.133  1.00  0.00     0.010 A 
BRANCH  10  15
ATOM     15  O   UNL     1      -0.016   1.198  -0.692  1.00  0.00    -0.496 OA
ATOM     16  C   UNL     1       0.135   1.460   0.702  1.00  0.00     0.278 C 
ENDBRANCH  10  15
BRANCH  12  17
ATOM     17  C   UNL     1      -0.330   4.627  -4.061  1.00  0.00    -0.017 A 
ATOM     18  C   UNL     1      -1.506   5.247  -3.612  1.00  0.00     0.009 A 
ATOM     19  C   UNL     1      -0.023   4.719  -5.431  1.00  0.00     0.022 A 
ATOM     20  C   UNL     1      -2.357   5.910  -4.497  1.00  0.00     0.001 A 
ATOM     21  C   UNL     1      -0.872   5.383  -6.334  1.00  0.00     0.040 A 
ATOM     22  C   UNL     1      -2.046   5.975  -5.856  1.00  0.00     0.014 A 
BRANCH  21  23
ATOM     23  C   UNL     1      -0.473   5.403  -7.773  1.00  0.00     0.248 C 
ATOM     24  N   UNL     1      -1.324   5.968  -8.683  1.00  0.00    -0.366 N 
ATOM     25  O   UNL     1       0.590   4.928  -8.150  1.00  0.00    -0.270 OA
ATOM     26  H   UNL     1      -2.180   6.352  -8.384  1.00  0.00     0.159 HD
ATOM     27  H   UNL     1      -1.080   5.992  -9.636  1.00  0.00     0.159 HD
ENDBRANCH  21  23
ENDBRANCH  12  17
ENDBRANCH   6   9
ENDBRANCH   4   5
ENDBRANCH   3   4
ENDBRANCH   2   3
ENDBRANCH   1   2
BRANCH   1  28
ATOM     28  C   UNL     1       0.060  -3.402   0.869  1.00  0.00     0.021 C 
BRANCH  28  29
ATOM     29  C   UNL     1      -0.371  -4.702   0.199  1.00  0.00     0.116 C 
BRANCH  29  30
ATOM     30  N   UNL     1       0.198  -5.882   0.827  1.00  0.00    -0.352 N 
ATOM     31  C   UNL     1      -0.413  -7.049   1.215  1.00  0.00     0.251 C 
ATOM     32  H   UNL     1       1.166  -5.838   0.999  1.00  0.00     0.163 HD
ATOM     33  O   UNL     1       0.223  -7.885   1.851  1.00  0.00    -0.269 OA
BRANCH  31  34
ATOM     34  C   UNL     1      -1.840  -7.288   0.899  1.00  0.00     0.039 A 
ATOM     35  C   UNL     1      -2.667  -7.820   1.892  1.00  0.00     0.014 A 
ATOM     36  C   UNL     1      -2.363  -7.002  -0.365  1.00  0.00     0.014 A 
ATOM     37  C   UNL     1      -4.028  -8.005   1.638  1.00  0.00     0.010 A 
ATOM     38  C   UNL     1      -3.734  -7.117  -0.592  1.00  0.00     0.010 A 
ATOM     39  C   UNL     1      -4.581  -7.620   0.406  1.00  0.00    -0.014 A 
BRANCH  39  40
ATOM     40  C   UNL     1      -6.041  -7.736   0.148  1.00  0.00     0.031 A 
ATOM     41  C   UNL     1      -6.549  -8.650  -0.936  1.00  0.00     0.074 A 
ATOM     42  C   UNL     1      -6.907  -6.985   0.859  1.00  0.00     0.049 A 
ATOM     43  N   UNL     1      -7.777  -8.834  -1.351  1.00  0.00    -0.248 NA
ATOM     44  C   UNL     1      -5.546  -9.448  -1.663  1.00  0.00     0.031 C 
ATOM     45  C   UNL     1      -6.539  -6.035   1.913  1.00  0.00     0.029 A 
ATOM     46  N   UNL     1      -8.276  -6.894   0.798  1.00  0.00    -0.354 N 
ATOM     47  C   UNL     1      -7.694  -9.763  -2.381  1.00  0.00     0.074 A 
ATOM     48  C   UNL     1      -6.292 -10.060  -2.571  1.00  0.00     0.031 C 
ATOM     49  C   UNL     1      -7.653  -5.475   2.411  1.00  0.00     0.029 A 
ATOM     50  C   UNL     1      -8.811  -5.988   1.685  1.00  0.00     0.049 A 
ATOM     51  H   UNL     1      -8.824  -7.427   0.178  1.00  0.00     0.167 HD
ATOM     52  C   UNL     1      -8.697 -10.340  -3.086  1.00  0.00     0.031 A 
ATOM     53  C   UNL     1     -10.086  -5.599   1.882  1.00  0.00     0.031 A 
ATOM     54  C   UNL     1     -10.092 -10.046  -2.894  1.00  0.00     0.049 A 
ATOM     55  C   UNL     1     -11.178  -6.227   1.055  1.00  0.00     0.074 A 
ATOM     56  C   UNL     1     -11.184 -10.595  -3.545  1.00  0.00     0.029 A 
ATOM     57  N   UNL     1     -10.591  -9.128  -1.982  1.00  0.00    -0.354 N 
ATOM     58  N   UNL     1     -11.080  -7.142   0.119  1.00  0.00    -0.248 NA
ATOM     59  C   UNL     1     -12.553  -5.781   1.319  1.00  0.00     0.031 C 
ATOM     60  C   UNL     1     -12.339  -9.973  -3.062  1.00  0.00     0.029 A 
ATOM     61  C   UNL     1     -11.972  -9.085  -2.064  1.00  0.00     0.049 A 
ATOM     62  H   UNL     1     -10.044  -8.588  -1.367  1.00  0.00     0.167 HD
ATOM     63  C   UNL     1     -12.383  -7.403  -0.291  1.00  0.00     0.074 A 
ATOM     64  C   UNL     1     -13.251  -6.566   0.511  1.00  0.00     0.031 C 
ATOM     65  C   UNL     1     -12.823  -8.257  -1.248  1.00  0.00     0.031 A 
BRANCH  52  66
ATOM     66  C   UNL     1      -8.324 -11.367  -4.124  1.00  0.00    -0.014 A 
ATOM     67  C   UNL     1      -7.829 -12.627  -3.742  1.00  0.00     0.010 A 
ATOM     68  C   UNL     1      -8.541 -11.103  -5.489  1.00  0.00     0.010 A 
ATOM     69  C   UNL     1      -7.537 -13.596  -4.705  1.00  0.00     0.020 A 
ATOM     70  C   UNL     1      -8.278 -12.081  -6.454  1.00  0.00     0.020 A 
ATOM     71  C   UNL     1      -7.768 -13.318  -6.055  1.00  0.00     0.054 A 
BRANCH  71  72
ATOM     72  S   UNL     1      -7.432 -14.617  -7.275  1.00  0.00     0.124 S 
ATOM     73  O   UNL     1      -5.973 -14.686  -7.249  1.00  0.00    -0.237 OA
ATOM     74  O   UNL     1      -8.125 -15.772  -6.709  1.00  0.00    -0.237 OA
ATOM     75  O   UNL     1      -8.008 -14.092  -8.511  1.00  0.00    -0.744 OA
ENDBRANCH  71  72
ENDBRANCH  52  66
BRANCH  53  76
ATOM     76  C   UNL     1     -10.409  -4.549   2.890  1.00  0.00    -0.014 A 
ATOM     77  C   UNL     1     -11.170  -4.854   4.033  1.00  0.00     0.010 A 
ATOM     78  C   UNL     1      -9.985  -3.223   2.689  1.00  0.00     0.010 A 
ATOM     79  C   UNL     1     -11.542  -3.845   4.928  1.00  0.00     0.020 A 
ATOM     80  C   UNL     1     -10.323  -2.219   3.600  1.00  0.00     0.020 A 
ATOM     81  C   UNL     1     -11.119  -2.532   4.702  1.00  0.00     0.054 A 
BRANCH  81  82
ATOM     82  S   UNL     1     -11.612  -1.238   5.875  1.00  0.00     0.124 S 
ATOM     83  O   UNL     1     -13.028  -1.073   5.565  1.00  0.00    -0.237 OA
ATOM     84  O   UNL     1     -11.312  -1.851   7.166  1.00  0.00    -0.237 OA
ATOM     85  O   UNL     1     -10.757  -0.109   5.515  1.00  0.00    -0.744 OA
ENDBRANCH  81  82
ENDBRANCH  53  76
BRANCH  65  86
ATOM     86  C   UNL     1     -14.312  -8.371  -1.448  1.00  0.00    -0.014 A 
ATOM     87  C   UNL     1     -15.056  -7.327  -2.027  1.00  0.00     0.010 A 
ATOM     88  C   UNL     1     -14.966  -9.567  -1.099  1.00  0.00     0.010 A 
ATOM     89  C   UNL     1     -16.433  -7.466  -2.220  1.00  0.00     0.020 A 
ATOM     90  C   UNL     1     -16.337  -9.721  -1.321  1.00  0.00     0.020 A 
ATOM     91  C   UNL     1     -17.064  -8.663  -1.867  1.00  0.00     0.054 A 
BRANCH  91  92
ATOM     92  S   UNL     1     -18.844  -8.832  -2.171  1.00  0.00     0.124 S 
ATOM     93  O   UNL     1     -19.412  -7.953  -1.152  1.00  0.00    -0.237 OA
ATOM     94  O   UNL     1     -18.979  -8.366  -3.549  1.00  0.00    -0.237 OA
ATOM     95  O   UNL     1     -19.097 -10.258  -1.974  1.00  0.00    -0.744 OA
ENDBRANCH  91  92
ENDBRANCH  65  86
ENDBRANCH  39  40
ENDBRANCH  31  34
ENDBRANCH  29  30
ENDBRANCH  28  29
ENDBRANCH   1  28
TORSDOF 19
