REMARK SMILES CC(C)c1nc(N(C)CCc2ccccn2)sc1C(=O)NCCCCCCNC(=O)c1ccc(-c2c3nc(c(-c4ccc(S(=O)(=O)[O-])cc4)c4ccc([nH]4)c(-c4ccc(S(=O)(=O)[O-])cc4)c4nc(c(-c5ccc(S(=O)(=O)[O-])cc5)c5ccc2[nH]5)C=C4)C=C3)cc1
REMARK SMILES IDX 24 1 23 2 22 3 21 4 19 5 20 6 18 8 4 9 5 10 6 11 17 12 2 13
REMARK SMILES IDX 1 14 3 15 7 16 8 17 9 18 10 19 11 20 12 21 16 22 13 23 15 24
REMARK SMILES IDX 14 25 25 26 26 27 27 28 28 29 29 30 30 32 31 33 32 34 90 35
REMARK SMILES IDX 33 36 89 37 34 38 35 39 36 40 83 41 37 42 88 43 82 44 84 45
REMARK SMILES IDX 38 46 87 47 81 48 80 49 39 51 69 52 50 53 68 54 51 55 54 56
REMARK SMILES IDX 67 57 85 58 52 59 53 60 66 62 86 63 55 64 40 65 41 66 49 67
REMARK SMILES IDX 42 68 48 69 43 70 44 71 45 72 46 73 47 74 70 75 71 76 79 77
REMARK SMILES IDX 72 78 78 79 73 80 74 81 75 82 76 83 77 84 56 85 57 86 65 87
REMARK SMILES IDX 58 88 64 89 59 90 60 91 61 92 62 93 63 94
REMARK H PARENT 21 7 28 31 84 50 54 61
REMARK Flexibility Score: inf
ROOT
ATOM      1  C   UNL     1       3.236   2.612  -0.350  1.00  0.00     0.002 C 
ENDROOT
BRANCH   1   2
ATOM      2  C   UNL     1       2.035   1.665  -0.406  1.00  0.00     0.021 C 
BRANCH   2   3
ATOM      3  C   UNL     1       1.223   1.561   0.901  1.00  0.00     0.116 C 
BRANCH   3   4
ATOM      4  N   UNL     1      -0.189   1.768   0.649  1.00  0.00    -0.351 N 
ATOM      5  C   UNL     1      -1.381   1.105   0.624  1.00  0.00     0.263 C 
ATOM      6  O   UNL     1      -2.285   1.919   0.359  1.00  0.00    -0.268 OA
ATOM      7  H   UNL     1      -0.340   2.712   0.416  1.00  0.00     0.163 HD
BRANCH   5   8
ATOM      8  C   UNL     1      -1.683  -0.311   0.840  1.00  0.00     0.117 A 
ATOM      9  C   UNL     1      -1.081  -1.549   1.067  1.00  0.00     0.069 A 
ATOM     10  N   UNL     1      -1.973  -2.614   1.141  1.00  0.00    -0.224 NA
ATOM     11  C   UNL     1      -3.185  -2.317   0.772  1.00  0.00     0.186 A 
ATOM     12  S   UNL     1      -3.430  -0.634   0.718  1.00  0.00    -0.091 S 
BRANCH   9  13
ATOM     13  C   UNL     1       0.321  -2.082   1.154  1.00  0.00     0.034 C 
ATOM     14  C   UNL     1       1.180  -1.728  -0.036  1.00  0.00     0.014 C 
ATOM     15  C   UNL     1       0.986  -1.873   2.506  1.00  0.00     0.014 C 
ENDBRANCH   9  13
BRANCH  11  16
ATOM     16  N   UNL     1      -4.091  -3.283   0.453  1.00  0.00    -0.351 N 
ATOM     17  C   UNL     1      -5.493  -3.031   0.196  1.00  0.00     0.146 C 
BRANCH  16  18
ATOM     18  C   UNL     1      -3.617  -4.677   0.421  1.00  0.00     0.125 C 
BRANCH  18  19
ATOM     19  C   UNL     1      -3.189  -5.137  -0.978  1.00  0.00     0.077 C 
BRANCH  19  20
ATOM     20  C   UNL     1      -1.891  -4.579  -1.512  1.00  0.00     0.042 A 
ATOM     21  C   UNL     1      -1.893  -3.460  -2.343  1.00  0.00     0.024 A 
ATOM     22  N   UNL     1      -0.757  -5.271  -1.234  1.00  0.00    -0.261 NA
ATOM     23  C   UNL     1      -0.700  -3.056  -2.936  1.00  0.00     0.003 A 
ATOM     24  C   UNL     1       0.391  -4.842  -1.807  1.00  0.00     0.111 A 
ATOM     25  C   UNL     1       0.466  -3.764  -2.672  1.00  0.00     0.020 A 
ENDBRANCH  19  20
ENDBRANCH  18  19
ENDBRANCH  16  18
ENDBRANCH  11  16
ENDBRANCH   5   8
ENDBRANCH   3   4
ENDBRANCH   2   3
ENDBRANCH   1   2
BRANCH   1  26
ATOM     26  C   UNL     1       4.287   2.287   0.714  1.00  0.00     0.002 C 
BRANCH  26  27
ATOM     27  C   UNL     1       4.949   0.907   0.615  1.00  0.00     0.021 C 
BRANCH  27  28
ATOM     28  C   UNL     1       5.648   0.599  -0.709  1.00  0.00     0.116 C 
BRANCH  28  29
ATOM     29  N   UNL     1       6.640   1.606  -1.055  1.00  0.00    -0.352 N 
ATOM     30  C   UNL     1       8.007   1.527  -1.103  1.00  0.00     0.251 C 
ATOM     31  H   UNL     1       6.269   2.486  -1.293  1.00  0.00     0.163 HD
ATOM     32  O   UNL     1       8.668   2.567  -1.170  1.00  0.00    -0.269 OA
BRANCH  30  33
ATOM     33  C   UNL     1       8.699   0.221  -1.081  1.00  0.00     0.039 A 
ATOM     34  C   UNL     1       9.866   0.084  -0.323  1.00  0.00     0.014 A 
ATOM     35  C   UNL     1       8.243  -0.848  -1.858  1.00  0.00     0.014 A 
ATOM     36  C   UNL     1      10.547  -1.137  -0.305  1.00  0.00     0.010 A 
ATOM     37  C   UNL     1       8.887  -2.083  -1.790  1.00  0.00     0.010 A 
ATOM     38  C   UNL     1      10.050  -2.239  -1.020  1.00  0.00    -0.014 A 
BRANCH  38  39
ATOM     39  C   UNL     1      10.732  -3.559  -0.979  1.00  0.00     0.031 A 
ATOM     40  C   UNL     1      11.343  -4.136  -2.229  1.00  0.00     0.074 A 
ATOM     41  C   UNL     1      10.745  -4.267   0.168  1.00  0.00     0.049 A 
ATOM     42  N   UNL     1      11.913  -5.301  -2.407  1.00  0.00    -0.248 NA
ATOM     43  C   UNL     1      11.286  -3.305  -3.443  1.00  0.00     0.031 C 
ATOM     44  C   UNL     1      10.157  -3.834   1.438  1.00  0.00     0.029 A 
ATOM     45  N   UNL     1      11.262  -5.507   0.449  1.00  0.00    -0.354 N 
ATOM     46  C   UNL     1      12.262  -5.351  -3.752  1.00  0.00     0.074 A 
ATOM     47  C   UNL     1      11.802  -4.119  -4.353  1.00  0.00     0.031 C 
ATOM     48  C   UNL     1      10.364  -4.782   2.365  1.00  0.00     0.029 A 
ATOM     49  C   UNL     1      11.062  -5.907   1.750  1.00  0.00     0.049 A 
ATOM     50  H   UNL     1      11.732  -6.059  -0.218  1.00  0.00     0.167 HD
ATOM     51  C   UNL     1      12.920  -6.328  -4.422  1.00  0.00     0.031 A 
ATOM     52  C   UNL     1      11.394  -7.053   2.376  1.00  0.00     0.031 A 
ATOM     53  C   UNL     1      13.389  -7.546  -3.817  1.00  0.00     0.049 A 
ATOM     54  C   UNL     1      12.122  -8.123   1.610  1.00  0.00     0.074 A 
ATOM     55  C   UNL     1      14.114  -8.572  -4.398  1.00  0.00     0.029 A 
ATOM     56  N   UNL     1      13.183  -7.903  -2.493  1.00  0.00    -0.354 N 
ATOM     57  N   UNL     1      12.494  -8.126   0.352  1.00  0.00    -0.248 NA
ATOM     58  C   UNL     1      12.487  -9.338   2.351  1.00  0.00     0.031 C 
ATOM     59  C   UNL     1      14.304  -9.572  -3.438  1.00  0.00     0.029 A 
ATOM     60  C   UNL     1      13.748  -9.142  -2.243  1.00  0.00     0.049 A 
ATOM     61  H   UNL     1      12.704  -7.356  -1.828  1.00  0.00     0.167 HD
ATOM     62  C   UNL     1      13.163  -9.330   0.159  1.00  0.00     0.074 A 
ATOM     63  C   UNL     1      13.155 -10.022   1.432  1.00  0.00     0.031 C 
ATOM     64  C   UNL     1      13.735  -9.817  -0.970  1.00  0.00     0.031 A 
BRANCH  51  65
ATOM     65  C   UNL     1      13.169  -6.120  -5.894  1.00  0.00    -0.014 A 
ATOM     66  C   UNL     1      14.089  -5.157  -6.347  1.00  0.00     0.010 A 
ATOM     67  C   UNL     1      12.508  -6.928  -6.837  1.00  0.00     0.010 A 
ATOM     68  C   UNL     1      14.313  -4.978  -7.715  1.00  0.00     0.020 A 
ATOM     69  C   UNL     1      12.750  -6.772  -8.205  1.00  0.00     0.020 A 
ATOM     70  C   UNL     1      13.639  -5.785  -8.636  1.00  0.00     0.054 A 
BRANCH  70  71
ATOM     71  S   UNL     1      13.965  -5.545 -10.404  1.00  0.00     0.124 S 
ATOM     72  O   UNL     1      13.270  -4.288 -10.670  1.00  0.00    -0.237 OA
ATOM     73  O   UNL     1      15.424  -5.479 -10.455  1.00  0.00    -0.237 OA
ATOM     74  O   UNL     1      13.376  -6.726 -11.029  1.00  0.00    -0.744 OA
ENDBRANCH  70  71
ENDBRANCH  51  65
BRANCH  52  75
ATOM     75  C   UNL     1      11.053  -7.240   3.813  1.00  0.00    -0.014 A 
ATOM     76  C   UNL     1      12.062  -7.233   4.792  1.00  0.00     0.010 A 
ATOM     77  C   UNL     1       9.715  -7.413   4.213  1.00  0.00     0.010 A 
ATOM     78  C   UNL     1      11.743  -7.416   6.141  1.00  0.00     0.020 A 
ATOM     79  C   UNL     1       9.389  -7.568   5.563  1.00  0.00     0.020 A 
ATOM     80  C   UNL     1      10.408  -7.581   6.518  1.00  0.00     0.054 A 
BRANCH  80  81
ATOM     81  S   UNL     1      10.012  -7.768   8.279  1.00  0.00     0.124 S 
ATOM     82  O   UNL     1      10.448  -9.134   8.544  1.00  0.00    -0.237 OA
ATOM     83  O   UNL     1      10.815  -6.715   8.896  1.00  0.00    -0.237 OA
ATOM     84  O   UNL     1       8.568  -7.549   8.328  1.00  0.00    -0.744 OA
ENDBRANCH  80  81
ENDBRANCH  52  75
BRANCH  64  85
ATOM     85  C   UNL     1      14.435 -11.146  -0.875  1.00  0.00    -0.014 A 
ATOM     86  C   UNL     1      13.712 -12.345  -0.757  1.00  0.00     0.010 A 
ATOM     87  C   UNL     1      15.838 -11.195  -0.965  1.00  0.00     0.010 A 
ATOM     88  C   UNL     1      14.383 -13.570  -0.701  1.00  0.00     0.020 A 
ATOM     89  C   UNL     1      16.510 -12.419  -0.936  1.00  0.00     0.020 A 
ATOM     90  C   UNL     1      15.778 -13.599  -0.791  1.00  0.00     0.054 A 
BRANCH  90  91
ATOM     91  S   UNL     1      16.622 -15.204  -0.764  1.00  0.00     0.124 S 
ATOM     92  O   UNL     1      16.520 -15.578   0.644  1.00  0.00    -0.237 OA
ATOM     93  O   UNL     1      15.820 -16.005  -1.687  1.00  0.00    -0.237 OA
ATOM     94  O   UNL     1      17.972 -14.894  -1.230  1.00  0.00    -0.744 OA
ENDBRANCH  90  91
ENDBRANCH  64  85
ENDBRANCH  38  39
ENDBRANCH  30  33
ENDBRANCH  28  29
ENDBRANCH  27  28
ENDBRANCH  26  27
ENDBRANCH   1  26
TORSDOF 21
