REMARK SMILES C[C@H](C(=O)NCCCCCCNC(=O)c1ccc(-c2c3nc(c(-c4ccc(S(=O)(=O)[O-])cc4)c4ccc([nH]4)c(-c4ccc(S(=O)(=O)[O-])cc4)c4nc(c(-c5ccc(S(=O)(=O)[O-])cc5)c5ccc2[nH]5)C=C4)C=C3)cc1)c1cccc(C(=O)c2ccccc2)c1
REMARK SMILES IDX 8 1 7 2 6 3 5 4 3 5 4 6 2 8 1 9 75 10 76 11 88 12 77 13
REMARK SMILES IDX 79 14 78 15 80 16 81 17 82 18 83 19 87 20 84 21 86 22 85 23
REMARK SMILES IDX 9 24 10 25 11 26 12 27 13 28 14 30 15 31 16 32 74 33 17 34
REMARK SMILES IDX 73 35 18 36 19 37 20 38 67 39 21 40 72 41 66 42 68 43 22 44
REMARK SMILES IDX 71 45 65 46 64 47 23 49 53 50 34 51 52 52 35 53 38 54 51 55
REMARK SMILES IDX 69 56 36 57 37 58 50 60 70 61 39 62 24 63 25 64 33 65 26 66
REMARK SMILES IDX 32 67 27 68 28 69 29 70 30 71 31 72 54 73 55 74 63 75 56 76
REMARK SMILES IDX 62 77 57 78 58 79 59 80 60 81 61 82 40 83 41 84 49 85 42 86
REMARK SMILES IDX 48 87 43 88 44 89 45 90 46 91 47 92
REMARK H PARENT 5 7 12 29 68 48 38 59
REMARK Flexibility Score: inf
ROOT
ATOM      1  C   UNL     1       1.316   4.024   2.025  1.00  0.00     0.002 C 
ENDROOT
BRANCH   1   2
ATOM      2  C   UNL     1       0.831   2.719   2.666  1.00  0.00     0.021 C 
BRANCH   2   3
ATOM      3  C   UNL     1       0.043   1.817   1.728  1.00  0.00     0.116 C 
BRANCH   3   4
ATOM      4  N   UNL     1       0.838   1.365   0.600  1.00  0.00    -0.356 N 
ATOM      5  C   UNL     1       0.922   0.141   0.011  1.00  0.00     0.227 C 
ATOM      6  O   UNL     1       1.571   0.065  -1.037  1.00  0.00    -0.274 OA
ATOM      7  H   UNL     1       1.410   2.057   0.196  1.00  0.00     0.163 HD
BRANCH   5   8
ATOM      8  C   UNL     1       0.293  -1.110   0.625  1.00  0.00     0.105 C 
ATOM      9  C   UNL     1       0.885  -1.404   2.012  1.00  0.00     0.023 C 
BRANCH   8  10
ATOM     10  C   UNL     1      -1.229  -1.214   0.596  1.00  0.00    -0.035 A 
ATOM     11  C   UNL     1      -2.084  -0.140   0.322  1.00  0.00     0.004 A 
ATOM     12  C   UNL     1      -1.820  -2.463   0.871  1.00  0.00     0.016 A 
ATOM     13  C   UNL     1      -3.467  -0.260   0.468  1.00  0.00     0.001 A 
ATOM     14  C   UNL     1      -3.212  -2.609   0.975  1.00  0.00     0.023 A 
ATOM     15  C   UNL     1      -4.028  -1.486   0.811  1.00  0.00     0.012 A 
BRANCH  14  16
ATOM     16  C   UNL     1      -3.877  -3.927   1.187  1.00  0.00     0.193 C 
ATOM     17  O   UNL     1      -5.101  -4.012   1.234  1.00  0.00    -0.289 OA
BRANCH  16  18
ATOM     18  C   UNL     1      -3.101  -5.180   1.241  1.00  0.00     0.022 A 
ATOM     19  C   UNL     1      -3.351  -6.149   0.264  1.00  0.00     0.012 A 
ATOM     20  C   UNL     1      -2.152  -5.407   2.242  1.00  0.00     0.012 A 
ATOM     21  C   UNL     1      -2.615  -7.332   0.261  1.00  0.00     0.001 A 
ATOM     22  C   UNL     1      -1.413  -6.590   2.229  1.00  0.00     0.001 A 
ATOM     23  C   UNL     1      -1.641  -7.547   1.238  1.00  0.00     0.000 A 
ENDBRANCH  16  18
ENDBRANCH  14  16
ENDBRANCH   8  10
ENDBRANCH   5   8
ENDBRANCH   3   4
ENDBRANCH   2   3
ENDBRANCH   1   2
BRANCH   1  24
ATOM     24  C   UNL     1       0.235   4.860   1.330  1.00  0.00     0.002 C 
BRANCH  24  25
ATOM     25  C   UNL     1      -0.978   5.214   2.192  1.00  0.00     0.021 C 
BRANCH  25  26
ATOM     26  C   UNL     1      -0.648   5.903   3.511  1.00  0.00     0.116 C 
BRANCH  26  27
ATOM     27  N   UNL     1       0.071   7.151   3.317  1.00  0.00    -0.352 N 
ATOM     28  C   UNL     1      -0.185   8.389   3.848  1.00  0.00     0.251 C 
ATOM     29  H   UNL     1       0.852   7.100   2.720  1.00  0.00     0.163 HD
ATOM     30  O   UNL     1       0.426   9.372   3.436  1.00  0.00    -0.269 OA
BRANCH  28  31
ATOM     31  C   UNL     1      -1.216   8.539   4.897  1.00  0.00     0.039 A 
ATOM     32  C   UNL     1      -2.130   9.589   4.800  1.00  0.00     0.014 A 
ATOM     33  C   UNL     1      -1.285   7.642   5.968  1.00  0.00     0.014 A 
ATOM     34  C   UNL     1      -3.150   9.707   5.747  1.00  0.00     0.010 A 
ATOM     35  C   UNL     1      -2.347   7.715   6.864  1.00  0.00     0.010 A 
ATOM     36  C   UNL     1      -3.288   8.751   6.767  1.00  0.00    -0.014 A 
BRANCH  36  37
ATOM     37  C   UNL     1      -4.410   8.818   7.737  1.00  0.00     0.031 A 
ATOM     38  C   UNL     1      -4.134   9.020   9.203  1.00  0.00     0.074 A 
ATOM     39  C   UNL     1      -5.675   8.642   7.305  1.00  0.00     0.049 A 
ATOM     40  N   UNL     1      -4.978   9.059  10.202  1.00  0.00    -0.248 NA
ATOM     41  C   UNL     1      -2.725   9.176   9.601  1.00  0.00     0.031 C 
ATOM     42  C   UNL     1      -6.071   8.403   5.915  1.00  0.00     0.029 A 
ATOM     43  N   UNL     1      -6.864   8.635   7.992  1.00  0.00    -0.354 N 
ATOM     44  C   UNL     1      -4.204   9.230  11.345  1.00  0.00     0.074 A 
ATOM     45  C   UNL     1      -2.821   9.232  10.921  1.00  0.00     0.031 C 
ATOM     46  C   UNL     1      -7.408   8.306   5.848  1.00  0.00     0.029 A 
ATOM     47  C   UNL     1      -7.963   8.427   7.192  1.00  0.00     0.049 A 
ATOM     48  H   UNL     1      -6.924   8.766   8.966  1.00  0.00     0.167 HD
ATOM     49  C   UNL     1      -4.609   9.392  12.627  1.00  0.00     0.031 A 
ATOM     50  C   UNL     1      -9.271   8.335   7.504  1.00  0.00     0.031 A 
ATOM     51  C   UNL     1      -5.987   9.393  13.043  1.00  0.00     0.049 A 
ATOM     52  C   UNL     1      -9.693   8.491   8.940  1.00  0.00     0.074 A 
ATOM     53  C   UNL     1      -6.502   9.598  14.311  1.00  0.00     0.029 A 
ATOM     54  N   UNL     1      -7.069   9.175  12.203  1.00  0.00    -0.354 N 
ATOM     55  N   UNL     1      -8.950   8.716   9.998  1.00  0.00    -0.248 NA
ATOM     56  C   UNL     1     -11.131   8.391   9.223  1.00  0.00     0.031 C 
ATOM     57  C   UNL     1      -7.890   9.442  14.249  1.00  0.00     0.029 A 
ATOM     58  C   UNL     1      -8.247   9.211  12.930  1.00  0.00     0.049 A 
ATOM     59  H   UNL     1      -7.008   9.017  11.233  1.00  0.00     0.167 HD
ATOM     60  C   UNL     1      -9.834   8.816  11.066  1.00  0.00     0.074 A 
ATOM     61  C   UNL     1     -11.166   8.642  10.524  1.00  0.00     0.031 C 
ATOM     62  C   UNL     1      -9.567   9.036  12.378  1.00  0.00     0.031 A 
BRANCH  49  63
ATOM     63  C   UNL     1      -3.544   9.573  13.678  1.00  0.00    -0.014 A 
ATOM     64  C   UNL     1      -2.759  10.740  13.728  1.00  0.00     0.010 A 
ATOM     65  C   UNL     1      -3.355   8.582  14.660  1.00  0.00     0.010 A 
ATOM     66  C   UNL     1      -1.778  10.894  14.711  1.00  0.00     0.020 A 
ATOM     67  C   UNL     1      -2.397   8.747  15.665  1.00  0.00     0.020 A 
ATOM     68  C   UNL     1      -1.603   9.895  15.674  1.00  0.00     0.054 A 
BRANCH  68  69
ATOM     69  S   UNL     1      -0.340  10.135  16.953  1.00  0.00     0.124 S 
ATOM     70  O   UNL     1       0.896   9.981  16.188  1.00  0.00    -0.237 OA
ATOM     71  O   UNL     1      -0.619  11.487  17.428  1.00  0.00    -0.237 OA
ATOM     72  O   UNL     1      -0.612   9.070  17.915  1.00  0.00    -0.744 OA
ENDBRANCH  68  69
ENDBRANCH  49  63
BRANCH  50  73
ATOM     73  C   UNL     1     -10.278   8.096   6.433  1.00  0.00    -0.014 A 
ATOM     74  C   UNL     1     -11.191   9.102   6.073  1.00  0.00     0.010 A 
ATOM     75  C   UNL     1     -10.323   6.861   5.760  1.00  0.00     0.010 A 
ATOM     76  C   UNL     1     -12.144   8.872   5.076  1.00  0.00     0.020 A 
ATOM     77  C   UNL     1     -11.253   6.638   4.740  1.00  0.00     0.020 A 
ATOM     78  C   UNL     1     -12.166   7.641   4.414  1.00  0.00     0.054 A 
BRANCH  78  79
ATOM     79  S   UNL     1     -13.381   7.383   3.091  1.00  0.00     0.124 S 
ATOM     80  O   UNL     1     -14.628   7.275   3.840  1.00  0.00    -0.237 OA
ATOM     81  O   UNL     1     -13.228   8.591   2.284  1.00  0.00    -0.237 OA
ATOM     82  O   UNL     1     -12.928   6.152   2.447  1.00  0.00    -0.744 OA
ENDBRANCH  78  79
ENDBRANCH  50  73
BRANCH  62  83
ATOM     83  C   UNL     1     -10.739   9.140  13.318  1.00  0.00    -0.014 A 
ATOM     84  C   UNL     1     -11.511   8.014  13.657  1.00  0.00     0.010 A 
ATOM     85  C   UNL     1     -11.037  10.379  13.917  1.00  0.00     0.010 A 
ATOM     86  C   UNL     1     -12.579   8.133  14.551  1.00  0.00     0.020 A 
ATOM     87  C   UNL     1     -12.082  10.495  14.836  1.00  0.00     0.020 A 
ATOM     88  C   UNL     1     -12.856   9.373  15.136  1.00  0.00     0.054 A 
BRANCH  88  89
ATOM     89  S   UNL     1     -14.218   9.489  16.328  1.00  0.00     0.124 S 
ATOM     90  O   UNL     1     -15.390   9.366  15.464  1.00  0.00    -0.237 OA
ATOM     91  O   UNL     1     -13.967   8.353  17.212  1.00  0.00    -0.237 OA
ATOM     92  O   UNL     1     -14.032  10.801  16.942  1.00  0.00    -0.744 OA
ENDBRANCH  88  89
ENDBRANCH  62  83
ENDBRANCH  36  37
ENDBRANCH  28  31
ENDBRANCH  26  27
ENDBRANCH  25  26
ENDBRANCH  24  25
ENDBRANCH   1  24
TORSDOF 19
