REMARK SMILES Cc1ccc(N2C(=O)[NH+]=C(NCCCCCCNC(=O)c3ccc(-c4c5nc(c(-c6ccc(S(=O)(=O)[O-])cc6)c6ccc([nH]6)c(-c6ccc(S(=O)(=O)[O-])cc6)c6nc(c(-c7ccc(S(=O)(=O)[O-])cc7)c7ccc4[nH]7)C=C6)C=C5)cc3)/C(=C\c3ccccc3OCc3cccc(C(=O)[O-])c3)C2=O)cc1
REMARK SMILES IDX 14 1 13 2 12 3 11 4 6 5 7 6 100 7 8 8 9 9 81 10 101 11 10 12
REMARK SMILES IDX 82 14 5 16 1 17 2 18 3 19 103 20 4 21 102 22 83 23 84 24
REMARK SMILES IDX 88 25 85 26 87 27 86 28 89 29 90 30 91 31 92 32 99 33 93 34
REMARK SMILES IDX 95 35 94 36 96 37 97 38 98 39 15 40 16 41 17 42 18 43 19 44
REMARK SMILES IDX 20 46 21 47 22 48 80 49 23 50 79 51 24 52 25 53 26 54 73 55
REMARK SMILES IDX 27 56 78 57 72 58 74 59 28 60 77 61 71 62 70 63 29 65 59 66
REMARK SMILES IDX 40 67 58 68 41 69 44 70 57 71 75 72 42 73 43 74 56 76 76 77
REMARK SMILES IDX 45 78 30 79 31 80 39 81 32 82 38 83 33 84 34 85 35 86 36 87
REMARK SMILES IDX 37 88 60 89 61 90 69 91 62 92 68 93 63 94 64 95 65 96 66 97
REMARK SMILES IDX 67 98 46 99 47 100 55 101 48 102 54 103 49 104 50 105 51 106
REMARK SMILES IDX 52 107 53 108
REMARK H PARENT 9 13 11 15 18 45 74 64 44 75
REMARK Flexibility Score: inf
ROOT
ATOM      1  C   UNL     1     -10.310   0.944   0.936  1.00  0.00     0.003 C 
ENDROOT
BRANCH   1   2
ATOM      2  C   UNL     1      -9.314   0.658   2.068  1.00  0.00     0.037 C 
BRANCH   2   3
ATOM      3  C   UNL     1      -7.964   0.094   1.627  1.00  0.00     0.194 C 
BRANCH   3   4
ATOM      4  N   UNL     1      -7.213   1.055   0.832  1.00  0.00    -0.305 N 
ATOM      5  N   UNL     1      -3.093   0.780   0.331  1.00  0.00    -0.155 N 
ATOM      6  C   UNL     1      -3.805   0.080   1.320  1.00  0.00     0.448 C 
ATOM      7  C   UNL     1      -3.716   1.637  -0.573  1.00  0.00     0.328 C 
ATOM      8  O   UNL     1      -3.247  -0.670   2.121  1.00  0.00    -0.212 OA
ATOM      9  N   UNL     1      -5.151   0.266   1.450  1.00  0.00    -0.209 N 
ATOM     10  C   UNL     1      -5.201   1.530  -0.593  1.00  0.00     0.129 C 
ATOM     11  O   UNL     1      -3.145   2.335  -1.414  1.00  0.00    -0.249 OA
ATOM     12  C   UNL     1      -5.862   0.931   0.594  1.00  0.00     0.236 C 
ATOM     13  H   UNL     1      -5.604  -0.124   2.232  1.00  0.00     0.270 HD
ATOM     14  C   UNL     1      -5.781   1.773  -1.789  1.00  0.00     0.034 C 
ATOM     15  H   UNL     1      -7.690   1.825   0.448  1.00  0.00     0.256 HD
BRANCH   5  16
ATOM     16  C   UNL     1      -1.668   0.580   0.229  1.00  0.00     0.111 A 
ATOM     17  C   UNL     1       2.610  -0.052  -0.053  1.00  0.00     0.044 C 
ATOM     18  C   UNL     1       1.131   0.173   0.038  1.00  0.00    -0.051 A 
ATOM     19  C   UNL     1       0.271  -0.906   0.253  1.00  0.00     0.007 A 
ATOM     20  C   UNL     1       0.586   1.452  -0.103  1.00  0.00     0.007 A 
ATOM     21  C   UNL     1      -1.108  -0.702   0.357  1.00  0.00     0.044 A 
ATOM     22  C   UNL     1      -0.797   1.650  -0.015  1.00  0.00     0.044 A 
ENDBRANCH   5  16
BRANCH  14  23
ATOM     23  C   UNL     1      -7.138   1.448  -2.257  1.00  0.00     0.018 A 
ATOM     24  C   UNL     1      -7.855   2.495  -2.864  1.00  0.00     0.012 A 
ATOM     25  C   UNL     1      -7.739   0.178  -2.177  1.00  0.00     0.127 A 
ATOM     26  C   UNL     1      -9.171   2.313  -3.295  1.00  0.00     0.001 A 
ATOM     27  C   UNL     1      -9.057   0.008  -2.619  1.00  0.00     0.047 A 
ATOM     28  C   UNL     1      -9.780   1.073  -3.155  1.00  0.00     0.004 A 
BRANCH  25  29
ATOM     29  O   UNL     1      -7.209  -0.915  -1.540  1.00  0.00    -0.488 OA
BRANCH  29  30
ATOM     30  C   UNL     1      -5.954  -1.382  -2.030  1.00  0.00     0.265 C 
BRANCH  30  31
ATOM     31  C   UNL     1      -5.537  -2.638  -1.293  1.00  0.00    -0.010 A 
ATOM     32  C   UNL     1      -4.174  -2.911  -1.096  1.00  0.00     0.007 A 
ATOM     33  C   UNL     1      -6.483  -3.581  -0.864  1.00  0.00     0.017 A 
ATOM     34  C   UNL     1      -3.762  -4.097  -0.486  1.00  0.00     0.001 A 
ATOM     35  C   UNL     1      -6.072  -4.786  -0.277  1.00  0.00    -0.002 A 
ATOM     36  C   UNL     1      -4.709  -5.040  -0.089  1.00  0.00     0.010 A 
BRANCH  35  37
ATOM     37  C   UNL     1      -7.046  -5.832   0.102  1.00  0.00     0.071 C 
ATOM     38  O   UNL     1      -6.767  -6.983   0.430  1.00  0.00    -0.545 OA
ATOM     39  O   UNL     1      -8.318  -5.415   0.038  1.00  0.00    -0.545 OA
ENDBRANCH  35  37
ENDBRANCH  30  31
ENDBRANCH  29  30
ENDBRANCH  25  29
ENDBRANCH  14  23
ENDBRANCH   3   4
ENDBRANCH   2   3
ENDBRANCH   1   2
BRANCH   1  40
ATOM     40  C   UNL     1     -10.854  -0.281   0.183  1.00  0.00     0.002 C 
BRANCH  40  41
ATOM     41  C   UNL     1     -11.629  -1.324   0.980  1.00  0.00     0.021 C 
BRANCH  41  42
ATOM     42  C   UNL     1     -12.804  -0.777   1.760  1.00  0.00     0.116 C 
BRANCH  42  43
ATOM     43  N   UNL     1     -14.069  -0.664   1.056  1.00  0.00    -0.352 N 
ATOM     44  C   UNL     1     -15.316  -0.576   1.677  1.00  0.00     0.251 C 
ATOM     45  H   UNL     1     -14.045  -0.648   0.072  1.00  0.00     0.163 HD
ATOM     46  O   UNL     1     -16.308  -1.145   1.239  1.00  0.00    -0.269 OA
BRANCH  44  47
ATOM     47  C   UNL     1     -15.434   0.406   2.787  1.00  0.00     0.039 A 
ATOM     48  C   UNL     1     -16.397   1.420   2.699  1.00  0.00     0.014 A 
ATOM     49  C   UNL     1     -14.406   0.502   3.710  1.00  0.00     0.014 A 
ATOM     50  C   UNL     1     -16.186   2.621   3.370  1.00  0.00     0.010 A 
ATOM     51  C   UNL     1     -14.068   1.741   4.166  1.00  0.00     0.010 A 
ATOM     52  C   UNL     1     -14.962   2.799   3.997  1.00  0.00    -0.014 A 
BRANCH  52  53
ATOM     53  C   UNL     1     -14.511   3.973   4.699  1.00  0.00     0.031 A 
ATOM     54  C   UNL     1     -14.605   3.918   6.173  1.00  0.00     0.074 A 
ATOM     55  C   UNL     1     -13.729   4.844   4.027  1.00  0.00     0.049 A 
ATOM     56  N   UNL     1     -14.376   4.917   6.939  1.00  0.00    -0.248 NA
ATOM     57  C   UNL     1     -14.998   2.716   6.919  1.00  0.00     0.031 C 
ATOM     58  C   UNL     1     -12.715   5.751   4.553  1.00  0.00     0.029 A 
ATOM     59  N   UNL     1     -13.796   5.195   2.693  1.00  0.00    -0.354 N 
ATOM     60  C   UNL     1     -14.238   4.425   8.219  1.00  0.00     0.074 A 
ATOM     61  C   UNL     1     -14.757   3.085   8.181  1.00  0.00     0.031 C 
ATOM     62  C   UNL     1     -12.452   6.696   3.630  1.00  0.00     0.029 A 
ATOM     63  C   UNL     1     -13.427   6.535   2.561  1.00  0.00     0.049 A 
ATOM     64  H   UNL     1     -14.060   4.598   1.956  1.00  0.00     0.167 HD
ATOM     65  C   UNL     1     -13.544   5.176   9.113  1.00  0.00     0.031 A 
ATOM     66  C   UNL     1     -14.376   7.478   2.252  1.00  0.00     0.031 A 
ATOM     67  C   UNL     1     -13.140   6.437   8.496  1.00  0.00     0.049 A 
ATOM     68  C   UNL     1     -14.653   8.453   3.386  1.00  0.00     0.074 A 
ATOM     69  C   UNL     1     -11.949   6.889   7.957  1.00  0.00     0.029 A 
ATOM     70  N   UNL     1     -14.128   7.293   8.046  1.00  0.00    -0.354 N 
ATOM     71  N   UNL     1     -14.311   8.259   4.630  1.00  0.00    -0.248 NA
ATOM     72  C   UNL     1     -15.351   9.721   3.207  1.00  0.00     0.031 C 
ATOM     73  C   UNL     1     -12.240   8.039   7.171  1.00  0.00     0.029 A 
ATOM     74  C   UNL     1     -13.597   8.293   7.261  1.00  0.00     0.049 A 
ATOM     75  H   UNL     1     -15.085   7.201   8.259  1.00  0.00     0.167 HD
ATOM     76  C   UNL     1     -14.719   9.312   5.411  1.00  0.00     0.074 A 
ATOM     77  C   UNL     1     -15.382  10.195   4.467  1.00  0.00     0.031 C 
ATOM     78  C   UNL     1     -14.483   9.336   6.761  1.00  0.00     0.031 A 
BRANCH  65  79
ATOM     79  C   UNL     1     -13.016   4.736  10.454  1.00  0.00    -0.014 A 
ATOM     80  C   UNL     1     -12.084   5.580  11.096  1.00  0.00     0.010 A 
ATOM     81  C   UNL     1     -13.334   3.538  11.120  1.00  0.00     0.010 A 
ATOM     82  C   UNL     1     -11.461   5.233  12.298  1.00  0.00     0.020 A 
ATOM     83  C   UNL     1     -12.716   3.175  12.331  1.00  0.00     0.020 A 
ATOM     84  C   UNL     1     -11.773   4.024  12.906  1.00  0.00     0.054 A 
BRANCH  84  85
ATOM     85  S   UNL     1     -10.931   3.597  14.449  1.00  0.00     0.124 S 
ATOM     86  O   UNL     1      -9.533   3.531  14.032  1.00  0.00    -0.237 OA
ATOM     87  O   UNL     1     -11.277   4.718  15.317  1.00  0.00    -0.237 OA
ATOM     88  O   UNL     1     -11.524   2.315  14.825  1.00  0.00    -0.744 OA
ENDBRANCH  84  85
ENDBRANCH  65  79
BRANCH  66  89
ATOM     89  C   UNL     1     -15.404   6.958   1.288  1.00  0.00    -0.014 A 
ATOM     90  C   UNL     1     -14.960   6.684  -0.025  1.00  0.00     0.010 A 
ATOM     91  C   UNL     1     -16.531   6.269   1.777  1.00  0.00     0.010 A 
ATOM     92  C   UNL     1     -15.456   5.579  -0.723  1.00  0.00     0.020 A 
ATOM     93  C   UNL     1     -17.044   5.173   1.065  1.00  0.00     0.020 A 
ATOM     94  C   UNL     1     -16.434   4.782  -0.130  1.00  0.00     0.054 A 
BRANCH  94  95
ATOM     95  S   UNL     1     -16.714   3.122  -0.823  1.00  0.00     0.124 S 
ATOM     96  O   UNL     1     -17.016   3.411  -2.222  1.00  0.00    -0.237 OA
ATOM     97  O   UNL     1     -15.422   2.476  -0.583  1.00  0.00    -0.237 OA
ATOM     98  O   UNL     1     -17.830   2.609  -0.036  1.00  0.00    -0.744 OA
ENDBRANCH  94  95
ENDBRANCH  66  89
BRANCH  78  99
ATOM     99  C   UNL     1     -15.048  10.302   7.794  1.00  0.00    -0.014 A 
ATOM    100  C   UNL     1     -15.652  11.529   7.509  1.00  0.00     0.010 A 
ATOM    101  C   UNL     1     -14.966   9.962   9.175  1.00  0.00     0.010 A 
ATOM    102  C   UNL     1     -16.193  12.334   8.526  1.00  0.00     0.020 A 
ATOM    103  C   UNL     1     -15.508  10.742  10.196  1.00  0.00     0.020 A 
ATOM    104  C   UNL     1     -16.126  11.931   9.860  1.00  0.00     0.054 A 
BRANCH 104 105
ATOM    105  S   UNL     1     -16.830  12.991  11.140  1.00  0.00     0.124 S 
ATOM    106  O   UNL     1     -16.014  14.197  11.017  1.00  0.00    -0.237 OA
ATOM    107  O   UNL     1     -18.217  13.124  10.702  1.00  0.00    -0.237 OA
ATOM    108  O   UNL     1     -16.639  12.232  12.373  1.00  0.00    -0.744 OA
ENDBRANCH 104 105
ENDBRANCH  78  99
ENDBRANCH  52  53
ENDBRANCH  44  47
ENDBRANCH  42  43
ENDBRANCH  41  42
ENDBRANCH  40  41
ENDBRANCH   1  40
TORSDOF 21
