REMARK SMILES O=C(NCCCCCCNC(=O)c1csc(C[NH2+][C@H]2CCSc3ccc(F)cc32)c1)c1ccc(-c2c3nc(c(-c4ccc(S(=O)(=O)[O-])cc4)c4ccc([nH]4)c(-c4ccc(S(=O)(=O)[O-])cc4)c4nc(c(-c5ccc(S(=O)(=O)[O-])cc5)c5ccc2[nH]5)C=C4)C=C3)cc1
REMARK SMILES IDX 6 1 5 2 4 3 3 4 1 5 2 6 31 8 32 9 90 10 33 11 89 12 34 13
REMARK SMILES IDX 35 14 36 15 83 16 37 17 88 18 82 19 84 20 38 21 87 22 81 23
REMARK SMILES IDX 80 24 39 26 69 27 50 28 68 29 51 30 54 31 67 32 85 33 52 34
REMARK SMILES IDX 53 35 66 37 86 38 55 39 40 40 41 41 49 42 42 43 48 44 43 45
REMARK SMILES IDX 44 46 45 47 46 48 47 49 70 50 71 51 79 52 72 53 78 54 73 55
REMARK SMILES IDX 74 56 75 57 76 58 77 59 56 60 57 61 65 62 58 63 64 64 59 65
REMARK SMILES IDX 60 66 61 67 62 68 63 69 7 70 8 71 9 72 10 73 11 74 12 76
REMARK SMILES IDX 13 77 14 78 30 79 15 80 16 81 17 82 18 83 19 86 20 87 29 88
REMARK SMILES IDX 21 89 23 90 28 91 22 92 24 93 26 94 25 95 27 96
REMARK H PARENT 3 7 84 25 54 36 10 75 18 84 18 85
REMARK Flexibility Score: inf
ROOT
ATOM      1  C   UNL     1      21.854   2.429  -7.666  1.00  0.00     0.002 C 
ENDROOT
BRANCH   1   2
ATOM      2  C   UNL     1      22.832   3.607  -7.662  1.00  0.00     0.021 C 
BRANCH   2   3
ATOM      3  C   UNL     1      23.939   3.544  -6.614  1.00  0.00     0.116 C 
BRANCH   3   4
ATOM      4  N   UNL     1      24.808   2.394  -6.782  1.00  0.00    -0.352 N 
ATOM      5  O   UNL     1      26.732   1.258  -7.001  1.00  0.00    -0.269 OA
ATOM      6  C   UNL     1      26.175   2.309  -6.693  1.00  0.00     0.251 C 
ATOM      7  H   UNL     1      24.348   1.549  -6.991  1.00  0.00     0.163 HD
BRANCH   6   8
ATOM      8  C   UNL     1      26.984   3.472  -6.254  1.00  0.00     0.039 A 
ATOM      9  C   UNL     1      28.192   3.725  -6.912  1.00  0.00     0.014 A 
ATOM     10  C   UNL     1      26.597   4.279  -5.179  1.00  0.00     0.014 A 
ATOM     11  C   UNL     1      28.991   4.800  -6.517  1.00  0.00     0.010 A 
ATOM     12  C   UNL     1      27.366   5.388  -4.824  1.00  0.00     0.010 A 
ATOM     13  C   UNL     1      28.578   5.651  -5.478  1.00  0.00    -0.014 A 
BRANCH  13  14
ATOM     14  C   UNL     1      29.427   6.794  -5.057  1.00  0.00     0.031 A 
ATOM     15  C   UNL     1      30.103   6.786  -3.714  1.00  0.00     0.074 A 
ATOM     16  C   UNL     1      29.594   7.843  -5.885  1.00  0.00     0.049 A 
ATOM     17  N   UNL     1      30.905   7.678  -3.192  1.00  0.00    -0.248 NA
ATOM     18  C   UNL     1      29.831   5.636  -2.837  1.00  0.00     0.031 C 
ATOM     19  C   UNL     1      28.973   7.985  -7.202  1.00  0.00     0.029 A 
ATOM     20  N   UNL     1      30.350   8.982  -5.746  1.00  0.00    -0.354 N 
ATOM     21  C   UNL     1      31.236   7.198  -1.931  1.00  0.00     0.074 A 
ATOM     22  C   UNL     1      30.503   5.965  -1.743  1.00  0.00     0.031 C 
ATOM     23  C   UNL     1      29.409   9.121  -7.770  1.00  0.00     0.029 A 
ATOM     24  C   UNL     1      30.318   9.800  -6.849  1.00  0.00     0.049 A 
ATOM     25  H   UNL     1      30.865   9.191  -4.934  1.00  0.00     0.167 HD
ATOM     26  C   UNL     1      32.094   7.719  -1.021  1.00  0.00     0.031 A 
ATOM     27  C   UNL     1      30.958  10.958  -7.104  1.00  0.00     0.031 A 
ATOM     28  C   UNL     1      32.828   8.942  -1.207  1.00  0.00     0.049 A 
ATOM     29  C   UNL     1      31.898  11.526  -6.082  1.00  0.00     0.074 A 
ATOM     30  C   UNL     1      33.738   9.536  -0.350  1.00  0.00     0.029 A 
ATOM     31  N   UNL     1      32.741   9.756  -2.326  1.00  0.00    -0.354 N 
ATOM     32  N   UNL     1      32.217  11.044  -4.904  1.00  0.00    -0.248 NA
ATOM     33  C   UNL     1      32.572  12.787  -6.421  1.00  0.00     0.031 C 
ATOM     34  C   UNL     1      34.173  10.730  -0.934  1.00  0.00     0.029 A 
ATOM     35  C   UNL     1      33.569  10.855  -2.176  1.00  0.00     0.049 A 
ATOM     36  H   UNL     1      32.175   9.578  -3.111  1.00  0.00     0.167 HD
ATOM     37  C   UNL     1      33.127  11.943  -4.360  1.00  0.00     0.074 A 
ATOM     38  C   UNL     1      33.326  12.986  -5.347  1.00  0.00     0.031 C 
ATOM     39  C   UNL     1      33.738  11.904  -3.151  1.00  0.00     0.031 A 
BRANCH  26  40
ATOM     40  C   UNL     1      32.293   6.952   0.259  1.00  0.00    -0.014 A 
ATOM     41  C   UNL     1      31.793   7.459   1.471  1.00  0.00     0.010 A 
ATOM     42  C   UNL     1      33.012   5.742   0.265  1.00  0.00     0.010 A 
ATOM     43  C   UNL     1      32.002   6.767   2.667  1.00  0.00     0.020 A 
ATOM     44  C   UNL     1      33.202   5.036   1.456  1.00  0.00     0.020 A 
ATOM     45  C   UNL     1      32.706   5.560   2.652  1.00  0.00     0.054 A 
BRANCH  45  46
ATOM     46  S   UNL     1      32.928   4.643   4.202  1.00  0.00     0.124 S 
ATOM     47  O   UNL     1      34.095   5.299   4.783  1.00  0.00    -0.237 OA
ATOM     48  O   UNL     1      31.663   4.868   4.898  1.00  0.00    -0.237 OA
ATOM     49  O   UNL     1      33.140   3.268   3.752  1.00  0.00    -0.744 OA
ENDBRANCH  45  46
ENDBRANCH  26  40
BRANCH  27  50
ATOM     50  C   UNL     1      30.756  11.609  -8.425  1.00  0.00    -0.014 A 
ATOM     51  C   UNL     1      29.546  12.262  -8.720  1.00  0.00     0.010 A 
ATOM     52  C   UNL     1      31.727  11.473  -9.432  1.00  0.00     0.010 A 
ATOM     53  C   UNL     1      29.286  12.716 -10.016  1.00  0.00     0.020 A 
ATOM     54  C   UNL     1      31.478  11.942 -10.725  1.00  0.00     0.020 A 
ATOM     55  C   UNL     1      30.245  12.531 -11.015  1.00  0.00     0.054 A 
BRANCH  55  56
ATOM     56  S   UNL     1      29.855  13.044 -12.711  1.00  0.00     0.124 S 
ATOM     57  O   UNL     1      29.012  11.942 -13.169  1.00  0.00    -0.237 OA
ATOM     58  O   UNL     1      29.170  14.319 -12.514  1.00  0.00    -0.237 OA
ATOM     59  O   UNL     1      31.165  13.137 -13.349  1.00  0.00    -0.744 OA
ENDBRANCH  55  56
ENDBRANCH  27  50
BRANCH  39  60
ATOM     60  C   UNL     1      34.665  13.035  -2.798  1.00  0.00    -0.014 A 
ATOM     61  C   UNL     1      36.053  12.816  -2.744  1.00  0.00     0.010 A 
ATOM     62  C   UNL     1      34.151  14.290  -2.425  1.00  0.00     0.010 A 
ATOM     63  C   UNL     1      36.913  13.826  -2.304  1.00  0.00     0.020 A 
ATOM     64  C   UNL     1      35.010  15.309  -2.004  1.00  0.00     0.020 A 
ATOM     65  C   UNL     1      36.384  15.064  -1.927  1.00  0.00     0.054 A 
BRANCH  65  66
ATOM     66  S   UNL     1      37.508  16.368  -1.353  1.00  0.00     0.124 S 
ATOM     67  O   UNL     1      37.696  16.014   0.050  1.00  0.00    -0.237 OA
ATOM     68  O   UNL     1      38.678  16.191  -2.210  1.00  0.00    -0.237 OA
ATOM     69  O   UNL     1      36.752  17.596  -1.594  1.00  0.00    -0.744 OA
ENDBRANCH  65  66
ENDBRANCH  39  60
ENDBRANCH  13  14
ENDBRANCH   6   8
ENDBRANCH   3   4
ENDBRANCH   2   3
ENDBRANCH   1   2
BRANCH   1  70
ATOM     70  C   UNL     1      21.149   2.141  -6.338  1.00  0.00     0.002 C 
BRANCH  70  71
ATOM     71  C   UNL     1      20.402   3.322  -5.707  1.00  0.00     0.021 C 
BRANCH  71  72
ATOM     72  C   UNL     1      19.382   4.013  -6.614  1.00  0.00     0.116 C 
BRANCH  72  73
ATOM     73  N   UNL     1      18.335   3.099  -7.040  1.00  0.00    -0.352 N 
ATOM     74  C   UNL     1      16.997   3.134  -6.770  1.00  0.00     0.252 C 
ATOM     75  H   UNL     1      18.633   2.349  -7.604  1.00  0.00     0.163 HD
ATOM     76  O   UNL     1      16.311   2.127  -6.997  1.00  0.00    -0.269 OA
BRANCH  74  77
ATOM     77  C   UNL     1      16.409   4.337  -6.209  1.00  0.00     0.051 A 
ATOM     78  C   UNL     1      16.559   5.601  -6.752  1.00  0.00     0.079 A 
ATOM     79  C   UNL     1      15.530   4.375  -5.076  1.00  0.00     0.035 A 
ATOM     80  S   UNL     1      15.704   6.798  -5.886  1.00  0.00    -0.142 S 
ATOM     81  C   UNL     1      15.099   5.650  -4.766  1.00  0.00     0.059 A 
BRANCH  81  82
ATOM     82  C   UNL     1      14.197   6.084  -3.649  1.00  0.00     0.308 C 
BRANCH  82  83
ATOM     83  N   UNL     1      14.944   6.874  -2.675  1.00  0.00    -0.336 N 
ATOM     84  H   UNL     1      15.449   7.607  -3.172  1.00  0.00     0.347 HD
ATOM     85  H   UNL     1      15.575   6.237  -2.188  1.00  0.00     0.347 HD
BRANCH  83  86
ATOM     86  C   UNL     1      14.086   7.502  -1.659  1.00  0.00     0.215 C 
ATOM     87  C   UNL     1      14.530   6.993  -0.280  1.00  0.00     0.081 C 
ATOM     88  C   UNL     1      14.102   9.021  -1.786  1.00  0.00     0.026 A 
ATOM     89  C   UNL     1      13.666   7.574   0.823  1.00  0.00     0.081 C 
ATOM     90  C   UNL     1      14.047   9.883  -0.674  1.00  0.00     0.017 A 
ATOM     91  C   UNL     1      14.104   9.604  -3.073  1.00  0.00     0.050 A 
ATOM     92  S   UNL     1      13.984   9.342   1.028  1.00  0.00    -0.125 SA
ATOM     93  C   UNL     1      14.048  11.278  -0.867  1.00  0.00     0.018 A 
ATOM     94  C   UNL     1      14.095  10.983  -3.241  1.00  0.00     0.123 A 
ATOM     95  C   UNL     1      14.073  11.829  -2.147  1.00  0.00     0.040 A 
ATOM     96  F   UNL     1      14.100  11.499  -4.477  1.00  0.00    -0.207 F 
ENDBRANCH  83  86
ENDBRANCH  82  83
ENDBRANCH  81  82
ENDBRANCH  74  77
ENDBRANCH  72  73
ENDBRANCH  71  72
ENDBRANCH  70  71
ENDBRANCH   1  70
TORSDOF 19
