REMARK SMILES COc1ccc(F)cc1-c1ccc(C[C@]2(C(=O)NCCCCCCNC(=O)c3ccc(-c4c5nc(c(-c6ccc(S(=O)(=O)[O-])cc6)c6ccc([nH]6)c(-c6ccc(S(=O)(=O)[O-])cc6)c6nc(c(-c7ccc(S(=O)(=O)[O-])cc7)c7ccc4[nH]7)C=C6)C=C5)cc3)CCCO2)cc1
REMARK SMILES IDX 21 1 20 2 19 3 18 4 16 5 17 6 15 8 88 9 91 10 89 11 90 12
REMARK SMILES IDX 14 13 13 14 10 15 11 16 93 17 12 18 92 19 9 20 3 21 4 22
REMARK SMILES IDX 5 23 8 24 6 25 7 26 2 27 1 28 22 29 23 30 24 31 25 32 26 33
REMARK SMILES IDX 27 35 28 36 29 37 87 38 30 39 86 40 31 41 32 42 33 43 80 44
REMARK SMILES IDX 34 45 85 46 79 47 81 48 35 49 84 50 78 51 77 52 36 54 66 55
REMARK SMILES IDX 47 56 65 57 48 58 51 59 64 60 82 61 49 62 50 63 63 65 83 66
REMARK SMILES IDX 52 67 37 68 38 69 46 70 39 71 45 72 40 73 41 74 42 75 43 76
REMARK SMILES IDX 44 77 67 78 68 79 76 80 69 81 75 82 70 83 71 84 72 85 73 86
REMARK SMILES IDX 74 87 53 88 54 89 62 90 55 91 61 92 56 93 57 94 58 95 59 96
REMARK SMILES IDX 60 97
REMARK H PARENT 18 7 25 34 81 53 51 64
REMARK Flexibility Score: inf
ROOT
ATOM      1  C   UNL     1     -11.207  -5.380  -1.891  1.00  0.00     0.002 C 
ENDROOT
BRANCH   1   2
ATOM      2  C   UNL     1      -9.713  -5.268  -2.203  1.00  0.00     0.021 C 
BRANCH   2   3
ATOM      3  C   UNL     1      -9.233  -3.826  -2.370  1.00  0.00     0.116 C 
BRANCH   3   4
ATOM      4  N   UNL     1      -9.043  -3.194  -1.083  1.00  0.00    -0.354 N 
ATOM      5  C   UNL     1      -7.897  -2.915  -0.395  1.00  0.00     0.252 C 
ATOM      6  O   UNL     1      -8.046  -2.443   0.738  1.00  0.00    -0.272 OA
ATOM      7  H   UNL     1      -9.873  -2.921  -0.630  1.00  0.00     0.163 HD
BRANCH   5   8
ATOM      8  C   UNL     1      -6.482  -3.212  -0.990  1.00  0.00     0.150 C 
ATOM      9  C   UNL     1      -6.269  -4.716  -1.182  1.00  0.00     0.048 C 
ATOM     10  O   UNL     1      -6.363  -2.594  -2.284  1.00  0.00    -0.365 OA
ATOM     11  C   UNL     1      -5.906  -4.899  -2.638  1.00  0.00     0.032 C 
ATOM     12  C   UNL     1      -5.715  -3.501  -3.181  1.00  0.00     0.162 C 
BRANCH   8  13
ATOM     13  C   UNL     1      -5.442  -2.573  -0.018  1.00  0.00     0.081 C 
BRANCH  13  14
ATOM     14  C   UNL     1      -3.992  -2.565  -0.456  1.00  0.00    -0.045 A 
ATOM     15  C   UNL     1      -1.314  -2.539  -1.363  1.00  0.00    -0.015 A 
ATOM     16  C   UNL     1      -1.883  -3.706  -0.838  1.00  0.00     0.009 A 
ATOM     17  C   UNL     1      -2.092  -1.375  -1.400  1.00  0.00     0.009 A 
ATOM     18  C   UNL     1      -3.196  -3.712  -0.368  1.00  0.00     0.004 A 
ATOM     19  C   UNL     1      -3.420  -1.390  -0.961  1.00  0.00     0.004 A 
BRANCH  15  20
ATOM     20  C   UNL     1       0.060  -2.560  -1.876  1.00  0.00     0.027 A 
ATOM     21  C   UNL     1       1.129  -1.942  -1.199  1.00  0.00     0.126 A 
ATOM     22  C   UNL     1       2.438  -2.033  -1.689  1.00  0.00     0.050 A 
ATOM     23  C   UNL     1       2.688  -2.714  -2.879  1.00  0.00     0.043 A 
ATOM     24  C   UNL     1       0.335  -3.238  -3.076  1.00  0.00     0.051 A 
ATOM     25  C   UNL     1       1.635  -3.307  -3.562  1.00  0.00     0.124 A 
ATOM     26  F   UNL     1       1.879  -3.972  -4.699  1.00  0.00    -0.207 F 
BRANCH  21  27
ATOM     27  O   UNL     1       0.889  -1.342   0.012  1.00  0.00    -0.496 OA
ATOM     28  C   UNL     1       1.194   0.051  -0.016  1.00  0.00     0.278 C 
ENDBRANCH  21  27
ENDBRANCH  15  20
ENDBRANCH  13  14
ENDBRANCH   8  13
ENDBRANCH   5   8
ENDBRANCH   3   4
ENDBRANCH   2   3
ENDBRANCH   1   2
BRANCH   1  29
ATOM     29  C   UNL     1     -12.124  -4.825  -2.984  1.00  0.00     0.002 C 
BRANCH  29  30
ATOM     30  C   UNL     1     -11.881  -5.408  -4.379  1.00  0.00     0.021 C 
BRANCH  30  31
ATOM     31  C   UNL     1     -12.048  -6.923  -4.455  1.00  0.00     0.116 C 
BRANCH  31  32
ATOM     32  N   UNL     1     -13.406  -7.324  -4.116  1.00  0.00    -0.352 N 
ATOM     33  C   UNL     1     -14.354  -7.921  -4.909  1.00  0.00     0.251 C 
ATOM     34  H   UNL     1     -13.682  -7.143  -3.188  1.00  0.00     0.163 HD
ATOM     35  O   UNL     1     -15.528  -7.947  -4.561  1.00  0.00    -0.269 OA
BRANCH  33  36
ATOM     36  C   UNL     1     -13.940  -8.523  -6.193  1.00  0.00     0.039 A 
ATOM     37  C   UNL     1     -14.673  -8.241  -7.347  1.00  0.00     0.014 A 
ATOM     38  C   UNL     1     -12.813  -9.348  -6.249  1.00  0.00     0.014 A 
ATOM     39  C   UNL     1     -14.229  -8.732  -8.577  1.00  0.00     0.010 A 
ATOM     40  C   UNL     1     -12.334  -9.774  -7.483  1.00  0.00     0.010 A 
ATOM     41  C   UNL     1     -13.034  -9.465  -8.659  1.00  0.00    -0.014 A 
BRANCH  41  42
ATOM     42  C   UNL     1     -12.476  -9.891  -9.967  1.00  0.00     0.031 A 
ATOM     43  C   UNL     1     -12.319 -11.352 -10.284  1.00  0.00     0.074 A 
ATOM     44  C   UNL     1     -12.028  -8.958 -10.829  1.00  0.00     0.049 A 
ATOM     45  N   UNL     1     -11.772 -11.913 -11.331  1.00  0.00    -0.248 NA
ATOM     46  C   UNL     1     -12.820 -12.306  -9.282  1.00  0.00     0.031 C 
ATOM     47  C   UNL     1     -12.085  -7.510 -10.614  1.00  0.00     0.029 A 
ATOM     48  N   UNL     1     -11.420  -9.087 -12.053  1.00  0.00    -0.354 N 
ATOM     49  C   UNL     1     -11.849 -13.283 -11.110  1.00  0.00     0.074 A 
ATOM     50  C   UNL     1     -12.449 -13.466  -9.806  1.00  0.00     0.031 C 
ATOM     51  C   UNL     1     -11.548  -6.886 -11.674  1.00  0.00     0.029 A 
ATOM     52  C   UNL     1     -11.063  -7.886 -12.620  1.00  0.00     0.049 A 
ATOM     53  H   UNL     1     -11.254  -9.957 -12.484  1.00  0.00     0.167 HD
ATOM     54  C   UNL     1     -11.469 -14.296 -11.925  1.00  0.00     0.031 A 
ATOM     55  C   UNL     1     -10.400  -7.616 -13.762  1.00  0.00     0.031 A 
ATOM     56  C   UNL     1     -10.865 -14.103 -13.217  1.00  0.00     0.049 A 
ATOM     57  C   UNL     1      -9.959  -8.756 -14.638  1.00  0.00     0.074 A 
ATOM     58  C   UNL     1     -10.493 -15.062 -14.143  1.00  0.00     0.029 A 
ATOM     59  N   UNL     1     -10.530 -12.871 -13.761  1.00  0.00    -0.354 N 
ATOM     60  N   UNL     1     -10.113 -10.045 -14.449  1.00  0.00    -0.248 NA
ATOM     61  C   UNL     1      -9.262  -8.406 -15.883  1.00  0.00     0.031 C 
ATOM     62  C   UNL     1      -9.872 -14.414 -15.216  1.00  0.00     0.029 A 
ATOM     63  C   UNL     1      -9.921 -13.047 -14.992  1.00  0.00     0.049 A 
ATOM     64  H   UNL     1     -10.699 -12.001 -13.334  1.00  0.00     0.167 HD
ATOM     65  C   UNL     1      -9.549 -10.660 -15.561  1.00  0.00     0.074 A 
ATOM     66  C   UNL     1      -9.068  -9.601 -16.426  1.00  0.00     0.031 C 
ATOM     67  C   UNL     1      -9.440 -11.983 -15.840  1.00  0.00     0.031 A 
BRANCH  54  68
ATOM     68  C   UNL     1     -11.680 -15.703 -11.429  1.00  0.00    -0.014 A 
ATOM     69  C   UNL     1     -12.974 -16.233 -11.262  1.00  0.00     0.010 A 
ATOM     70  C   UNL     1     -10.569 -16.519 -11.147  1.00  0.00     0.010 A 
ATOM     71  C   UNL     1     -13.152 -17.529 -10.772  1.00  0.00     0.020 A 
ATOM     72  C   UNL     1     -10.742 -17.828 -10.688  1.00  0.00     0.020 A 
ATOM     73  C   UNL     1     -12.034 -18.317 -10.482  1.00  0.00     0.054 A 
BRANCH  73  74
ATOM     74  S   UNL     1     -12.296 -19.995  -9.847  1.00  0.00     0.124 S 
ATOM     75  O   UNL     1     -12.782 -19.732  -8.495  1.00  0.00    -0.237 OA
ATOM     76  O   UNL     1     -13.285 -20.537 -10.775  1.00  0.00    -0.237 OA
ATOM     77  O   UNL     1     -10.972 -20.607  -9.924  1.00  0.00    -0.744 OA
ENDBRANCH  73  74
ENDBRANCH  54  68
BRANCH  55  78
ATOM     78  C   UNL     1     -10.108  -6.203 -14.127  1.00  0.00    -0.014 A 
ATOM     79  C   UNL     1     -10.765  -5.588 -15.207  1.00  0.00     0.010 A 
ATOM     80  C   UNL     1      -9.192  -5.451 -13.367  1.00  0.00     0.010 A 
ATOM     81  C   UNL     1     -10.504  -4.251 -15.525  1.00  0.00     0.020 A 
ATOM     82  C   UNL     1      -8.952  -4.107 -13.663  1.00  0.00     0.020 A 
ATOM     83  C   UNL     1      -9.604  -3.517 -14.747  1.00  0.00     0.054 A 
BRANCH  83  84
ATOM     84  S   UNL     1      -9.335  -1.766 -15.137  1.00  0.00     0.124 S 
ATOM     85  O   UNL     1      -8.569  -1.845 -16.377  1.00  0.00    -0.237 OA
ATOM     86  O   UNL     1     -10.699  -1.260 -15.266  1.00  0.00    -0.237 OA
ATOM     87  O   UNL     1      -8.600  -1.266 -13.977  1.00  0.00    -0.744 OA
ENDBRANCH  83  84
ENDBRANCH  55  78
BRANCH  67  88
ATOM     88  C   UNL     1      -8.791 -12.369 -17.143  1.00  0.00    -0.014 A 
ATOM     89  C   UNL     1      -7.406 -12.225 -17.338  1.00  0.00     0.010 A 
ATOM     90  C   UNL     1      -9.569 -12.957 -18.158  1.00  0.00     0.010 A 
ATOM     91  C   UNL     1      -6.814 -12.645 -18.533  1.00  0.00     0.020 A 
ATOM     92  C   UNL     1      -8.976 -13.406 -19.341  1.00  0.00     0.020 A 
ATOM     93  C   UNL     1      -7.602 -13.239 -19.524  1.00  0.00     0.054 A 
BRANCH  93  94
ATOM     94  S   UNL     1      -6.796 -13.837 -21.035  1.00  0.00     0.124 S 
ATOM     95  O   UNL     1      -6.445 -12.589 -21.707  1.00  0.00    -0.237 OA
ATOM     96  O   UNL     1      -5.671 -14.608 -20.512  1.00  0.00    -0.237 OA
ATOM     97  O   UNL     1      -7.834 -14.628 -21.692  1.00  0.00    -0.744 OA
ENDBRANCH  93  94
ENDBRANCH  67  88
ENDBRANCH  41  42
ENDBRANCH  33  36
ENDBRANCH  31  32
ENDBRANCH  30  31
ENDBRANCH  29  30
ENDBRANCH   1  29
TORSDOF 20
