REMARK SMILES CC(C)(C)CN1C(=O)CC[C@@H](C(=O)NCCCCCCNC(=O)c2ccc(-c3c4nc(c(-c5ccc(S(=O)(=O)[O-])cc5)c5ccc([nH]5)c(-c5ccc(S(=O)(=O)[O-])cc5)c5nc(c(-c6ccc(S(=O)(=O)[O-])cc6)c6ccc3[nH]6)C=C5)C=C4)cc2)[C@H]1c1cccc2c1OCO2
REMARK SMILES IDX 18 1 17 2 16 3 15 4 14 5 12 6 13 7 11 9 6 10 7 11 84 12 8 13
REMARK SMILES IDX 9 14 10 15 5 16 2 17 1 18 3 19 4 20 85 21 86 22 90 23 87 24
REMARK SMILES IDX 89 25 91 26 88 27 93 28 92 29 19 30 20 31 21 32 22 33 23 35
REMARK SMILES IDX 24 36 25 37 83 38 26 39 82 40 27 41 28 42 29 43 76 44 30 45
REMARK SMILES IDX 81 46 75 47 77 48 31 49 80 50 74 51 73 52 32 54 62 55 43 56
REMARK SMILES IDX 61 57 44 58 47 59 60 60 78 61 45 62 46 63 59 65 79 66 48 67
REMARK SMILES IDX 33 68 34 69 42 70 35 71 41 72 36 73 37 74 38 75 39 76 40 77
REMARK SMILES IDX 63 78 64 79 72 80 65 81 71 82 66 83 67 84 68 85 69 86 70 87
REMARK SMILES IDX 49 88 50 89 58 90 51 91 57 92 52 93 53 94 54 95 55 96 56 97
REMARK H PARENT 14 8 21 34 77 53 47 64
REMARK Flexibility Score: inf
ROOT
ATOM      1  C   UNL     1      -3.981  -5.612   3.501  1.00  0.00     0.002 C 
ENDROOT
BRANCH   1   2
ATOM      2  C   UNL     1      -3.800  -4.512   4.552  1.00  0.00     0.002 C 
BRANCH   2   3
ATOM      3  C   UNL     1      -2.347  -4.283   4.997  1.00  0.00     0.021 C 
BRANCH   3   4
ATOM      4  C   UNL     1      -1.382  -4.025   3.841  1.00  0.00     0.116 C 
BRANCH   4   5
ATOM      5  N   UNL     1      -1.822  -2.856   3.116  1.00  0.00    -0.356 N 
ATOM      6  C   UNL     1      -1.292  -1.610   3.136  1.00  0.00     0.225 C 
ATOM      7  O   UNL     1      -2.053  -0.665   2.931  1.00  0.00    -0.275 OA
ATOM      8  H   UNL     1      -2.606  -2.981   2.533  1.00  0.00     0.163 HD
BRANCH   6   9
ATOM      9  C   UNL     1       0.207  -1.448   3.340  1.00  0.00     0.106 C 
ATOM     10  N   UNL     1       0.617   0.834   2.269  1.00  0.00    -0.334 N 
ATOM     11  C   UNL     1       0.178   1.458   3.446  1.00  0.00     0.223 C 
ATOM     12  C   UNL     1       0.872  -0.629   2.209  1.00  0.00     0.132 C 
ATOM     13  O   UNL     1       0.007   2.679   3.525  1.00  0.00    -0.275 OA
ATOM     14  C   UNL     1      -0.080   0.625   4.694  1.00  0.00     0.101 C 
ATOM     15  C   UNL     1       0.474  -0.785   4.678  1.00  0.00     0.026 C 
BRANCH  10  16
ATOM     16  C   UNL     1       1.282   1.730   1.296  1.00  0.00     0.126 C 
BRANCH  16  17
ATOM     17  C   UNL     1       0.621   2.036  -0.085  1.00  0.00    -0.021 C 
ATOM     18  C   UNL     1       1.168   1.112  -1.191  1.00  0.00     0.012 C 
ATOM     19  C   UNL     1       1.040   3.465  -0.513  1.00  0.00     0.012 C 
ATOM     20  C   UNL     1      -0.915   2.005  -0.044  1.00  0.00     0.012 C 
ENDBRANCH  16  17
ENDBRANCH  10  16
BRANCH  12  21
ATOM     21  C   UNL     1       0.666  -1.320   0.864  1.00  0.00     0.021 A 
ATOM     22  C   UNL     1      -0.598  -1.464   0.251  1.00  0.00     0.010 A 
ATOM     23  C   UNL     1       1.724  -1.901   0.175  1.00  0.00     0.171 A 
ATOM     24  C   UNL     1      -0.777  -2.151  -0.964  1.00  0.00     0.004 A 
ATOM     25  C   UNL     1       1.551  -2.550  -1.034  1.00  0.00     0.166 A 
ATOM     26  O   UNL     1       3.035  -1.881   0.548  1.00  0.00    -0.453 OA
ATOM     27  C   UNL     1       0.316  -2.698  -1.626  1.00  0.00     0.050 A 
ATOM     28  O   UNL     1       2.722  -2.988  -1.569  1.00  0.00    -0.454 OA
ATOM     29  C   UNL     1       3.659  -2.533  -0.577  1.00  0.00     0.468 C 
ENDBRANCH  12  21
ENDBRANCH   6   9
ENDBRANCH   4   5
ENDBRANCH   3   4
ENDBRANCH   2   3
ENDBRANCH   1   2
BRANCH   1  30
ATOM     30  C   UNL     1      -3.375  -6.960   3.890  1.00  0.00     0.021 C 
BRANCH  30  31
ATOM     31  C   UNL     1      -3.874  -7.498   5.223  1.00  0.00     0.116 C 
BRANCH  31  32
ATOM     32  N   UNL     1      -5.300  -7.769   5.196  1.00  0.00    -0.352 N 
ATOM     33  C   UNL     1      -5.959  -8.909   5.584  1.00  0.00     0.251 C 
ATOM     34  H   UNL     1      -5.868  -7.041   4.856  1.00  0.00     0.163 HD
ATOM     35  O   UNL     1      -7.141  -9.065   5.305  1.00  0.00    -0.269 OA
BRANCH  33  36
ATOM     36  C   UNL     1      -5.217  -9.951   6.326  1.00  0.00     0.039 A 
ATOM     37  C   UNL     1      -5.391 -11.289   5.969  1.00  0.00     0.014 A 
ATOM     38  C   UNL     1      -4.349  -9.603   7.365  1.00  0.00     0.014 A 
ATOM     39  C   UNL     1      -4.671 -12.277   6.641  1.00  0.00     0.010 A 
ATOM     40  C   UNL     1      -3.565 -10.579   7.968  1.00  0.00     0.010 A 
ATOM     41  C   UNL     1      -3.740 -11.929   7.634  1.00  0.00    -0.014 A 
BRANCH  41  42
ATOM     42  C   UNL     1      -2.980 -12.968   8.373  1.00  0.00     0.031 A 
ATOM     43  C   UNL     1      -3.174 -13.124   9.858  1.00  0.00     0.074 A 
ATOM     44  C   UNL     1      -2.088 -13.739   7.722  1.00  0.00     0.049 A 
ATOM     45  N   UNL     1      -2.587 -13.950  10.685  1.00  0.00    -0.248 NA
ATOM     46  C   UNL     1      -4.129 -12.208  10.503  1.00  0.00     0.031 C 
ATOM     47  C   UNL     1      -1.778 -13.655   6.293  1.00  0.00     0.029 A 
ATOM     48  N   UNL     1      -1.276 -14.745   8.180  1.00  0.00    -0.354 N 
ATOM     49  C   UNL     1      -3.088 -13.642  11.945  1.00  0.00     0.074 A 
ATOM     50  C   UNL     1      -3.971 -12.509  11.782  1.00  0.00     0.031 C 
ATOM     51  C   UNL     1      -0.866 -14.591   5.987  1.00  0.00     0.029 A 
ATOM     52  C   UNL     1      -0.498 -15.314   7.201  1.00  0.00     0.049 A 
ATOM     53  H   UNL     1      -1.252 -15.032   9.122  1.00  0.00     0.167 HD
ATOM     54  C   UNL     1      -2.857 -14.260  13.128  1.00  0.00     0.031 A 
ATOM     55  C   UNL     1       0.411 -16.306   7.270  1.00  0.00     0.031 A 
ATOM     56  C   UNL     1      -1.976 -15.387  13.282  1.00  0.00     0.049 A 
ATOM     57  C   UNL     1       0.657 -16.982   8.591  1.00  0.00     0.074 A 
ATOM     58  C   UNL     1      -1.705 -16.119  14.425  1.00  0.00     0.029 A 
ATOM     59  N   UNL     1      -1.218 -15.944  12.262  1.00  0.00    -0.354 N 
ATOM     60  N   UNL     1       0.127 -16.718   9.763  1.00  0.00    -0.248 NA
ATOM     61  C   UNL     1       1.606 -18.102   8.595  1.00  0.00     0.031 C 
ATOM     62  C   UNL     1      -0.738 -17.079  14.109  1.00  0.00     0.029 A 
ATOM     63  C   UNL     1      -0.463 -16.996  12.753  1.00  0.00     0.049 A 
ATOM     64  H   UNL     1      -1.217 -15.636  11.327  1.00  0.00     0.167 HD
ATOM     65  C   UNL     1       0.652 -17.664  10.637  1.00  0.00     0.074 A 
ATOM     66  C   UNL     1       1.533 -18.509   9.855  1.00  0.00     0.031 C 
ATOM     67  C   UNL     1       0.418 -17.824  11.964  1.00  0.00     0.031 A 
BRANCH  54  68
ATOM     68  C   UNL     1      -3.556 -13.706  14.344  1.00  0.00    -0.014 A 
ATOM     69  C   UNL     1      -4.957 -13.764  14.474  1.00  0.00     0.010 A 
ATOM     70  C   UNL     1      -2.803 -13.108  15.370  1.00  0.00     0.010 A 
ATOM     71  C   UNL     1      -5.594 -13.173  15.569  1.00  0.00     0.020 A 
ATOM     72  C   UNL     1      -3.433 -12.550  16.486  1.00  0.00     0.020 A 
ATOM     73  C   UNL     1      -4.827 -12.562  16.564  1.00  0.00     0.054 A 
BRANCH  73  74
ATOM     74  S   UNL     1      -5.680 -11.788  17.965  1.00  0.00     0.124 S 
ATOM     75  O   UNL     1      -6.257 -10.598  17.344  1.00  0.00    -0.237 OA
ATOM     76  O   UNL     1      -6.638 -12.815  18.364  1.00  0.00    -0.237 OA
ATOM     77  O   UNL     1      -4.608 -11.531  18.924  1.00  0.00    -0.744 OA
ENDBRANCH  73  74
ENDBRANCH  54  68
BRANCH  55  78
ATOM     78  C   UNL     1       1.126 -16.731   6.036  1.00  0.00    -0.014 A 
ATOM     79  C   UNL     1       0.831 -17.962   5.423  1.00  0.00     0.010 A 
ATOM     80  C   UNL     1       2.072 -15.879   5.437  1.00  0.00     0.010 A 
ATOM     81  C   UNL     1       1.469 -18.332   4.235  1.00  0.00     0.020 A 
ATOM     82  C   UNL     1       2.690 -16.233   4.234  1.00  0.00     0.020 A 
ATOM     83  C   UNL     1       2.388 -17.460   3.643  1.00  0.00     0.054 A 
BRANCH  83  84
ATOM     84  S   UNL     1       3.137 -17.924   2.057  1.00  0.00     0.124 S 
ATOM     85  O   UNL     1       4.039 -19.002   2.450  1.00  0.00    -0.237 OA
ATOM     86  O   UNL     1       1.975 -18.325   1.267  1.00  0.00    -0.237 OA
ATOM     87  O   UNL     1       3.788 -16.694   1.613  1.00  0.00    -0.744 OA
ENDBRANCH  83  84
ENDBRANCH  55  78
BRANCH  67  88
ATOM     88  C   UNL     1       1.085 -18.988  12.651  1.00  0.00    -0.014 A 
ATOM     89  C   UNL     1       2.473 -19.020  12.872  1.00  0.00     0.010 A 
ATOM     90  C   UNL     1       0.293 -20.052  13.122  1.00  0.00     0.010 A 
ATOM     91  C   UNL     1       3.061 -20.116  13.510  1.00  0.00     0.020 A 
ATOM     92  C   UNL     1       0.872 -21.133  13.791  1.00  0.00     0.020 A 
ATOM     93  C   UNL     1       2.257 -21.167  13.964  1.00  0.00     0.054 A 
BRANCH  93  94
ATOM     94  S   UNL     1       3.041 -22.566  14.809  1.00  0.00     0.124 S 
ATOM     95  O   UNL     1       3.712 -23.250  13.707  1.00  0.00    -0.237 OA
ATOM     96  O   UNL     1       3.922 -21.907  15.770  1.00  0.00    -0.237 OA
ATOM     97  O   UNL     1       1.916 -23.290  15.399  1.00  0.00    -0.744 OA
ENDBRANCH  93  94
ENDBRANCH  67  88
ENDBRANCH  41  42
ENDBRANCH  33  36
ENDBRANCH  31  32
ENDBRANCH  30  31
ENDBRANCH   1  30
TORSDOF 19
