REMARK SMILES COc1cc(C)cc2c1[C@@H](C)[C@@H](CC(=O)N[C@@H](Cc1c[nH]c3ccccc13)C(=O)NCCCCCCNC(=O)c1ccc(-c3c4nc(c(-c5ccc(S(=O)(=O)[O-])cc5)c5ccc([nH]5)c(-c5ccc(S(=O)(=O)[O-])cc5)c5nc(c(-c6ccc(S(=O)(=O)[O-])cc6)c6ccc3[nH]6)C=C5)C=C4)cc1)C(=O)O2
REMARK SMILES IDX 33 1 32 2 31 3 30 4 28 5 29 6 17 8 16 9 14 10 15 11 13 13
REMARK SMILES IDX 12 14 3 15 4 16 9 17 5 18 8 19 10 20 6 21 7 22 102 23 11 24
REMARK SMILES IDX 100 25 101 26 2 27 1 28 18 29 19 30 20 31 27 32 21 33 22 34
REMARK SMILES IDX 26 35 23 37 25 38 24 39 34 40 35 41 36 42 37 43 38 44 39 46
REMARK SMILES IDX 40 47 41 48 99 49 42 50 98 51 43 52 44 53 45 54 92 55 46 56
REMARK SMILES IDX 97 57 91 58 93 59 47 60 96 61 90 62 89 63 48 65 78 66 59 67
REMARK SMILES IDX 77 68 60 69 63 70 76 71 94 72 61 73 62 74 75 76 95 77 64 78
REMARK SMILES IDX 49 79 50 80 58 81 51 82 57 83 52 84 53 85 54 86 55 87 56 88
REMARK SMILES IDX 79 89 80 90 88 91 81 92 87 93 82 94 83 95 84 96 85 97 86 98
REMARK SMILES IDX 65 99 66 100 74 101 67 102 73 103 68 104 69 105 70 106
REMARK SMILES IDX 71 107 72 108
REMARK H PARENT 30 7 16 12 21 36 37 45 93 64 63 75
REMARK Flexibility Score: inf
ROOT
ATOM      1  C   UNL     1      -3.102   3.513 -11.246  1.00  0.00     0.002 C 
ENDROOT
BRANCH   1   2
ATOM      2  C   UNL     1      -3.609   2.629 -10.103  1.00  0.00     0.021 C 
BRANCH   2   3
ATOM      3  C   UNL     1      -2.803   1.341  -9.985  1.00  0.00     0.116 C 
BRANCH   3   4
ATOM      4  N   UNL     1      -1.611   1.583  -9.221  1.00  0.00    -0.354 N 
ATOM      5  C   UNL     1      -1.480   1.669  -7.877  1.00  0.00     0.242 C 
ATOM      6  O   UNL     1      -0.449   2.211  -7.457  1.00  0.00    -0.273 OA
ATOM      7  H   UNL     1      -0.783   1.701  -9.741  1.00  0.00     0.163 HD
BRANCH   5   8
ATOM      8  C   UNL     1      -2.520   1.111  -6.878  1.00  0.00     0.175 C 
BRANCH   8   9
ATOM      9  N   UNL     1      -3.076   2.042  -5.917  1.00  0.00    -0.344 N 
ATOM     10  C   UNL     1      -3.189   1.813  -4.572  1.00  0.00     0.221 C 
ATOM     11  O   UNL     1      -4.119   2.320  -3.948  1.00  0.00    -0.275 OA
ATOM     12  H   UNL     1      -3.397   2.909  -6.257  1.00  0.00     0.164 HD
BRANCH  10  13
ATOM     13  C   UNL     1      -2.067   1.067  -3.860  1.00  0.00     0.116 C 
BRANCH  13  14
ATOM     14  C   UNL     1      -2.208  -0.458  -3.613  1.00  0.00     0.116 C 
ATOM     15  C   UNL     1       1.193  -0.526  -1.943  1.00  0.00     0.126 A 
ATOM     16  C   UNL     1       2.470  -0.166  -2.411  1.00  0.00     0.050 A 
ATOM     17  C   UNL     1       0.142  -0.732  -2.837  1.00  0.00     0.041 A 
ATOM     18  C   UNL     1       2.722  -0.001  -3.781  1.00  0.00    -0.044 A 
ATOM     19  C   UNL     1       0.463  -0.699  -4.205  1.00  0.00     0.138 A 
ATOM     20  C   UNL     1      -1.315  -0.978  -2.453  1.00  0.00     0.038 C 
ATOM     21  C   UNL     1       4.075   0.424  -4.267  1.00  0.00     0.044 C 
ATOM     22  C   UNL     1       1.711  -0.310  -4.686  1.00  0.00     0.051 A 
ATOM     23  O   UNL     1      -0.460  -1.103  -5.183  1.00  0.00    -0.426 OA
ATOM     24  C   UNL     1      -1.802  -0.392  -1.124  1.00  0.00     0.014 C 
ATOM     25  C   UNL     1      -1.748  -1.343  -4.751  1.00  0.00     0.315 C 
ATOM     26  O   UNL     1      -2.440  -2.215  -5.261  1.00  0.00    -0.251 OA
BRANCH  15  27
ATOM     27  O   UNL     1       0.981  -0.808  -0.622  1.00  0.00    -0.496 OA
ATOM     28  C   UNL     1       1.365   0.246   0.252  1.00  0.00     0.278 C 
ENDBRANCH  15  27
ENDBRANCH  13  14
ENDBRANCH  10  13
ENDBRANCH   8   9
BRANCH   8  29
ATOM     29  C   UNL     1      -3.453  -0.052  -7.182  1.00  0.00     0.072 C 
BRANCH  29  30
ATOM     30  C   UNL     1      -4.868  -0.025  -7.693  1.00  0.00    -0.020 A 
ATOM     31  C   UNL     1      -5.342  -1.176  -8.312  1.00  0.00     0.087 A 
ATOM     32  C   UNL     1      -6.005   0.862  -7.591  1.00  0.00     0.003 A 
ATOM     33  N   UNL     1      -6.698  -1.148  -8.292  1.00  0.00    -0.361 N 
ATOM     34  C   UNL     1      -7.123   0.121  -8.007  1.00  0.00     0.046 A 
ATOM     35  C   UNL     1      -6.265   2.186  -7.167  1.00  0.00     0.010 A 
ATOM     36  H   UNL     1      -7.285  -1.920  -8.457  1.00  0.00     0.166 HD
ATOM     37  C   UNL     1      -8.428   0.624  -8.055  1.00  0.00     0.026 A 
ATOM     38  C   UNL     1      -7.564   2.721  -7.248  1.00  0.00     0.001 A 
ATOM     39  C   UNL     1      -8.629   1.951  -7.697  1.00  0.00     0.002 A 
ENDBRANCH  29  30
ENDBRANCH   8  29
ENDBRANCH   5   8
ENDBRANCH   3   4
ENDBRANCH   2   3
ENDBRANCH   1   2
BRANCH   1  40
ATOM     40  C   UNL     1      -3.138   2.832 -12.620  1.00  0.00     0.002 C 
BRANCH  40  41
ATOM     41  C   UNL     1      -4.488   2.202 -12.969  1.00  0.00     0.021 C 
BRANCH  41  42
ATOM     42  C   UNL     1      -5.635   3.203 -12.969  1.00  0.00     0.116 C 
BRANCH  42  43
ATOM     43  N   UNL     1      -5.416   4.256 -13.950  1.00  0.00    -0.352 N 
ATOM     44  C   UNL     1      -6.186   4.598 -15.036  1.00  0.00     0.251 C 
ATOM     45  H   UNL     1      -4.605   4.798 -13.817  1.00  0.00     0.163 HD
ATOM     46  O   UNL     1      -5.745   5.324 -15.910  1.00  0.00    -0.269 OA
BRANCH  44  47
ATOM     47  C   UNL     1      -7.554   4.048 -15.122  1.00  0.00     0.039 A 
ATOM     48  C   UNL     1      -8.372   4.047 -13.990  1.00  0.00     0.014 A 
ATOM     49  C   UNL     1      -7.995   3.485 -16.320  1.00  0.00     0.014 A 
ATOM     50  C   UNL     1      -9.558   3.330 -14.006  1.00  0.00     0.010 A 
ATOM     51  C   UNL     1      -9.238   2.851 -16.360  1.00  0.00     0.010 A 
ATOM     52  C   UNL     1     -10.008   2.728 -15.192  1.00  0.00    -0.014 A 
BRANCH  52  53
ATOM     53  C   UNL     1     -11.287   1.975 -15.184  1.00  0.00     0.031 A 
ATOM     54  C   UNL     1     -11.308   0.496 -15.464  1.00  0.00     0.074 A 
ATOM     55  C   UNL     1     -12.423   2.624 -14.861  1.00  0.00     0.049 A 
ATOM     56  N   UNL     1     -12.333  -0.316 -15.491  1.00  0.00    -0.248 NA
ATOM     57  C   UNL     1     -10.020  -0.159 -15.751  1.00  0.00     0.031 C 
ATOM     58  C   UNL     1     -12.510   4.049 -14.531  1.00  0.00     0.029 A 
ATOM     59  N   UNL     1     -13.711   2.174 -14.722  1.00  0.00    -0.354 N 
ATOM     60  C   UNL     1     -11.819  -1.569 -15.808  1.00  0.00     0.074 A 
ATOM     61  C   UNL     1     -10.396  -1.406 -16.003  1.00  0.00     0.031 C 
ATOM     62  C   UNL     1     -13.764   4.339 -14.160  1.00  0.00     0.029 A 
ATOM     63  C   UNL     1     -14.592   3.147 -14.310  1.00  0.00     0.049 A 
ATOM     64  H   UNL     1     -13.980   1.244 -14.900  1.00  0.00     0.167 HD
ATOM     65  C   UNL     1     -12.476  -2.748 -15.905  1.00  0.00     0.031 A 
ATOM     66  C   UNL     1     -15.921   3.096 -14.089  1.00  0.00     0.031 A 
ATOM     67  C   UNL     1     -13.893  -2.897 -15.690  1.00  0.00     0.049 A 
ATOM     68  C   UNL     1     -16.636   1.790 -14.280  1.00  0.00     0.074 A 
ATOM     69  C   UNL     1     -14.650  -4.053 -15.760  1.00  0.00     0.029 A 
ATOM     70  N   UNL     1     -14.763  -1.870 -15.354  1.00  0.00    -0.354 N 
ATOM     71  N   UNL     1     -16.133   0.617 -14.582  1.00  0.00    -0.248 NA
ATOM     72  C   UNL     1     -18.094   1.796 -14.103  1.00  0.00     0.031 C 
ATOM     73  C   UNL     1     -15.985  -3.714 -15.541  1.00  0.00     0.029 A 
ATOM     74  C   UNL     1     -16.053  -2.361 -15.245  1.00  0.00     0.049 A 
ATOM     75  H   UNL     1     -14.502  -0.931 -15.214  1.00  0.00     0.167 HD
ATOM     76  C   UNL     1     -17.211  -0.260 -14.614  1.00  0.00     0.074 A 
ATOM     77  C   UNL     1     -18.389   0.513 -14.277  1.00  0.00     0.031 C 
ATOM     78  C   UNL     1     -17.220  -1.584 -14.902  1.00  0.00     0.031 A 
BRANCH  65  79
ATOM     79  C   UNL     1     -11.689  -3.989 -16.247  1.00  0.00    -0.014 A 
ATOM     80  C   UNL     1     -11.944  -4.670 -17.453  1.00  0.00     0.010 A 
ATOM     81  C   UNL     1     -10.805  -4.562 -15.316  1.00  0.00     0.010 A 
ATOM     82  C   UNL     1     -11.370  -5.920 -17.701  1.00  0.00     0.020 A 
ATOM     83  C   UNL     1     -10.202  -5.798 -15.574  1.00  0.00     0.020 A 
ATOM     84  C   UNL     1     -10.512  -6.482 -16.752  1.00  0.00     0.054 A 
BRANCH  84  85
ATOM     85  S   UNL     1      -9.822  -8.130 -17.065  1.00  0.00     0.124 S 
ATOM     86  O   UNL     1     -10.984  -8.992 -16.878  1.00  0.00    -0.237 OA
ATOM     87  O   UNL     1      -9.333  -8.014 -18.437  1.00  0.00    -0.237 OA
ATOM     88  O   UNL     1      -8.777  -8.261 -16.050  1.00  0.00    -0.744 OA
ENDBRANCH  84  85
ENDBRANCH  65  79
BRANCH  66  89
ATOM     89  C   UNL     1     -16.632   4.326 -13.638  1.00  0.00    -0.014 A 
ATOM     90  C   UNL     1     -16.695   5.462 -14.469  1.00  0.00     0.010 A 
ATOM     91  C   UNL     1     -17.173   4.400 -12.343  1.00  0.00     0.010 A 
ATOM     92  C   UNL     1     -17.219   6.665 -13.991  1.00  0.00     0.020 A 
ATOM     93  C   UNL     1     -17.735   5.592 -11.874  1.00  0.00     0.020 A 
ATOM     94  C   UNL     1     -17.724   6.725 -12.690  1.00  0.00     0.054 A 
BRANCH  94  95
ATOM     95  S   UNL     1     -18.346   8.313 -12.073  1.00  0.00     0.124 S 
ATOM     96  O   UNL     1     -17.107   9.058 -11.863  1.00  0.00    -0.237 OA
ATOM     97  O   UNL     1     -19.181   8.778 -13.177  1.00  0.00    -0.237 OA
ATOM     98  O   UNL     1     -19.069   7.949 -10.858  1.00  0.00    -0.744 OA
ENDBRANCH  94  95
ENDBRANCH  66  89
BRANCH  78  99
ATOM     99  C   UNL     1     -18.539  -2.312 -14.869  1.00  0.00    -0.014 A 
ATOM    100  C   UNL     1     -18.750  -3.330 -13.919  1.00  0.00     0.010 A 
ATOM    101  C   UNL     1     -19.506  -2.096 -15.866  1.00  0.00     0.010 A 
ATOM    102  C   UNL     1     -19.876  -4.152 -13.998  1.00  0.00     0.020 A 
ATOM    103  C   UNL     1     -20.653  -2.892 -15.926  1.00  0.00     0.020 A 
ATOM    104  C   UNL     1     -20.814  -3.935 -15.010  1.00  0.00     0.054 A 
BRANCH 104 105
ATOM    105  S   UNL     1     -22.239  -5.051 -15.130  1.00  0.00     0.124 S 
ATOM    106  O   UNL     1     -21.631  -6.270 -15.655  1.00  0.00    -0.237 OA
ATOM    107  O   UNL     1     -22.706  -5.123 -13.748  1.00  0.00    -0.237 OA
ATOM    108  O   UNL     1     -23.140  -4.358 -16.049  1.00  0.00    -0.744 OA
ENDBRANCH 104 105
ENDBRANCH  78  99
ENDBRANCH  52  53
ENDBRANCH  44  47
ENDBRANCH  42  43
ENDBRANCH  41  42
ENDBRANCH  40  41
ENDBRANCH   1  40
TORSDOF 22
