REMARK SMILES NS(=O)(=O)c1ccc(-n2nc(C(=O)NCCCCCCNC(=O)c3ccc(-c4c5nc(c(-c6ccc(S(=O)(=O)[O-])cc6)c6ccc([nH]6)c(-c6ccc(S(=O)(=O)[O-])cc6)c6nc(c(-c7ccc(S(=O)(=O)[O-])cc7)c7ccc4[nH]7)C=C6)C=C5)cc3)cc2-c2ccc(Cl)s2)cc1
REMARK SMILES IDX 17 1 16 2 15 3 14 4 12 5 13 6 11 8 9 9 10 10 85 11 84 12
REMARK SMILES IDX 8 13 5 14 6 15 93 16 7 17 92 18 2 19 3 20 4 21 1 22 86 25
REMARK SMILES IDX 87 26 91 27 88 28 89 29 90 30 18 31 19 32 20 33 21 34 22 35
REMARK SMILES IDX 23 37 24 38 25 39 83 40 26 41 82 42 27 43 28 44 29 45 76 46
REMARK SMILES IDX 30 47 81 48 75 49 77 50 31 51 80 52 74 53 73 54 32 56 62 57
REMARK SMILES IDX 43 58 61 59 44 60 47 61 60 62 78 63 45 64 46 65 59 67 79 68
REMARK SMILES IDX 48 69 33 70 34 71 42 72 35 73 41 74 36 75 37 76 38 77 39 78
REMARK SMILES IDX 40 79 63 80 64 81 72 82 65 83 71 84 66 85 67 86 68 87 69 88
REMARK SMILES IDX 70 89 49 90 50 91 58 92 51 93 57 94 52 95 53 96 54 97 55 98
REMARK SMILES IDX 56 99
REMARK H PARENT 14 7 1 23 1 24 21 36 77 55 47 66
REMARK Flexibility Score: inf
ROOT
ATOM      1  C   UNL     1       4.518   0.277 -13.375  1.00  0.00     0.002 C 
ENDROOT
BRANCH   1   2
ATOM      2  C   UNL     1       3.561  -0.186 -12.270  1.00  0.00     0.021 C 
BRANCH   2   3
ATOM      3  C   UNL     1       4.237  -1.080 -11.232  1.00  0.00     0.116 C 
BRANCH   3   4
ATOM      4  N   UNL     1       4.941  -0.301 -10.239  1.00  0.00    -0.351 N 
ATOM      5  C   UNL     1       4.728  -0.045  -8.903  1.00  0.00     0.271 C 
ATOM      6  O   UNL     1       5.588   0.660  -8.365  1.00  0.00    -0.267 OA
ATOM      7  H   UNL     1       5.746   0.141 -10.594  1.00  0.00     0.163 HD
BRANCH   5   8
ATOM      8  C   UNL     1       3.588  -0.615  -8.148  1.00  0.00     0.151 A 
ATOM      9  N   UNL     1       2.441  -1.141  -6.400  1.00  0.00    -0.231 N 
ATOM     10  N   UNL     1       3.489  -0.397  -6.817  1.00  0.00    -0.162 NA
ATOM     11  C   UNL     1       1.804  -1.775  -7.442  1.00  0.00     0.085 A 
ATOM     12  C   UNL     1       2.487  -1.397  -8.572  1.00  0.00     0.066 A 
BRANCH   9  13
ATOM     13  C   UNL     1       2.108  -1.218  -5.031  1.00  0.00     0.065 A 
ATOM     14  C   UNL     1       1.114  -1.351  -2.453  1.00  0.00     0.082 A 
ATOM     15  C   UNL     1       1.377  -2.535  -3.148  1.00  0.00     0.024 A 
ATOM     16  C   UNL     1       1.384  -0.101  -3.024  1.00  0.00     0.024 A 
ATOM     17  C   UNL     1       1.861  -2.468  -4.449  1.00  0.00     0.030 A 
ATOM     18  C   UNL     1       1.915  -0.033  -4.313  1.00  0.00     0.030 A 
BRANCH  14  19
ATOM     19  S   UNL     1       0.477  -1.468  -0.811  1.00  0.00     0.238 S 
ATOM     20  O   UNL     1       1.073  -2.631  -0.169  1.00  0.00    -0.207 OA
ATOM     21  O   UNL     1      -0.936  -1.238  -0.833  1.00  0.00    -0.207 OA
BRANCH  19  22
ATOM     22  N   UNL     1       1.168  -0.155  -0.026  1.00  0.00    -0.225 NA
ATOM     23  H   UNL     1       0.855  -0.136   0.945  1.00  0.00     0.137 HD
ATOM     24  H   UNL     1       0.884   0.708  -0.491  1.00  0.00     0.137 HD
ENDBRANCH  19  22
ENDBRANCH  14  19
ENDBRANCH   9  13
BRANCH  11  25
ATOM     25  C   UNL     1       0.609  -2.560  -7.386  1.00  0.00     0.054 A 
ATOM     26  C   UNL     1       0.457  -3.855  -7.845  1.00  0.00     0.024 A 
ATOM     27  S   UNL     1      -0.868  -1.915  -6.805  1.00  0.00    -0.122 S 
ATOM     28  C   UNL     1      -0.886  -4.317  -7.709  1.00  0.00     0.033 A 
ATOM     29  C   UNL     1      -1.687  -3.349  -7.159  1.00  0.00     0.094 A 
ATOM     30  Cl  UNL     1      -3.366  -3.478  -6.829  1.00  0.00    -0.072 Cl
ENDBRANCH  11  25
ENDBRANCH   5   8
ENDBRANCH   3   4
ENDBRANCH   2   3
ENDBRANCH   1   2
BRANCH   1  31
ATOM     31  C   UNL     1       5.295  -0.844 -14.090  1.00  0.00     0.002 C 
BRANCH  31  32
ATOM     32  C   UNL     1       4.462  -2.027 -14.611  1.00  0.00     0.021 C 
BRANCH  32  33
ATOM     33  C   UNL     1       3.561  -1.653 -15.774  1.00  0.00     0.116 C 
BRANCH  33  34
ATOM     34  N   UNL     1       4.329  -1.284 -16.969  1.00  0.00    -0.352 N 
ATOM     35  C   UNL     1       3.860  -0.851 -18.196  1.00  0.00     0.251 C 
ATOM     36  H   UNL     1       5.308  -1.355 -16.886  1.00  0.00     0.163 HD
ATOM     37  O   UNL     1       4.560  -0.918 -19.199  1.00  0.00    -0.269 OA
BRANCH  35  38
ATOM     38  C   UNL     1       2.504  -0.286 -18.255  1.00  0.00     0.039 A 
ATOM     39  C   UNL     1       1.624  -0.517 -19.317  1.00  0.00     0.014 A 
ATOM     40  C   UNL     1       2.113   0.472 -17.160  1.00  0.00     0.014 A 
ATOM     41  C   UNL     1       0.326  -0.014 -19.224  1.00  0.00     0.010 A 
ATOM     42  C   UNL     1       0.792   0.723 -16.956  1.00  0.00     0.010 A 
ATOM     43  C   UNL     1      -0.073   0.603 -18.031  1.00  0.00    -0.014 A 
BRANCH  43  44
ATOM     44  C   UNL     1      -1.409   1.131 -17.814  1.00  0.00     0.031 A 
ATOM     45  C   UNL     1      -2.485   0.109 -17.818  1.00  0.00     0.074 A 
ATOM     46  C   UNL     1      -1.585   2.386 -17.337  1.00  0.00     0.049 A 
ATOM     47  N   UNL     1      -3.428  -0.043 -18.685  1.00  0.00    -0.248 NA
ATOM     48  C   UNL     1      -2.417  -0.975 -16.821  1.00  0.00     0.031 C 
ATOM     49  C   UNL     1      -0.564   3.366 -16.926  1.00  0.00     0.029 A 
ATOM     50  N   UNL     1      -2.732   3.003 -16.970  1.00  0.00    -0.354 N 
ATOM     51  C   UNL     1      -4.206  -1.101 -18.224  1.00  0.00     0.074 A 
ATOM     52  C   UNL     1      -3.425  -1.758 -17.209  1.00  0.00     0.031 C 
ATOM     53  C   UNL     1      -1.130   4.312 -16.142  1.00  0.00     0.029 A 
ATOM     54  C   UNL     1      -2.566   4.114 -16.150  1.00  0.00     0.049 A 
ATOM     55  H   UNL     1      -3.619   2.689 -17.263  1.00  0.00     0.167 HD
ATOM     56  C   UNL     1      -5.530  -1.203 -18.535  1.00  0.00     0.031 A 
ATOM     57  C   UNL     1      -3.546   4.790 -15.496  1.00  0.00     0.031 A 
ATOM     58  C   UNL     1      -5.900  -0.260 -19.560  1.00  0.00     0.049 A 
ATOM     59  C   UNL     1      -4.824   4.425 -16.164  1.00  0.00     0.074 A 
ATOM     60  C   UNL     1      -5.522  -0.056 -20.871  1.00  0.00     0.029 A 
ATOM     61  N   UNL     1      -6.468   0.921 -19.136  1.00  0.00    -0.354 N 
ATOM     62  N   UNL     1      -5.089   4.719 -17.409  1.00  0.00    -0.248 NA
ATOM     63  C   UNL     1      -5.575   3.306 -15.616  1.00  0.00     0.031 C 
ATOM     64  C   UNL     1      -5.427   1.360 -21.003  1.00  0.00     0.029 A 
ATOM     65  C   UNL     1      -5.839   1.943 -19.801  1.00  0.00     0.049 A 
ATOM     66  H   UNL     1      -7.193   1.015 -18.477  1.00  0.00     0.167 HD
ATOM     67  C   UNL     1      -5.705   3.585 -17.923  1.00  0.00     0.074 A 
ATOM     68  C   UNL     1      -6.050   2.780 -16.750  1.00  0.00     0.031 C 
ATOM     69  C   UNL     1      -5.617   3.265 -19.249  1.00  0.00     0.031 A 
BRANCH  56  70
ATOM     70  C   UNL     1      -6.567  -1.857 -17.657  1.00  0.00    -0.014 A 
ATOM     71  C   UNL     1      -7.894  -1.942 -18.130  1.00  0.00     0.010 A 
ATOM     72  C   UNL     1      -6.355  -2.151 -16.295  1.00  0.00     0.010 A 
ATOM     73  C   UNL     1      -8.958  -2.232 -17.266  1.00  0.00     0.020 A 
ATOM     74  C   UNL     1      -7.403  -2.483 -15.435  1.00  0.00     0.020 A 
ATOM     75  C   UNL     1      -8.704  -2.486 -15.919  1.00  0.00     0.054 A 
BRANCH  75  76
ATOM     76  S   UNL     1     -10.093  -2.750 -14.791  1.00  0.00     0.124 S 
ATOM     77  O   UNL     1     -10.749  -1.446 -14.812  1.00  0.00    -0.237 OA
ATOM     78  O   UNL     1     -10.818  -3.837 -15.443  1.00  0.00    -0.237 OA
ATOM     79  O   UNL     1      -9.446  -3.107 -13.530  1.00  0.00    -0.744 OA
ENDBRANCH  75  76
ENDBRANCH  56  70
BRANCH  57  80
ATOM     80  C   UNL     1      -3.486   5.415 -14.147  1.00  0.00    -0.014 A 
ATOM     81  C   UNL     1      -4.472   6.321 -13.711  1.00  0.00     0.010 A 
ATOM     82  C   UNL     1      -2.602   4.901 -13.174  1.00  0.00     0.010 A 
ATOM     83  C   UNL     1      -4.604   6.655 -12.348  1.00  0.00     0.020 A 
ATOM     84  C   UNL     1      -2.726   5.230 -11.817  1.00  0.00     0.020 A 
ATOM     85  C   UNL     1      -3.741   6.089 -11.406  1.00  0.00     0.054 A 
BRANCH  85  86
ATOM     86  S   UNL     1      -4.027   6.381  -9.632  1.00  0.00     0.124 S 
ATOM     87  O   UNL     1      -3.662   7.787  -9.485  1.00  0.00    -0.237 OA
ATOM     88  O   UNL     1      -5.448   6.079  -9.484  1.00  0.00    -0.237 OA
ATOM     89  O   UNL     1      -3.125   5.435  -8.978  1.00  0.00    -0.744 OA
ENDBRANCH  85  86
ENDBRANCH  57  80
BRANCH  69  90
ATOM     90  C   UNL     1      -5.040   4.283 -20.210  1.00  0.00    -0.014 A 
ATOM     91  C   UNL     1      -3.695   4.704 -20.198  1.00  0.00     0.010 A 
ATOM     92  C   UNL     1      -5.848   4.656 -21.297  1.00  0.00     0.010 A 
ATOM     93  C   UNL     1      -3.177   5.479 -21.251  1.00  0.00     0.020 A 
ATOM     94  C   UNL     1      -5.335   5.412 -22.354  1.00  0.00     0.020 A 
ATOM     95  C   UNL     1      -4.003   5.822 -22.327  1.00  0.00     0.054 A 
BRANCH  95  96
ATOM     96  S   UNL     1      -3.318   6.752 -23.729  1.00  0.00     0.124 S 
ATOM     97  O   UNL     1      -3.086   8.073 -23.150  1.00  0.00    -0.237 OA
ATOM     98  O   UNL     1      -2.116   5.994 -24.068  1.00  0.00    -0.237 OA
ATOM     99  O   UNL     1      -4.378   6.696 -24.735  1.00  0.00    -0.744 OA
ENDBRANCH  95  96
ENDBRANCH  69  90
ENDBRANCH  43  44
ENDBRANCH  35  38
ENDBRANCH  33  34
ENDBRANCH  32  33
ENDBRANCH  31  32
ENDBRANCH   1  31
TORSDOF 20
