REMARK SMILES CCCNC(=O)CN(C)C(=O)C[N@H+]1CCCC[C@H]1C(=O)NCCCCCCNC(=O)c1ccc(-c2c3nc(c(-c4ccc(S(=O)(=O)[O-])cc4)c4ccc([nH]4)c(-c4ccc(S(=O)(=O)[O-])cc4)c4nc(c(-c5ccc(S(=O)(=O)[O-])cc5)c5ccc2[nH]5)C=C4)C=C3)cc1
REMARK SMILES IDX 22 1 21 2 19 3 20 4 18 6 13 7 14 8 15 10 17 11 16 12 12 13
REMARK SMILES IDX 10 14 11 15 8 16 9 17 7 18 5 19 4 20 6 22 3 23 2 24 1 25
REMARK SMILES IDX 23 26 24 27 25 28 26 29 27 30 28 31 29 32 30 34 31 35 32 36
REMARK SMILES IDX 90 37 33 38 89 39 34 40 35 41 36 42 83 43 37 44 88 45 82 46
REMARK SMILES IDX 84 47 38 48 87 49 81 50 80 51 39 53 69 54 50 55 68 56 51 57
REMARK SMILES IDX 54 58 67 59 85 60 52 61 53 62 66 64 86 65 55 66 40 67 41 68
REMARK SMILES IDX 49 69 42 70 48 71 43 72 44 73 45 74 46 75 47 76 70 77 71 78
REMARK SMILES IDX 79 79 72 80 78 81 73 82 74 83 75 84 76 85 77 86 56 87 57 88
REMARK SMILES IDX 65 89 58 90 64 91 59 92 60 93 61 94 62 95 63 96
REMARK H PARENT 21 5 13 9 4 21 28 33 84 52 54 63
REMARK Flexibility Score: inf
ROOT
ATOM      1  C   UNL     1      -5.109   1.762  -1.577  1.00  0.00     0.116 C 
ENDROOT
BRANCH   1   2
ATOM      2  N   UNL     1      -5.481   0.455  -2.072  1.00  0.00    -0.351 N 
ATOM      3  C   UNL     1      -4.715  -0.619  -2.402  1.00  0.00     0.278 C 
ATOM      4  O   UNL     1      -5.300  -1.526  -3.002  1.00  0.00    -0.268 OA
ATOM      5  H   UNL     1      -6.449   0.319  -2.188  1.00  0.00     0.163 HD
BRANCH   3   6
ATOM      6  C   UNL     1      -3.219  -0.703  -1.954  1.00  0.00     0.274 C 
ATOM      7  N   UNL     1      -2.624  -2.058  -2.182  1.00  0.00    -0.317 N 
ATOM      8  C   UNL     1      -2.485  -2.372  -3.609  1.00  0.00     0.263 C 
ATOM      9  H   UNL     1      -1.678  -2.026  -1.802  1.00  0.00     0.349 HD
ATOM     10  C   UNL     1      -1.569  -1.359  -4.293  1.00  0.00     0.062 C 
ATOM     11  C   UNL     1      -2.305   0.341  -2.622  1.00  0.00     0.076 C 
ATOM     12  C   UNL     1      -2.078   0.060  -4.101  1.00  0.00     0.012 C 
BRANCH   7  13
ATOM     13  C   UNL     1      -3.331  -3.118  -1.433  1.00  0.00     0.364 C 
BRANCH  13  14
ATOM     14  C   UNL     1      -2.555  -3.492  -0.159  1.00  0.00     0.277 C 
ATOM     15  O   UNL     1      -3.012  -3.198   0.949  1.00  0.00    -0.268 OA
BRANCH  14  16
ATOM     16  N   UNL     1      -1.357  -4.194  -0.285  1.00  0.00    -0.332 N 
ATOM     17  C   UNL     1      -0.821  -4.639  -1.559  1.00  0.00     0.147 C 
BRANCH  16  18
ATOM     18  C   UNL     1      -0.725  -4.671   0.947  1.00  0.00     0.219 C 
BRANCH  18  19
ATOM     19  C   UNL     1      -0.154  -3.624   1.917  1.00  0.00     0.239 C 
ATOM     20  N   UNL     1       0.690  -2.640   1.495  1.00  0.00    -0.355 N 
ATOM     21  H   UNL     1       0.943  -1.985   2.184  1.00  0.00     0.163 HD
ATOM     22  O   UNL     1      -0.284  -3.763   3.139  1.00  0.00    -0.273 OA
BRANCH  20  23
ATOM     23  C   UNL     1       1.270  -2.410   0.190  1.00  0.00     0.115 C 
BRANCH  23  24
ATOM     24  C   UNL     1       0.650  -1.212  -0.517  1.00  0.00     0.018 C 
ATOM     25  C   UNL     1       1.060   0.113   0.111  1.00  0.00     0.006 C 
ENDBRANCH  23  24
ENDBRANCH  20  23
ENDBRANCH  18  19
ENDBRANCH  16  18
ENDBRANCH  14  16
ENDBRANCH  13  14
ENDBRANCH   7  13
ENDBRANCH   3   6
ENDBRANCH   1   2
BRANCH   1  26
ATOM     26  C   UNL     1      -5.111   2.771  -2.731  1.00  0.00     0.021 C 
BRANCH  26  27
ATOM     27  C   UNL     1      -6.487   2.961  -3.387  1.00  0.00     0.002 C 
BRANCH  27  28
ATOM     28  C   UNL     1      -7.606   3.370  -2.425  1.00  0.00     0.002 C 
BRANCH  28  29
ATOM     29  C   UNL     1      -7.310   4.630  -1.609  1.00  0.00     0.021 C 
BRANCH  29  30
ATOM     30  C   UNL     1      -7.056   5.873  -2.453  1.00  0.00     0.116 C 
BRANCH  30  31
ATOM     31  N   UNL     1      -8.234   6.260  -3.214  1.00  0.00    -0.352 N 
ATOM     32  C   UNL     1      -8.889   7.465  -3.232  1.00  0.00     0.251 C 
ATOM     33  H   UNL     1      -8.613   5.561  -3.795  1.00  0.00     0.163 HD
ATOM     34  O   UNL     1      -9.996   7.558  -3.759  1.00  0.00    -0.269 OA
BRANCH  32  35
ATOM     35  C   UNL     1      -8.262   8.643  -2.599  1.00  0.00     0.039 A 
ATOM     36  C   UNL     1      -9.033   9.460  -1.770  1.00  0.00     0.014 A 
ATOM     37  C   UNL     1      -6.911   8.930  -2.815  1.00  0.00     0.014 A 
ATOM     38  C   UNL     1      -8.431  10.534  -1.111  1.00  0.00     0.010 A 
ATOM     39  C   UNL     1      -6.298   9.950  -2.096  1.00  0.00     0.010 A 
ATOM     40  C   UNL     1      -7.052  10.766  -1.240  1.00  0.00    -0.014 A 
BRANCH  40  41
ATOM     41  C   UNL     1      -6.380  11.855  -0.487  1.00  0.00     0.031 A 
ATOM     42  C   UNL     1      -5.722  12.991  -1.224  1.00  0.00     0.074 A 
ATOM     43  C   UNL     1      -6.312  11.792   0.858  1.00  0.00     0.049 A 
ATOM     44  N   UNL     1      -5.043  14.001  -0.744  1.00  0.00    -0.248 NA
ATOM     45  C   UNL     1      -5.819  12.978  -2.693  1.00  0.00     0.031 C 
ATOM     46  C   UNL     1      -6.881  10.725   1.686  1.00  0.00     0.029 A 
ATOM     47  N   UNL     1      -5.732  12.642   1.767  1.00  0.00    -0.354 N 
ATOM     48  C   UNL     1      -4.626  14.736  -1.847  1.00  0.00     0.074 A 
ATOM     49  C   UNL     1      -5.077  14.025  -3.023  1.00  0.00     0.031 C 
ATOM     50  C   UNL     1      -6.651  11.002   2.979  1.00  0.00     0.029 A 
ATOM     51  C   UNL     1      -5.879  12.237   3.073  1.00  0.00     0.049 A 
ATOM     52  H   UNL     1      -5.257  13.464   1.508  1.00  0.00     0.167 HD
ATOM     53  C   UNL     1      -3.948  15.908  -1.880  1.00  0.00     0.031 A 
ATOM     54  C   UNL     1      -5.435  12.792   4.218  1.00  0.00     0.031 A 
ATOM     55  C   UNL     1      -3.502  16.612  -0.707  1.00  0.00     0.049 A 
ATOM     56  C   UNL     1      -4.654  14.076   4.154  1.00  0.00     0.074 A 
ATOM     57  C   UNL     1      -2.844  17.828  -0.632  1.00  0.00     0.029 A 
ATOM     58  N   UNL     1      -3.663  16.165   0.596  1.00  0.00    -0.354 N 
ATOM     59  N   UNL     1      -4.319  14.786   3.103  1.00  0.00    -0.248 NA
ATOM     60  C   UNL     1      -4.199  14.639   5.433  1.00  0.00     0.031 C 
ATOM     61  C   UNL     1      -2.554  18.085   0.711  1.00  0.00     0.029 A 
ATOM     62  C   UNL     1      -3.093  17.066   1.480  1.00  0.00     0.049 A 
ATOM     63  H   UNL     1      -4.115  15.329   0.855  1.00  0.00     0.167 HD
ATOM     64  C   UNL     1      -3.642  15.896   3.596  1.00  0.00     0.074 A 
ATOM     65  C   UNL     1      -3.628  15.769   5.039  1.00  0.00     0.031 C 
ATOM     66  C   UNL     1      -3.084  16.927   2.915  1.00  0.00     0.031 A 
BRANCH  53  67
ATOM     67  C   UNL     1      -3.642  16.500  -3.232  1.00  0.00    -0.014 A 
ATOM     68  C   UNL     1      -4.666  17.007  -4.053  1.00  0.00     0.010 A 
ATOM     69  C   UNL     1      -2.308  16.588  -3.672  1.00  0.00     0.010 A 
ATOM     70  C   UNL     1      -4.367  17.552  -5.305  1.00  0.00     0.020 A 
ATOM     71  C   UNL     1      -2.002  17.162  -4.910  1.00  0.00     0.020 A 
ATOM     72  C   UNL     1      -3.037  17.625  -5.726  1.00  0.00     0.054 A 
BRANCH  72  73
ATOM     73  S   UNL     1      -2.678  18.358  -7.345  1.00  0.00     0.124 S 
ATOM     74  O   UNL     1      -3.188  17.337  -8.257  1.00  0.00    -0.237 OA
ATOM     75  O   UNL     1      -3.441  19.603  -7.308  1.00  0.00    -0.237 OA
ATOM     76  O   UNL     1      -1.226  18.520  -7.341  1.00  0.00    -0.744 OA
ENDBRANCH  72  73
ENDBRANCH  53  67
BRANCH  54  77
ATOM     77  C   UNL     1      -5.733  12.140   5.524  1.00  0.00    -0.014 A 
ATOM     78  C   UNL     1      -6.618  12.741   6.436  1.00  0.00     0.010 A 
ATOM     79  C   UNL     1      -5.141  10.908   5.858  1.00  0.00     0.010 A 
ATOM     80  C   UNL     1      -6.892  12.131   7.664  1.00  0.00     0.020 A 
ATOM     81  C   UNL     1      -5.436  10.280   7.071  1.00  0.00     0.020 A 
ATOM     82  C   UNL     1      -6.302  10.902   7.972  1.00  0.00     0.054 A 
BRANCH  82  83
ATOM     83  S   UNL     1      -6.713  10.107   9.550  1.00  0.00     0.124 S 
ATOM     84  O   UNL     1      -6.020  10.961  10.509  1.00  0.00    -0.237 OA
ATOM     85  O   UNL     1      -8.172  10.185   9.570  1.00  0.00    -0.237 OA
ATOM     86  O   UNL     1      -6.170   8.758   9.404  1.00  0.00    -0.744 OA
ENDBRANCH  82  83
ENDBRANCH  54  77
BRANCH  66  87
ATOM     87  C   UNL     1      -2.441  18.026   3.720  1.00  0.00    -0.014 A 
ATOM     88  C   UNL     1      -1.231  17.819   4.407  1.00  0.00     0.010 A 
ATOM     89  C   UNL     1      -3.029  19.304   3.740  1.00  0.00     0.010 A 
ATOM     90  C   UNL     1      -0.638  18.863   5.123  1.00  0.00     0.020 A 
ATOM     91  C   UNL     1      -2.423  20.358   4.428  1.00  0.00     0.020 A 
ATOM     92  C   UNL     1      -1.237  20.127   5.127  1.00  0.00     0.054 A 
BRANCH  92  93
ATOM     93  S   UNL     1      -0.420  21.475   6.023  1.00  0.00     0.124 S 
ATOM     94  O   UNL     1      -0.647  21.097   7.415  1.00  0.00    -0.237 OA
ATOM     95  O   UNL     1       0.962  21.374   5.561  1.00  0.00    -0.237 OA
ATOM     96  O   UNL     1      -1.134  22.670   5.578  1.00  0.00    -0.744 OA
ENDBRANCH  92  93
ENDBRANCH  66  87
ENDBRANCH  40  41
ENDBRANCH  32  35
ENDBRANCH  30  31
ENDBRANCH  29  30
ENDBRANCH  28  29
ENDBRANCH  27  28
ENDBRANCH  26  27
ENDBRANCH   1  26
TORSDOF 23
