REMARK SMILES CC1=C(CC(=O)NCCCCCCNC(=O)c2ccc(-c3c4nc(c(-c5ccc(S(=O)(=O)[O-])cc5)c5ccc([nH]5)c(-c5ccc(S(=O)(=O)[O-])cc5)c5nc(c(-c6ccc(S(=O)(=O)[O-])cc6)c6ccc3[nH]6)C=C5)C=C4)cc2)c2cc(F)ccc2/C1=C\c1ccc([S@@+](C)[O-])cc1
REMARK SMILES IDX 10 1 9 2 8 3 7 4 5 5 6 6 4 8 3 9 1 10 2 11 84 12 77 13 83 14
REMARK SMILES IDX 85 15 78 16 82 17 79 18 81 19 80 20 86 21 87 22 94 23 88 24
REMARK SMILES IDX 93 25 89 26 90 27 91 28 92 29 11 30 12 31 13 32 14 33 15 34
REMARK SMILES IDX 16 36 17 37 18 38 76 39 19 40 75 41 20 42 21 43 22 44 69 45
REMARK SMILES IDX 23 46 74 47 68 48 70 49 24 50 73 51 67 52 66 53 25 55 55 56
REMARK SMILES IDX 36 57 54 58 37 59 40 60 53 61 71 62 38 63 39 64 52 66 72 67
REMARK SMILES IDX 41 68 26 69 27 70 35 71 28 72 34 73 29 74 30 75 31 76 32 77
REMARK SMILES IDX 33 78 56 79 57 80 65 81 58 82 64 83 59 84 60 85 61 86 62 87
REMARK SMILES IDX 63 88 42 89 43 90 51 91 44 92 50 93 45 94 46 95 47 96 48 97
REMARK SMILES IDX 49 98
REMARK H PARENT 7 7 14 35 70 54 40 65
REMARK Flexibility Score: inf
ROOT
ATOM      1  C   UNL     1      -2.596   1.797   3.810  1.00  0.00     0.002 C 
ENDROOT
BRANCH   1   2
ATOM      2  C   UNL     1      -1.579   1.460   2.711  1.00  0.00     0.021 C 
BRANCH   2   3
ATOM      3  C   UNL     1      -2.011   0.321   1.787  1.00  0.00     0.116 C 
BRANCH   3   4
ATOM      4  N   UNL     1      -3.099   0.727   0.921  1.00  0.00    -0.356 N 
ATOM      5  C   UNL     1      -3.063   1.065  -0.399  1.00  0.00     0.224 C 
ATOM      6  O   UNL     1      -4.104   1.464  -0.929  1.00  0.00    -0.275 OA
ATOM      7  H   UNL     1      -3.987   0.764   1.345  1.00  0.00     0.163 HD
BRANCH   5   8
ATOM      8  C   UNL     1      -1.777   0.901  -1.206  1.00  0.00     0.136 C 
BRANCH   8   9
ATOM      9  C   UNL     1      -0.686   1.851  -0.827  1.00  0.00    -0.027 C 
ATOM     10  C   UNL     1       1.232   0.246  -0.273  1.00  0.00     0.045 C 
ATOM     11  C   UNL     1       0.577   1.582  -0.415  1.00  0.00    -0.039 C 
ATOM     12  C   UNL     1       1.283   2.841  -0.126  1.00  0.00    -0.014 C 
ATOM     13  C   UNL     1      -0.831   3.316  -0.902  1.00  0.00    -0.011 A 
ATOM     14  C   UNL     1       0.377   3.934  -0.528  1.00  0.00    -0.010 A 
ATOM     15  C   UNL     1       2.497   2.914   0.456  1.00  0.00     0.017 C 
ATOM     16  C   UNL     1      -1.922   4.078  -1.300  1.00  0.00     0.048 A 
ATOM     17  C   UNL     1       0.518   5.314  -0.613  1.00  0.00     0.012 A 
ATOM     18  C   UNL     1      -1.786   5.462  -1.326  1.00  0.00     0.123 A 
ATOM     19  C   UNL     1      -0.581   6.083  -0.999  1.00  0.00     0.040 A 
ATOM     20  F   UNL     1      -2.830   6.220  -1.691  1.00  0.00    -0.207 F 
BRANCH  15  21
ATOM     21  C   UNL     1       3.201   4.153   0.795  1.00  0.00    -0.025 A 
ATOM     22  C   UNL     1       2.735   4.988   1.817  1.00  0.00     0.013 A 
ATOM     23  C   UNL     1       4.288   4.557   0.017  1.00  0.00     0.013 A 
ATOM     24  C   UNL     1       3.266   6.273   1.969  1.00  0.00     0.061 A 
ATOM     25  C   UNL     1       4.831   5.833   0.184  1.00  0.00     0.061 A 
ATOM     26  C   UNL     1       4.297   6.715   1.132  1.00  0.00     0.152 A 
BRANCH  26  27
ATOM     27  S   UNL     1       4.810   8.451   1.136  1.00  0.00    -0.018 S 
ATOM     28  C   UNL     1       5.246   8.631   2.877  1.00  0.00     0.346 C 
ATOM     29  O   UNL     1       6.125   8.551   0.284  1.00  0.00    -0.612 OA
ENDBRANCH  26  27
ENDBRANCH  15  21
ENDBRANCH   8   9
ENDBRANCH   5   8
ENDBRANCH   3   4
ENDBRANCH   2   3
ENDBRANCH   1   2
BRANCH   1  30
ATOM     30  C   UNL     1      -2.952   0.643   4.755  1.00  0.00     0.002 C 
BRANCH  30  31
ATOM     31  C   UNL     1      -1.762  -0.052   5.417  1.00  0.00     0.021 C 
BRANCH  31  32
ATOM     32  C   UNL     1      -0.890   0.854   6.279  1.00  0.00     0.116 C 
BRANCH  32  33
ATOM     33  N   UNL     1      -1.582   1.331   7.468  1.00  0.00    -0.352 N 
ATOM     34  C   UNL     1      -1.179   1.284   8.782  1.00  0.00     0.251 C 
ATOM     35  H   UNL     1      -2.461   1.745   7.308  1.00  0.00     0.163 HD
ATOM     36  O   UNL     1      -1.958   1.594   9.678  1.00  0.00    -0.269 OA
BRANCH  34  37
ATOM     37  C   UNL     1       0.188   0.824   9.109  1.00  0.00     0.039 A 
ATOM     38  C   UNL     1       1.289   1.312   8.401  1.00  0.00     0.014 A 
ATOM     39  C   UNL     1       0.366  -0.131  10.115  1.00  0.00     0.014 A 
ATOM     40  C   UNL     1       2.538   0.727   8.583  1.00  0.00     0.010 A 
ATOM     41  C   UNL     1       1.639  -0.661  10.350  1.00  0.00     0.010 A 
ATOM     42  C   UNL     1       2.727  -0.272   9.552  1.00  0.00    -0.014 A 
BRANCH  42  43
ATOM     43  C   UNL     1       4.067  -0.896   9.707  1.00  0.00     0.031 A 
ATOM     44  C   UNL     1       4.282  -2.350   9.380  1.00  0.00     0.074 A 
ATOM     45  C   UNL     1       5.109  -0.131  10.088  1.00  0.00     0.049 A 
ATOM     46  N   UNL     1       5.392  -3.043   9.424  1.00  0.00    -0.248 NA
ATOM     47  C   UNL     1       3.110  -3.130   8.948  1.00  0.00     0.031 C 
ATOM     48  C   UNL     1       5.027   1.294  10.416  1.00  0.00     0.029 A 
ATOM     49  N   UNL     1       6.440  -0.430  10.235  1.00  0.00    -0.354 N 
ATOM     50  C   UNL     1       5.052  -4.336   9.043  1.00  0.00     0.074 A 
ATOM     51  C   UNL     1       3.627  -4.342   8.794  1.00  0.00     0.031 C 
ATOM     52  C   UNL     1       6.259   1.757  10.671  1.00  0.00     0.029 A 
ATOM     53  C   UNL     1       7.211   0.652  10.588  1.00  0.00     0.049 A 
ATOM     54  H   UNL     1       6.808  -1.333  10.101  1.00  0.00     0.167 HD
ATOM     55  C   UNL     1       5.857  -5.414   8.900  1.00  0.00     0.031 A 
ATOM     56  C   UNL     1       8.534   0.754  10.829  1.00  0.00     0.031 A 
ATOM     57  C   UNL     1       7.279  -5.398   9.128  1.00  0.00     0.049 A 
ATOM     58  C   UNL     1       9.401  -0.464  10.696  1.00  0.00     0.074 A 
ATOM     59  C   UNL     1       8.178  -6.441   8.983  1.00  0.00     0.029 A 
ATOM     60  N   UNL     1       8.009  -4.294   9.539  1.00  0.00    -0.354 N 
ATOM     61  N   UNL     1       9.058  -1.674  10.326  1.00  0.00    -0.248 NA
ATOM     62  C   UNL     1      10.827  -0.309  11.011  1.00  0.00     0.031 C 
ATOM     63  C   UNL     1       9.441  -5.984   9.362  1.00  0.00     0.029 A 
ATOM     64  C   UNL     1       9.343  -4.638   9.679  1.00  0.00     0.049 A 
ATOM     65  H   UNL     1       7.635  -3.399   9.707  1.00  0.00     0.167 HD
ATOM     66  C   UNL     1      10.226  -2.425  10.362  1.00  0.00     0.074 A 
ATOM     67  C   UNL     1      11.290  -1.529  10.765  1.00  0.00     0.031 C 
ATOM     68  C   UNL     1      10.395  -3.742  10.089  1.00  0.00     0.031 A 
BRANCH  55  69
ATOM     69  C   UNL     1       5.242  -6.721   8.471  1.00  0.00    -0.014 A 
ATOM     70  C   UNL     1       5.191  -7.797   9.377  1.00  0.00     0.010 A 
ATOM     71  C   UNL     1       4.846  -6.928   7.138  1.00  0.00     0.010 A 
ATOM     72  C   UNL     1       4.788  -9.065   8.950  1.00  0.00     0.020 A 
ATOM     73  C   UNL     1       4.420  -8.190   6.713  1.00  0.00     0.020 A 
ATOM     74  C   UNL     1       4.417  -9.256   7.617  1.00  0.00     0.054 A 
BRANCH  74  75
ATOM     75  S   UNL     1       3.933 -10.917   7.069  1.00  0.00     0.124 S 
ATOM     76  O   UNL     1       5.221 -11.593   6.958  1.00  0.00    -0.237 OA
ATOM     77  O   UNL     1       3.070 -11.373   8.157  1.00  0.00    -0.237 OA
ATOM     78  O   UNL     1       3.243 -10.669   5.804  1.00  0.00    -0.744 OA
ENDBRANCH  74  75
ENDBRANCH  55  69
BRANCH  56  79
ATOM     79  C   UNL     1       9.094   2.078  11.212  1.00  0.00    -0.014 A 
ATOM     80  C   UNL     1       8.757   2.657  12.450  1.00  0.00     0.010 A 
ATOM     81  C   UNL     1       9.876   2.812  10.304  1.00  0.00     0.010 A 
ATOM     82  C   UNL     1       9.131   3.969  12.746  1.00  0.00     0.020 A 
ATOM     83  C   UNL     1      10.278   4.117  10.609  1.00  0.00     0.020 A 
ATOM     84  C   UNL     1       9.873   4.698  11.814  1.00  0.00     0.054 A 
BRANCH  84  85
ATOM     85  S   UNL     1      10.289   6.424  12.185  1.00  0.00     0.124 S 
ATOM     86  O   UNL     1       9.036   7.105  11.868  1.00  0.00    -0.237 OA
ATOM     87  O   UNL     1      10.637   6.375  13.602  1.00  0.00    -0.237 OA
ATOM     88  O   UNL     1      11.401   6.707  11.282  1.00  0.00    -0.744 OA
ENDBRANCH  84  85
ENDBRANCH  56  79
BRANCH  68  89
ATOM     89  C   UNL     1      11.776  -4.325  10.222  1.00  0.00    -0.014 A 
ATOM     90  C   UNL     1      12.469  -4.748   9.072  1.00  0.00     0.010 A 
ATOM     91  C   UNL     1      12.324  -4.586  11.490  1.00  0.00     0.010 A 
ATOM     92  C   UNL     1      13.667  -5.457   9.188  1.00  0.00     0.020 A 
ATOM     93  C   UNL     1      13.536  -5.273  11.608  1.00  0.00     0.020 A 
ATOM     94  C   UNL     1      14.185  -5.727  10.457  1.00  0.00     0.054 A 
BRANCH  94  95
ATOM     95  S   UNL     1      15.719  -6.686  10.592  1.00  0.00     0.124 S 
ATOM     96  O   UNL     1      15.250  -8.049  10.363  1.00  0.00    -0.237 OA
ATOM     97  O   UNL     1      16.548  -6.119   9.530  1.00  0.00    -0.237 OA
ATOM     98  O   UNL     1      16.181  -6.403  11.949  1.00  0.00    -0.744 OA
ENDBRANCH  94  95
ENDBRANCH  68  89
ENDBRANCH  42  43
ENDBRANCH  34  37
ENDBRANCH  32  33
ENDBRANCH  31  32
ENDBRANCH  30  31
ENDBRANCH   1  30
TORSDOF 19
