REMARK SMILES Cc1cccc(C(=O)NCCCCCCNC(=O)c2ccc(-c3c4nc(c(-c5ccc(S(=O)(=O)[O-])cc5)c5ccc([nH]5)c(-c5ccc(S(=O)(=O)[O-])cc5)c5nc(c(-c6ccc(S(=O)(=O)[O-])cc6)c6ccc3[nH]6)C=C5)C=C4)cc2)c1OC[C@@H]1C[C@H]2CC[C@@H]1C2
REMARK SMILES IDX 12 1 11 2 10 3 9 4 7 5 8 6 6 8 1 9 2 10 3 11 79 12 4 13 5 14
REMARK SMILES IDX 80 15 81 16 82 17 83 18 87 19 84 20 86 21 88 22 85 23 13 24
REMARK SMILES IDX 14 25 15 26 16 27 17 28 18 30 19 31 20 32 78 33 21 34 77 35
REMARK SMILES IDX 22 36 23 37 24 38 71 39 25 40 76 41 70 42 72 43 26 44 75 45
REMARK SMILES IDX 69 46 68 47 27 49 57 50 38 51 56 52 39 53 42 54 55 55 73 56
REMARK SMILES IDX 40 57 41 58 54 60 74 61 43 62 28 63 29 64 37 65 30 66 36 67
REMARK SMILES IDX 31 68 32 69 33 70 34 71 35 72 58 73 59 74 67 75 60 76 66 77
REMARK SMILES IDX 61 78 62 79 63 80 64 81 65 82 44 83 45 84 53 85 46 86 52 87
REMARK SMILES IDX 47 88 48 89 49 90 50 91 51 92
REMARK H PARENT 9 7 16 29 72 48 42 59
REMARK Flexibility Score: inf
ROOT
ATOM      1  C   UNL     1       0.195   6.262  -0.973  1.00  0.00     0.002 C 
ENDROOT
BRANCH   1   2
ATOM      2  C   UNL     1       0.580   4.787  -0.797  1.00  0.00     0.021 C 
BRANCH   2   3
ATOM      3  C   UNL     1      -0.002   4.120   0.454  1.00  0.00     0.116 C 
BRANCH   3   4
ATOM      4  N   UNL     1      -1.290   3.553   0.158  1.00  0.00    -0.352 N 
ATOM      5  C   UNL     1      -1.714   2.282  -0.093  1.00  0.00     0.255 C 
ATOM      6  O   UNL     1      -2.916   2.182  -0.373  1.00  0.00    -0.269 OA
ATOM      7  H   UNL     1      -2.015   4.219   0.132  1.00  0.00     0.163 HD
BRANCH   5   8
ATOM      8  C   UNL     1      -0.914   1.013   0.000  1.00  0.00     0.082 A 
ATOM      9  C   UNL     1       1.937  -1.039  -1.520  1.00  0.00     0.048 C 
ATOM     10  C   UNL     1       0.787  -0.604  -0.649  1.00  0.00    -0.008 A 
ATOM     11  C   UNL     1      -0.053  -1.651  -0.219  1.00  0.00     0.007 A 
ATOM     12  C   UNL     1       0.410   0.744  -0.431  1.00  0.00     0.134 A 
ATOM     13  C   UNL     1      -1.294  -1.389   0.334  1.00  0.00     0.001 A 
ATOM     14  C   UNL     1      -1.728  -0.073   0.406  1.00  0.00     0.018 A 
BRANCH  12  15
ATOM     15  O   UNL     1       1.240   1.777  -0.753  1.00  0.00    -0.492 OA
BRANCH  15  16
ATOM     16  C   UNL     1       2.590   1.845  -0.223  1.00  0.00     0.233 C 
BRANCH  16  17
ATOM     17  C   UNL     1       2.860   1.353   1.222  1.00  0.00     0.030 C 
ATOM     18  C   UNL     1       3.779   2.328   2.022  1.00  0.00     0.011 C 
ATOM     19  C   UNL     1       3.722   0.057   1.269  1.00  0.00    -0.004 C 
ATOM     20  C   UNL     1       4.962   1.449   2.473  1.00  0.00    -0.010 C 
ATOM     21  C   UNL     1       3.641  -0.545   2.682  1.00  0.00     0.004 C 
ATOM     22  C   UNL     1       5.162   0.574   1.243  1.00  0.00     0.007 C 
ATOM     23  C   UNL     1       4.480   0.429   3.517  1.00  0.00     0.004 C 
ENDBRANCH  16  17
ENDBRANCH  15  16
ENDBRANCH  12  15
ENDBRANCH   5   8
ENDBRANCH   3   4
ENDBRANCH   2   3
ENDBRANCH   1   2
BRANCH   1  24
ATOM     24  C   UNL     1       0.514   7.185   0.215  1.00  0.00     0.002 C 
BRANCH  24  25
ATOM     25  C   UNL     1       1.881   6.983   0.872  1.00  0.00     0.021 C 
BRANCH  25  26
ATOM     26  C   UNL     1       3.040   7.475   0.016  1.00  0.00     0.116 C 
BRANCH  26  27
ATOM     27  N   UNL     1       3.706   8.624   0.612  1.00  0.00    -0.352 N 
ATOM     28  C   UNL     1       4.938   9.160   0.264  1.00  0.00     0.251 C 
ATOM     29  H   UNL     1       3.228   9.073   1.346  1.00  0.00     0.163 HD
ATOM     30  O   UNL     1       5.603   9.857   0.988  1.00  0.00    -0.269 OA
BRANCH  28  31
ATOM     31  C   UNL     1       5.325   8.956  -1.147  1.00  0.00     0.039 A 
ATOM     32  C   UNL     1       5.125  10.039  -2.013  1.00  0.00     0.014 A 
ATOM     33  C   UNL     1       5.541   7.666  -1.621  1.00  0.00     0.014 A 
ATOM     34  C   UNL     1       4.969   9.797  -3.371  1.00  0.00     0.010 A 
ATOM     35  C   UNL     1       5.299   7.418  -2.954  1.00  0.00     0.010 A 
ATOM     36  C   UNL     1       4.964   8.474  -3.813  1.00  0.00    -0.014 A 
BRANCH  36  37
ATOM     37  C   UNL     1       4.569   8.083  -5.155  1.00  0.00     0.031 A 
ATOM     38  C   UNL     1       5.623   7.752  -6.139  1.00  0.00     0.074 A 
ATOM     39  C   UNL     1       3.259   7.936  -5.462  1.00  0.00     0.049 A 
ATOM     40  N   UNL     1       5.461   7.803  -7.417  1.00  0.00    -0.248 NA
ATOM     41  C   UNL     1       6.979   7.365  -5.750  1.00  0.00     0.031 C 
ATOM     42  C   UNL     1       2.712   7.312  -6.665  1.00  0.00     0.029 A 
ATOM     43  N   UNL     1       2.132   8.485  -4.841  1.00  0.00    -0.354 N 
ATOM     44  C   UNL     1       6.534   7.160  -7.990  1.00  0.00     0.074 A 
ATOM     45  C   UNL     1       7.494   6.990  -6.925  1.00  0.00     0.031 C 
ATOM     46  C   UNL     1       1.463   7.769  -6.853  1.00  0.00     0.029 A 
ATOM     47  C   UNL     1       1.254   8.830  -5.883  1.00  0.00     0.049 A 
ATOM     48  H   UNL     1       1.985   8.604  -3.875  1.00  0.00     0.167 HD
ATOM     49  C   UNL     1       6.434   6.699  -9.268  1.00  0.00     0.031 A 
ATOM     50  C   UNL     1       0.919  10.118  -6.198  1.00  0.00     0.031 A 
ATOM     51  C   UNL     1       5.151   7.056  -9.871  1.00  0.00     0.049 A 
ATOM     52  C   UNL     1       1.283  10.513  -7.629  1.00  0.00     0.074 A 
ATOM     53  C   UNL     1       3.980   6.360 -10.119  1.00  0.00     0.029 A 
ATOM     54  N   UNL     1       4.836   8.399 -10.019  1.00  0.00    -0.354 N 
ATOM     55  N   UNL     1       1.983   9.774  -8.447  1.00  0.00    -0.248 NA
ATOM     56  C   UNL     1       0.956  11.809  -8.220  1.00  0.00     0.031 C 
ATOM     57  C   UNL     1       2.954   7.303 -10.410  1.00  0.00     0.029 A 
ATOM     58  C   UNL     1       3.507   8.569 -10.363  1.00  0.00     0.049 A 
ATOM     59  H   UNL     1       5.476   9.137  -9.896  1.00  0.00     0.167 HD
ATOM     60  C   UNL     1       2.239  10.456  -9.613  1.00  0.00     0.074 A 
ATOM     61  C   UNL     1       1.571  11.731  -9.416  1.00  0.00     0.031 C 
ATOM     62  C   UNL     1       3.008   9.918 -10.612  1.00  0.00     0.031 A 
BRANCH  49  63
ATOM     63  C   UNL     1       7.396   5.690  -9.851  1.00  0.00    -0.014 A 
ATOM     64  C   UNL     1       6.926   4.737 -10.778  1.00  0.00     0.010 A 
ATOM     65  C   UNL     1       8.757   5.598  -9.498  1.00  0.00     0.010 A 
ATOM     66  C   UNL     1       7.736   3.694 -11.249  1.00  0.00     0.020 A 
ATOM     67  C   UNL     1       9.570   4.538  -9.932  1.00  0.00     0.020 A 
ATOM     68  C   UNL     1       9.049   3.584 -10.801  1.00  0.00     0.054 A 
BRANCH  68  69
ATOM     69  S   UNL     1      10.055   2.186 -11.366  1.00  0.00     0.124 S 
ATOM     70  O   UNL     1       9.245   1.035 -10.973  1.00  0.00    -0.237 OA
ATOM     71  O   UNL     1      10.149   2.428 -12.802  1.00  0.00    -0.237 OA
ATOM     72  O   UNL     1      11.306   2.337 -10.626  1.00  0.00    -0.744 OA
ENDBRANCH  68  69
ENDBRANCH  49  63
BRANCH  50  73
ATOM     73  C   UNL     1       0.903  11.050  -5.031  1.00  0.00    -0.014 A 
ATOM     74  C   UNL     1      -0.090  10.856  -4.045  1.00  0.00     0.010 A 
ATOM     75  C   UNL     1       2.040  11.806  -4.701  1.00  0.00     0.010 A 
ATOM     76  C   UNL     1       0.128  11.253  -2.721  1.00  0.00     0.020 A 
ATOM     77  C   UNL     1       2.255  12.215  -3.376  1.00  0.00     0.020 A 
ATOM     78  C   UNL     1       1.329  11.876  -2.385  1.00  0.00     0.054 A 
BRANCH  78  79
ATOM     79  S   UNL     1       1.738  12.069  -0.621  1.00  0.00     0.124 S 
ATOM     80  O   UNL     1       0.679  12.955  -0.150  1.00  0.00    -0.237 OA
ATOM     81  O   UNL     1       1.672  10.691  -0.131  1.00  0.00    -0.237 OA
ATOM     82  O   UNL     1       3.078  12.645  -0.649  1.00  0.00    -0.744 OA
ENDBRANCH  78  79
ENDBRANCH  50  73
BRANCH  62  83
ATOM     83  C   UNL     1       3.428  10.579 -11.919  1.00  0.00    -0.014 A 
ATOM     84  C   UNL     1       2.810  11.694 -12.500  1.00  0.00     0.010 A 
ATOM     85  C   UNL     1       4.499  10.011 -12.662  1.00  0.00     0.010 A 
ATOM     86  C   UNL     1       3.288  12.261 -13.696  1.00  0.00     0.020 A 
ATOM     87  C   UNL     1       4.981  10.556 -13.855  1.00  0.00     0.020 A 
ATOM     88  C   UNL     1       4.379  11.695 -14.359  1.00  0.00     0.054 A 
BRANCH  88  89
ATOM     89  S   UNL     1       4.982  12.452 -15.887  1.00  0.00     0.124 S 
ATOM     90  O   UNL     1       3.818  12.349 -16.763  1.00  0.00    -0.237 OA
ATOM     91  O   UNL     1       5.320  13.804 -15.448  1.00  0.00    -0.237 OA
ATOM     92  O   UNL     1       6.122  11.621 -16.267  1.00  0.00    -0.744 OA
ENDBRANCH  88  89
ENDBRANCH  62  83
ENDBRANCH  36  37
ENDBRANCH  28  31
ENDBRANCH  26  27
ENDBRANCH  25  26
ENDBRANCH  24  25
ENDBRANCH   1  24
TORSDOF 19
