REMARK SMILES O=C(NCCCCCCNC(=O)c1ccc(CNC(=O)c2cccnc2)o1)c1ccc(-c2c3nc(c(-c4ccc(S(=O)(=O)[O-])cc4)c4ccc([nH]4)c(-c4ccc(S(=O)(=O)[O-])cc4)c4nc(c(-c5ccc(S(=O)(=O)[O-])cc5)c5ccc2[nH]5)C=C4)C=C3)cc1
REMARK SMILES IDX 6 1 5 2 4 3 3 4 1 5 2 6 28 8 29 9 87 10 30 11 86 12 31 13
REMARK SMILES IDX 32 14 33 15 80 16 34 17 85 18 79 19 81 20 35 21 84 22 78 23
REMARK SMILES IDX 77 24 36 26 66 27 47 28 65 29 48 30 51 31 64 32 82 33 49 34
REMARK SMILES IDX 50 35 63 37 83 38 52 39 37 40 38 41 46 42 39 43 45 44 40 45
REMARK SMILES IDX 41 46 42 47 43 48 44 49 67 50 68 51 76 52 69 53 75 54 70 55
REMARK SMILES IDX 71 56 72 57 73 58 74 59 53 60 54 61 62 62 55 63 61 64 56 65
REMARK SMILES IDX 57 66 58 67 59 68 60 69 7 70 8 71 9 72 10 73 11 74 12 76
REMARK SMILES IDX 13 77 14 78 27 79 15 80 16 81 17 82 18 83 19 84 20 86 21 87
REMARK SMILES IDX 22 88 26 89 23 90 25 91 24 92
REMARK H PARENT 3 7 81 25 51 36 10 75 18 85
REMARK Flexibility Score: inf
ROOT
ATOM      1  C   UNL     1       4.148   2.581  -2.979  1.00  0.00     0.002 C 
ENDROOT
BRANCH   1   2
ATOM      2  C   UNL     1       4.592   1.194  -2.514  1.00  0.00     0.021 C 
BRANCH   2   3
ATOM      3  C   UNL     1       4.386   0.906  -1.032  1.00  0.00     0.116 C 
BRANCH   3   4
ATOM      4  N   UNL     1       2.983   0.839  -0.657  1.00  0.00    -0.352 N 
ATOM      5  O   UNL     1       1.115  -0.089   0.202  1.00  0.00    -0.269 OA
ATOM      6  C   UNL     1       2.337  -0.116   0.094  1.00  0.00     0.251 C 
ATOM      7  H   UNL     1       2.420   1.577  -0.985  1.00  0.00     0.163 HD
BRANCH   6   8
ATOM      8  C   UNL     1       3.119  -1.192   0.747  1.00  0.00     0.039 A 
ATOM      9  C   UNL     1       4.300  -0.899   1.432  1.00  0.00     0.014 A 
ATOM     10  C   UNL     1       2.662  -2.512   0.675  1.00  0.00     0.014 A 
ATOM     11  C   UNL     1       5.089  -1.933   1.923  1.00  0.00     0.010 A 
ATOM     12  C   UNL     1       3.416  -3.545   1.244  1.00  0.00     0.010 A 
ATOM     13  C   UNL     1       4.650  -3.267   1.850  1.00  0.00    -0.014 A 
BRANCH  13  14
ATOM     14  C   UNL     1       5.473  -4.327   2.489  1.00  0.00     0.031 A 
ATOM     15  C   UNL     1       6.150  -5.398   1.678  1.00  0.00     0.074 A 
ATOM     16  C   UNL     1       5.654  -4.273   3.824  1.00  0.00     0.049 A 
ATOM     17  N   UNL     1       6.966  -6.338   2.084  1.00  0.00    -0.248 NA
ATOM     18  C   UNL     1       5.877  -5.425   0.233  1.00  0.00     0.031 C 
ATOM     19  C   UNL     1       5.031  -3.293   4.720  1.00  0.00     0.029 A 
ATOM     20  N   UNL     1       6.436  -5.031   4.657  1.00  0.00    -0.354 N 
ATOM     21  C   UNL     1       7.298  -7.073   0.952  1.00  0.00     0.074 A 
ATOM     22  C   UNL     1       6.576  -6.485  -0.156  1.00  0.00     0.031 C 
ATOM     23  C   UNL     1       5.501  -3.470   5.963  1.00  0.00     0.029 A 
ATOM     24  C   UNL     1       6.414  -4.607   5.965  1.00  0.00     0.049 A 
ATOM     25  H   UNL     1       6.962  -5.804   4.349  1.00  0.00     0.167 HD
ATOM     26  C   UNL     1       8.133  -8.136   0.846  1.00  0.00     0.031 A 
ATOM     27  C   UNL     1       7.051  -5.080   7.051  1.00  0.00     0.031 A 
ATOM     28  C   UNL     1       8.848  -8.722   1.952  1.00  0.00     0.049 A 
ATOM     29  C   UNL     1       7.971  -6.256   6.902  1.00  0.00     0.074 A 
ATOM     30  C   UNL     1       9.722  -9.796   1.941  1.00  0.00     0.029 A 
ATOM     31  N   UNL     1       8.776  -8.283   3.265  1.00  0.00    -0.354 N 
ATOM     32  N   UNL     1       8.283  -6.922   5.816  1.00  0.00    -0.248 NA
ATOM     33  C   UNL     1       8.623  -6.743   8.124  1.00  0.00     0.031 C 
ATOM     34  C   UNL     1      10.150 -10.029   3.253  1.00  0.00     0.029 A 
ATOM     35  C   UNL     1       9.578  -9.071   4.074  1.00  0.00     0.049 A 
ATOM     36  H   UNL     1       8.233  -7.522   3.577  1.00  0.00     0.167 HD
ATOM     37  C   UNL     1       9.168  -7.911   6.226  1.00  0.00     0.074 A 
ATOM     38  C   UNL     1       9.370  -7.731   7.650  1.00  0.00     0.031 C 
ATOM     39  C   UNL     1       9.752  -8.889   5.491  1.00  0.00     0.031 A 
BRANCH  26  40
ATOM     40  C   UNL     1       8.319  -8.749  -0.516  1.00  0.00    -0.014 A 
ATOM     41  C   UNL     1       9.109  -8.114  -1.491  1.00  0.00     0.010 A 
ATOM     42  C   UNL     1       7.763 -10.010  -0.801  1.00  0.00     0.010 A 
ATOM     43  C   UNL     1       9.321  -8.719  -2.733  1.00  0.00     0.020 A 
ATOM     44  C   UNL     1       7.989 -10.627  -2.035  1.00  0.00     0.020 A 
ATOM     45  C   UNL     1       8.759  -9.972  -2.998  1.00  0.00     0.054 A 
BRANCH  45  46
ATOM     46  S   UNL     1       9.087 -10.752  -4.604  1.00  0.00     0.124 S 
ATOM     47  O   UNL     1       8.233  -9.972  -5.496  1.00  0.00    -0.237 OA
ATOM     48  O   UNL     1      10.524 -10.547  -4.773  1.00  0.00    -0.237 OA
ATOM     49  O   UNL     1       8.679 -12.140  -4.405  1.00  0.00    -0.744 OA
ENDBRANCH  45  46
ENDBRANCH  26  40
BRANCH  27  50
ATOM     50  C   UNL     1       6.822  -4.447   8.376  1.00  0.00    -0.014 A 
ATOM     51  C   UNL     1       7.831  -3.694   8.999  1.00  0.00     0.010 A 
ATOM     52  C   UNL     1       5.575  -4.586   9.014  1.00  0.00     0.010 A 
ATOM     53  C   UNL     1       7.604  -3.106  10.247  1.00  0.00     0.020 A 
ATOM     54  C   UNL     1       5.335  -3.977  10.247  1.00  0.00     0.020 A 
ATOM     55  C   UNL     1       6.357  -3.252  10.863  1.00  0.00     0.054 A 
BRANCH  55  56
ATOM     56  S   UNL     1       6.059  -2.443  12.459  1.00  0.00     0.124 S 
ATOM     57  O   UNL     1       6.688  -3.373  13.390  1.00  0.00    -0.237 OA
ATOM     58  O   UNL     1       6.733  -1.157  12.296  1.00  0.00    -0.237 OA
ATOM     59  O   UNL     1       4.601  -2.367  12.532  1.00  0.00    -0.744 OA
ENDBRANCH  55  56
ENDBRANCH  27  50
BRANCH  39  60
ATOM     60  C   UNL     1      10.665  -9.830   6.226  1.00  0.00    -0.014 A 
ATOM     61  C   UNL     1      10.145 -10.812   7.089  1.00  0.00     0.010 A 
ATOM     62  C   UNL     1      12.057  -9.734   6.051  1.00  0.00     0.010 A 
ATOM     63  C   UNL     1      11.004 -11.651   7.802  1.00  0.00     0.020 A 
ATOM     64  C   UNL     1      12.918 -10.588   6.744  1.00  0.00     0.020 A 
ATOM     65  C   UNL     1      12.386 -11.527   7.632  1.00  0.00     0.054 A 
BRANCH  65  66
ATOM     66  S   UNL     1      13.486 -12.629   8.562  1.00  0.00     0.124 S 
ATOM     67  O   UNL     1      13.489 -12.008   9.883  1.00  0.00    -0.237 OA
ATOM     68  O   UNL     1      12.804 -13.918   8.474  1.00  0.00    -0.237 OA
ATOM     69  O   UNL     1      14.749 -12.550   7.832  1.00  0.00    -0.744 OA
ENDBRANCH  65  66
ENDBRANCH  39  60
ENDBRANCH  13  14
ENDBRANCH   6   8
ENDBRANCH   3   4
ENDBRANCH   2   3
ENDBRANCH   1   2
BRANCH   1  70
ATOM     70  C   UNL     1       4.769   3.765  -2.232  1.00  0.00     0.002 C 
BRANCH  70  71
ATOM     71  C   UNL     1       6.299   3.767  -2.131  1.00  0.00     0.021 C 
BRANCH  71  72
ATOM     72  C   UNL     1       7.045   3.661  -3.461  1.00  0.00     0.116 C 
BRANCH  72  73
ATOM     73  N   UNL     1       6.790   4.803  -4.319  1.00  0.00    -0.349 N 
ATOM     74  C   UNL     1       7.697   5.640  -4.926  1.00  0.00     0.286 C 
ATOM     75  H   UNL     1       5.841   5.006  -4.489  1.00  0.00     0.163 HD
ATOM     76  O   UNL     1       7.267   6.659  -5.469  1.00  0.00    -0.266 OA
BRANCH  74  77
ATOM     77  C   UNL     1       9.094   5.277  -4.895  1.00  0.00     0.191 A 
ATOM     78  C   UNL     1       9.770   4.138  -5.293  1.00  0.00     0.056 A 
ATOM     79  O   UNL     1       9.983   6.173  -4.372  1.00  0.00    -0.454 OA
ATOM     80  C   UNL     1      11.135   4.341  -4.974  1.00  0.00     0.048 A 
ATOM     81  C   UNL     1      11.215   5.590  -4.397  1.00  0.00     0.124 A 
BRANCH  81  82
ATOM     82  C   UNL     1      12.316   6.359  -3.772  1.00  0.00     0.191 C 
BRANCH  82  83
ATOM     83  N   UNL     1      12.630   7.514  -4.588  1.00  0.00    -0.345 N 
ATOM     84  C   UNL     1      12.777   8.822  -4.206  1.00  0.00     0.253 C 
ATOM     85  H   UNL     1      12.756   7.335  -5.548  1.00  0.00     0.164 HD
ATOM     86  O   UNL     1      12.912   9.704  -5.049  1.00  0.00    -0.269 OA
BRANCH  84  87
ATOM     87  C   UNL     1      12.758   9.191  -2.780  1.00  0.00     0.058 A 
ATOM     88  C   UNL     1      13.540   8.549  -1.818  1.00  0.00     0.017 A 
ATOM     89  C   UNL     1      11.957  10.251  -2.378  1.00  0.00     0.124 A 
ATOM     90  C   UNL     1      13.441   8.950  -0.488  1.00  0.00     0.021 A 
ATOM     91  N   UNL     1      11.850  10.665  -1.091  1.00  0.00    -0.264 NA
ATOM     92  C   UNL     1      12.587   9.998  -0.176  1.00  0.00     0.111 A 
ENDBRANCH  84  87
ENDBRANCH  82  83
ENDBRANCH  81  82
ENDBRANCH  74  77
ENDBRANCH  72  73
ENDBRANCH  71  72
ENDBRANCH  70  71
ENDBRANCH   1  70
TORSDOF 19
