REMARK SMILES O=C(NCCCCCCNC(=O)c1[nH]ncc1C[N@H+]1CCC[C@@H](C(=O)c2ccc(Oc3ccccc3)cc2)C1)c1ccc(-c2c3nc(c(-c4ccc(S(=O)(=O)[O-])cc4)c4ccc([nH]4)c(-c4ccc(S(=O)(=O)[O-])cc4)c4nc(c(-c5ccc(S(=O)(=O)[O-])cc5)c5ccc2[nH]5)C=C4)C=C3)cc1
REMARK SMILES IDX 8 1 7 2 6 3 5 4 4 5 3 6 1 7 2 8 40 10 41 11 99 12 42 13
REMARK SMILES IDX 98 14 43 15 44 16 45 17 92 18 46 19 97 20 91 21 93 22 47 23
REMARK SMILES IDX 96 24 90 25 89 26 48 28 78 29 59 30 77 31 60 32 63 33 76 34
REMARK SMILES IDX 94 35 61 36 62 37 75 39 95 40 64 41 49 42 50 43 58 44 51 45
REMARK SMILES IDX 57 46 52 47 53 48 54 49 55 50 56 51 79 52 80 53 88 54 81 55
REMARK SMILES IDX 87 56 82 57 83 58 84 59 85 60 86 61 65 62 66 63 74 64 67 65
REMARK SMILES IDX 73 66 68 67 69 68 70 69 71 70 72 71 9 72 10 73 11 74 12 76
REMARK SMILES IDX 13 77 14 78 17 79 15 80 16 82 18 83 19 84 20 85 39 86 21 88
REMARK SMILES IDX 23 89 22 90 24 91 25 92 26 93 27 94 38 95 28 96 37 97 29 98
REMARK SMILES IDX 30 99 31 100 32 101 36 102 33 103 35 104 34 105
REMARK H PARENT 3 9 93 27 63 38 10 75 14 81 19 87
REMARK Flexibility Score: inf
ROOT
ATOM      1  C   UNL     1       6.145   3.906   2.008  1.00  0.00     0.021 C 
ENDROOT
BRANCH   1   2
ATOM      2  C   UNL     1       4.637   3.990   1.763  1.00  0.00     0.002 C 
BRANCH   2   3
ATOM      3  C   UNL     1       4.191   3.848   0.305  1.00  0.00     0.002 C 
BRANCH   3   4
ATOM      4  C   UNL     1       4.718   2.618  -0.434  1.00  0.00     0.021 C 
BRANCH   4   5
ATOM      5  C   UNL     1       4.456   1.288   0.259  1.00  0.00     0.116 C 
BRANCH   5   6
ATOM      6  N   UNL     1       3.040   1.000   0.394  1.00  0.00    -0.352 N 
ATOM      7  O   UNL     1       1.133  -0.161   0.078  1.00  0.00    -0.269 OA
ATOM      8  C   UNL     1       2.359  -0.140   0.043  1.00  0.00     0.251 C 
ATOM      9  H   UNL     1       2.495   1.718   0.790  1.00  0.00     0.163 HD
BRANCH   8  10
ATOM     10  C   UNL     1       3.116  -1.333  -0.395  1.00  0.00     0.039 A 
ATOM     11  C   UNL     1       4.243  -1.758   0.313  1.00  0.00     0.014 A 
ATOM     12  C   UNL     1       2.687  -2.038  -1.523  1.00  0.00     0.014 A 
ATOM     13  C   UNL     1       5.007  -2.813  -0.171  1.00  0.00     0.010 A 
ATOM     14  C   UNL     1       3.409  -3.152  -1.960  1.00  0.00     0.010 A 
ATOM     15  C   UNL     1       4.582  -3.541  -1.294  1.00  0.00    -0.014 A 
BRANCH  15  16
ATOM     16  C   UNL     1       5.317  -4.772  -1.677  1.00  0.00     0.031 A 
ATOM     17  C   UNL     1       6.045  -4.880  -2.987  1.00  0.00     0.074 A 
ATOM     18  C   UNL     1       5.324  -5.800  -0.804  1.00  0.00     0.049 A 
ATOM     19  N   UNL     1       6.741  -5.886  -3.453  1.00  0.00    -0.248 NA
ATOM     20  C   UNL     1       5.986  -3.722  -3.893  1.00  0.00     0.031 C 
ATOM     21  C   UNL     1       4.636  -5.810   0.492  1.00  0.00     0.029 A 
ATOM     22  N   UNL     1       5.937  -7.025  -0.860  1.00  0.00    -0.354 N 
ATOM     23  C   UNL     1       7.185  -5.495  -4.711  1.00  0.00     0.074 A 
ATOM     24  C   UNL     1       6.669  -4.162  -4.943  1.00  0.00     0.031 C 
ATOM     25  C   UNL     1       4.899  -6.962   1.123  1.00  0.00     0.029 A 
ATOM     26  C   UNL     1       5.713  -7.801   0.254  1.00  0.00     0.049 A 
ATOM     27  H   UNL     1       6.484  -7.320  -1.623  1.00  0.00     0.167 HD
ATOM     28  C   UNL     1       7.952  -6.188  -5.587  1.00  0.00     0.031 A 
ATOM     29  C   UNL     1       6.096  -9.059   0.537  1.00  0.00     0.031 A 
ATOM     30  C   UNL     1       8.463  -7.513  -5.343  1.00  0.00     0.049 A 
ATOM     31  C   UNL     1       6.920  -9.809  -0.469  1.00  0.00     0.074 A 
ATOM     32  C   UNL     1       9.289  -8.276  -6.150  1.00  0.00     0.029 A 
ATOM     33  N   UNL     1       8.191  -8.276  -4.217  1.00  0.00    -0.354 N 
ATOM     34  N   UNL     1       7.376  -9.397  -1.627  1.00  0.00    -0.248 NA
ATOM     35  C   UNL     1       7.280 -11.191  -0.131  1.00  0.00     0.031 C 
ATOM     36  C   UNL     1       9.469  -9.522  -5.541  1.00  0.00     0.029 A 
ATOM     37  C   UNL     1       8.805  -9.513  -4.325  1.00  0.00     0.049 A 
ATOM     38  H   UNL     1       7.643  -7.982  -3.454  1.00  0.00     0.167 HD
ATOM     39  C   UNL     1       8.088 -10.467  -2.152  1.00  0.00     0.074 A 
ATOM     40  C   UNL     1       8.028 -11.532  -1.171  1.00  0.00     0.031 C 
ATOM     41  C   UNL     1       8.730 -10.563  -3.342  1.00  0.00     0.031 A 
BRANCH  28  42
ATOM     42  C   UNL     1       8.280  -5.546  -6.910  1.00  0.00    -0.014 A 
ATOM     43  C   UNL     1       9.222  -4.507  -7.002  1.00  0.00     0.010 A 
ATOM     44  C   UNL     1       7.717  -6.066  -8.091  1.00  0.00     0.010 A 
ATOM     45  C   UNL     1       9.586  -3.991  -8.250  1.00  0.00     0.020 A 
ATOM     46  C   UNL     1       8.094  -5.568  -9.342  1.00  0.00     0.020 A 
ATOM     47  C   UNL     1       9.023  -4.528  -9.412  1.00  0.00     0.054 A 
BRANCH  47  48
ATOM     48  S   UNL     1       9.566  -3.882 -11.019  1.00  0.00     0.124 S 
ATOM     49  O   UNL     1       8.943  -2.561 -11.038  1.00  0.00    -0.237 OA
ATOM     50  O   UNL     1      11.021  -3.887 -10.889  1.00  0.00    -0.237 OA
ATOM     51  O   UNL     1       9.025  -4.840 -11.980  1.00  0.00    -0.744 OA
ENDBRANCH  47  48
ENDBRANCH  28  42
BRANCH  29  52
ATOM     52  C   UNL     1       5.665  -9.700   1.808  1.00  0.00    -0.014 A 
ATOM     53  C   UNL     1       6.599 -10.020   2.808  1.00  0.00     0.010 A 
ATOM     54  C   UNL     1       4.305  -9.997   2.021  1.00  0.00     0.010 A 
ATOM     55  C   UNL     1       6.186 -10.655   3.983  1.00  0.00     0.020 A 
ATOM     56  C   UNL     1       3.884 -10.600   3.208  1.00  0.00     0.020 A 
ATOM     57  C   UNL     1       4.831 -10.943   4.173  1.00  0.00     0.054 A 
BRANCH  57  58
ATOM     58  S   UNL     1       4.312 -11.749   5.713  1.00  0.00     0.124 S 
ATOM     59  O   UNL     1       4.741 -13.126   5.491  1.00  0.00    -0.237 OA
ATOM     60  O   UNL     1       5.060 -11.008   6.726  1.00  0.00    -0.237 OA
ATOM     61  O   UNL     1       2.867 -11.537   5.738  1.00  0.00    -0.744 OA
ENDBRANCH  57  58
ENDBRANCH  29  52
BRANCH  41  62
ATOM     62  C   UNL     1       9.437 -11.858  -3.635  1.00  0.00    -0.014 A 
ATOM     63  C   UNL     1       8.715 -13.028  -3.933  1.00  0.00     0.010 A 
ATOM     64  C   UNL     1      10.843 -11.896  -3.644  1.00  0.00     0.010 A 
ATOM     65  C   UNL     1       9.387 -14.222  -4.200  1.00  0.00     0.020 A 
ATOM     66  C   UNL     1      11.518 -13.082  -3.940  1.00  0.00     0.020 A 
ATOM     67  C   UNL     1      10.786 -14.242  -4.201  1.00  0.00     0.054 A 
BRANCH  67  68
ATOM     68  S   UNL     1      11.636 -15.796  -4.587  1.00  0.00     0.124 S 
ATOM     69  O   UNL     1      11.437 -16.563  -3.360  1.00  0.00    -0.237 OA
ATOM     70  O   UNL     1      10.906 -16.280  -5.756  1.00  0.00    -0.237 OA
ATOM     71  O   UNL     1      13.013 -15.382  -4.846  1.00  0.00    -0.744 OA
ENDBRANCH  67  68
ENDBRANCH  41  62
ENDBRANCH  15  16
ENDBRANCH   8  10
ENDBRANCH   5   6
ENDBRANCH   4   5
ENDBRANCH   3   4
ENDBRANCH   2   3
ENDBRANCH   1   2
BRANCH   1  72
ATOM     72  C   UNL     1       6.989   4.845   1.155  1.00  0.00     0.116 C 
BRANCH  72  73
ATOM     73  N   UNL     1       6.704   6.247   1.416  1.00  0.00    -0.351 N 
ATOM     74  C   UNL     1       7.582   7.253   1.717  1.00  0.00     0.269 C 
ATOM     75  H   UNL     1       5.755   6.506   1.370  1.00  0.00     0.163 HD
ATOM     76  O   UNL     1       7.139   8.332   2.116  1.00  0.00    -0.268 OA
BRANCH  74  77
ATOM     77  C   UNL     1       8.984   6.983   1.628  1.00  0.00     0.131 A 
ATOM     78  N   UNL     1       9.840   7.282   2.651  1.00  0.00    -0.272 N 
ATOM     79  C   UNL     1       9.777   6.445   0.620  1.00  0.00     0.057 A 
ATOM     80  N   UNL     1      11.075   6.789   2.482  1.00  0.00    -0.183 NA
ATOM     81  H   UNL     1       9.575   7.811   3.438  1.00  0.00     0.190 HD
ATOM     82  C   UNL     1      11.032   6.268   1.255  1.00  0.00     0.145 A 
BRANCH  79  83
ATOM     83  C   UNL     1       9.375   6.061  -0.773  1.00  0.00     0.303 C 
BRANCH  83  84
ATOM     84  N   UNL     1       9.993   6.869  -1.835  1.00  0.00    -0.330 N 
ATOM     85  C   UNL     1       9.655   8.291  -1.758  1.00  0.00     0.262 C 
ATOM     86  C   UNL     1      11.430   6.631  -1.968  1.00  0.00     0.274 C 
ATOM     87  H   UNL     1       9.574   6.539  -2.704  1.00  0.00     0.348 HD
ATOM     88  C   UNL     1      10.203   9.044  -2.971  1.00  0.00     0.062 C 
ATOM     89  C   UNL     1      12.069   7.357  -3.159  1.00  0.00     0.116 C 
ATOM     90  C   UNL     1      11.710   8.849  -3.107  1.00  0.00     0.023 C 
BRANCH  89  91
ATOM     91  C   UNL     1      13.585   7.158  -3.090  1.00  0.00     0.171 C 
ATOM     92  O   UNL     1      14.389   8.087  -3.048  1.00  0.00    -0.294 OA
BRANCH  91  93
ATOM     93  C   UNL     1      14.110   5.770  -3.007  1.00  0.00     0.018 A 
ATOM     94  C   UNL     1      15.050   5.473  -2.017  1.00  0.00     0.015 A 
ATOM     95  C   UNL     1      13.639   4.764  -3.855  1.00  0.00     0.015 A 
ATOM     96  C   UNL     1      15.521   4.166  -1.879  1.00  0.00     0.048 A 
ATOM     97  C   UNL     1      14.110   3.455  -3.708  1.00  0.00     0.048 A 
ATOM     98  C   UNL     1      15.069   3.156  -2.734  1.00  0.00     0.127 A 
BRANCH  98  99
ATOM     99  O   UNL     1      15.596   1.906  -2.490  1.00  0.00    -0.457 OA
BRANCH  99 100
ATOM    100  C   UNL     1      15.474   0.928  -3.446  1.00  0.00     0.127 A 
ATOM    101  C   UNL     1      14.903  -0.282  -3.050  1.00  0.00     0.047 A 
ATOM    102  C   UNL     1      15.969   1.083  -4.744  1.00  0.00     0.047 A 
ATOM    103  C   UNL     1      14.769  -1.320  -3.972  1.00  0.00     0.004 A 
ATOM    104  C   UNL     1      15.821   0.046  -5.667  1.00  0.00     0.004 A 
ATOM    105  C   UNL     1      15.216  -1.151  -5.282  1.00  0.00     0.000 A 
ENDBRANCH  99 100
ENDBRANCH  98  99
ENDBRANCH  91  93
ENDBRANCH  89  91
ENDBRANCH  83  84
ENDBRANCH  79  83
ENDBRANCH  74  77
ENDBRANCH  72  73
ENDBRANCH   1  72
TORSDOF 22
