REMARK SMILES C=Cc1cc(Cl)cc2c1O[C@H](C(F)(F)F)C(C(=O)NCCCCCCNC(=O)c1ccc(-c3c4nc(c(-c5ccc(S(=O)(=O)[O-])cc5)c5ccc([nH]5)c(-c5ccc(S(=O)(=O)[O-])cc5)c5nc(c(-c6ccc(S(=O)(=O)[O-])cc6)c6ccc3[nH]6)C=C5)C=C4)cc1)=C2
REMARK SMILES IDX 23 1 22 2 21 3 20 4 19 5 17 6 18 7 16 9 3 10 4 11 9 12 5 13
REMARK SMILES IDX 8 14 10 15 6 16 7 17 89 18 11 19 2 20 1 21 12 22 13 23 14 24
REMARK SMILES IDX 15 25 24 26 25 27 26 28 27 29 28 31 29 32 30 33 88 34 31 35
REMARK SMILES IDX 87 36 32 37 33 38 34 39 81 40 35 41 86 42 80 43 82 44 36 45
REMARK SMILES IDX 85 46 79 47 78 48 37 50 67 51 48 52 66 53 49 54 52 55 65 56
REMARK SMILES IDX 83 57 50 58 51 59 64 61 84 62 53 63 38 64 39 65 47 66 40 67
REMARK SMILES IDX 46 68 41 69 42 70 43 71 44 72 45 73 68 74 69 75 77 76 70 77
REMARK SMILES IDX 76 78 71 79 72 80 73 81 74 82 75 83 54 84 55 85 63 86 56 87
REMARK SMILES IDX 62 88 57 89 58 90 59 91 60 92 61 93
REMARK H PARENT 19 8 26 30 82 49 52 60
REMARK Flexibility Score: inf
ROOT
ATOM      1  C   UNL     1      -1.950  10.494  -0.321  1.00  0.00     0.002 C 
ENDROOT
BRANCH   1   2
ATOM      2  C   UNL     1      -2.412   9.525  -1.417  1.00  0.00     0.002 C 
BRANCH   2   3
ATOM      3  C   UNL     1      -1.875   8.094  -1.310  1.00  0.00     0.021 C 
BRANCH   3   4
ATOM      4  C   UNL     1      -2.179   7.405   0.018  1.00  0.00     0.116 C 
BRANCH   4   5
ATOM      5  N   UNL     1      -3.507   6.816   0.031  1.00  0.00    -0.352 N 
ATOM      6  C   UNL     1      -4.048   5.585   0.183  1.00  0.00     0.251 C 
ATOM      7  O   UNL     1      -5.283   5.550   0.152  1.00  0.00    -0.270 OA
ATOM      8  H   UNL     1      -4.203   7.498  -0.108  1.00  0.00     0.163 HD
BRANCH   6   9
ATOM      9  C   UNL     1      -3.283   4.315   0.376  1.00  0.00     0.067 C 
ATOM     10  C   UNL     1      -1.290   0.606   0.668  1.00  0.00     0.018 A 
ATOM     11  C   UNL     1      -2.047  -0.563   0.812  1.00  0.00     0.032 A 
ATOM     12  C   UNL     1      -1.958   1.837   0.548  1.00  0.00     0.135 A 
ATOM     13  C   UNL     1      -3.441  -0.497   0.810  1.00  0.00     0.042 A 
ATOM     14  C   UNL     1      -3.355   1.901   0.534  1.00  0.00     0.019 A 
ATOM     15  O   UNL     1      -1.190   2.956   0.378  1.00  0.00    -0.475 OA
ATOM     16  Cl  UNL     1      -4.361  -1.942   0.979  1.00  0.00    -0.084 Cl
ATOM     17  C   UNL     1      -4.098   0.725   0.666  1.00  0.00     0.032 A 
ATOM     18  C   UNL     1      -4.015   3.186   0.336  1.00  0.00     0.025 C 
ATOM     19  C   UNL     1      -1.806   4.242   0.642  1.00  0.00     0.314 C 
BRANCH  10  20
ATOM     20  C   UNL     1       0.180   0.559   0.694  1.00  0.00     0.004 C 
ATOM     21  C   UNL     1       0.912  -0.283  -0.045  1.00  0.00     0.009 C 
ENDBRANCH  10  20
BRANCH  19  22
ATOM     22  C   UNL     1      -1.436   4.694   2.065  1.00  0.00     0.429 C 
ATOM     23  F   UNL     1      -0.100   4.894   2.170  1.00  0.00    -0.167 F 
ATOM     24  F   UNL     1      -2.028   5.861   2.408  1.00  0.00    -0.167 F 
ATOM     25  F   UNL     1      -1.788   3.783   3.001  1.00  0.00    -0.167 F 
ENDBRANCH  19  22
ENDBRANCH   6   9
ENDBRANCH   4   5
ENDBRANCH   3   4
ENDBRANCH   2   3
ENDBRANCH   1   2
BRANCH   1  26
ATOM     26  C   UNL     1      -0.446  10.508  -0.034  1.00  0.00     0.021 C 
BRANCH  26  27
ATOM     27  C   UNL     1       0.438  10.839  -1.230  1.00  0.00     0.116 C 
BRANCH  27  28
ATOM     28  N   UNL     1       0.221  12.185  -1.733  1.00  0.00    -0.352 N 
ATOM     29  C   UNL     1       1.143  13.170  -2.000  1.00  0.00     0.251 C 
ATOM     30  H   UNL     1      -0.718  12.426  -1.906  1.00  0.00     0.163 HD
ATOM     31  O   UNL     1       0.768  14.304  -2.282  1.00  0.00    -0.269 OA
BRANCH  29  32
ATOM     32  C   UNL     1       2.587  12.862  -1.910  1.00  0.00     0.039 A 
ATOM     33  C   UNL     1       3.106  11.704  -2.494  1.00  0.00     0.014 A 
ATOM     34  C   UNL     1       3.426  13.732  -1.207  1.00  0.00     0.014 A 
ATOM     35  C   UNL     1       4.425  11.339  -2.245  1.00  0.00     0.010 A 
ATOM     36  C   UNL     1       4.771  13.400  -1.024  1.00  0.00     0.010 A 
ATOM     37  C   UNL     1       5.271  12.179  -1.502  1.00  0.00    -0.014 A 
BRANCH  37  38
ATOM     38  C   UNL     1       6.672  11.759  -1.239  1.00  0.00     0.031 A 
ATOM     39  C   UNL     1       7.134  11.450   0.161  1.00  0.00     0.074 A 
ATOM     40  C   UNL     1       7.515  11.596  -2.278  1.00  0.00     0.049 A 
ATOM     41  N   UNL     1       8.308  11.035   0.564  1.00  0.00    -0.248 NA
ATOM     42  C   UNL     1       6.157  11.624   1.249  1.00  0.00     0.031 C 
ATOM     43  C   UNL     1       7.173  11.840  -3.681  1.00  0.00     0.029 A 
ATOM     44  N   UNL     1       8.814  11.156  -2.324  1.00  0.00    -0.354 N 
ATOM     45  C   UNL     1       8.216  10.910   1.945  1.00  0.00     0.074 A 
ATOM     46  C   UNL     1       6.881  11.321   2.319  1.00  0.00     0.031 C 
ATOM     47  C   UNL     1       8.211  11.486  -4.452  1.00  0.00     0.029 A 
ATOM     48  C   UNL     1       9.315  11.054  -3.600  1.00  0.00     0.049 A 
ATOM     49  H   UNL     1       9.337  10.934  -1.520  1.00  0.00     0.167 HD
ATOM     50  C   UNL     1       9.156  10.479   2.819  1.00  0.00     0.031 A 
ATOM     51  C   UNL     1      10.527  10.664  -4.045  1.00  0.00     0.031 A 
ATOM     52  C   UNL     1      10.481  10.060   2.439  1.00  0.00     0.049 A 
ATOM     53  C   UNL     1      11.569  10.239  -3.052  1.00  0.00     0.074 A 
ATOM     54  C   UNL     1      11.498   9.597   3.256  1.00  0.00     0.029 A 
ATOM     55  N   UNL     1      10.971  10.045   1.142  1.00  0.00    -0.354 N 
ATOM     56  N   UNL     1      11.463  10.134  -1.749  1.00  0.00    -0.248 NA
ATOM     57  C   UNL     1      12.893   9.886  -3.581  1.00  0.00     0.031 C 
ATOM     58  C   UNL     1      12.621   9.357   2.461  1.00  0.00     0.029 A 
ATOM     59  C   UNL     1      12.284   9.606   1.140  1.00  0.00     0.049 A 
ATOM     60  H   UNL     1      10.461  10.308   0.342  1.00  0.00     0.167 HD
ATOM     61  C   UNL     1      12.704   9.699  -1.302  1.00  0.00     0.074 A 
ATOM     62  C   UNL     1      13.540   9.539  -2.475  1.00  0.00     0.031 C 
ATOM     63  C   UNL     1      13.111   9.460  -0.032  1.00  0.00     0.031 A 
BRANCH  50  64
ATOM     64  C   UNL     1       8.804  10.432   4.283  1.00  0.00    -0.014 A 
ATOM     65  C   UNL     1       9.430  11.317   5.181  1.00  0.00     0.010 A 
ATOM     66  C   UNL     1       7.947   9.438   4.788  1.00  0.00     0.010 A 
ATOM     67  C   UNL     1       9.227  11.194   6.558  1.00  0.00     0.020 A 
ATOM     68  C   UNL     1       7.721   9.328   6.164  1.00  0.00     0.020 A 
ATOM     69  C   UNL     1       8.381  10.193   7.042  1.00  0.00     0.054 A 
BRANCH  69  70
ATOM     70  S   UNL     1       8.141  10.035   8.833  1.00  0.00     0.124 S 
ATOM     71  O   UNL     1       9.372   9.374   9.252  1.00  0.00    -0.237 OA
ATOM     72  O   UNL     1       7.991  11.424   9.261  1.00  0.00    -0.237 OA
ATOM     73  O   UNL     1       6.927   9.227   8.944  1.00  0.00    -0.744 OA
ENDBRANCH  69  70
ENDBRANCH  50  64
BRANCH  51  74
ATOM     74  C   UNL     1      10.786  10.649  -5.510  1.00  0.00    -0.014 A 
ATOM     75  C   UNL     1      10.838  11.855  -6.235  1.00  0.00     0.010 A 
ATOM     76  C   UNL     1      10.877   9.430  -6.203  1.00  0.00     0.010 A 
ATOM     77  C   UNL     1      10.906  11.842  -7.630  1.00  0.00     0.020 A 
ATOM     78  C   UNL     1      10.976   9.414  -7.598  1.00  0.00     0.020 A 
ATOM     79  C   UNL     1      10.956  10.620  -8.303  1.00  0.00     0.054 A 
BRANCH  79  80
ATOM     80  S   UNL     1      10.974  10.623 -10.117  1.00  0.00     0.124 S 
ATOM     81  O   UNL     1       9.569  10.874 -10.428  1.00  0.00    -0.237 OA
ATOM     82  O   UNL     1      11.892  11.716 -10.428  1.00  0.00    -0.237 OA
ATOM     83  O   UNL     1      11.461   9.288 -10.455  1.00  0.00    -0.744 OA
ENDBRANCH  79  80
ENDBRANCH  51  74
BRANCH  63  84
ATOM     84  C   UNL     1      14.530   9.007   0.184  1.00  0.00    -0.014 A 
ATOM     85  C   UNL     1      14.785   7.696   0.630  1.00  0.00     0.010 A 
ATOM     86  C   UNL     1      15.597   9.916   0.081  1.00  0.00     0.010 A 
ATOM     87  C   UNL     1      16.074   7.314   1.005  1.00  0.00     0.020 A 
ATOM     88  C   UNL     1      16.893   9.529   0.431  1.00  0.00     0.020 A 
ATOM     89  C   UNL     1      17.119   8.238   0.916  1.00  0.00     0.054 A 
BRANCH  89  90
ATOM     90  S   UNL     1      18.779   7.737   1.446  1.00  0.00     0.124 S 
ATOM     91  O   UNL     1      18.674   7.814   2.900  1.00  0.00    -0.237 OA
ATOM     92  O   UNL     1      18.902   6.390   0.893  1.00  0.00    -0.237 OA
ATOM     93  O   UNL     1      19.650   8.736   0.829  1.00  0.00    -0.744 OA
ENDBRANCH  89  90
ENDBRANCH  63  84
ENDBRANCH  37  38
ENDBRANCH  29  32
ENDBRANCH  27  28
ENDBRANCH  26  27
ENDBRANCH   1  26
TORSDOF 18
