REMARK SMILES O=C(NCCCCCCNC(=O)[C@H](c1c[nH]c2ccc(Cl)cc12)[NH+]1CCN(c2cccc(Cl)c2)CC1)c1ccc(-c2c3nc(c(-c4ccc(S(=O)(=O)[O-])cc4)c4ccc([nH]4)c(-c4ccc(S(=O)(=O)[O-])cc4)c4nc(c(-c5ccc(S(=O)(=O)[O-])cc5)c5ccc2[nH]5)C=C4)C=C3)cc1
REMARK SMILES IDX 6 1 5 2 4 3 3 4 1 5 2 6 37 8 38 9 96 10 39 11 95 12 40 13
REMARK SMILES IDX 41 14 42 15 89 16 43 17 94 18 88 19 90 20 44 21 93 22 87 23
REMARK SMILES IDX 86 24 45 26 75 27 56 28 74 29 57 30 60 31 73 32 91 33 58 34
REMARK SMILES IDX 59 35 72 37 92 38 61 39 46 40 47 41 55 42 48 43 54 44 49 45
REMARK SMILES IDX 50 46 51 47 52 48 53 49 76 50 77 51 85 52 78 53 84 54 79 55
REMARK SMILES IDX 80 56 81 57 82 58 83 59 62 60 63 61 71 62 64 63 70 64 65 65
REMARK SMILES IDX 66 66 67 67 68 68 69 69 7 70 8 71 9 72 10 73 11 74 12 76
REMARK SMILES IDX 13 77 24 78 25 79 36 80 26 82 35 83 27 84 28 85 29 86 34 87
REMARK SMILES IDX 30 88 32 89 31 90 33 91 14 92 15 93 23 94 16 95 17 96 22 97
REMARK SMILES IDX 18 99 20 100 19 101 21 102
REMARK H PARENT 3 7 90 25 60 36 10 75 24 81 16 98
REMARK Flexibility Score: inf
ROOT
ATOM      1  C   UNL     1       7.346  -8.716   0.733  1.00  0.00     0.002 C 
ENDROOT
BRANCH   1   2
ATOM      2  C   UNL     1       6.538  -9.846   1.377  1.00  0.00     0.021 C 
BRANCH   2   3
ATOM      3  C   UNL     1       5.055  -9.814   1.033  1.00  0.00     0.116 C 
BRANCH   3   4
ATOM      4  N   UNL     1       4.844  -9.974  -0.394  1.00  0.00    -0.352 N 
ATOM      5  O   UNL     1       4.343 -11.130  -2.262  1.00  0.00    -0.269 OA
ATOM      6  C   UNL     1       4.208 -10.994  -1.053  1.00  0.00     0.251 C 
ATOM      7  H   UNL     1       5.203  -9.255  -0.963  1.00  0.00     0.163 HD
BRANCH   6   8
ATOM      8  C   UNL     1       3.367 -11.928  -0.279  1.00  0.00     0.039 A 
ATOM      9  C   UNL     1       2.452 -11.438   0.661  1.00  0.00     0.014 A 
ATOM     10  C   UNL     1       3.493 -13.299  -0.501  1.00  0.00     0.014 A 
ATOM     11  C   UNL     1       1.736 -12.326   1.454  1.00  0.00     0.010 A 
ATOM     12  C   UNL     1       2.716 -14.185   0.243  1.00  0.00     0.010 A 
ATOM     13  C   UNL     1       1.845 -13.707   1.237  1.00  0.00    -0.014 A 
BRANCH  13  14
ATOM     14  C   UNL     1       0.999 -14.652   2.002  1.00  0.00     0.031 A 
ATOM     15  C   UNL     1       1.619 -15.661   2.923  1.00  0.00     0.074 A 
ATOM     16  C   UNL     1      -0.334 -14.625   1.817  1.00  0.00     0.049 A 
ATOM     17  N   UNL     1       1.046 -16.633   3.584  1.00  0.00    -0.248 NA
ATOM     18  C   UNL     1       3.075 -15.574   3.119  1.00  0.00     0.031 C 
ATOM     19  C   UNL     1      -1.046 -13.681   0.951  1.00  0.00     0.029 A 
ATOM     20  N   UNL     1      -1.326 -15.419   2.331  1.00  0.00    -0.354 N 
ATOM     21  C   UNL     1       2.070 -17.294   4.251  1.00  0.00     0.074 A 
ATOM     22  C   UNL     1       3.304 -16.624   3.896  1.00  0.00     0.031 C 
ATOM     23  C   UNL     1      -2.359 -13.946   1.000  1.00  0.00     0.029 A 
ATOM     24  C   UNL     1      -2.574 -15.119   1.840  1.00  0.00     0.049 A 
ATOM     25  H   UNL     1      -1.161 -16.134   2.987  1.00  0.00     0.167 HD
ATOM     26  C   UNL     1       1.986 -18.364   5.077  1.00  0.00     0.031 A 
ATOM     27  C   UNL     1      -3.756 -15.740   2.008  1.00  0.00     0.031 A 
ATOM     28  C   UNL     1       0.752 -19.032   5.401  1.00  0.00     0.049 A 
ATOM     29  C   UNL     1      -3.821 -16.956   2.884  1.00  0.00     0.074 A 
ATOM     30  C   UNL     1       0.552 -20.108   6.248  1.00  0.00     0.029 A 
ATOM     31  N   UNL     1      -0.491 -18.700   4.878  1.00  0.00    -0.354 N 
ATOM     32  N   UNL     1      -2.849 -17.551   3.533  1.00  0.00    -0.248 NA
ATOM     33  C   UNL     1      -5.138 -17.580   3.060  1.00  0.00     0.031 C 
ATOM     34  C   UNL     1      -0.798 -20.466   6.187  1.00  0.00     0.029 A 
ATOM     35  C   UNL     1      -1.456 -19.565   5.363  1.00  0.00     0.049 A 
ATOM     36  H   UNL     1      -0.660 -17.957   4.254  1.00  0.00     0.167 HD
ATOM     37  C   UNL     1      -3.441 -18.602   4.222  1.00  0.00     0.074 A 
ATOM     38  C   UNL     1      -4.856 -18.560   3.910  1.00  0.00     0.031 C 
ATOM     39  C   UNL     1      -2.864 -19.509   5.048  1.00  0.00     0.031 A 
BRANCH  26  40
ATOM     40  C   UNL     1       3.274 -18.909   5.641  1.00  0.00    -0.014 A 
ATOM     41  C   UNL     1       4.041 -18.179   6.568  1.00  0.00     0.010 A 
ATOM     42  C   UNL     1       3.725 -20.180   5.237  1.00  0.00     0.010 A 
ATOM     43  C   UNL     1       5.263 -18.679   7.027  1.00  0.00     0.020 A 
ATOM     44  C   UNL     1       4.930 -20.699   5.720  1.00  0.00     0.020 A 
ATOM     45  C   UNL     1       5.705 -19.932   6.590  1.00  0.00     0.054 A 
BRANCH  45  46
ATOM     46  S   UNL     1       7.308 -20.543   7.178  1.00  0.00     0.124 S 
ATOM     47  O   UNL     1       8.241 -19.689   6.446  1.00  0.00    -0.237 OA
ATOM     48  O   UNL     1       7.235 -20.303   8.617  1.00  0.00    -0.237 OA
ATOM     49  O   UNL     1       7.311 -21.949   6.782  1.00  0.00    -0.744 OA
ENDBRANCH  45  46
ENDBRANCH  26  40
BRANCH  27  50
ATOM     50  C   UNL     1      -4.957 -15.209   1.309  1.00  0.00    -0.014 A 
ATOM     51  C   UNL     1      -5.963 -14.540   2.024  1.00  0.00     0.010 A 
ATOM     52  C   UNL     1      -5.054 -15.296  -0.094  1.00  0.00     0.010 A 
ATOM     53  C   UNL     1      -7.042 -13.960   1.350  1.00  0.00     0.020 A 
ATOM     54  C   UNL     1      -6.115 -14.693  -0.773  1.00  0.00     0.020 A 
ATOM     55  C   UNL     1      -7.105 -14.031  -0.045  1.00  0.00     0.054 A 
BRANCH  55  56
ATOM     56  S   UNL     1      -8.464 -13.186  -0.900  1.00  0.00     0.124 S 
ATOM     57  O   UNL     1      -9.607 -14.026  -0.558  1.00  0.00    -0.237 OA
ATOM     58  O   UNL     1      -8.445 -11.861  -0.285  1.00  0.00    -0.237 OA
ATOM     59  O   UNL     1      -8.059 -13.219  -2.304  1.00  0.00    -0.744 OA
ENDBRANCH  55  56
ENDBRANCH  27  50
BRANCH  39  60
ATOM     60  C   UNL     1      -3.763 -20.506   5.729  1.00  0.00    -0.014 A 
ATOM     61  C   UNL     1      -4.331 -21.585   5.031  1.00  0.00     0.010 A 
ATOM     62  C   UNL     1      -3.955 -20.411   7.121  1.00  0.00     0.010 A 
ATOM     63  C   UNL     1      -5.083 -22.547   5.713  1.00  0.00     0.020 A 
ATOM     64  C   UNL     1      -4.681 -21.385   7.809  1.00  0.00     0.020 A 
ATOM     65  C   UNL     1      -5.245 -22.445   7.099  1.00  0.00     0.054 A 
BRANCH  65  66
ATOM     66  S   UNL     1      -6.147 -23.755   7.972  1.00  0.00     0.124 S 
ATOM     67  O   UNL     1      -7.524 -23.505   7.555  1.00  0.00    -0.237 OA
ATOM     68  O   UNL     1      -5.539 -24.971   7.439  1.00  0.00    -0.237 OA
ATOM     69  O   UNL     1      -5.866 -23.490   9.381  1.00  0.00    -0.744 OA
ENDBRANCH  65  66
ENDBRANCH  39  60
ENDBRANCH  13  14
ENDBRANCH   6   8
ENDBRANCH   3   4
ENDBRANCH   2   3
ENDBRANCH   1   2
BRANCH   1  70
ATOM     70  C   UNL     1       6.829  -7.307   1.042  1.00  0.00     0.002 C 
BRANCH  70  71
ATOM     71  C   UNL     1       6.588  -7.025   2.528  1.00  0.00     0.021 C 
BRANCH  71  72
ATOM     72  C   UNL     1       7.794  -7.334   3.402  1.00  0.00     0.116 C 
BRANCH  72  73
ATOM     73  N   UNL     1       8.875  -6.418   3.155  1.00  0.00    -0.351 N 
ATOM     74  C   UNL     1       9.508  -5.530   3.958  1.00  0.00     0.283 C 
ATOM     75  H   UNL     1       9.217  -6.440   2.233  1.00  0.00     0.163 HD
ATOM     76  O   UNL     1      10.662  -5.314   3.553  1.00  0.00    -0.268 OA
BRANCH  74  77
ATOM     77  C   UNL     1       8.936  -4.905   5.295  1.00  0.00     0.307 C 
BRANCH  77  78
ATOM     78  N   UNL     1       9.441  -3.532   5.653  1.00  0.00    -0.318 N 
ATOM     79  C   UNL     1      10.662  -3.066   4.958  1.00  0.00     0.284 C 
ATOM     80  C   UNL     1       8.527  -2.381   5.771  1.00  0.00     0.284 C 
ATOM     81  H   UNL     1       9.641  -3.813   6.612  1.00  0.00     0.349 HD
ATOM     82  C   UNL     1      10.375  -2.458   3.560  1.00  0.00     0.178 C 
ATOM     83  C   UNL     1       8.255  -1.545   4.487  1.00  0.00     0.178 C 
ATOM     84  N   UNL     1       9.493  -1.301   3.736  1.00  0.00    -0.360 N 
BRANCH  84  85
ATOM     85  C   UNL     1       9.547  -0.258   2.832  1.00  0.00     0.038 A 
ATOM     86  C   UNL     1       9.619   1.054   3.319  1.00  0.00     0.026 A 
ATOM     87  C   UNL     1       9.606  -0.454   1.447  1.00  0.00     0.046 A 
ATOM     88  C   UNL     1       9.797   2.139   2.460  1.00  0.00     0.004 A 
ATOM     89  C   UNL     1       9.764   0.633   0.585  1.00  0.00     0.043 A 
ATOM     90  C   UNL     1       9.875   1.928   1.087  1.00  0.00     0.020 A 
ATOM     91  Cl  UNL     1       9.843   0.375  -1.116  1.00  0.00    -0.084 Cl
ENDBRANCH  84  85
ENDBRANCH  77  78
BRANCH  77  92
ATOM     92  C   UNL     1       7.438  -5.091   5.526  1.00  0.00     0.044 A 
ATOM     93  C   UNL     1       6.380  -4.460   4.889  1.00  0.00     0.094 A 
ATOM     94  C   UNL     1       6.824  -6.104   6.365  1.00  0.00     0.011 A 
ATOM     95  N   UNL     1       5.198  -4.972   5.351  1.00  0.00    -0.361 N 
ATOM     96  C   UNL     1       5.443  -6.049   6.164  1.00  0.00     0.046 A 
ATOM     97  C   UNL     1       7.334  -7.158   7.160  1.00  0.00     0.031 A 
ATOM     98  H   UNL     1       4.305  -4.620   5.133  1.00  0.00     0.166 HD
ATOM     99  C   UNL     1       4.549  -6.989   6.691  1.00  0.00     0.028 A 
ATOM    100  C   UNL     1       6.455  -8.131   7.651  1.00  0.00     0.041 A 
ATOM    101  C   UNL     1       5.086  -8.053   7.419  1.00  0.00     0.022 A 
ATOM    102  Cl  UNL     1       7.092  -9.487   8.501  1.00  0.00    -0.084 Cl
ENDBRANCH  77  92
ENDBRANCH  74  77
ENDBRANCH  72  73
ENDBRANCH  71  72
ENDBRANCH  70  71
ENDBRANCH   1  70
TORSDOF 19
