REMARK SMILES Cc1nc(C)c(C(=O)N[C@@H](CCS(C)(=O)=O)C(=O)NCCCCCCNC(=O)c2ccc(-c3c4nc(c(-c5ccc(S(=O)(=O)[O-])cc5)c5ccc([nH]5)c(-c5ccc(S(=O)(=O)[O-])cc5)c5nc(c(-c6ccc(S(=O)(=O)[O-])cc6)c6ccc3[nH]6)C=C5)C=C4)cc2)s1
REMARK SMILES IDX 22 1 21 2 20 3 19 4 17 5 18 6 10 8 9 9 7 10 8 11 6 13 1 14
REMARK SMILES IDX 2 15 3 16 89 17 4 18 5 19 11 20 12 21 13 22 14 23 15 24
REMARK SMILES IDX 16 25 23 26 24 27 25 28 26 29 27 30 28 32 29 33 30 34 88 35
REMARK SMILES IDX 31 36 87 37 32 38 33 39 34 40 81 41 35 42 86 43 80 44 82 45
REMARK SMILES IDX 36 46 85 47 79 48 78 49 37 51 67 52 48 53 66 54 49 55 52 56
REMARK SMILES IDX 65 57 83 58 50 59 51 60 64 62 84 63 53 64 38 65 39 66 47 67
REMARK SMILES IDX 40 68 46 69 41 70 42 71 43 72 44 73 45 74 68 75 69 76 77 77
REMARK SMILES IDX 70 78 76 79 71 80 72 81 73 82 74 83 75 84 54 85 55 86 63 87
REMARK SMILES IDX 56 88 62 89 57 90 58 91 59 92 60 93 61 94
REMARK H PARENT 19 7 9 12 26 31 82 50 52 61
REMARK Flexibility Score: inf
ROOT
ATOM      1  C   UNL     1      -1.451  -8.119  -2.741  1.00  0.00     0.002 C 
ENDROOT
BRANCH   1   2
ATOM      2  C   UNL     1      -2.156  -7.066  -1.876  1.00  0.00     0.021 C 
BRANCH   2   3
ATOM      3  C   UNL     1      -1.252  -6.235  -0.971  1.00  0.00     0.116 C 
BRANCH   3   4
ATOM      4  N   UNL     1      -0.279  -5.445  -1.699  1.00  0.00    -0.354 N 
ATOM      5  C   UNL     1       0.650  -4.547  -1.274  1.00  0.00     0.242 C 
ATOM      6  O   UNL     1       1.564  -4.253  -2.055  1.00  0.00    -0.273 OA
ATOM      7  H   UNL     1      -0.294  -5.581  -2.674  1.00  0.00     0.163 HD
BRANCH   5   8
ATOM      8  C   UNL     1       0.666  -3.952   0.145  1.00  0.00     0.172 C 
BRANCH   8   9
ATOM      9  N   UNL     1      -0.646  -3.475   0.586  1.00  0.00    -0.339 N 
ATOM     10  C   UNL     1      -1.303  -2.267   0.438  1.00  0.00     0.263 C 
ATOM     11  O   UNL     1      -2.526  -2.373   0.578  1.00  0.00    -0.268 OA
ATOM     12  H   UNL     1      -1.162  -4.147   1.087  1.00  0.00     0.164 HD
BRANCH  10  13
ATOM     13  C   UNL     1      -0.671  -0.967   0.200  1.00  0.00     0.115 A 
ATOM     14  C   UNL     1       1.955   1.919  -0.048  1.00  0.00     0.079 C 
ATOM     15  C   UNL     1       0.792   0.992  -0.005  1.00  0.00     0.091 A 
ATOM     16  N   UNL     1      -0.457   1.365  -0.129  1.00  0.00    -0.246 NA
ATOM     17  S   UNL     1       1.018  -0.669   0.275  1.00  0.00    -0.113 S 
ATOM     18  C   UNL     1      -1.305   0.267   0.008  1.00  0.00     0.061 A 
ATOM     19  C   UNL     1      -2.763   0.585  -0.019  1.00  0.00     0.068 C 
ENDBRANCH  10  13
ENDBRANCH   8   9
BRANCH   8  20
ATOM     20  C   UNL     1       1.451  -4.683   1.255  1.00  0.00     0.051 C 
BRANCH  20  21
ATOM     21  C   UNL     1       1.280  -6.173   1.510  1.00  0.00     0.139 C 
BRANCH  21  22
ATOM     22  S   UNL     1       2.242  -7.286   0.481  1.00  0.00     0.147 S 
ATOM     23  C   UNL     1       3.937  -6.801   0.669  1.00  0.00     0.158 C 
ATOM     24  O   UNL     1       2.104  -8.613   1.056  1.00  0.00    -0.229 OA
ATOM     25  O   UNL     1       1.908  -7.067  -0.905  1.00  0.00    -0.229 OA
ENDBRANCH  21  22
ENDBRANCH  20  21
ENDBRANCH   8  20
ENDBRANCH   5   8
ENDBRANCH   3   4
ENDBRANCH   2   3
ENDBRANCH   1   2
BRANCH   1  26
ATOM     26  C   UNL     1      -0.587  -9.155  -2.016  1.00  0.00     0.002 C 
BRANCH  26  27
ATOM     27  C   UNL     1      -1.240  -9.897  -0.852  1.00  0.00     0.021 C 
BRANCH  27  28
ATOM     28  C   UNL     1      -2.563 -10.569  -1.183  1.00  0.00     0.116 C 
BRANCH  28  29
ATOM     29  N   UNL     1      -2.459 -11.519  -2.276  1.00  0.00    -0.352 N 
ATOM     30  C   UNL     1      -3.012 -12.770  -2.390  1.00  0.00     0.251 C 
ATOM     31  H   UNL     1      -1.915 -11.226  -3.042  1.00  0.00     0.163 HD
ATOM     32  O   UNL     1      -2.709 -13.492  -3.335  1.00  0.00    -0.269 OA
BRANCH  30  33
ATOM     33  C   UNL     1      -3.952 -13.252  -1.355  1.00  0.00     0.039 A 
ATOM     34  C   UNL     1      -3.821 -14.561  -0.886  1.00  0.00     0.014 A 
ATOM     35  C   UNL     1      -4.952 -12.419  -0.844  1.00  0.00     0.014 A 
ATOM     36  C   UNL     1      -4.663 -15.017   0.129  1.00  0.00     0.010 A 
ATOM     37  C   UNL     1      -5.727 -12.845   0.229  1.00  0.00     0.010 A 
ATOM     38  C   UNL     1      -5.604 -14.154   0.715  1.00  0.00    -0.014 A 
BRANCH  38  39
ATOM     39  C   UNL     1      -6.483 -14.614   1.820  1.00  0.00     0.031 A 
ATOM     40  C   UNL     1      -7.976 -14.650   1.628  1.00  0.00     0.074 A 
ATOM     41  C   UNL     1      -5.942 -14.957   3.006  1.00  0.00     0.049 A 
ATOM     42  N   UNL     1      -8.909 -14.994   2.479  1.00  0.00    -0.248 NA
ATOM     43  C   UNL     1      -8.493 -14.219   0.318  1.00  0.00     0.031 C 
ATOM     44  C   UNL     1      -4.513 -14.923   3.327  1.00  0.00     0.029 A 
ATOM     45  N   UNL     1      -6.530 -15.403   4.162  1.00  0.00    -0.354 N 
ATOM     46  C   UNL     1     -10.116 -14.808   1.814  1.00  0.00     0.074 A 
ATOM     47  C   UNL     1      -9.802 -14.263   0.513  1.00  0.00     0.031 C 
ATOM     48  C   UNL     1      -4.333 -15.367   4.581  1.00  0.00     0.029 A 
ATOM     49  C   UNL     1      -5.633 -15.674   5.169  1.00  0.00     0.049 A 
ATOM     50  H   UNL     1      -7.503 -15.519   4.262  1.00  0.00     0.167 HD
ATOM     51  C   UNL     1     -11.371 -15.088   2.239  1.00  0.00     0.031 A 
ATOM     52  C   UNL     1      -5.834 -16.116   6.426  1.00  0.00     0.031 A 
ATOM     53  C   UNL     1     -11.675 -15.639   3.533  1.00  0.00     0.049 A 
ATOM     54  C   UNL     1      -7.239 -16.409   6.878  1.00  0.00     0.074 A 
ATOM     55  C   UNL     1     -12.908 -16.006   4.043  1.00  0.00     0.029 A 
ATOM     56  N   UNL     1     -10.738 -15.901   4.522  1.00  0.00    -0.354 N 
ATOM     57  N   UNL     1      -8.363 -16.286   6.212  1.00  0.00    -0.248 NA
ATOM     58  C   UNL     1      -7.402 -16.916   8.248  1.00  0.00     0.031 C 
ATOM     59  C   UNL     1     -12.724 -16.433   5.361  1.00  0.00     0.029 A 
ATOM     60  C   UNL     1     -11.368 -16.402   5.648  1.00  0.00     0.049 A 
ATOM     61  H   UNL     1      -9.769 -15.753   4.435  1.00  0.00     0.167 HD
ATOM     62  C   UNL     1      -9.362 -16.735   7.070  1.00  0.00     0.074 A 
ATOM     63  C   UNL     1      -8.707 -17.144   8.295  1.00  0.00     0.031 C 
ATOM     64  C   UNL     1     -10.701 -16.805   6.861  1.00  0.00     0.031 A 
BRANCH  51  65
ATOM     65  C   UNL     1     -12.509 -14.796   1.295  1.00  0.00    -0.014 A 
ATOM     66  C   UNL     1     -12.683 -15.536   0.110  1.00  0.00     0.010 A 
ATOM     67  C   UNL     1     -13.445 -13.796   1.616  1.00  0.00     0.010 A 
ATOM     68  C   UNL     1     -13.743 -15.252  -0.755  1.00  0.00     0.020 A 
ATOM     69  C   UNL     1     -14.526 -13.531   0.770  1.00  0.00     0.020 A 
ATOM     70  C   UNL     1     -14.659 -14.251  -0.418  1.00  0.00     0.054 A 
BRANCH  70  71
ATOM     71  S   UNL     1     -16.042 -13.926  -1.545  1.00  0.00     0.124 S 
ATOM     72  O   UNL     1     -15.367 -13.295  -2.677  1.00  0.00    -0.237 OA
ATOM     73  O   UNL     1     -16.570 -15.264  -1.797  1.00  0.00    -0.237 OA
ATOM     74  O   UNL     1     -16.919 -13.047  -0.775  1.00  0.00    -0.744 OA
ENDBRANCH  70  71
ENDBRANCH  51  65
BRANCH  52  75
ATOM     75  C   UNL     1      -4.675 -16.325   7.338  1.00  0.00    -0.014 A 
ATOM     76  C   UNL     1      -4.301 -17.621   7.738  1.00  0.00     0.010 A 
ATOM     77  C   UNL     1      -3.934 -15.226   7.809  1.00  0.00     0.010 A 
ATOM     78  C   UNL     1      -3.226 -17.811   8.611  1.00  0.00     0.020 A 
ATOM     79  C   UNL     1      -2.838 -15.414   8.656  1.00  0.00     0.020 A 
ATOM     80  C   UNL     1      -2.500 -16.706   9.063  1.00  0.00     0.054 A 
BRANCH  80  81
ATOM     81  S   UNL     1      -1.083 -16.979  10.164  1.00  0.00     0.124 S 
ATOM     82  O   UNL     1      -1.737 -17.368  11.409  1.00  0.00    -0.237 OA
ATOM     83  O   UNL     1      -0.350 -18.038   9.476  1.00  0.00    -0.237 OA
ATOM     84  O   UNL     1      -0.413 -15.681  10.188  1.00  0.00    -0.744 OA
ENDBRANCH  80  81
ENDBRANCH  52  75
BRANCH  64  85
ATOM     85  C   UNL     1     -11.544 -17.390   7.964  1.00  0.00    -0.014 A 
ATOM     86  C   UNL     1     -11.746 -16.709   9.177  1.00  0.00     0.010 A 
ATOM     87  C   UNL     1     -12.180 -18.630   7.760  1.00  0.00     0.010 A 
ATOM     88  C   UNL     1     -12.533 -17.278  10.183  1.00  0.00     0.020 A 
ATOM     89  C   UNL     1     -12.995 -19.185   8.749  1.00  0.00     0.020 A 
ATOM     90  C   UNL     1     -13.151 -18.513   9.963  1.00  0.00     0.054 A 
BRANCH  90  91
ATOM     91  S   UNL     1     -14.188 -19.215  11.274  1.00  0.00     0.124 S 
ATOM     92  O   UNL     1     -13.194 -19.625  12.261  1.00  0.00    -0.237 OA
ATOM     93  O   UNL     1     -15.028 -18.083  11.658  1.00  0.00    -0.237 OA
ATOM     94  O   UNL     1     -14.893 -20.309  10.610  1.00  0.00    -0.744 OA
ENDBRANCH  90  91
ENDBRANCH  64  85
ENDBRANCH  38  39
ENDBRANCH  30  33
ENDBRANCH  28  29
ENDBRANCH  27  28
ENDBRANCH  26  27
ENDBRANCH   1  26
TORSDOF 21
