REMARK SMILES Cc1nn(C)c(C)c1C[C@@H](C)C(=O)N[C@@H](C(=O)NCCCCCCNC(=O)c1ccc(-c2c3nc(c(-c4ccc(S(=O)(=O)[O-])cc4)c4ccc([nH]4)c(-c4ccc(S(=O)(=O)[O-])cc4)c4nc(c(-c5ccc(S(=O)(=O)[O-])cc5)c5ccc2[nH]5)C=C4)C=C3)cc1)c1ccccc1Cl
REMARK SMILES IDX 21 1 20 2 19 3 18 4 16 5 17 6 15 8 14 9 12 10 13 11 10 13
REMARK SMILES IDX 11 14 9 15 8 16 1 17 2 18 3 19 4 20 6 21 5 22 7 23 88 24
REMARK SMILES IDX 89 25 93 26 90 27 92 28 94 29 91 30 22 31 23 32 24 33 25 34
REMARK SMILES IDX 26 35 27 37 28 38 29 39 87 40 30 41 86 42 31 43 32 44 33 45
REMARK SMILES IDX 80 46 34 47 85 48 79 49 81 50 35 51 84 52 78 53 77 54 36 56
REMARK SMILES IDX 66 57 47 58 65 59 48 60 51 61 64 62 82 63 49 64 50 65 63 67
REMARK SMILES IDX 83 68 52 69 37 70 38 71 46 72 39 73 45 74 40 75 41 76 42 77
REMARK SMILES IDX 43 78 44 79 67 80 68 81 76 82 69 83 75 84 70 85 71 86 72 87
REMARK SMILES IDX 73 88 74 89 53 90 54 91 62 92 55 93 61 94 56 95 57 96 58 97
REMARK SMILES IDX 59 98 60 99
REMARK H PARENT 18 7 14 12 25 36 81 55 51 66
REMARK Flexibility Score: inf
ROOT
ATOM      1  C   UNL     1      -4.611   5.005  -2.479  1.00  0.00     0.002 C 
ENDROOT
BRANCH   1   2
ATOM      2  C   UNL     1      -3.710   5.245  -1.270  1.00  0.00     0.021 C 
BRANCH   2   3
ATOM      3  C   UNL     1      -2.316   4.646  -1.378  1.00  0.00     0.116 C 
BRANCH   3   4
ATOM      4  N   UNL     1      -1.420   5.383  -2.241  1.00  0.00    -0.354 N 
ATOM      5  C   UNL     1      -0.082   5.644  -2.121  1.00  0.00     0.247 C 
ATOM      6  O   UNL     1       0.486   5.993  -3.164  1.00  0.00    -0.272 OA
ATOM      7  H   UNL     1      -1.841   5.758  -3.047  1.00  0.00     0.163 HD
BRANCH   5   8
ATOM      8  C   UNL     1       0.736   5.348  -0.808  1.00  0.00     0.203 C 
BRANCH   8   9
ATOM      9  N   UNL     1       0.021   5.556   0.453  1.00  0.00    -0.340 N 
ATOM     10  C   UNL     1      -0.363   4.728   1.460  1.00  0.00     0.224 C 
ATOM     11  O   UNL     1      -1.067   5.225   2.345  1.00  0.00    -0.275 OA
ATOM     12  H   UNL     1      -0.237   6.494   0.603  1.00  0.00     0.164 HD
BRANCH  10  13
ATOM     13  C   UNL     1       0.035   3.252   1.546  1.00  0.00     0.080 C 
ATOM     14  C   UNL     1       1.519   3.165   1.869  1.00  0.00     0.018 C 
BRANCH  13  15
ATOM     15  C   UNL     1      -0.498   2.428   0.362  1.00  0.00     0.052 C 
BRANCH  15  16
ATOM     16  C   UNL     1      -0.185   0.967   0.310  1.00  0.00    -0.003 A 
ATOM     17  C   UNL     1      -2.603  -0.092   0.396  1.00  0.00     0.069 C 
ATOM     18  C   UNL     1      -1.117  -0.115   0.341  1.00  0.00     0.063 A 
ATOM     19  N   UNL     1      -0.504  -1.295   0.224  1.00  0.00    -0.178 NA
ATOM     20  N   UNL     1       0.792  -0.992   0.087  1.00  0.00    -0.272 N 
ATOM     21  C   UNL     1       1.029   0.356   0.017  1.00  0.00     0.038 A 
ATOM     22  C   UNL     1       1.736  -2.078  -0.037  1.00  0.00     0.174 C 
ATOM     23  C   UNL     1       2.354   0.917  -0.347  1.00  0.00     0.066 C 
ENDBRANCH  15  16
ENDBRANCH  13  15
ENDBRANCH  10  13
ENDBRANCH   8   9
BRANCH   8  24
ATOM     24  C   UNL     1       2.052   6.122  -0.788  1.00  0.00     0.002 A 
ATOM     25  C   UNL     1       3.264   5.403  -0.842  1.00  0.00     0.008 A 
ATOM     26  C   UNL     1       2.119   7.525  -0.743  1.00  0.00     0.046 A 
ATOM     27  C   UNL     1       4.496   6.058  -0.837  1.00  0.00     0.000 A 
ATOM     28  C   UNL     1       3.357   8.179  -0.747  1.00  0.00     0.021 A 
ATOM     29  Cl  UNL     1       0.701   8.512  -0.670  1.00  0.00    -0.084 Cl
ATOM     30  C   UNL     1       4.542   7.447  -0.790  1.00  0.00     0.002 A 
ENDBRANCH   8  24
ENDBRANCH   5   8
ENDBRANCH   3   4
ENDBRANCH   2   3
ENDBRANCH   1   2
BRANCH   1  31
ATOM     31  C   UNL     1      -4.795   3.541  -2.894  1.00  0.00     0.002 C 
BRANCH  31  32
ATOM     32  C   UNL     1      -5.235   2.574  -1.789  1.00  0.00     0.021 C 
BRANCH  32  33
ATOM     33  C   UNL     1      -6.505   2.960  -1.035  1.00  0.00     0.116 C 
BRANCH  33  34
ATOM     34  N   UNL     1      -7.639   3.155  -1.919  1.00  0.00    -0.352 N 
ATOM     35  C   UNL     1      -8.921   2.684  -1.827  1.00  0.00     0.251 C 
ATOM     36  H   UNL     1      -7.458   3.714  -2.709  1.00  0.00     0.163 HD
ATOM     37  O   UNL     1      -9.687   2.848  -2.780  1.00  0.00    -0.269 OA
BRANCH  35  38
ATOM     38  C   UNL     1      -9.395   1.974  -0.618  1.00  0.00     0.039 A 
ATOM     39  C   UNL     1     -10.264   0.891  -0.781  1.00  0.00     0.014 A 
ATOM     40  C   UNL     1      -9.048   2.397   0.669  1.00  0.00     0.014 A 
ATOM     41  C   UNL     1     -10.765   0.222   0.338  1.00  0.00     0.010 A 
ATOM     42  C   UNL     1      -9.490   1.683   1.783  1.00  0.00     0.010 A 
ATOM     43  C   UNL     1     -10.373   0.604   1.631  1.00  0.00    -0.014 A 
BRANCH  43  44
ATOM     44  C   UNL     1     -10.923  -0.089   2.825  1.00  0.00     0.031 A 
ATOM     45  C   UNL     1     -11.824   0.649   3.781  1.00  0.00     0.074 A 
ATOM     46  C   UNL     1     -10.605  -1.377   3.057  1.00  0.00     0.049 A 
ATOM     47  N   UNL     1     -12.418   0.210   4.862  1.00  0.00    -0.248 NA
ATOM     48  C   UNL     1     -12.074   2.072   3.498  1.00  0.00     0.031 C 
ATOM     49  C   UNL     1      -9.716  -2.193   2.226  1.00  0.00     0.029 A 
ATOM     50  N   UNL     1     -11.001  -2.230   4.056  1.00  0.00    -0.354 N 
ATOM     51  C   UNL     1     -13.100   1.301   5.390  1.00  0.00     0.074 A 
ATOM     52  C   UNL     1     -12.799   2.435   4.544  1.00  0.00     0.031 C 
ATOM     53  C   UNL     1      -9.669  -3.439   2.726  1.00  0.00     0.029 A 
ATOM     54  C   UNL     1     -10.497  -3.503   3.927  1.00  0.00     0.049 A 
ATOM     55  H   UNL     1     -11.591  -1.957   4.795  1.00  0.00     0.167 HD
ATOM     56  C   UNL     1     -13.924   1.353   6.465  1.00  0.00     0.031 A 
ATOM     57  C   UNL     1     -10.690  -4.601   4.682  1.00  0.00     0.031 A 
ATOM     58  C   UNL     1     -14.228   0.222   7.301  1.00  0.00     0.049 A 
ATOM     59  C   UNL     1     -11.609  -4.522   5.871  1.00  0.00     0.074 A 
ATOM     60  C   UNL     1     -15.075   0.160   8.394  1.00  0.00     0.029 A 
ATOM     61  N   UNL     1     -13.697  -1.049   7.135  1.00  0.00    -0.354 N 
ATOM     62  N   UNL     1     -12.285  -3.493   6.324  1.00  0.00    -0.248 NA
ATOM     63  C   UNL     1     -11.806  -5.760   6.636  1.00  0.00     0.031 C 
ATOM     64  C   UNL     1     -15.026  -1.140   8.912  1.00  0.00     0.029 A 
ATOM     65  C   UNL     1     -14.191  -1.900   8.109  1.00  0.00     0.049 A 
ATOM     66  H   UNL     1     -13.063  -1.307   6.428  1.00  0.00     0.167 HD
ATOM     67  C   UNL     1     -13.017  -3.969   7.407  1.00  0.00     0.074 A 
ATOM     68  C   UNL     1     -12.707  -5.379   7.532  1.00  0.00     0.031 C 
ATOM     69  C   UNL     1     -13.873  -3.301   8.220  1.00  0.00     0.031 A 
BRANCH  56  70
ATOM     70  C   UNL     1     -14.548   2.685   6.793  1.00  0.00    -0.014 A 
ATOM     71  C   UNL     1     -15.526   3.253   5.954  1.00  0.00     0.010 A 
ATOM     72  C   UNL     1     -14.164   3.374   7.957  1.00  0.00     0.010 A 
ATOM     73  C   UNL     1     -16.065   4.509   6.244  1.00  0.00     0.020 A 
ATOM     74  C   UNL     1     -14.723   4.618   8.266  1.00  0.00     0.020 A 
ATOM     75  C   UNL     1     -15.654   5.188   7.394  1.00  0.00     0.054 A 
BRANCH  75  76
ATOM     76  S   UNL     1     -16.369   6.817   7.746  1.00  0.00     0.124 S 
ATOM     77  O   UNL     1     -15.683   7.663   6.772  1.00  0.00    -0.237 OA
ATOM     78  O   UNL     1     -17.793   6.605   7.499  1.00  0.00    -0.237 OA
ATOM     79  O   UNL     1     -16.012   7.059   9.142  1.00  0.00    -0.744 OA
ENDBRANCH  75  76
ENDBRANCH  56  70
BRANCH  57  80
ATOM     80  C   UNL     1     -10.037  -5.885   4.307  1.00  0.00    -0.014 A 
ATOM     81  C   UNL     1     -10.801  -6.945   3.788  1.00  0.00     0.010 A 
ATOM     82  C   UNL     1      -8.648  -6.052   4.454  1.00  0.00     0.010 A 
ATOM     83  C   UNL     1     -10.193  -8.156   3.442  1.00  0.00     0.020 A 
ATOM     84  C   UNL     1      -8.032  -7.252   4.085  1.00  0.00     0.020 A 
ATOM     85  C   UNL     1      -8.811  -8.301   3.592  1.00  0.00     0.054 A 
BRANCH  85  86
ATOM     86  S   UNL     1      -8.037  -9.864   3.093  1.00  0.00     0.124 S 
ATOM     87  O   UNL     1      -8.438 -10.760   4.172  1.00  0.00    -0.237 OA
ATOM     88  O   UNL     1      -8.653 -10.121   1.794  1.00  0.00    -0.237 OA
ATOM     89  O   UNL     1      -6.613  -9.539   3.044  1.00  0.00    -0.744 OA
ENDBRANCH  85  86
ENDBRANCH  57  80
BRANCH  69  90
ATOM     90  C   UNL     1     -14.573  -4.101   9.287  1.00  0.00    -0.014 A 
ATOM     91  C   UNL     1     -13.884  -4.585  10.413  1.00  0.00     0.010 A 
ATOM     92  C   UNL     1     -15.953  -4.348   9.168  1.00  0.00     0.010 A 
ATOM     93  C   UNL     1     -14.553  -5.344  11.377  1.00  0.00     0.020 A 
ATOM     94  C   UNL     1     -16.631  -5.082  10.144  1.00  0.00     0.020 A 
ATOM     95  C   UNL     1     -15.922  -5.593  11.233  1.00  0.00     0.054 A 
BRANCH  95  96
ATOM     96  S   UNL     1     -16.774  -6.566  12.504  1.00  0.00     0.124 S 
ATOM     97  O   UNL     1     -16.335  -7.923  12.192  1.00  0.00    -0.237 OA
ATOM     98  O   UNL     1     -16.248  -6.005  13.746  1.00  0.00    -0.237 OA
ATOM     99  O   UNL     1     -18.189  -6.295  12.257  1.00  0.00    -0.744 OA
ENDBRANCH  95  96
ENDBRANCH  69  90
ENDBRANCH  43  44
ENDBRANCH  35  38
ENDBRANCH  33  34
ENDBRANCH  32  33
ENDBRANCH  31  32
ENDBRANCH   1  31
TORSDOF 21
