REMARK SMILES O=C(NCCCCCCNC(=O)c1ccccc1C(=O)Nc1ccc(N2C(=O)[C@H]3[C@@H]4CC[C@@H](C4)[C@@H]3C2=O)cc1)c1ccc(-c2c3nc(c(-c4ccc(S(=O)(=O)[O-])cc4)c4ccc([nH]4)c(-c4ccc(S(=O)(=O)[O-])cc4)c4nc(c(-c5ccc(S(=O)(=O)[O-])cc5)c5ccc2[nH]5)C=C4)C=C3)cc1
REMARK SMILES IDX 6 1 5 2 4 3 3 4 1 5 2 6 40 8 41 9 99 10 42 11 98 12 43 13
REMARK SMILES IDX 44 14 45 15 92 16 46 17 97 18 91 19 93 20 47 21 96 22 90 23
REMARK SMILES IDX 89 24 48 26 78 27 59 28 77 29 60 30 63 31 76 32 94 33 61 34
REMARK SMILES IDX 62 35 75 37 95 38 64 39 49 40 50 41 58 42 51 43 57 44 52 45
REMARK SMILES IDX 53 46 54 47 55 48 56 49 79 50 80 51 88 52 81 53 87 54 82 55
REMARK SMILES IDX 83 56 84 57 85 58 86 59 65 60 66 61 74 62 67 63 73 64 68 65
REMARK SMILES IDX 69 66 70 67 71 68 72 69 7 70 8 71 9 72 10 73 11 74 12 76
REMARK SMILES IDX 13 77 14 78 18 79 15 80 17 81 16 82 19 83 20 84 21 85 22 87
REMARK SMILES IDX 23 88 39 89 24 90 38 91 25 92 26 93 27 94 36 95 28 96 29 97
REMARK SMILES IDX 35 98 37 99 30 100 33 101 31 102 34 103 32 104
REMARK H PARENT 3 7 93 25 63 36 10 75 21 86
REMARK Flexibility Score: inf
ROOT
ATOM      1  C   UNL     1       4.582   2.042  -3.187  1.00  0.00     0.002 C 
ENDROOT
BRANCH   1   2
ATOM      2  C   UNL     1       4.887   0.719  -2.505  1.00  0.00     0.021 C 
BRANCH   2   3
ATOM      3  C   UNL     1       4.461   0.631  -1.056  1.00  0.00     0.116 C 
BRANCH   3   4
ATOM      4  N   UNL     1       3.022   0.700  -0.851  1.00  0.00    -0.352 N 
ATOM      5  O   UNL     1       1.051   0.052   0.073  1.00  0.00    -0.269 OA
ATOM      6  C   UNL     1       2.273  -0.036   0.044  1.00  0.00     0.251 C 
ATOM      7  H   UNL     1       2.530   1.343  -1.411  1.00  0.00     0.163 HD
BRANCH   6   8
ATOM      8  C   UNL     1       2.989  -0.974   0.938  1.00  0.00     0.039 A 
ATOM      9  C   UNL     1       4.128  -0.535   1.612  1.00  0.00     0.014 A 
ATOM     10  C   UNL     1       2.601  -2.314   1.000  1.00  0.00     0.014 A 
ATOM     11  C   UNL     1       4.988  -1.468   2.167  1.00  0.00     0.010 A 
ATOM     12  C   UNL     1       3.403  -3.232   1.687  1.00  0.00     0.010 A 
ATOM     13  C   UNL     1       4.623  -2.824   2.246  1.00  0.00    -0.014 A 
BRANCH  13  14
ATOM     14  C   UNL     1       5.509  -3.741   3.009  1.00  0.00     0.031 A 
ATOM     15  C   UNL     1       6.178  -4.928   2.370  1.00  0.00     0.074 A 
ATOM     16  C   UNL     1       5.763  -3.430   4.297  1.00  0.00     0.049 A 
ATOM     17  N   UNL     1       7.026  -5.771   2.905  1.00  0.00    -0.248 NA
ATOM     18  C   UNL     1       5.856  -5.218   0.964  1.00  0.00     0.031 C 
ATOM     19  C   UNL     1       5.154  -2.309   5.026  1.00  0.00     0.029 A 
ATOM     20  N   UNL     1       6.621  -3.984   5.209  1.00  0.00    -0.354 N 
ATOM     21  C   UNL     1       7.327  -6.698   1.912  1.00  0.00     0.074 A 
ATOM     22  C   UNL     1       6.551  -6.328   0.747  1.00  0.00     0.031 C 
ATOM     23  C   UNL     1       5.721  -2.207   6.234  1.00  0.00     0.029 A 
ATOM     24  C   UNL     1       6.656  -3.309   6.406  1.00  0.00     0.049 A 
ATOM     25  H   UNL     1       7.160  -4.787   5.025  1.00  0.00     0.167 HD
ATOM     26  C   UNL     1       8.175  -7.755   1.970  1.00  0.00     0.031 A 
ATOM     27  C   UNL     1       7.342  -3.556   7.536  1.00  0.00     0.031 A 
ATOM     28  C   UNL     1       8.941  -8.114   3.139  1.00  0.00     0.049 A 
ATOM     29  C   UNL     1       8.258  -4.742   7.573  1.00  0.00     0.074 A 
ATOM     30  C   UNL     1       9.829  -9.165   3.298  1.00  0.00     0.029 A 
ATOM     31  N   UNL     1       8.914  -7.433   4.348  1.00  0.00    -0.354 N 
ATOM     32  N   UNL     1       8.529  -5.600   6.619  1.00  0.00    -0.248 NA
ATOM     33  C   UNL     1       8.957  -4.995   8.837  1.00  0.00     0.031 C 
ATOM     34  C   UNL     1      10.301  -9.148   4.615  1.00  0.00     0.029 A 
ATOM     35  C   UNL     1       9.755  -8.050   5.261  1.00  0.00     0.049 A 
ATOM     36  H   UNL     1       8.376  -6.629   4.531  1.00  0.00     0.167 HD
ATOM     37  C   UNL     1       9.433  -6.497   7.169  1.00  0.00     0.074 A 
ATOM     38  C   UNL     1       9.694  -6.050   8.523  1.00  0.00     0.031 C 
ATOM     39  C   UNL     1       9.988  -7.601   6.610  1.00  0.00     0.031 A 
BRANCH  26  40
ATOM     40  C   UNL     1       8.318  -8.618   0.741  1.00  0.00    -0.014 A 
ATOM     41  C   UNL     1       9.005  -8.156  -0.397  1.00  0.00     0.010 A 
ATOM     42  C   UNL     1       7.830  -9.939   0.751  1.00  0.00     0.010 A 
ATOM     43  C   UNL     1       9.183  -8.990  -1.506  1.00  0.00     0.020 A 
ATOM     44  C   UNL     1       8.028 -10.784  -0.346  1.00  0.00     0.020 A 
ATOM     45  C   UNL     1       8.695 -10.300  -1.472  1.00  0.00     0.054 A 
BRANCH  45  46
ATOM     46  S   UNL     1       8.983 -11.373  -2.908  1.00  0.00     0.124 S 
ATOM     47  O   UNL     1       8.084 -10.793  -3.903  1.00  0.00    -0.237 OA
ATOM     48  O   UNL     1      10.408 -11.186  -3.166  1.00  0.00    -0.237 OA
ATOM     49  O   UNL     1       8.608 -12.702  -2.430  1.00  0.00    -0.744 OA
ENDBRANCH  45  46
ENDBRANCH  26  40
BRANCH  27  50
ATOM     50  C   UNL     1       7.138  -2.691   8.729  1.00  0.00    -0.014 A 
ATOM     51  C   UNL     1       8.171  -1.876   9.221  1.00  0.00     0.010 A 
ATOM     52  C   UNL     1       5.885  -2.671   9.371  1.00  0.00     0.010 A 
ATOM     53  C   UNL     1       7.962  -1.078  10.350  1.00  0.00     0.020 A 
ATOM     54  C   UNL     1       5.661  -1.847  10.474  1.00  0.00     0.020 A 
ATOM     55  C   UNL     1       6.708  -1.070  10.969  1.00  0.00     0.054 A 
BRANCH  55  56
ATOM     56  S   UNL     1       6.447  -0.006  12.414  1.00  0.00     0.124 S 
ATOM     57  O   UNL     1       7.142  -0.745  13.462  1.00  0.00    -0.237 OA
ATOM     58  O   UNL     1       7.071   1.249  12.001  1.00  0.00    -0.237 OA
ATOM     59  O   UNL     1       4.992   0.044  12.541  1.00  0.00    -0.744 OA
ENDBRANCH  55  56
ENDBRANCH  27  50
BRANCH  39  60
ATOM     60  C   UNL     1      10.944  -8.383   7.470  1.00  0.00    -0.014 A 
ATOM     61  C   UNL     1      10.486  -9.126   8.573  1.00  0.00     0.010 A 
ATOM     62  C   UNL     1      12.318  -8.368   7.174  1.00  0.00     0.010 A 
ATOM     63  C   UNL     1      11.393  -9.795   9.398  1.00  0.00     0.020 A 
ATOM     64  C   UNL     1      13.225  -9.063   7.978  1.00  0.00     0.020 A 
ATOM     65  C   UNL     1      12.758  -9.753   9.098  1.00  0.00     0.054 A 
BRANCH  65  66
ATOM     66  S   UNL     1      13.915 -10.632  10.182  1.00  0.00     0.124 S 
ATOM     67  O   UNL     1      13.951  -9.763  11.355  1.00  0.00    -0.237 OA
ATOM     68  O   UNL     1      13.259 -11.922  10.375  1.00  0.00    -0.237 OA
ATOM     69  O   UNL     1      15.151 -10.679   9.403  1.00  0.00    -0.744 OA
ENDBRANCH  65  66
ENDBRANCH  39  60
ENDBRANCH  13  14
ENDBRANCH   6   8
ENDBRANCH   3   4
ENDBRANCH   2   3
ENDBRANCH   1   2
BRANCH   1  70
ATOM     70  C   UNL     1       4.994   3.312  -2.436  1.00  0.00     0.002 C 
BRANCH  70  71
ATOM     71  C   UNL     1       6.480   3.410  -2.060  1.00  0.00     0.021 C 
BRANCH  71  72
ATOM     72  C   UNL     1       7.426   3.521  -3.254  1.00  0.00     0.116 C 
BRANCH  72  73
ATOM     73  N   UNL     1       7.224   4.760  -3.978  1.00  0.00    -0.352 N 
ATOM     74  C   UNL     1       8.009   5.354  -4.922  1.00  0.00     0.252 C 
ATOM     75  H   UNL     1       6.397   5.245  -3.755  1.00  0.00     0.163 HD
ATOM     76  O   UNL     1       7.771   6.514  -5.265  1.00  0.00    -0.269 OA
BRANCH  74  77
ATOM     77  C   UNL     1       9.220   4.703  -5.459  1.00  0.00     0.052 A 
ATOM     78  C   UNL     1      10.369   5.517  -5.313  1.00  0.00     0.014 A 
ATOM     79  C   UNL     1       9.335   3.437  -6.053  1.00  0.00     0.052 A 
ATOM     80  C   UNL     1      11.637   5.063  -5.660  1.00  0.00     0.001 A 
ATOM     81  C   UNL     1      10.644   2.989  -6.367  1.00  0.00     0.014 A 
ATOM     82  C   UNL     1      11.777   3.782  -6.166  1.00  0.00     0.001 A 
BRANCH  79  83
ATOM     83  C   UNL     1       8.286   2.403  -6.307  1.00  0.00     0.256 C 
ATOM     84  O   UNL     1       8.613   1.223  -6.128  1.00  0.00    -0.269 OA
ATOM     85  N   UNL     1       6.970   2.607  -6.640  1.00  0.00    -0.322 N 
ATOM     86  H   UNL     1       6.440   1.778  -6.678  1.00  0.00     0.170 HD
BRANCH  85  87
ATOM     87  C   UNL     1       6.234   3.751  -6.936  1.00  0.00     0.041 A 
ATOM     88  C   UNL     1       4.980   3.846  -6.329  1.00  0.00     0.028 A 
ATOM     89  C   UNL     1       6.713   4.807  -7.700  1.00  0.00     0.028 A 
ATOM     90  C   UNL     1       4.375   5.088  -6.190  1.00  0.00     0.029 A 
ATOM     91  C   UNL     1       6.020   6.022  -7.692  1.00  0.00     0.029 A 
ATOM     92  C   UNL     1       4.927   6.193  -6.829  1.00  0.00     0.052 A 
BRANCH  92  93
ATOM     93  N   UNL     1       4.516   7.487  -6.474  1.00  0.00    -0.250 N 
ATOM     94  C   UNL     1       4.364   8.537  -7.380  1.00  0.00     0.237 C 
ATOM     95  C   UNL     1       4.437   7.918  -5.130  1.00  0.00     0.237 C 
ATOM     96  O   UNL     1       4.215   8.520  -8.592  1.00  0.00    -0.274 OA
ATOM     97  C   UNL     1       4.579   9.740  -6.533  1.00  0.00     0.095 C 
ATOM     98  C   UNL     1       3.873   9.299  -5.262  1.00  0.00     0.095 C 
ATOM     99  O   UNL     1       4.650   7.325  -4.092  1.00  0.00    -0.274 OA
ATOM    100  C   UNL     1       4.180  11.213  -6.627  1.00  0.00     0.002 C 
ATOM    101  C   UNL     1       3.876  10.596  -4.467  1.00  0.00     0.002 C 
ATOM    102  C   UNL     1       5.329  11.953  -5.908  1.00  0.00     0.005 C 
ATOM    103  C   UNL     1       3.104  11.416  -5.532  1.00  0.00     0.009 C 
ATOM    104  C   UNL     1       5.228  11.366  -4.470  1.00  0.00     0.005 C 
ENDBRANCH  92  93
ENDBRANCH  85  87
ENDBRANCH  79  83
ENDBRANCH  74  77
ENDBRANCH  72  73
ENDBRANCH  71  72
ENDBRANCH  70  71
ENDBRANCH   1  70
TORSDOF 19
