REMARK SMILES CCc1cccc(C)c1Nc1ccccc1CC(=O)NCCCCCCNC(=O)c1ccc(-c2c3nc(c(-c4ccc(S(=O)(=O)[O-])cc4)c4ccc([nH]4)c(-c4ccc(S(=O)(=O)[O-])cc4)c4nc(c(-c5ccc(S(=O)(=O)[O-])cc5)c5ccc2[nH]5)C=C4)C=C3)cc1
REMARK SMILES IDX 23 1 22 2 21 3 20 4 18 5 19 6 17 8 16 9 11 10 12 11 13 12
REMARK SMILES IDX 15 13 14 14 10 15 9 17 3 18 4 19 5 20 7 21 6 22 8 23 2 24
REMARK SMILES IDX 1 25 24 26 25 27 26 28 27 29 28 30 29 32 30 33 31 34 89 35
REMARK SMILES IDX 32 36 88 37 33 38 34 39 35 40 82 41 36 42 87 43 81 44 83 45
REMARK SMILES IDX 37 46 86 47 80 48 79 49 38 51 68 52 49 53 67 54 50 55 53 56
REMARK SMILES IDX 66 57 84 58 51 59 52 60 65 62 85 63 54 64 39 65 40 66 48 67
REMARK SMILES IDX 41 68 47 69 42 70 43 71 44 72 45 73 46 74 69 75 70 76 78 77
REMARK SMILES IDX 71 78 77 79 72 80 73 81 74 82 75 83 76 84 55 85 56 86 64 87
REMARK SMILES IDX 57 88 63 89 58 90 59 91 60 92 61 93 62 94
REMARK H PARENT 20 7 10 16 27 31 83 50 53 61
REMARK Flexibility Score: inf
ROOT
ATOM      1  C   UNL     1       1.601   7.506  -1.681  1.00  0.00     0.002 C 
ENDROOT
BRANCH   1   2
ATOM      2  C   UNL     1       1.464   7.441  -0.151  1.00  0.00     0.021 C 
BRANCH   2   3
ATOM      3  C   UNL     1       0.092   7.022   0.378  1.00  0.00     0.116 C 
BRANCH   3   4
ATOM      4  N   UNL     1      -0.462   5.855  -0.281  1.00  0.00    -0.356 N 
ATOM      5  C   UNL     1      -0.761   4.607   0.176  1.00  0.00     0.224 C 
ATOM      6  O   UNL     1      -1.507   3.920  -0.531  1.00  0.00    -0.275 OA
ATOM      7  H   UNL     1      -0.659   5.989  -1.236  1.00  0.00     0.163 HD
BRANCH   5   8
ATOM      8  C   UNL     1      -0.363   4.131   1.555  1.00  0.00     0.137 C 
BRANCH   8   9
ATOM      9  C   UNL     1       1.109   3.991   1.885  1.00  0.00    -0.015 A 
ATOM     10  C   UNL     1       1.932   2.948   1.406  1.00  0.00     0.042 A 
ATOM     11  C   UNL     1       3.252   2.844   1.896  1.00  0.00     0.026 A 
ATOM     12  C   UNL     1       3.761   3.743   2.831  1.00  0.00     0.002 A 
ATOM     13  C   UNL     1       1.640   4.875   2.853  1.00  0.00     0.006 A 
ATOM     14  C   UNL     1       2.952   4.761   3.311  1.00  0.00     0.000 A 
BRANCH  10  15
ATOM     15  N   UNL     1       1.548   2.007   0.424  1.00  0.00    -0.355 N 
ATOM     16  H   UNL     1       1.472   1.083   0.757  1.00  0.00     0.167 HD
BRANCH  15  17
ATOM     17  C   UNL     1       1.253   2.156  -0.954  1.00  0.00     0.045 A 
ATOM     18  C   UNL     1       0.454   1.193  -1.623  1.00  0.00    -0.024 A 
ATOM     19  C   UNL     1      -0.024   1.491  -2.923  1.00  0.00     0.006 A 
ATOM     20  C   UNL     1       0.325   2.659  -3.585  1.00  0.00     0.001 A 
ATOM     21  C   UNL     1       1.731   3.263  -1.706  1.00  0.00    -0.027 A 
ATOM     22  C   UNL     1       1.229   3.522  -2.993  1.00  0.00     0.005 A 
ATOM     23  C   UNL     1       2.858   4.141  -1.231  1.00  0.00     0.046 C 
BRANCH  18  24
ATOM     24  C   UNL     1       0.018  -0.176  -1.124  1.00  0.00     0.034 C 
ATOM     25  C   UNL     1       0.627  -0.812   0.115  1.00  0.00     0.009 C 
ENDBRANCH  18  24
ENDBRANCH  15  17
ENDBRANCH  10  15
ENDBRANCH   8   9
ENDBRANCH   5   8
ENDBRANCH   3   4
ENDBRANCH   2   3
ENDBRANCH   1   2
BRANCH   1  26
ATOM     26  C   UNL     1       0.740   8.542  -2.421  1.00  0.00     0.002 C 
BRANCH  26  27
ATOM     27  C   UNL     1       0.855   9.999  -1.960  1.00  0.00     0.021 C 
BRANCH  27  28
ATOM     28  C   UNL     1       2.259  10.578  -1.998  1.00  0.00     0.116 C 
BRANCH  28  29
ATOM     29  N   UNL     1       2.660  11.235  -3.231  1.00  0.00    -0.352 N 
ATOM     30  C   UNL     1       3.623  12.241  -3.116  1.00  0.00     0.251 C 
ATOM     31  H   UNL     1       2.274  10.984  -4.101  1.00  0.00     0.163 HD
ATOM     32  O   UNL     1       3.403  13.387  -2.763  1.00  0.00    -0.269 OA
BRANCH  30  33
ATOM     33  C   UNL     1       4.996  11.691  -3.095  1.00  0.00     0.039 A 
ATOM     34  C   UNL     1       5.822  11.659  -4.216  1.00  0.00     0.014 A 
ATOM     35  C   UNL     1       5.328  10.992  -1.933  1.00  0.00     0.014 A 
ATOM     36  C   UNL     1       6.939  10.815  -4.208  1.00  0.00     0.010 A 
ATOM     37  C   UNL     1       6.360  10.086  -1.967  1.00  0.00     0.010 A 
ATOM     38  C   UNL     1       7.159   9.979  -3.111  1.00  0.00    -0.014 A 
BRANCH  38  39
ATOM     39  C   UNL     1       8.164   8.927  -3.021  1.00  0.00     0.031 A 
ATOM     40  C   UNL     1       9.338   9.098  -2.133  1.00  0.00     0.074 A 
ATOM     41  C   UNL     1       7.896   7.705  -3.531  1.00  0.00     0.049 A 
ATOM     42  N   UNL     1      10.375   8.327  -2.138  1.00  0.00    -0.248 NA
ATOM     43  C   UNL     1       9.452  10.200  -1.184  1.00  0.00     0.031 C 
ATOM     44  C   UNL     1       8.506   6.437  -3.138  1.00  0.00     0.029 A 
ATOM     45  N   UNL     1       7.171   7.385  -4.678  1.00  0.00    -0.354 N 
ATOM     46  C   UNL     1      11.103   8.611  -1.004  1.00  0.00     0.074 A 
ATOM     47  C   UNL     1      10.553   9.852  -0.511  1.00  0.00     0.031 C 
ATOM     48  C   UNL     1       8.395   5.575  -4.159  1.00  0.00     0.029 A 
ATOM     49  C   UNL     1       7.868   6.324  -5.286  1.00  0.00     0.049 A 
ATOM     50  H   UNL     1       6.343   7.812  -4.996  1.00  0.00     0.167 HD
ATOM     51  C   UNL     1      11.988   7.689  -0.526  1.00  0.00     0.031 A 
ATOM     52  C   UNL     1       8.445   6.401  -6.523  1.00  0.00     0.031 A 
ATOM     53  C   UNL     1      12.121   6.536  -1.422  1.00  0.00     0.049 A 
ATOM     54  C   UNL     1       9.931   6.086  -6.532  1.00  0.00     0.074 A 
ATOM     55  C   UNL     1      11.725   5.209  -1.364  1.00  0.00     0.029 A 
ATOM     56  N   UNL     1      12.552   6.747  -2.722  1.00  0.00    -0.354 N 
ATOM     57  N   UNL     1      10.645   5.854  -5.466  1.00  0.00    -0.248 NA
ATOM     58  C   UNL     1      10.752   6.114  -7.742  1.00  0.00     0.031 C 
ATOM     59  C   UNL     1      11.944   4.621  -2.642  1.00  0.00     0.029 A 
ATOM     60  C   UNL     1      12.478   5.588  -3.471  1.00  0.00     0.049 A 
ATOM     61  H   UNL     1      12.870   7.612  -3.068  1.00  0.00     0.167 HD
ATOM     62  C   UNL     1      11.972   5.766  -5.799  1.00  0.00     0.074 A 
ATOM     63  C   UNL     1      11.987   5.929  -7.241  1.00  0.00     0.031 C 
ATOM     64  C   UNL     1      12.945   5.618  -4.850  1.00  0.00     0.031 A 
BRANCH  51  65
ATOM     65  C   UNL     1      12.565   7.710   0.878  1.00  0.00    -0.014 A 
ATOM     66  C   UNL     1      13.071   6.519   1.443  1.00  0.00     0.010 A 
ATOM     67  C   UNL     1      12.594   8.840   1.716  1.00  0.00     0.010 A 
ATOM     68  C   UNL     1      13.470   6.437   2.787  1.00  0.00     0.020 A 
ATOM     69  C   UNL     1      12.963   8.771   3.068  1.00  0.00     0.020 A 
ATOM     70  C   UNL     1      13.382   7.560   3.603  1.00  0.00     0.054 A 
BRANCH  70  71
ATOM     71  S   UNL     1      13.808   7.423   5.357  1.00  0.00     0.124 S 
ATOM     72  O   UNL     1      12.878   6.399   5.826  1.00  0.00    -0.237 OA
ATOM     73  O   UNL     1      15.213   7.028   5.311  1.00  0.00    -0.237 OA
ATOM     74  O   UNL     1      13.559   8.765   5.881  1.00  0.00    -0.744 OA
ENDBRANCH  70  71
ENDBRANCH  51  65
BRANCH  52  75
ATOM     75  C   UNL     1       7.777   7.375  -7.433  1.00  0.00    -0.014 A 
ATOM     76  C   UNL     1       6.473   7.058  -7.871  1.00  0.00     0.010 A 
ATOM     77  C   UNL     1       8.194   8.719  -7.445  1.00  0.00     0.010 A 
ATOM     78  C   UNL     1       5.543   8.072  -8.110  1.00  0.00     0.020 A 
ATOM     79  C   UNL     1       7.265   9.736  -7.701  1.00  0.00     0.020 A 
ATOM     80  C   UNL     1       5.930   9.403  -7.946  1.00  0.00     0.054 A 
BRANCH  80  81
ATOM     81  S   UNL     1       4.623  10.663  -7.827  1.00  0.00     0.124 S 
ATOM     82  O   UNL     1       3.874  10.460  -9.062  1.00  0.00    -0.237 OA
ATOM     83  O   UNL     1       3.938  10.269  -6.596  1.00  0.00    -0.237 OA
ATOM     84  O   UNL     1       5.370  11.915  -7.740  1.00  0.00    -0.744 OA
ENDBRANCH  80  81
ENDBRANCH  52  75
BRANCH  64  85
ATOM     85  C   UNL     1      14.439   5.543  -5.093  1.00  0.00    -0.014 A 
ATOM     86  C   UNL     1      15.030   5.070  -6.274  1.00  0.00     0.010 A 
ATOM     87  C   UNL     1      15.323   5.883  -4.037  1.00  0.00     0.010 A 
ATOM     88  C   UNL     1      16.427   5.018  -6.419  1.00  0.00     0.020 A 
ATOM     89  C   UNL     1      16.713   5.818  -4.162  1.00  0.00     0.020 A 
ATOM     90  C   UNL     1      17.259   5.401  -5.365  1.00  0.00     0.054 A 
BRANCH  90  91
ATOM     91  S   UNL     1      19.055   5.315  -5.575  1.00  0.00     0.124 S 
ATOM     92  O   UNL     1      19.260   3.915  -5.938  1.00  0.00    -0.237 OA
ATOM     93  O   UNL     1      19.283   6.280  -6.648  1.00  0.00    -0.237 OA
ATOM     94  O   UNL     1      19.583   5.701  -4.269  1.00  0.00    -0.744 OA
ENDBRANCH  90  91
ENDBRANCH  64  85
ENDBRANCH  38  39
ENDBRANCH  30  33
ENDBRANCH  28  29
ENDBRANCH  27  28
ENDBRANCH  26  27
ENDBRANCH   1  26
TORSDOF 20
