REMARK SMILES Cc1ccccc1/[NH+]=C1\S[C@@H](CC(=O)Nc2ccc(C(=O)NCCCCCCNC(=O)c3ccc(-c4c5nc(c(-c6ccc(S(=O)(=O)[O-])cc6)c6ccc([nH]6)c(-c6ccc(S(=O)(=O)[O-])cc6)c6nc(c(-c7ccc(S(=O)(=O)[O-])cc7)c7ccc4[nH]7)C=C6)C=C5)cc3)cc2)C(=O)N1C
REMARK SMILES IDX 25 1 24 2 23 3 22 4 20 5 21 6 19 8 16 9 17 10 93 11 18 12
REMARK SMILES IDX 92 13 15 14 13 15 14 16 12 18 11 19 8 20 9 21 10 23 96 24
REMARK SMILES IDX 94 25 97 26 95 27 7 28 1 29 2 30 3 31 4 32 6 33 5 34 26 35
REMARK SMILES IDX 27 36 28 37 29 38 30 39 31 41 32 42 33 43 91 44 34 45 90 46
REMARK SMILES IDX 35 47 36 48 37 49 84 50 38 51 89 52 83 53 85 54 39 55 88 56
REMARK SMILES IDX 82 57 81 58 40 60 70 61 51 62 69 63 52 64 55 65 68 66 86 67
REMARK SMILES IDX 53 68 54 69 67 71 87 72 56 73 41 74 42 75 50 76 43 77 49 78
REMARK SMILES IDX 44 79 45 80 46 81 47 82 48 83 71 84 72 85 80 86 73 87 79 88
REMARK SMILES IDX 74 89 75 90 76 91 77 92 78 93 57 94 58 95 66 96 59 97 65 98
REMARK SMILES IDX 60 99 61 100 62 101 63 102 64 103
REMARK H PARENT 22 7 15 17 8 22 29 40 85 59 55 70
REMARK Flexibility Score: inf
ROOT
ATOM      1  C   UNL     1       1.072   6.977  -3.278  1.00  0.00     0.002 C 
ENDROOT
BRANCH   1   2
ATOM      2  C   UNL     1       2.021   6.255  -2.307  1.00  0.00     0.021 C 
BRANCH   2   3
ATOM      3  C   UNL     1       3.096   5.388  -2.967  1.00  0.00     0.116 C 
BRANCH   3   4
ATOM      4  N   UNL     1       4.162   6.187  -3.558  1.00  0.00    -0.352 N 
ATOM      5  C   UNL     1       5.508   6.259  -3.289  1.00  0.00     0.251 C 
ATOM      6  O   UNL     1       6.246   6.849  -4.078  1.00  0.00    -0.269 OA
ATOM      7  H   UNL     1       3.863   6.784  -4.282  1.00  0.00     0.163 HD
BRANCH   5   8
ATOM      8  C   UNL     1       6.115   5.615  -2.097  1.00  0.00     0.039 A 
ATOM      9  C   UNL     1       7.284   4.264   0.055  1.00  0.00     0.041 A 
ATOM     10  C   UNL     1       6.062   4.919   0.207  1.00  0.00     0.027 A 
ATOM     11  C   UNL     1       8.004   4.411  -1.124  1.00  0.00     0.027 A 
ATOM     12  C   UNL     1       5.477   5.597  -0.860  1.00  0.00     0.016 A 
ATOM     13  C   UNL     1       7.410   5.076  -2.204  1.00  0.00     0.016 A 
BRANCH   9  14
ATOM     14  N   UNL     1       7.753   3.414   1.063  1.00  0.00    -0.326 N 
ATOM     15  C   UNL     1       7.131   2.260   1.488  1.00  0.00     0.226 C 
ATOM     16  O   UNL     1       7.513   1.675   2.502  1.00  0.00    -0.275 OA
ATOM     17  H   UNL     1       8.597   3.662   1.506  1.00  0.00     0.169 HD
BRANCH  15  18
ATOM     18  C   UNL     1       6.098   1.630   0.566  1.00  0.00     0.128 C 
BRANCH  18  19
ATOM     19  C   UNL     1       4.697   1.534   1.131  1.00  0.00     0.183 C 
ATOM     20  N   UNL     1       1.000   1.809   0.678  1.00  0.00    -0.234 N 
ATOM     21  C   UNL     1       2.264   2.015   0.611  1.00  0.00     0.319 C 
ATOM     22  H   UNL     1       0.487   2.490   1.170  1.00  0.00     0.313 HD
ATOM     23  S   UNL     1       3.515   1.143  -0.216  1.00  0.00    -0.022 SA
ATOM     24  N   UNL     1       2.840   3.035   1.310  1.00  0.00    -0.193 N 
ATOM     25  C   UNL     1       4.123   2.793   1.751  1.00  0.00     0.324 C 
ATOM     26  C   UNL     1       2.111   4.203   1.764  1.00  0.00     0.301 C 
ATOM     27  O   UNL     1       4.689   3.438   2.626  1.00  0.00    -0.245 OA
BRANCH  20  28
ATOM     28  C   UNL     1       0.243   0.753   0.152  1.00  0.00     0.128 A 
ATOM     29  C   UNL     1       1.743  -1.228   0.868  1.00  0.00     0.049 C 
ATOM     30  C   UNL     1       0.495  -0.630   0.283  1.00  0.00    -0.004 A 
ATOM     31  C   UNL     1      -0.483  -1.555  -0.141  1.00  0.00     0.008 A 
ATOM     32  C   UNL     1      -1.726  -1.135  -0.606  1.00  0.00     0.001 A 
ATOM     33  C   UNL     1      -1.018   1.147  -0.334  1.00  0.00     0.052 A 
ATOM     34  C   UNL     1      -1.998   0.221  -0.695  1.00  0.00     0.004 A 
ENDBRANCH  20  28
ENDBRANCH  18  19
ENDBRANCH  15  18
ENDBRANCH   9  14
ENDBRANCH   5   8
ENDBRANCH   3   4
ENDBRANCH   2   3
ENDBRANCH   1   2
BRANCH   1  35
ATOM     35  C   UNL     1       0.261   6.093  -4.240  1.00  0.00     0.002 C 
BRANCH  35  36
ATOM     36  C   UNL     1      -0.537   4.957  -3.596  1.00  0.00     0.021 C 
BRANCH  36  37
ATOM     37  C   UNL     1      -1.728   5.429  -2.765  1.00  0.00     0.116 C 
BRANCH  37  38
ATOM     38  N   UNL     1      -3.015   5.159  -3.391  1.00  0.00    -0.352 N 
ATOM     39  C   UNL     1      -4.286   5.377  -2.888  1.00  0.00     0.251 C 
ATOM     40  H   UNL     1      -2.975   4.769  -4.294  1.00  0.00     0.163 HD
ATOM     41  O   UNL     1      -5.269   4.900  -3.435  1.00  0.00    -0.269 OA
BRANCH  39  42
ATOM     42  C   UNL     1      -4.433   6.274  -1.721  1.00  0.00     0.039 A 
ATOM     43  C   UNL     1      -5.212   7.427  -1.874  1.00  0.00     0.014 A 
ATOM     44  C   UNL     1      -3.659   6.087  -0.580  1.00  0.00     0.014 A 
ATOM     45  C   UNL     1      -5.073   8.480  -0.969  1.00  0.00     0.010 A 
ATOM     46  C   UNL     1      -3.455   7.161   0.264  1.00  0.00     0.010 A 
ATOM     47  C   UNL     1      -4.126   8.375   0.047  1.00  0.00    -0.014 A 
BRANCH  47  48
ATOM     48  C   UNL     1      -3.688   9.481   0.893  1.00  0.00     0.031 A 
ATOM     49  C   UNL     1      -4.021   9.507   2.337  1.00  0.00     0.074 A 
ATOM     50  C   UNL     1      -2.826  10.406   0.413  1.00  0.00     0.049 A 
ATOM     51  N   UNL     1      -3.913  10.557   3.084  1.00  0.00    -0.248 NA
ATOM     52  C   UNL     1      -4.578   8.361   3.049  1.00  0.00     0.031 C 
ATOM     53  C   UNL     1      -1.942  11.257   1.207  1.00  0.00     0.029 A 
ATOM     54  N   UNL     1      -2.718  10.926  -0.877  1.00  0.00    -0.354 N 
ATOM     55  C   UNL     1      -4.051  10.153   4.391  1.00  0.00     0.074 A 
ATOM     56  C   UNL     1      -4.600   8.820   4.304  1.00  0.00     0.031 C 
ATOM     57  C   UNL     1      -1.623  12.339   0.485  1.00  0.00     0.029 A 
ATOM     58  C   UNL     1      -2.416  12.292  -0.729  1.00  0.00     0.049 A 
ATOM     59  H   UNL     1      -2.830  10.435  -1.723  1.00  0.00     0.167 HD
ATOM     60  C   UNL     1      -3.547  10.932   5.390  1.00  0.00     0.031 A 
ATOM     61  C   UNL     1      -3.163  13.322  -1.223  1.00  0.00     0.031 A 
ATOM     62  C   UNL     1      -3.042  12.215   4.892  1.00  0.00     0.049 A 
ATOM     63  C   UNL     1      -3.559  14.357  -0.189  1.00  0.00     0.074 A 
ATOM     64  C   UNL     1      -1.777  12.761   4.749  1.00  0.00     0.029 A 
ATOM     65  N   UNL     1      -3.913  13.086   4.255  1.00  0.00    -0.354 N 
ATOM     66  N   UNL     1      -3.338  14.240   1.089  1.00  0.00    -0.248 NA
ATOM     67  C   UNL     1      -4.338  15.553  -0.502  1.00  0.00     0.031 C 
ATOM     68  C   UNL     1      -1.901  13.991   4.046  1.00  0.00     0.029 A 
ATOM     69  C   UNL     1      -3.240  14.192   3.772  1.00  0.00     0.049 A 
ATOM     70  H   UNL     1      -4.881  12.936   4.159  1.00  0.00     0.167 HD
ATOM     71  C   UNL     1      -3.983  15.242   1.771  1.00  0.00     0.074 A 
ATOM     72  C   UNL     1      -4.582  16.049   0.724  1.00  0.00     0.031 C 
ATOM     73  C   UNL     1      -4.000  15.264   3.139  1.00  0.00     0.031 A 
BRANCH  60  74
ATOM     74  C   UNL     1      -3.286  10.470   6.814  1.00  0.00    -0.014 A 
ATOM     75  C   UNL     1      -2.510  11.280   7.673  1.00  0.00     0.010 A 
ATOM     76  C   UNL     1      -3.693   9.235   7.350  1.00  0.00     0.010 A 
ATOM     77  C   UNL     1      -2.091  10.846   8.942  1.00  0.00     0.020 A 
ATOM     78  C   UNL     1      -3.285   8.786   8.615  1.00  0.00     0.020 A 
ATOM     79  C   UNL     1      -2.462   9.585   9.395  1.00  0.00     0.054 A 
BRANCH  79  80
ATOM     80  S   UNL     1      -1.850   8.993  10.992  1.00  0.00     0.124 S 
ATOM     81  O   UNL     1      -0.407   8.933  10.767  1.00  0.00    -0.237 OA
ATOM     82  O   UNL     1      -2.304  10.030  11.912  1.00  0.00    -0.237 OA
ATOM     83  O   UNL     1      -2.502   7.694  11.152  1.00  0.00    -0.744 OA
ENDBRANCH  79  80
ENDBRANCH  60  74
BRANCH  61  84
ATOM     84  C   UNL     1      -3.990  12.961  -2.404  1.00  0.00    -0.014 A 
ATOM     85  C   UNL     1      -3.317  12.729  -3.621  1.00  0.00     0.010 A 
ATOM     86  C   UNL     1      -5.276  12.424  -2.212  1.00  0.00     0.010 A 
ATOM     87  C   UNL     1      -3.833  11.820  -4.545  1.00  0.00     0.020 A 
ATOM     88  C   UNL     1      -5.796  11.517  -3.142  1.00  0.00     0.020 A 
ATOM     89  C   UNL     1      -5.036  11.170  -4.262  1.00  0.00     0.054 A 
BRANCH  89  90
ATOM     90  S   UNL     1      -5.458   9.703  -5.248  1.00  0.00     0.124 S 
ATOM     91  O   UNL     1      -5.536  10.246  -6.600  1.00  0.00    -0.237 OA
ATOM     92  O   UNL     1      -4.315   8.832  -4.981  1.00  0.00    -0.237 OA
ATOM     93  O   UNL     1      -6.723   9.262  -4.670  1.00  0.00    -0.744 OA
ENDBRANCH  89  90
ENDBRANCH  61  84
BRANCH  73  94
ATOM     94  C   UNL     1      -4.740  16.231   4.049  1.00  0.00    -0.014 A 
ATOM     95  C   UNL     1      -5.260  17.475   3.666  1.00  0.00     0.010 A 
ATOM     96  C   UNL     1      -4.895  15.888   5.419  1.00  0.00     0.010 A 
ATOM     97  C   UNL     1      -5.948  18.297   4.579  1.00  0.00     0.020 A 
ATOM     98  C   UNL     1      -5.567  16.698   6.339  1.00  0.00     0.020 A 
ATOM     99  C   UNL     1      -6.100  17.901   5.908  1.00  0.00     0.054 A 
BRANCH  99 100
ATOM    100  S   UNL     1      -6.993  18.975   7.058  1.00  0.00     0.124 S 
ATOM    101  O   UNL     1      -6.106  20.132   7.149  1.00  0.00    -0.237 OA
ATOM    102  O   UNL     1      -8.253  19.205   6.356  1.00  0.00    -0.237 OA
ATOM    103  O   UNL     1      -7.101  18.175   8.275  1.00  0.00    -0.744 OA
ENDBRANCH  99 100
ENDBRANCH  73  94
ENDBRANCH  47  48
ENDBRANCH  39  42
ENDBRANCH  37  38
ENDBRANCH  36  37
ENDBRANCH  35  36
ENDBRANCH   1  35
TORSDOF 20
