REMARK SMILES Cc1cc(=O)c(Oc2ccc(C(=O)NCCCCCCNC(=O)c3ccc(-c4c5nc(c(-c6ccc(S(=O)(=O)[O-])cc6)c6ccc([nH]6)c(-c6ccc(S(=O)(=O)[O-])cc6)c6nc(c(-c7ccc(S(=O)(=O)[O-])cc7)c7ccc4[nH]7)C=C6)C=C5)cc3)cc2)c(-c2ccc(S(C)(=O)=O)cc2)o1
REMARK SMILES IDX 17 1 16 2 15 3 14 4 12 5 13 6 11 8 8 9 9 10 85 11 10 12
REMARK SMILES IDX 84 13 7 14 6 15 1 16 2 17 3 18 97 19 4 20 86 21 5 22 87 23
REMARK SMILES IDX 88 24 96 25 89 26 95 27 90 28 91 29 92 30 93 31 94 32 18 33
REMARK SMILES IDX 19 34 20 35 21 36 22 37 23 39 24 40 25 41 83 42 26 43 82 44
REMARK SMILES IDX 27 45 28 46 29 47 76 48 30 49 81 50 75 51 77 52 31 53 80 54
REMARK SMILES IDX 74 55 73 56 32 58 62 59 43 60 61 61 44 62 47 63 60 64 78 65
REMARK SMILES IDX 45 66 46 67 59 69 79 70 48 71 33 72 34 73 42 74 35 75 41 76
REMARK SMILES IDX 36 77 37 78 38 79 39 80 40 81 63 82 64 83 72 84 65 85 71 86
REMARK SMILES IDX 66 87 67 88 68 89 69 90 70 91 49 92 50 93 58 94 51 95 57 96
REMARK SMILES IDX 52 97 53 98 54 99 55 100 56 101
REMARK H PARENT 14 7 21 38 77 57 47 68
REMARK Flexibility Score: inf
ROOT
ATOM      1  C   UNL     1       0.195  -0.454  12.553  1.00  0.00     0.002 C 
ENDROOT
BRANCH   1   2
ATOM      2  C   UNL     1       0.626  -0.791  11.125  1.00  0.00     0.021 C 
BRANCH   2   3
ATOM      3  C   UNL     1      -0.192  -1.829  10.362  1.00  0.00     0.116 C 
BRANCH   3   4
ATOM      4  N   UNL     1      -1.617  -1.580  10.300  1.00  0.00    -0.352 N 
ATOM      5  C   UNL     1      -2.552  -1.944   9.357  1.00  0.00     0.251 C 
ATOM      6  O   UNL     1      -3.737  -1.694   9.568  1.00  0.00    -0.269 OA
ATOM      7  H   UNL     1      -1.978  -1.066  11.058  1.00  0.00     0.163 HD
BRANCH   5   8
ATOM      8  C   UNL     1      -2.161  -2.539   8.049  1.00  0.00     0.040 A 
ATOM      9  C   UNL     1      -1.268  -3.181   5.483  1.00  0.00     0.127 A 
ATOM     10  C   UNL     1      -2.484  -2.524   5.638  1.00  0.00     0.048 A 
ATOM     11  C   UNL     1      -0.611  -3.697   6.599  1.00  0.00     0.048 A 
ATOM     12  C   UNL     1      -2.910  -2.169   6.921  1.00  0.00     0.017 A 
ATOM     13  C   UNL     1      -1.078  -3.404   7.881  1.00  0.00     0.017 A 
BRANCH   9  14
ATOM     14  O   UNL     1      -0.732  -3.453   4.261  1.00  0.00    -0.449 OA
BRANCH  14  15
ATOM     15  C   UNL     1      -0.268  -2.485   3.379  1.00  0.00     0.217 A 
ATOM     16  C   UNL     1       1.020   0.105   0.164  1.00  0.00     0.088 C 
ATOM     17  C   UNL     1       0.655  -0.878   1.229  1.00  0.00     0.105 A 
ATOM     18  C   UNL     1       0.691  -2.197   1.031  1.00  0.00     0.098 A 
ATOM     19  O   UNL     1       0.255  -0.319   2.424  1.00  0.00    -0.457 OA
ATOM     20  C   UNL     1       0.272  -3.090   2.118  1.00  0.00     0.228 A 
ATOM     21  C   UNL     1      -0.206  -1.128   3.461  1.00  0.00     0.180 A 
ATOM     22  O   UNL     1       0.359  -4.304   1.955  1.00  0.00    -0.285 OA
BRANCH  21  23
ATOM     23  C   UNL     1      -0.636  -0.281   4.590  1.00  0.00     0.021 A 
ATOM     24  C   UNL     1      -1.822   0.466   4.481  1.00  0.00     0.013 A 
ATOM     25  C   UNL     1       0.110  -0.210   5.775  1.00  0.00     0.013 A 
ATOM     26  C   UNL     1      -2.308   1.191   5.572  1.00  0.00     0.021 A 
ATOM     27  C   UNL     1      -0.367   0.522   6.869  1.00  0.00     0.021 A 
ATOM     28  C   UNL     1      -1.584   1.201   6.768  1.00  0.00     0.067 A 
BRANCH  28  29
ATOM     29  S   UNL     1      -2.300   1.972   8.203  1.00  0.00     0.175 S 
ATOM     30  C   UNL     1      -2.028   3.700   7.941  1.00  0.00     0.163 C 
ATOM     31  O   UNL     1      -3.729   1.740   8.145  1.00  0.00    -0.224 OA
ATOM     32  O   UNL     1      -1.515   1.582   9.360  1.00  0.00    -0.224 OA
ENDBRANCH  28  29
ENDBRANCH  21  23
ENDBRANCH  14  15
ENDBRANCH   9  14
ENDBRANCH   5   8
ENDBRANCH   3   4
ENDBRANCH   2   3
ENDBRANCH   1   2
BRANCH   1  33
ATOM     33  C   UNL     1      -0.059  -1.625  13.504  1.00  0.00     0.002 C 
BRANCH  33  34
ATOM     34  C   UNL     1       1.047  -2.671  13.617  1.00  0.00     0.021 C 
BRANCH  34  35
ATOM     35  C   UNL     1       2.439  -2.143  13.936  1.00  0.00     0.116 C 
BRANCH  35  36
ATOM     36  N   UNL     1       2.544  -1.537  15.253  1.00  0.00    -0.352 N 
ATOM     37  C   UNL     1       3.424  -1.815  16.276  1.00  0.00     0.251 C 
ATOM     38  H   UNL     1       1.892  -0.824  15.442  1.00  0.00     0.163 HD
ATOM     39  O   UNL     1       3.296  -1.266  17.366  1.00  0.00    -0.269 OA
BRANCH  37  40
ATOM     40  C   UNL     1       4.499  -2.814  16.070  1.00  0.00     0.039 A 
ATOM     41  C   UNL     1       5.273  -2.804  14.908  1.00  0.00     0.014 A 
ATOM     42  C   UNL     1       4.709  -3.799  17.040  1.00  0.00     0.014 A 
ATOM     43  C   UNL     1       6.114  -3.877  14.631  1.00  0.00     0.010 A 
ATOM     44  C   UNL     1       5.627  -4.827  16.800  1.00  0.00     0.010 A 
ATOM     45  C   UNL     1       6.298  -4.906  15.570  1.00  0.00    -0.014 A 
BRANCH  45  46
ATOM     46  C   UNL     1       7.198  -6.046  15.246  1.00  0.00     0.031 A 
ATOM     47  C   UNL     1       6.660  -7.449  15.130  1.00  0.00     0.074 A 
ATOM     48  C   UNL     1       8.502  -5.804  14.998  1.00  0.00     0.049 A 
ATOM     49  N   UNL     1       7.301  -8.550  14.829  1.00  0.00    -0.248 NA
ATOM     50  C   UNL     1       5.223  -7.647  15.381  1.00  0.00     0.031 C 
ATOM     51  C   UNL     1       9.134  -4.484  15.053  1.00  0.00     0.029 A 
ATOM     52  N   UNL     1       9.521  -6.644  14.621  1.00  0.00    -0.354 N 
ATOM     53  C   UNL     1       6.354  -9.568  14.866  1.00  0.00     0.074 A 
ATOM     54  C   UNL     1       5.099  -8.962  15.252  1.00  0.00     0.031 C 
ATOM     55  C   UNL     1      10.411  -4.592  14.661  1.00  0.00     0.029 A 
ATOM     56  C   UNL     1      10.715  -5.997  14.404  1.00  0.00     0.049 A 
ATOM     57  H   UNL     1       9.408  -7.616  14.517  1.00  0.00     0.167 HD
ATOM     58  C   UNL     1       6.515 -10.884  14.588  1.00  0.00     0.031 A 
ATOM     59  C   UNL     1      11.927  -6.471  14.051  1.00  0.00     0.031 A 
ATOM     60  C   UNL     1       7.766 -11.477  14.189  1.00  0.00     0.049 A 
ATOM     61  C   UNL     1      12.094  -7.943  13.810  1.00  0.00     0.074 A 
ATOM     62  C   UNL     1       8.019 -12.799  13.865  1.00  0.00     0.029 A 
ATOM     63  N   UNL     1       8.968 -10.797  14.057  1.00  0.00    -0.354 N 
ATOM     64  N   UNL     1      11.182  -8.885  13.838  1.00  0.00    -0.248 NA
ATOM     65  C   UNL     1      13.446  -8.421  13.493  1.00  0.00     0.031 C 
ATOM     66  C   UNL     1       9.385 -12.932  13.609  1.00  0.00     0.029 A 
ATOM     67  C   UNL     1       9.971 -11.679  13.692  1.00  0.00     0.049 A 
ATOM     68  H   UNL     1       9.089  -9.831  14.201  1.00  0.00     0.167 HD
ATOM     69  C   UNL     1      11.848 -10.067  13.536  1.00  0.00     0.074 A 
ATOM     70  C   UNL     1      13.235  -9.717  13.302  1.00  0.00     0.031 C 
ATOM     71  C   UNL     1      11.352 -11.326  13.467  1.00  0.00     0.031 A 
BRANCH  58  72
ATOM     72  C   UNL     1       5.317 -11.797  14.692  1.00  0.00    -0.014 A 
ATOM     73  C   UNL     1       5.297 -12.813  15.667  1.00  0.00     0.010 A 
ATOM     74  C   UNL     1       4.280 -11.742  13.744  1.00  0.00     0.010 A 
ATOM     75  C   UNL     1       4.286 -13.778  15.670  1.00  0.00     0.020 A 
ATOM     76  C   UNL     1       3.250 -12.689  13.762  1.00  0.00     0.020 A 
ATOM     77  C   UNL     1       3.274 -13.716  14.708  1.00  0.00     0.054 A 
BRANCH  77  78
ATOM     78  S   UNL     1       1.992 -15.001  14.702  1.00  0.00     0.124 S 
ATOM     79  O   UNL     1       2.711 -16.151  14.163  1.00  0.00    -0.237 OA
ATOM     80  O   UNL     1       1.623 -15.089  16.113  1.00  0.00    -0.237 OA
ATOM     81  O   UNL     1       0.957 -14.446  13.832  1.00  0.00    -0.744 OA
ENDBRANCH  77  78
ENDBRANCH  58  72
BRANCH  59  82
ATOM     82  C   UNL     1      13.059  -5.514  13.895  1.00  0.00    -0.014 A 
ATOM     83  C   UNL     1      13.546  -4.801  15.008  1.00  0.00     0.010 A 
ATOM     84  C   UNL     1      13.584  -5.233  12.622  1.00  0.00     0.010 A 
ATOM     85  C   UNL     1      14.478  -3.774  14.842  1.00  0.00     0.020 A 
ATOM     86  C   UNL     1      14.544  -4.229  12.457  1.00  0.00     0.020 A 
ATOM     87  C   UNL     1      14.957  -3.483  13.563  1.00  0.00     0.054 A 
BRANCH  87  88
ATOM     88  S   UNL     1      16.108  -2.095  13.362  1.00  0.00     0.124 S 
ATOM     89  O   UNL     1      15.216  -0.946  13.497  1.00  0.00    -0.237 OA
ATOM     90  O   UNL     1      17.047  -2.296  14.463  1.00  0.00    -0.237 OA
ATOM     91  O   UNL     1      16.663  -2.302  12.027  1.00  0.00    -0.744 OA
ENDBRANCH  87  88
ENDBRANCH  59  82
BRANCH  71  92
ATOM     92  C   UNL     1      12.301 -12.449  13.136  1.00  0.00    -0.014 A 
ATOM     93  C   UNL     1      12.153 -13.158  11.929  1.00  0.00     0.010 A 
ATOM     94  C   UNL     1      13.240 -12.897  14.082  1.00  0.00     0.010 A 
ATOM     95  C   UNL     1      12.890 -14.321  11.693  1.00  0.00     0.020 A 
ATOM     96  C   UNL     1      14.004 -14.042  13.835  1.00  0.00     0.020 A 
ATOM     97  C   UNL     1      13.802 -14.763  12.656  1.00  0.00     0.054 A 
BRANCH  97  98
ATOM     98  S   UNL     1      14.710 -16.304  12.356  1.00  0.00     0.124 S 
ATOM     99  O   UNL     1      13.683 -17.316  12.582  1.00  0.00    -0.237 OA
ATOM    100  O   UNL     1      15.150 -16.152  10.971  1.00  0.00    -0.237 OA
ATOM    101  O   UNL     1      15.782 -16.269  13.348  1.00  0.00    -0.744 OA
ENDBRANCH  97  98
ENDBRANCH  71  92
ENDBRANCH  45  46
ENDBRANCH  37  40
ENDBRANCH  35  36
ENDBRANCH  34  35
ENDBRANCH  33  34
ENDBRANCH   1  33
TORSDOF 20
