REMARK SMILES C[C@@H](C(=O)NCCCCCCNC(=O)c1ccc(-c2c3nc(c(-c4ccc(S(=O)(=O)[O-])cc4)c4ccc([nH]4)c(-c4ccc(S(=O)(=O)[O-])cc4)c4nc(c(-c5ccc(S(=O)(=O)[O-])cc5)c5ccc2[nH]5)C=C4)C=C3)cc1)c1ccc(C[C@@H]2CCC[C@@H]2O)cc1F
REMARK SMILES IDX 8 1 7 2 6 3 5 4 3 5 4 6 2 8 1 9 75 10 76 11 87 12 77 13
REMARK SMILES IDX 86 14 88 15 78 16 79 17 80 18 81 19 84 20 82 21 83 22 85 23
REMARK SMILES IDX 9 25 10 26 11 27 12 28 13 29 14 31 15 32 16 33 74 34 17 35
REMARK SMILES IDX 73 36 18 37 19 38 20 39 67 40 21 41 72 42 66 43 68 44 22 45
REMARK SMILES IDX 71 46 65 47 64 48 23 50 53 51 34 52 52 53 35 54 38 55 51 56
REMARK SMILES IDX 69 57 36 58 37 59 50 61 70 62 39 63 24 64 25 65 33 66 26 67
REMARK SMILES IDX 32 68 27 69 28 70 29 71 30 72 31 73 54 74 55 75 63 76 56 77
REMARK SMILES IDX 62 78 57 79 58 80 59 81 60 82 61 83 40 84 41 85 49 86 42 87
REMARK SMILES IDX 48 88 43 89 44 90 45 91 46 92 47 93
REMARK H PARENT 5 7 85 24 12 30 68 49 38 60
REMARK Flexibility Score: inf
ROOT
ATOM      1  C   UNL     1      -9.522   4.652  10.245  1.00  0.00     0.002 C 
ENDROOT
BRANCH   1   2
ATOM      2  C   UNL     1     -10.040   3.276   9.806  1.00  0.00     0.021 C 
BRANCH   2   3
ATOM      3  C   UNL     1     -10.742   3.284   8.443  1.00  0.00     0.116 C 
BRANCH   3   4
ATOM      4  N   UNL     1      -9.770   3.507   7.391  1.00  0.00    -0.356 N 
ATOM      5  C   UNL     1      -9.149   2.605   6.576  1.00  0.00     0.227 C 
ATOM      6  O   UNL     1      -8.150   2.996   5.968  1.00  0.00    -0.274 OA
ATOM      7  H   UNL     1      -9.522   4.448   7.242  1.00  0.00     0.163 HD
BRANCH   5   8
ATOM      8  C   UNL     1      -9.717   1.175   6.437  1.00  0.00     0.108 C 
ATOM      9  C   UNL     1      -9.394   0.359   7.697  1.00  0.00     0.023 C 
BRANCH   8  10
ATOM     10  C   UNL     1      -9.223   0.511   5.152  1.00  0.00    -0.000 A 
ATOM     11  C   UNL     1      -8.503  -0.692   5.144  1.00  0.00     0.008 A 
ATOM     12  C   UNL     1      -9.453   1.132   3.917  1.00  0.00     0.127 A 
ATOM     13  C   UNL     1      -7.970  -1.203   3.961  1.00  0.00     0.004 A 
ATOM     14  C   UNL     1      -8.889   0.647   2.736  1.00  0.00     0.043 A 
ATOM     15  F   UNL     1     -10.201   2.244   3.857  1.00  0.00    -0.207 F 
ATOM     16  C   UNL     1      -8.094  -0.504   2.758  1.00  0.00    -0.045 A 
BRANCH  16  17
ATOM     17  C   UNL     1      -7.356  -0.965   1.527  1.00  0.00     0.041 C 
BRANCH  17  18
ATOM     18  C   UNL     1      -5.831  -0.699   1.466  1.00  0.00     0.022 C 
ATOM     19  C   UNL     1      -4.989  -1.383   2.552  1.00  0.00     0.007 C 
ATOM     20  C   UNL     1      -5.375   0.761   1.568  1.00  0.00     0.117 C 
ATOM     21  C   UNL     1      -4.690  -0.324   3.618  1.00  0.00     0.003 C 
ATOM     22  C   UNL     1      -5.170   1.010   3.058  1.00  0.00     0.032 C 
BRANCH  20  23
ATOM     23  O   UNL     1      -6.270   1.665   0.952  1.00  0.00    -0.393 OA
ATOM     24  H   UNL     1      -7.141   1.595   1.373  1.00  0.00     0.210 HD
ENDBRANCH  20  23
ENDBRANCH  17  18
ENDBRANCH  16  17
ENDBRANCH   8  10
ENDBRANCH   5   8
ENDBRANCH   3   4
ENDBRANCH   2   3
ENDBRANCH   1   2
BRANCH   1  25
ATOM     25  C   UNL     1     -10.600   5.730  10.386  1.00  0.00     0.002 C 
BRANCH  25  26
ATOM     26  C   UNL     1     -11.762   5.357  11.309  1.00  0.00     0.021 C 
BRANCH  26  27
ATOM     27  C   UNL     1     -11.349   5.055  12.746  1.00  0.00     0.116 C 
BRANCH  27  28
ATOM     28  N   UNL     1     -10.817   6.233  13.415  1.00  0.00    -0.352 N 
ATOM     29  C   UNL     1     -11.227   6.811  14.592  1.00  0.00     0.251 C 
ATOM     30  H   UNL     1     -10.062   6.675  12.963  1.00  0.00     0.163 HD
ATOM     31  O   UNL     1     -10.815   7.921  14.915  1.00  0.00    -0.269 OA
BRANCH  29  32
ATOM     32  C   UNL     1     -12.183   6.089  15.456  1.00  0.00     0.039 A 
ATOM     33  C   UNL     1     -13.301   6.763  15.952  1.00  0.00     0.014 A 
ATOM     34  C   UNL     1     -11.980   4.739  15.754  1.00  0.00     0.014 A 
ATOM     35  C   UNL     1     -14.252   6.064  16.698  1.00  0.00     0.010 A 
ATOM     36  C   UNL     1     -12.963   4.029  16.435  1.00  0.00     0.010 A 
ATOM     37  C   UNL     1     -14.107   4.685  16.917  1.00  0.00    -0.014 A 
BRANCH  37  38
ATOM     38  C   UNL     1     -15.133   3.897  17.646  1.00  0.00     0.031 A 
ATOM     39  C   UNL     1     -14.777   3.216  18.938  1.00  0.00     0.074 A 
ATOM     40  C   UNL     1     -16.349   3.711  17.096  1.00  0.00     0.049 A 
ATOM     41  N   UNL     1     -15.488   2.389  19.659  1.00  0.00    -0.248 NA
ATOM     42  C   UNL     1     -13.429   3.473  19.470  1.00  0.00     0.031 C 
ATOM     43  C   UNL     1     -16.801   4.280  15.825  1.00  0.00     0.029 A 
ATOM     44  N   UNL     1     -17.419   2.966  17.526  1.00  0.00    -0.354 N 
ATOM     45  C   UNL     1     -14.666   2.004  20.712  1.00  0.00     0.074 A 
ATOM     46  C   UNL     1     -13.389   2.652  20.508  1.00  0.00     0.031 C 
ATOM     47  C   UNL     1     -18.054   3.867  15.580  1.00  0.00     0.029 A 
ATOM     48  C   UNL     1     -18.480   2.970  16.650  1.00  0.00     0.049 A 
ATOM     49  H   UNL     1     -17.427   2.475  18.379  1.00  0.00     0.167 HD
ATOM     50  C   UNL     1     -14.953   1.194  21.759  1.00  0.00     0.031 A 
ATOM     51  C   UNL     1     -19.654   2.309  16.688  1.00  0.00     0.031 A 
ATOM     52  C   UNL     1     -16.227   0.558  21.956  1.00  0.00     0.049 A 
ATOM     53  C   UNL     1     -19.957   1.417  17.859  1.00  0.00     0.074 A 
ATOM     54  C   UNL     1     -16.642  -0.225  23.019  1.00  0.00     0.029 A 
ATOM     55  N   UNL     1     -17.290   0.621  21.066  1.00  0.00    -0.354 N 
ATOM     56  N   UNL     1     -19.197   1.127  18.889  1.00  0.00    -0.248 NA
ATOM     57  C   UNL     1     -21.277   0.772  17.883  1.00  0.00     0.031 C 
ATOM     58  C   UNL     1     -17.935  -0.683  22.744  1.00  0.00     0.029 A 
ATOM     59  C   UNL     1     -18.350  -0.133  21.541  1.00  0.00     0.049 A 
ATOM     60  H   UNL     1     -17.290   1.127  20.222  1.00  0.00     0.167 HD
ATOM     61  C   UNL     1     -19.956   0.286  19.695  1.00  0.00     0.074 A 
ATOM     62  C   UNL     1     -21.236   0.119  19.038  1.00  0.00     0.031 C 
ATOM     63  C   UNL     1     -19.620  -0.290  20.876  1.00  0.00     0.031 A 
BRANCH  50  64
ATOM     64  C   UNL     1     -13.850   0.935  22.753  1.00  0.00    -0.014 A 
ATOM     65  C   UNL     1     -13.359   1.957  23.587  1.00  0.00     0.010 A 
ATOM     66  C   UNL     1     -13.294  -0.353  22.855  1.00  0.00     0.010 A 
ATOM     67  C   UNL     1     -12.287   1.714  24.450  1.00  0.00     0.020 A 
ATOM     68  C   UNL     1     -12.244  -0.610  23.741  1.00  0.00     0.020 A 
ATOM     69  C   UNL     1     -11.729   0.434  24.513  1.00  0.00     0.054 A 
BRANCH  69  70
ATOM     70  S   UNL     1     -10.323   0.151  25.622  1.00  0.00     0.124 S 
ATOM     71  O   UNL     1      -9.238   0.816  24.905  1.00  0.00    -0.237 OA
ATOM     72  O   UNL     1     -10.752   0.803  26.857  1.00  0.00    -0.237 OA
ATOM     73  O   UNL     1     -10.223  -1.305  25.692  1.00  0.00    -0.744 OA
ENDBRANCH  69  70
ENDBRANCH  50  64
BRANCH  51  74
ATOM     74  C   UNL     1     -20.621   2.480  15.570  1.00  0.00    -0.014 A 
ATOM     75  C   UNL     1     -21.788   3.243  15.741  1.00  0.00     0.010 A 
ATOM     76  C   UNL     1     -20.340   1.932  14.304  1.00  0.00     0.010 A 
ATOM     77  C   UNL     1     -22.655   3.460  14.666  1.00  0.00     0.020 A 
ATOM     78  C   UNL     1     -21.191   2.169  13.221  1.00  0.00     0.020 A 
ATOM     79  C   UNL     1     -22.346   2.930  13.410  1.00  0.00     0.054 A 
BRANCH  79  80
ATOM     80  S   UNL     1     -23.436   3.306  12.008  1.00  0.00     0.124 S 
ATOM     81  O   UNL     1     -24.603   2.480  12.300  1.00  0.00    -0.237 OA
ATOM     82  O   UNL     1     -23.630   4.747  12.139  1.00  0.00    -0.237 OA
ATOM     83  O   UNL     1     -22.651   2.895  10.846  1.00  0.00    -0.744 OA
ENDBRANCH  79  80
ENDBRANCH  51  74
BRANCH  63  84
ATOM     84  C   UNL     1     -20.659  -1.135  21.565  1.00  0.00    -0.014 A 
ATOM     85  C   UNL     1     -20.983  -2.420  21.097  1.00  0.00     0.010 A 
ATOM     86  C   UNL     1     -21.242  -0.672  22.759  1.00  0.00     0.010 A 
ATOM     87  C   UNL     1     -21.879  -3.224  21.807  1.00  0.00     0.020 A 
ATOM     88  C   UNL     1     -22.118  -1.482  23.485  1.00  0.00     0.020 A 
ATOM     89  C   UNL     1     -22.435  -2.753  23.001  1.00  0.00     0.054 A 
BRANCH  89  90
ATOM     90  S   UNL     1     -23.528  -3.848  23.948  1.00  0.00     0.124 S 
ATOM     91  O   UNL     1     -24.738  -3.851  23.131  1.00  0.00    -0.237 OA
ATOM     92  O   UNL     1     -22.782  -5.104  23.969  1.00  0.00    -0.237 OA
ATOM     93  O   UNL     1     -23.651  -3.182  25.242  1.00  0.00    -0.744 OA
ENDBRANCH  89  90
ENDBRANCH  63  84
ENDBRANCH  37  38
ENDBRANCH  29  32
ENDBRANCH  27  28
ENDBRANCH  26  27
ENDBRANCH  25  26
ENDBRANCH   1  25
TORSDOF 20
