REMARK SMILES CC(C)CC1(CNc2ccnc(C(=O)NCCCCCCNC(=O)c3ccc(-c4c5nc(c(-c6ccc(S(=O)(=O)[O-])cc6)c6ccc([nH]6)c(-c6ccc(S(=O)(=O)[O-])cc6)c6nc(c(-c7ccc(S(=O)(=O)[O-])cc7)c7ccc4[nH]7)C=C6)C=C5)cc3)c2)CCCC1
REMARK SMILES IDX 17 1 16 2 15 3 13 4 14 5 12 7 8 8 9 9 85 10 10 11 11 12 7 13
REMARK SMILES IDX 6 15 5 16 86 17 89 18 87 19 88 20 4 21 2 22 1 23 3 24 18 25
REMARK SMILES IDX 19 26 20 27 21 28 22 29 23 30 24 32 25 33 26 34 84 35 27 36
REMARK SMILES IDX 83 37 28 38 29 39 30 40 77 41 31 42 82 43 76 44 78 45 32 46
REMARK SMILES IDX 81 47 75 48 74 49 33 51 63 52 44 53 62 54 45 55 48 56 61 57
REMARK SMILES IDX 79 58 46 59 47 60 60 62 80 63 49 64 34 65 35 66 43 67 36 68
REMARK SMILES IDX 42 69 37 70 38 71 39 72 40 73 41 74 64 75 65 76 73 77 66 78
REMARK SMILES IDX 72 79 67 80 68 81 69 82 70 83 71 84 50 85 51 86 59 87 52 88
REMARK SMILES IDX 58 89 53 90 54 91 55 92 56 93 57 94
REMARK H PARENT 15 6 7 14 22 31 78 50 48 61
REMARK Flexibility Score: inf
ROOT
ATOM      1  C   UNL     1       3.551   1.799  -2.405  1.00  0.00     0.021 C 
ENDROOT
BRANCH   1   2
ATOM      2  C   UNL     1       3.823   1.771  -0.898  1.00  0.00     0.116 C 
BRANCH   2   3
ATOM      3  N   UNL     1       4.509   2.943  -0.399  1.00  0.00    -0.351 N 
ATOM      4  C   UNL     1       4.275   3.764   0.691  1.00  0.00     0.269 C 
ATOM      5  O   UNL     1       5.056   4.711   0.828  1.00  0.00    -0.268 OA
ATOM      6  H   UNL     1       5.291   3.206  -0.936  1.00  0.00     0.163 HD
BRANCH   4   7
ATOM      7  C   UNL     1       3.120   3.607   1.659  1.00  0.00     0.130 A 
ATOM      8  C   UNL     1       1.317   2.386   2.720  1.00  0.00     0.038 A 
ATOM      9  C   UNL     1       0.883   3.595   3.254  1.00  0.00     0.046 A 
ATOM     10  C   UNL     1       2.519   2.394   1.989  1.00  0.00     0.060 A 
ATOM     11  C   UNL     1       1.602   4.746   2.985  1.00  0.00     0.114 A 
ATOM     12  N   UNL     1       2.680   4.784   2.179  1.00  0.00    -0.251 NA
BRANCH   8  13
ATOM     13  N   UNL     1       0.541   1.231   2.748  1.00  0.00    -0.384 N 
ATOM     14  H   UNL     1       1.002   0.361   2.746  1.00  0.00     0.160 HD
BRANCH  13  15
ATOM     15  C   UNL     1      -0.925   1.237   2.779  1.00  0.00     0.119 C 
BRANCH  15  16
ATOM     16  C   UNL     1      -1.608   0.502   1.575  1.00  0.00    -0.012 C 
ATOM     17  C   UNL     1      -3.151   0.526   1.782  1.00  0.00     0.009 C 
ATOM     18  C   UNL     1      -1.342  -1.015   1.573  1.00  0.00     0.009 C 
ATOM     19  C   UNL     1      -3.461  -0.613   2.736  1.00  0.00     0.001 C 
ATOM     20  C   UNL     1      -2.411  -1.672   2.447  1.00  0.00     0.001 C 
BRANCH  16  21
ATOM     21  C   UNL     1      -1.363   1.195   0.201  1.00  0.00     0.012 C 
BRANCH  21  22
ATOM     22  C   UNL     1       0.054   1.277  -0.379  1.00  0.00    -0.017 C 
ATOM     23  C   UNL     1       0.666  -0.088  -0.681  1.00  0.00     0.007 C 
ATOM     24  C   UNL     1       0.069   2.181  -1.617  1.00  0.00     0.007 C 
ENDBRANCH  21  22
ENDBRANCH  16  21
ENDBRANCH  15  16
ENDBRANCH  13  15
ENDBRANCH   8  13
ENDBRANCH   4   7
ENDBRANCH   2   3
ENDBRANCH   1   2
BRANCH   1  25
ATOM     25  C   UNL     1       4.687   1.377  -3.335  1.00  0.00     0.002 C 
BRANCH  25  26
ATOM     26  C   UNL     1       5.342   0.021  -3.054  1.00  0.00     0.002 C 
BRANCH  26  27
ATOM     27  C   UNL     1       4.411  -1.183  -2.875  1.00  0.00     0.021 C 
BRANCH  27  28
ATOM     28  C   UNL     1       3.445  -1.473  -4.022  1.00  0.00     0.116 C 
BRANCH  28  29
ATOM     29  N   UNL     1       4.126  -1.706  -5.284  1.00  0.00    -0.352 N 
ATOM     30  C   UNL     1       4.128  -2.807  -6.105  1.00  0.00     0.251 C 
ATOM     31  H   UNL     1       4.675  -0.953  -5.602  1.00  0.00     0.163 HD
ATOM     32  O   UNL     1       4.921  -2.859  -7.041  1.00  0.00    -0.269 OA
BRANCH  30  33
ATOM     33  C   UNL     1       3.198  -3.936  -5.866  1.00  0.00     0.039 A 
ATOM     34  C   UNL     1       3.678  -5.243  -6.003  1.00  0.00     0.014 A 
ATOM     35  C   UNL     1       1.853  -3.720  -5.556  1.00  0.00     0.014 A 
ATOM     36  C   UNL     1       2.825  -6.328  -5.776  1.00  0.00     0.010 A 
ATOM     37  C   UNL     1       1.022  -4.801  -5.261  1.00  0.00     0.010 A 
ATOM     38  C   UNL     1       1.496  -6.117  -5.373  1.00  0.00    -0.014 A 
BRANCH  38  39
ATOM     39  C   UNL     1       0.590  -7.258  -5.075  1.00  0.00     0.031 A 
ATOM     40  C   UNL     1      -0.640  -7.490  -5.914  1.00  0.00     0.074 A 
ATOM     41  C   UNL     1       0.842  -8.056  -4.017  1.00  0.00     0.049 A 
ATOM     42  N   UNL     1      -1.580  -8.390  -5.770  1.00  0.00    -0.248 NA
ATOM     43  C   UNL     1      -0.853  -6.579  -7.051  1.00  0.00     0.031 C 
ATOM     44  C   UNL     1       1.984  -7.923  -3.108  1.00  0.00     0.029 A 
ATOM     45  N   UNL     1       0.153  -9.136  -3.523  1.00  0.00    -0.354 N 
ATOM     46  C   UNL     1      -2.499  -8.146  -6.784  1.00  0.00     0.074 A 
ATOM     47  C   UNL     1      -2.031  -6.983  -7.506  1.00  0.00     0.031 C 
ATOM     48  C   UNL     1       1.928  -8.897  -2.186  1.00  0.00     0.029 A 
ATOM     49  C   UNL     1       0.728  -9.697  -2.407  1.00  0.00     0.049 A 
ATOM     50  H   UNL     1      -0.676  -9.477  -3.931  1.00  0.00     0.167 HD
ATOM     51  C   UNL     1      -3.620  -8.838  -7.101  1.00  0.00     0.031 A 
ATOM     52  C   UNL     1       0.332 -10.732  -1.640  1.00  0.00     0.031 A 
ATOM     53  C   UNL     1      -4.078 -10.002  -6.389  1.00  0.00     0.049 A 
ATOM     54  C   UNL     1      -0.931 -11.470  -1.999  1.00  0.00     0.074 A 
ATOM     55  C   UNL     1      -5.178 -10.798  -6.660  1.00  0.00     0.029 A 
ATOM     56  N   UNL     1      -3.464 -10.538  -5.267  1.00  0.00    -0.354 N 
ATOM     57  N   UNL     1      -1.757 -11.254  -2.995  1.00  0.00    -0.248 NA
ATOM     58  C   UNL     1      -1.309 -12.598  -1.136  1.00  0.00     0.031 C 
ATOM     59  C   UNL     1      -5.260 -11.782  -5.671  1.00  0.00     0.029 A 
ATOM     60  C   UNL     1      -4.174 -11.640  -4.822  1.00  0.00     0.049 A 
ATOM     61  H   UNL     1      -2.645 -10.187  -4.850  1.00  0.00     0.167 HD
ATOM     62  C   UNL     1      -2.732 -12.242  -2.898  1.00  0.00     0.074 A 
ATOM     63  C   UNL     1      -2.385 -13.062  -1.756  1.00  0.00     0.031 C 
ATOM     64  C   UNL     1      -3.815 -12.452  -3.687  1.00  0.00     0.031 A 
BRANCH  51  65
ATOM     65  C   UNL     1      -4.435  -8.354  -8.273  1.00  0.00    -0.014 A 
ATOM     66  C   UNL     1      -3.954  -8.470  -9.590  1.00  0.00     0.010 A 
ATOM     67  C   UNL     1      -5.723  -7.827  -8.061  1.00  0.00     0.010 A 
ATOM     68  C   UNL     1      -4.728  -8.035 -10.669  1.00  0.00     0.020 A 
ATOM     69  C   UNL     1      -6.513  -7.419  -9.140  1.00  0.00     0.020 A 
ATOM     70  C   UNL     1      -6.004  -7.512 -10.436  1.00  0.00     0.054 A 
BRANCH  70  71
ATOM     71  S   UNL     1      -6.999  -6.987 -11.859  1.00  0.00     0.124 S 
ATOM     72  O   UNL     1      -6.303  -5.773 -12.281  1.00  0.00    -0.237 OA
ATOM     73  O   UNL     1      -6.883  -8.125 -12.767  1.00  0.00    -0.237 OA
ATOM     74  O   UNL     1      -8.329  -6.776 -11.294  1.00  0.00    -0.744 OA
ENDBRANCH  70  71
ENDBRANCH  51  65
BRANCH  52  75
ATOM     75  C   UNL     1       1.140 -11.141  -0.457  1.00  0.00    -0.014 A 
ATOM     76  C   UNL     1       1.825 -12.369  -0.448  1.00  0.00     0.010 A 
ATOM     77  C   UNL     1       1.219 -10.308   0.673  1.00  0.00     0.010 A 
ATOM     78  C   UNL     1       2.550 -12.769   0.679  1.00  0.00     0.020 A 
ATOM     79  C   UNL     1       1.969 -10.689   1.790  1.00  0.00     0.020 A 
ATOM     80  C   UNL     1       2.616 -11.926   1.792  1.00  0.00     0.054 A 
BRANCH  80  81
ATOM     81  S   UNL     1       3.587 -12.451   3.232  1.00  0.00     0.124 S 
ATOM     82  O   UNL     1       2.743 -13.496   3.802  1.00  0.00    -0.237 OA
ATOM     83  O   UNL     1       4.835 -12.904   2.623  1.00  0.00    -0.237 OA
ATOM     84  O   UNL     1       3.699 -11.231   4.029  1.00  0.00    -0.744 OA
ENDBRANCH  80  81
ENDBRANCH  52  75
BRANCH  64  85
ATOM     85  C   UNL     1      -4.683 -13.643  -3.373  1.00  0.00    -0.014 A 
ATOM     86  C   UNL     1      -5.511 -13.668  -2.237  1.00  0.00     0.010 A 
ATOM     87  C   UNL     1      -4.711 -14.731  -4.266  1.00  0.00     0.010 A 
ATOM     88  C   UNL     1      -6.326 -14.775  -1.982  1.00  0.00     0.020 A 
ATOM     89  C   UNL     1      -5.546 -15.825  -4.031  1.00  0.00     0.020 A 
ATOM     90  C   UNL     1      -6.339 -15.846  -2.882  1.00  0.00     0.054 A 
BRANCH  90  91
ATOM     91  S   UNL     1      -7.439 -17.249  -2.551  1.00  0.00     0.124 S 
ATOM     92  O   UNL     1      -6.766 -17.907  -1.435  1.00  0.00    -0.237 OA
ATOM     93  O   UNL     1      -8.704 -16.594  -2.224  1.00  0.00    -0.237 OA
ATOM     94  O   UNL     1      -7.437 -17.995  -3.808  1.00  0.00    -0.744 OA
ENDBRANCH  90  91
ENDBRANCH  64  85
ENDBRANCH  38  39
ENDBRANCH  30  33
ENDBRANCH  28  29
ENDBRANCH  27  28
ENDBRANCH  26  27
ENDBRANCH  25  26
ENDBRANCH   1  25
TORSDOF 21
