REMARK SMILES Cc1sc(NC(=O)[C@@H]2[C@@H](C(=O)NCCCCCCNC(=O)c3ccc(-c4c5nc(c(-c6ccc(S(=O)(=O)[O-])cc6)c6ccc([nH]6)c(-c6ccc(S(=O)(=O)[O-])cc6)c6nc(c(-c7ccc(S(=O)(=O)[O-])cc7)c7ccc4[nH]7)C=C6)C=C5)cc3)[C@@H]3C=C[C@H]2C3)c(C#N)c1C
REMARK SMILES IDX 15 1 14 2 13 3 12 4 10 5 11 6 9 8 8 9 85 10 82 11 84 12
REMARK SMILES IDX 86 13 83 14 6 15 5 16 7 18 4 19 1 20 2 21 3 22 90 23 87 24
REMARK SMILES IDX 91 25 88 26 89 27 16 28 17 29 18 30 19 31 20 32 21 34 22 35
REMARK SMILES IDX 23 36 81 37 24 38 80 39 25 40 26 41 27 42 74 43 28 44 79 45
REMARK SMILES IDX 73 46 75 47 29 48 78 49 72 50 71 51 30 53 60 54 41 55 59 56
REMARK SMILES IDX 42 57 45 58 58 59 76 60 43 61 44 62 57 64 77 65 46 66 31 67
REMARK SMILES IDX 32 68 40 69 33 70 39 71 34 72 35 73 36 74 37 75 38 76 61 77
REMARK SMILES IDX 62 78 70 79 63 80 69 81 64 82 65 83 66 84 67 85 68 86 47 87
REMARK SMILES IDX 48 88 56 89 49 90 55 91 50 92 51 93 52 94 53 95 54 96
REMARK H PARENT 12 7 5 17 19 33 75 52 45 63
REMARK Flexibility Score: inf
ROOT
ATOM      1  C   UNL     1      -6.471  -2.149  -2.467  1.00  0.00     0.002 C 
ENDROOT
BRANCH   1   2
ATOM      2  C   UNL     1      -5.484  -1.121  -3.026  1.00  0.00     0.021 C 
BRANCH   2   3
ATOM      3  C   UNL     1      -5.425   0.223  -2.313  1.00  0.00     0.116 C 
BRANCH   3   4
ATOM      4  N   UNL     1      -4.955   0.189  -0.946  1.00  0.00    -0.356 N 
ATOM      5  C   UNL     1      -4.429   1.192  -0.179  1.00  0.00     0.224 C 
ATOM      6  O   UNL     1      -4.192   0.904   0.998  1.00  0.00    -0.275 OA
ATOM      7  H   UNL     1      -5.023  -0.686  -0.500  1.00  0.00     0.163 HD
BRANCH   5   8
ATOM      8  C   UNL     1      -4.085   2.591  -0.753  1.00  0.00     0.098 C 
ATOM      9  C   UNL     1      -3.997   3.656   0.424  1.00  0.00     0.099 C 
ATOM     10  C   UNL     1      -5.168   4.638   0.021  1.00  0.00     0.025 C 
ATOM     11  C   UNL     1      -5.217   3.182  -1.636  1.00  0.00     0.025 C 
ATOM     12  C   UNL     1      -4.742   5.376  -1.239  1.00  0.00    -0.027 C 
ATOM     13  C   UNL     1      -6.195   3.704  -0.588  1.00  0.00     0.017 C 
ATOM     14  C   UNL     1      -4.728   4.477  -2.228  1.00  0.00    -0.027 C 
BRANCH   9  15
ATOM     15  C   UNL     1      -2.839   4.608   0.733  1.00  0.00     0.229 C 
ATOM     16  N   UNL     1      -1.547   4.572   0.373  1.00  0.00    -0.316 N 
ATOM     17  H   UNL     1      -1.179   5.474   0.229  1.00  0.00     0.170 HD
ATOM     18  O   UNL     1      -3.108   5.631   1.398  1.00  0.00    -0.274 OA
BRANCH  16  19
ATOM     19  C   UNL     1      -0.609   3.594   0.153  1.00  0.00     0.113 A 
ATOM     20  C   UNL     1       1.010   0.044  -0.025  1.00  0.00     0.057 C 
ATOM     21  C   UNL     1       0.680   1.500   0.022  1.00  0.00     0.008 A 
ATOM     22  S   UNL     1      -0.948   1.955   0.321  1.00  0.00    -0.122 S 
ATOM     23  C   UNL     1       1.509   2.602  -0.129  1.00  0.00    -0.017 A 
ATOM     24  C   UNL     1       0.739   3.817  -0.072  1.00  0.00     0.090 A 
ATOM     25  C   UNL     1       2.997   2.583  -0.312  1.00  0.00     0.047 C 
BRANCH  24  26
ATOM     26  C   UNL     1       1.304   5.128  -0.172  1.00  0.00     0.103 C 
ATOM     27  N   UNL     1       1.740   6.214  -0.214  1.00  0.00    -0.192 NA
ENDBRANCH  24  26
ENDBRANCH  16  19
ENDBRANCH   9  15
ENDBRANCH   5   8
ENDBRANCH   3   4
ENDBRANCH   2   3
ENDBRANCH   1   2
BRANCH   1  28
ATOM     28  C   UNL     1      -7.935  -1.711  -2.301  1.00  0.00     0.002 C 
BRANCH  28  29
ATOM     29  C   UNL     1      -8.640  -1.101  -3.522  1.00  0.00     0.021 C 
BRANCH  29  30
ATOM     30  C   UNL     1      -8.621  -1.967  -4.773  1.00  0.00     0.116 C 
BRANCH  30  31
ATOM     31  N   UNL     1      -9.382  -3.216  -4.641  1.00  0.00    -0.352 N 
ATOM     32  C   UNL     1      -9.693  -4.142  -5.631  1.00  0.00     0.251 C 
ATOM     33  H   UNL     1      -9.713  -3.423  -3.738  1.00  0.00     0.163 HD
ATOM     34  O   UNL     1     -10.644  -4.904  -5.499  1.00  0.00    -0.269 OA
BRANCH  32  35
ATOM     35  C   UNL     1      -8.819  -4.228  -6.821  1.00  0.00     0.039 A 
ATOM     36  C   UNL     1      -9.263  -4.529  -8.115  1.00  0.00     0.014 A 
ATOM     37  C   UNL     1      -7.484  -3.940  -6.604  1.00  0.00     0.014 A 
ATOM     38  C   UNL     1      -8.325  -4.547  -9.159  1.00  0.00     0.010 A 
ATOM     39  C   UNL     1      -6.716  -3.580  -7.666  1.00  0.00     0.010 A 
ATOM     40  C   UNL     1      -7.022  -4.094  -8.907  1.00  0.00    -0.014 A 
BRANCH  40  41
ATOM     41  C   UNL     1      -5.987  -3.874  -9.916  1.00  0.00     0.031 A 
ATOM     42  C   UNL     1      -6.412  -2.811 -10.863  1.00  0.00     0.074 A 
ATOM     43  C   UNL     1      -4.721  -4.364  -9.796  1.00  0.00     0.049 A 
ATOM     44  N   UNL     1      -6.925  -2.992 -12.035  1.00  0.00    -0.248 NA
ATOM     45  C   UNL     1      -6.572  -1.425 -10.368  1.00  0.00     0.031 C 
ATOM     46  C   UNL     1      -4.159  -5.206  -8.724  1.00  0.00     0.029 A 
ATOM     47  N   UNL     1      -3.618  -4.163 -10.580  1.00  0.00    -0.354 N 
ATOM     48  C   UNL     1      -7.129  -1.713 -12.541  1.00  0.00     0.074 A 
ATOM     49  C   UNL     1      -7.194  -0.845 -11.399  1.00  0.00     0.031 C 
ATOM     50  C   UNL     1      -2.804  -5.252  -8.815  1.00  0.00     0.029 A 
ATOM     51  C   UNL     1      -2.390  -4.575 -10.031  1.00  0.00     0.049 A 
ATOM     52  H   UNL     1      -3.680  -3.756 -11.474  1.00  0.00     0.167 HD
ATOM     53  C   UNL     1      -6.806  -1.432 -13.836  1.00  0.00     0.031 A 
ATOM     54  C   UNL     1      -1.140  -4.405 -10.563  1.00  0.00     0.031 A 
ATOM     55  C   UNL     1      -6.521  -2.654 -14.548  1.00  0.00     0.049 A 
ATOM     56  C   UNL     1      -1.347  -4.178 -12.009  1.00  0.00     0.074 A 
ATOM     57  C   UNL     1      -7.233  -3.762 -14.952  1.00  0.00     0.029 A 
ATOM     58  N   UNL     1      -5.197  -3.016 -14.485  1.00  0.00    -0.354 N 
ATOM     59  N   UNL     1      -1.828  -5.095 -12.800  1.00  0.00    -0.248 NA
ATOM     60  C   UNL     1      -1.479  -2.809 -12.479  1.00  0.00     0.031 C 
ATOM     61  C   UNL     1      -6.323  -4.857 -14.848  1.00  0.00     0.029 A 
ATOM     62  C   UNL     1      -5.061  -4.374 -14.499  1.00  0.00     0.049 A 
ATOM     63  H   UNL     1      -4.447  -2.380 -14.436  1.00  0.00     0.167 HD
ATOM     64  C   UNL     1      -2.720  -4.414 -13.611  1.00  0.00     0.074 A 
ATOM     65  C   UNL     1      -2.359  -3.002 -13.467  1.00  0.00     0.031 C 
ATOM     66  C   UNL     1      -3.853  -5.038 -14.053  1.00  0.00     0.031 A 
BRANCH  53  67
ATOM     67  C   UNL     1      -6.199  -0.119 -14.298  1.00  0.00    -0.014 A 
ATOM     68  C   UNL     1      -5.870   0.015 -15.664  1.00  0.00     0.010 A 
ATOM     69  C   UNL     1      -5.685   0.865 -13.427  1.00  0.00     0.010 A 
ATOM     70  C   UNL     1      -5.036   1.045 -16.122  1.00  0.00     0.020 A 
ATOM     71  C   UNL     1      -4.877   1.914 -13.877  1.00  0.00     0.020 A 
ATOM     72  C   UNL     1      -4.542   1.987 -15.222  1.00  0.00     0.054 A 
BRANCH  72  73
ATOM     73  S   UNL     1      -3.434   3.287 -15.818  1.00  0.00     0.124 S 
ATOM     74  O   UNL     1      -2.276   2.520 -16.265  1.00  0.00    -0.237 OA
ATOM     75  O   UNL     1      -4.232   3.909 -16.871  1.00  0.00    -0.237 OA
ATOM     76  O   UNL     1      -3.216   4.118 -14.635  1.00  0.00    -0.744 OA
ENDBRANCH  72  73
ENDBRANCH  53  67
BRANCH  54  77
ATOM     77  C   UNL     1       0.191  -4.122  -9.934  1.00  0.00    -0.014 A 
ATOM     78  C   UNL     1       1.413  -4.265 -10.636  1.00  0.00     0.010 A 
ATOM     79  C   UNL     1       0.231  -3.373  -8.743  1.00  0.00     0.010 A 
ATOM     80  C   UNL     1       2.605  -3.642 -10.193  1.00  0.00     0.020 A 
ATOM     81  C   UNL     1       1.409  -2.744  -8.300  1.00  0.00     0.020 A 
ATOM     82  C   UNL     1       2.589  -2.864  -9.034  1.00  0.00     0.054 A 
BRANCH  82  83
ATOM     83  S   UNL     1       4.071  -1.916  -8.540  1.00  0.00     0.124 S 
ATOM     84  O   UNL     1       4.996  -2.967  -8.127  1.00  0.00    -0.237 OA
ATOM     85  O   UNL     1       4.427  -1.208  -9.767  1.00  0.00    -0.237 OA
ATOM     86  O   UNL     1       3.587  -1.062  -7.456  1.00  0.00    -0.744 OA
ENDBRANCH  82  83
ENDBRANCH  54  77
BRANCH  66  87
ATOM     87  C   UNL     1      -3.895  -6.546 -13.988  1.00  0.00    -0.014 A 
ATOM     88  C   UNL     1      -3.950  -7.314 -12.807  1.00  0.00     0.010 A 
ATOM     89  C   UNL     1      -3.989  -7.206 -15.223  1.00  0.00     0.010 A 
ATOM     90  C   UNL     1      -4.065  -8.714 -12.873  1.00  0.00     0.020 A 
ATOM     91  C   UNL     1      -4.123  -8.590 -15.295  1.00  0.00     0.020 A 
ATOM     92  C   UNL     1      -4.144  -9.342 -14.121  1.00  0.00     0.054 A 
BRANCH  92  93
ATOM     93  S   UNL     1      -4.290 -11.149 -14.223  1.00  0.00     0.124 S 
ATOM     94  O   UNL     1      -2.990 -11.599 -13.733  1.00  0.00    -0.237 OA
ATOM     95  O   UNL     1      -5.426 -11.433 -13.349  1.00  0.00    -0.237 OA
ATOM     96  O   UNL     1      -4.535 -11.398 -15.643  1.00  0.00    -0.744 OA
ENDBRANCH  92  93
ENDBRANCH  66  87
ENDBRANCH  40  41
ENDBRANCH  32  35
ENDBRANCH  30  31
ENDBRANCH  29  30
ENDBRANCH  28  29
ENDBRANCH   1  28
TORSDOF 19
