REMARK SMILES [NH3+][C@]1(C(=O)NCCCCCCNC(=O)c2ccc(-c3c4nc(c(-c5ccc(S(=O)(=O)[O-])cc5)c5ccc([nH]5)c(-c5ccc(S(=O)(=O)[O-])cc5)c5nc(c(-c6ccc(S(=O)(=O)[O-])cc6)c6ccc3[nH]6)C=C5)C=C4)cc2)CCC[C@H]1CC[NH+]1CCCCC1
REMARK SMILES IDX 8 1 7 2 6 3 5 4 3 5 4 6 2 8 75 9 78 10 76 11 77 12 1 13
REMARK SMILES IDX 79 17 80 18 81 19 82 20 86 21 83 23 85 24 84 25 9 26 10 27
REMARK SMILES IDX 11 28 12 29 13 30 14 32 15 33 16 34 74 35 17 36 73 37 18 38
REMARK SMILES IDX 19 39 20 40 67 41 21 42 72 43 66 44 68 45 22 46 71 47 65 48
REMARK SMILES IDX 64 49 23 51 53 52 34 53 52 54 35 55 38 56 51 57 69 58 36 59
REMARK SMILES IDX 37 60 50 62 70 63 39 64 24 65 25 66 33 67 26 68 32 69 27 70
REMARK SMILES IDX 28 71 29 72 30 73 31 74 54 75 55 76 63 77 56 78 62 79 57 80
REMARK SMILES IDX 58 81 59 82 60 83 61 84 40 85 41 86 49 87 42 88 48 89 43 90
REMARK SMILES IDX 44 91 45 92 46 93 47 94
REMARK H PARENT 5 7 1 14 1 15 1 16 81 22 12 31 68 50 38 61
REMARK Flexibility Score: inf
ROOT
ATOM      1  C   UNL     1       5.415  -0.880  -1.043  1.00  0.00     0.002 C 
ENDROOT
BRANCH   1   2
ATOM      2  C   UNL     1       4.701  -1.276   0.255  1.00  0.00     0.021 C 
BRANCH   2   3
ATOM      3  C   UNL     1       3.584  -0.321   0.642  1.00  0.00     0.116 C 
BRANCH   3   4
ATOM      4  N   UNL     1       2.429  -0.458  -0.219  1.00  0.00    -0.351 N 
ATOM      5  C   UNL     1       1.105  -0.310   0.041  1.00  0.00     0.281 C 
ATOM      6  O   UNL     1       0.348  -0.353  -0.940  1.00  0.00    -0.268 OA
ATOM      7  H   UNL     1       2.639  -0.700  -1.150  1.00  0.00     0.163 HD
BRANCH   5   8
ATOM      8  C   UNL     1       0.532  -0.131   1.477  1.00  0.00     0.177 C 
ATOM      9  C   UNL     1       0.868  -1.340   2.374  1.00  0.00     0.079 C 
ATOM     10  C   UNL     1       0.886   1.148   2.306  1.00  0.00     0.066 C 
ATOM     11  C   UNL     1       0.752  -0.813   3.793  1.00  0.00     0.008 C 
ATOM     12  C   UNL     1       1.288   0.605   3.702  1.00  0.00     0.011 C 
BRANCH   8  13
ATOM     13  N   UNL     1      -0.968  -0.169   1.369  1.00  0.00    -0.345 N 
ATOM     14  H   UNL     1      -1.379  -0.054   2.295  1.00  0.00     0.345 HD
ATOM     15  H   UNL     1      -1.258  -1.065   0.977  1.00  0.00     0.345 HD
ATOM     16  H   UNL     1      -1.284   0.586   0.760  1.00  0.00     0.345 HD
ENDBRANCH   8  13
BRANCH  10  17
ATOM     17  C   UNL     1       1.940   2.186   1.862  1.00  0.00     0.072 C 
BRANCH  17  18
ATOM     18  C   UNL     1       1.877   2.804   0.460  1.00  0.00     0.262 C 
BRANCH  18  19
ATOM     19  N   UNL     1       0.735   3.711   0.327  1.00  0.00    -0.335 N 
ATOM     20  C   UNL     1       1.173   5.052  -0.091  1.00  0.00     0.262 C 
ATOM     21  C   UNL     1      -0.264   3.195  -0.618  1.00  0.00     0.262 C 
ATOM     22  H   UNL     1       0.299   3.776   1.247  1.00  0.00     0.348 HD
ATOM     23  C   UNL     1      -0.003   6.026  -0.071  1.00  0.00     0.062 C 
ATOM     24  C   UNL     1      -1.506   4.084  -0.604  1.00  0.00     0.062 C 
ATOM     25  C   UNL     1      -1.156   5.530  -0.938  1.00  0.00     0.012 C 
ENDBRANCH  18  19
ENDBRANCH  17  18
ENDBRANCH  10  17
ENDBRANCH   5   8
ENDBRANCH   3   4
ENDBRANCH   2   3
ENDBRANCH   1   2
BRANCH   1  26
ATOM     26  C   UNL     1       6.014   0.533  -1.059  1.00  0.00     0.002 C 
BRANCH  26  27
ATOM     27  C   UNL     1       6.934   0.868   0.118  1.00  0.00     0.021 C 
BRANCH  27  28
ATOM     28  C   UNL     1       8.069  -0.124   0.340  1.00  0.00     0.116 C 
BRANCH  28  29
ATOM     29  N   UNL     1       8.916  -0.262  -0.832  1.00  0.00    -0.352 N 
ATOM     30  C   UNL     1      10.286  -0.244  -0.917  1.00  0.00     0.251 C 
ATOM     31  H   UNL     1       8.441  -0.386  -1.686  1.00  0.00     0.163 HD
ATOM     32  O   UNL     1      10.834  -0.204  -2.011  1.00  0.00    -0.269 OA
BRANCH  30  33
ATOM     33  C   UNL     1      11.088  -0.248   0.324  1.00  0.00     0.039 A 
ATOM     34  C   UNL     1      12.155   0.645   0.439  1.00  0.00     0.014 A 
ATOM     35  C   UNL     1      10.780  -1.119   1.373  1.00  0.00     0.014 A 
ATOM     36  C   UNL     1      12.881   0.702   1.629  1.00  0.00     0.010 A 
ATOM     37  C   UNL     1      11.452  -1.005   2.586  1.00  0.00     0.010 A 
ATOM     38  C   UNL     1      12.514  -0.099   2.724  1.00  0.00    -0.014 A 
BRANCH  38  39
ATOM     39  C   UNL     1      13.232  -0.004   4.020  1.00  0.00     0.031 A 
ATOM     40  C   UNL     1      13.991  -1.189   4.552  1.00  0.00     0.074 A 
ATOM     41  C   UNL     1      13.157   1.133   4.740  1.00  0.00     0.049 A 
ATOM     42  N   UNL     1      14.647  -1.310   5.678  1.00  0.00    -0.248 NA
ATOM     43  C   UNL     1      13.993  -2.406   3.724  1.00  0.00     0.031 C 
ATOM     44  C   UNL     1      12.425   2.339   4.347  1.00  0.00     0.029 A 
ATOM     45  N   UNL     1      13.702   1.459   5.957  1.00  0.00    -0.354 N 
ATOM     46  C   UNL     1      15.127  -2.615   5.698  1.00  0.00     0.074 A 
ATOM     47  C   UNL     1      14.637  -3.263   4.502  1.00  0.00     0.031 C 
ATOM     48  C   UNL     1      12.599   3.285   5.284  1.00  0.00     0.029 A 
ATOM     49  C   UNL     1      13.412   2.739   6.366  1.00  0.00     0.049 A 
ATOM     50  H   UNL     1      14.250   0.836   6.486  1.00  0.00     0.167 HD
ATOM     51  C   UNL     1      15.920  -3.213   6.618  1.00  0.00     0.031 A 
ATOM     52  C   UNL     1      13.756   3.399   7.489  1.00  0.00     0.031 A 
ATOM     53  C   UNL     1      16.403  -2.562   7.808  1.00  0.00     0.049 A 
ATOM     54  C   UNL     1      14.610   2.702   8.514  1.00  0.00     0.074 A 
ATOM     55  C   UNL     1      17.251  -3.065   8.779  1.00  0.00     0.029 A 
ATOM     56  N   UNL     1      16.076  -1.270   8.192  1.00  0.00    -0.354 N 
ATOM     57  N   UNL     1      15.110   1.489   8.483  1.00  0.00    -0.248 NA
ATOM     58  C   UNL     1      14.954   3.466   9.720  1.00  0.00     0.031 C 
ATOM     59  C   UNL     1      17.385  -2.099   9.782  1.00  0.00     0.029 A 
ATOM     60  C   UNL     1      16.680  -0.969   9.401  1.00  0.00     0.049 A 
ATOM     61  H   UNL     1      15.499  -0.658   7.681  1.00  0.00     0.167 HD
ATOM     62  C   UNL     1      15.855   1.358   9.650  1.00  0.00     0.074 A 
ATOM     63  C   UNL     1      15.751   2.618  10.356  1.00  0.00     0.031 C 
ATOM     64  C   UNL     1      16.565   0.291  10.094  1.00  0.00     0.031 A 
BRANCH  51  65
ATOM     65  C   UNL     1      16.302  -4.652   6.377  1.00  0.00    -0.014 A 
ATOM     66  C   UNL     1      17.148  -5.014   5.312  1.00  0.00     0.010 A 
ATOM     67  C   UNL     1      15.828  -5.655   7.242  1.00  0.00     0.010 A 
ATOM     68  C   UNL     1      17.468  -6.355   5.086  1.00  0.00     0.020 A 
ATOM     69  C   UNL     1      16.174  -6.995   7.039  1.00  0.00     0.020 A 
ATOM     70  C   UNL     1      16.975  -7.338   5.949  1.00  0.00     0.054 A 
BRANCH  70  71
ATOM     71  S   UNL     1      17.413  -9.069   5.633  1.00  0.00     0.124 S 
ATOM     72  O   UNL     1      16.629  -9.364   4.436  1.00  0.00    -0.237 OA
ATOM     73  O   UNL     1      18.859  -9.002   5.436  1.00  0.00    -0.237 OA
ATOM     74  O   UNL     1      16.984  -9.763   6.845  1.00  0.00    -0.744 OA
ENDBRANCH  70  71
ENDBRANCH  51  65
BRANCH  52  75
ATOM     75  C   UNL     1      13.312   4.806   7.694  1.00  0.00    -0.014 A 
ATOM     76  C   UNL     1      14.243   5.859   7.667  1.00  0.00     0.010 A 
ATOM     77  C   UNL     1      11.953   5.102   7.906  1.00  0.00     0.010 A 
ATOM     78  C   UNL     1      13.828   7.178   7.869  1.00  0.00     0.020 A 
ATOM     79  C   UNL     1      11.529   6.423   8.078  1.00  0.00     0.020 A 
ATOM     80  C   UNL     1      12.472   7.452   8.070  1.00  0.00     0.054 A 
BRANCH  80  81
ATOM     81  S   UNL     1      11.952   9.177   8.282  1.00  0.00     0.124 S 
ATOM     82  O   UNL     1      12.465   9.488   9.612  1.00  0.00    -0.237 OA
ATOM     83  O   UNL     1      12.624   9.846   7.170  1.00  0.00    -0.237 OA
ATOM     84  O   UNL     1      10.496   9.111   8.171  1.00  0.00    -0.744 OA
ENDBRANCH  80  81
ENDBRANCH  52  75
BRANCH  64  85
ATOM     85  C   UNL     1      17.320   0.450  11.388  1.00  0.00    -0.014 A 
ATOM     86  C   UNL     1      16.651   0.531  12.623  1.00  0.00     0.010 A 
ATOM     87  C   UNL     1      18.727   0.464  11.370  1.00  0.00     0.010 A 
ATOM     88  C   UNL     1      17.375   0.656  13.811  1.00  0.00     0.020 A 
ATOM     89  C   UNL     1      19.455   0.556  12.558  1.00  0.00     0.020 A 
ATOM     90  C   UNL     1      18.773   0.666  13.771  1.00  0.00     0.054 A 
BRANCH  90  91
ATOM     91  S   UNL     1      19.689   0.783  15.332  1.00  0.00     0.124 S 
ATOM     92  O   UNL     1      19.453   2.171  15.720  1.00  0.00    -0.237 OA
ATOM     93  O   UNL     1      19.033  -0.223  16.164  1.00  0.00    -0.237 OA
ATOM     94  O   UNL     1      21.065   0.468  14.952  1.00  0.00    -0.744 OA
ENDBRANCH  90  91
ENDBRANCH  64  85
ENDBRANCH  38  39
ENDBRANCH  30  33
ENDBRANCH  28  29
ENDBRANCH  27  28
ENDBRANCH  26  27
ENDBRANCH   1  26
TORSDOF 20
