REMARK SMILES Cc1cccc(N2C(=O)/C(=C/c3ccc(C(=O)NCCCCCCNC(=O)c4ccc(-c5c6nc(c(-c7ccc(S(=O)(=O)[O-])cc7)c7ccc([nH]7)c(-c7ccc(S(=O)(=O)[O-])cc7)c7nc(c(-c8ccc(S(=O)(=O)[O-])cc8)c8ccc5[nH]8)C=C7)C=C6)cc4)cc3)c3ccccc3C2=O)c1
REMARK SMILES IDX 22 1 21 2 20 3 19 4 18 5 16 6 17 7 15 9 12 10 13 11 89 12
REMARK SMILES IDX 14 13 88 14 11 15 7 16 8 17 96 18 9 19 10 20 95 21 97 22
REMARK SMILES IDX 90 23 94 24 91 25 93 26 92 27 6 28 1 29 2 30 3 31 98 32 4 33
REMARK SMILES IDX 5 34 23 35 24 36 25 37 26 38 27 40 28 41 29 42 87 43 30 44
REMARK SMILES IDX 86 45 31 46 32 47 33 48 80 49 34 50 85 51 79 52 81 53 35 54
REMARK SMILES IDX 84 55 78 56 77 57 36 59 66 60 47 61 65 62 48 63 51 64 64 65
REMARK SMILES IDX 82 66 49 67 50 68 63 70 83 71 52 72 37 73 38 74 46 75 39 76
REMARK SMILES IDX 45 77 40 78 41 79 42 80 43 81 44 82 67 83 68 84 76 85 69 86
REMARK SMILES IDX 75 87 70 88 71 89 72 90 73 91 74 92 53 93 54 94 62 95 55 96
REMARK SMILES IDX 61 97 56 98 57 99 58 100 59 101 60 102
REMARK H PARENT 18 8 25 39 81 58 51 69
REMARK Flexibility Score: inf
ROOT
ATOM      1  C   UNL     1      -8.362  12.257   1.363  1.00  0.00     0.002 C 
ENDROOT
BRANCH   1   2
ATOM      2  C   UNL     1      -7.019  12.400   2.092  1.00  0.00     0.002 C 
BRANCH   2   3
ATOM      3  C   UNL     1      -6.079  11.189   2.105  1.00  0.00     0.021 C 
BRANCH   3   4
ATOM      4  C   UNL     1      -5.752  10.539   0.761  1.00  0.00     0.116 C 
BRANCH   4   5
ATOM      5  N   UNL     1      -5.135  11.437  -0.199  1.00  0.00    -0.352 N 
ATOM      6  C   UNL     1      -4.140  11.185  -1.115  1.00  0.00     0.251 C 
ATOM      7  O   UNL     1      -3.723  12.082  -1.843  1.00  0.00    -0.269 OA
ATOM      8  H   UNL     1      -5.478  12.360  -0.194  1.00  0.00     0.163 HD
BRANCH   6   9
ATOM      9  C   UNL     1      -3.520   9.843  -1.200  1.00  0.00     0.039 A 
ATOM     10  C   UNL     1      -2.269   7.338  -1.140  1.00  0.00    -0.025 A 
ATOM     11  C   UNL     1      -1.502   8.508  -1.119  1.00  0.00     0.009 A 
ATOM     12  C   UNL     1      -3.659   7.431  -1.305  1.00  0.00     0.009 A 
ATOM     13  C   UNL     1      -2.125   9.758  -1.151  1.00  0.00     0.014 A 
ATOM     14  C   UNL     1      -4.285   8.681  -1.334  1.00  0.00     0.014 A 
BRANCH  10  15
ATOM     15  C   UNL     1      -1.599   6.041  -0.972  1.00  0.00     0.022 C 
ATOM     16  N   UNL     1      -1.758   2.651   0.277  1.00  0.00    -0.242 N 
ATOM     17  C   UNL     1      -1.094   3.803  -0.195  1.00  0.00     0.265 C 
ATOM     18  C   UNL     1      -3.092   2.719   0.726  1.00  0.00     0.265 C 
ATOM     19  O   UNL     1      -0.021   3.827  -0.801  1.00  0.00    -0.268 OA
ATOM     20  C   UNL     1      -1.853   5.098  -0.035  1.00  0.00     0.049 C 
ATOM     21  C   UNL     1      -3.526   3.995   1.342  1.00  0.00     0.048 A 
ATOM     22  O   UNL     1      -3.945   1.836   0.674  1.00  0.00    -0.268 OA
ATOM     23  C   UNL     1      -2.862   5.175   1.025  1.00  0.00    -0.000 A 
ATOM     24  C   UNL     1      -4.585   3.995   2.263  1.00  0.00     0.014 A 
ATOM     25  C   UNL     1      -3.196   6.343   1.727  1.00  0.00     0.010 A 
ATOM     26  C   UNL     1      -4.951   5.175   2.907  1.00  0.00     0.001 A 
ATOM     27  C   UNL     1      -4.244   6.346   2.652  1.00  0.00     0.001 A 
BRANCH  16  28
ATOM     28  C   UNL     1      -1.093   1.354   0.155  1.00  0.00     0.053 A 
ATOM     29  C   UNL     1       2.485  -0.048   0.038  1.00  0.00     0.044 C 
ATOM     30  C   UNL     1       0.986   0.018   0.043  1.00  0.00    -0.049 A 
ATOM     31  C   UNL     1       0.242  -1.156  -0.050  1.00  0.00     0.003 A 
ATOM     32  C   UNL     1       0.315   1.250   0.162  1.00  0.00     0.030 A 
ATOM     33  C   UNL     1      -1.145  -1.094  -0.030  1.00  0.00     0.002 A 
ATOM     34  C   UNL     1      -1.798   0.142   0.072  1.00  0.00     0.027 A 
ENDBRANCH  16  28
ENDBRANCH  10  15
ENDBRANCH   6   9
ENDBRANCH   4   5
ENDBRANCH   3   4
ENDBRANCH   2   3
ENDBRANCH   1   2
BRANCH   1  35
ATOM     35  C   UNL     1      -9.196  11.015   1.678  1.00  0.00     0.021 C 
BRANCH  35  36
ATOM     36  C   UNL     1      -9.578  10.846   3.144  1.00  0.00     0.116 C 
BRANCH  36  37
ATOM     37  N   UNL     1     -10.954  11.197   3.445  1.00  0.00    -0.352 N 
ATOM     38  C   UNL     1     -11.676  10.772   4.558  1.00  0.00     0.251 C 
ATOM     39  H   UNL     1     -11.417  11.786   2.807  1.00  0.00     0.163 HD
ATOM     40  O   UNL     1     -12.870  10.612   4.556  1.00  0.00    -0.269 OA
BRANCH  38  41
ATOM     41  C   UNL     1     -10.897  10.679   5.818  1.00  0.00     0.039 A 
ATOM     42  C   UNL     1     -11.070  11.699   6.761  1.00  0.00     0.014 A 
ATOM     43  C   UNL     1      -9.851   9.769   5.929  1.00  0.00     0.014 A 
ATOM     44  C   UNL     1     -10.092  11.907   7.734  1.00  0.00     0.010 A 
ATOM     45  C   UNL     1      -8.840  10.036   6.832  1.00  0.00     0.010 A 
ATOM     46  C   UNL     1      -8.937  11.127   7.710  1.00  0.00    -0.014 A 
BRANCH  46  47
ATOM     47  C   UNL     1      -7.736  11.415   8.490  1.00  0.00     0.031 A 
ATOM     48  C   UNL     1      -7.330  10.537   9.613  1.00  0.00     0.074 A 
ATOM     49  C   UNL     1      -6.899  12.414   8.128  1.00  0.00     0.049 A 
ATOM     50  N   UNL     1      -6.535  10.903  10.566  1.00  0.00    -0.248 NA
ATOM     51  C   UNL     1      -7.822   9.173   9.771  1.00  0.00     0.031 C 
ATOM     52  C   UNL     1      -5.505  12.567   8.541  1.00  0.00     0.029 A 
ATOM     53  N   UNL     1      -7.189  13.618   7.487  1.00  0.00    -0.354 N 
ATOM     54  C   UNL     1      -6.160   9.768  11.246  1.00  0.00     0.074 A 
ATOM     55  C   UNL     1      -7.059   8.736  10.778  1.00  0.00     0.031 C 
ATOM     56  C   UNL     1      -5.165  13.858   8.436  1.00  0.00     0.029 A 
ATOM     57  C   UNL     1      -6.367  14.592   8.084  1.00  0.00     0.049 A 
ATOM     58  H   UNL     1      -7.838  13.758   6.760  1.00  0.00     0.167 HD
ATOM     59  C   UNL     1      -5.036   9.772  12.018  1.00  0.00     0.031 A 
ATOM     60  C   UNL     1      -6.818  15.723   8.700  1.00  0.00     0.031 A 
ATOM     61  C   UNL     1      -4.377  11.078  12.056  1.00  0.00     0.049 A 
ATOM     62  C   UNL     1      -6.322  15.895  10.123  1.00  0.00     0.074 A 
ATOM     63  C   UNL     1      -3.212  11.586  11.503  1.00  0.00     0.029 A 
ATOM     64  N   UNL     1      -5.057  12.167  12.578  1.00  0.00    -0.354 N 
ATOM     65  N   UNL     1      -5.584  15.028  10.755  1.00  0.00    -0.248 NA
ATOM     66  C   UNL     1      -6.718  17.006  10.986  1.00  0.00     0.031 C 
ATOM     67  C   UNL     1      -3.175  12.986  11.741  1.00  0.00     0.029 A 
ATOM     68  C   UNL     1      -4.322  13.329  12.430  1.00  0.00     0.049 A 
ATOM     69  H   UNL     1      -5.946  12.120  12.999  1.00  0.00     0.167 HD
ATOM     70  C   UNL     1      -5.471  15.383  12.077  1.00  0.00     0.074 A 
ATOM     71  C   UNL     1      -6.188  16.641  12.167  1.00  0.00     0.031 C 
ATOM     72  C   UNL     1      -4.844  14.572  12.982  1.00  0.00     0.031 A 
BRANCH  59  73
ATOM     73  C   UNL     1      -4.380   8.505  12.529  1.00  0.00    -0.014 A 
ATOM     74  C   UNL     1      -2.986   8.476  12.742  1.00  0.00     0.010 A 
ATOM     75  C   UNL     1      -5.068   7.303  12.780  1.00  0.00     0.010 A 
ATOM     76  C   UNL     1      -2.303   7.292  13.052  1.00  0.00     0.020 A 
ATOM     77  C   UNL     1      -4.396   6.101  13.050  1.00  0.00     0.020 A 
ATOM     78  C   UNL     1      -3.011   6.100  13.166  1.00  0.00     0.054 A 
BRANCH  78  79
ATOM     79  S   UNL     1      -2.101   4.559  13.444  1.00  0.00     0.124 S 
ATOM     80  O   UNL     1      -1.145   4.555  12.338  1.00  0.00    -0.237 OA
ATOM     81  O   UNL     1      -1.530   4.767  14.771  1.00  0.00    -0.237 OA
ATOM     82  O   UNL     1      -3.134   3.528  13.364  1.00  0.00    -0.744 OA
ENDBRANCH  78  79
ENDBRANCH  59  73
BRANCH  60  83
ATOM     83  C   UNL     1      -8.134  16.200   8.194  1.00  0.00    -0.014 A 
ATOM     84  C   UNL     1      -8.169  16.730   6.888  1.00  0.00     0.010 A 
ATOM     85  C   UNL     1      -9.322  15.718   8.771  1.00  0.00     0.010 A 
ATOM     86  C   UNL     1      -9.316  16.599   6.104  1.00  0.00     0.020 A 
ATOM     87  C   UNL     1     -10.477  15.595   7.988  1.00  0.00     0.020 A 
ATOM     88  C   UNL     1     -10.437  15.965   6.640  1.00  0.00     0.054 A 
BRANCH  88  89
ATOM     89  S   UNL     1     -11.755  15.450   5.497  1.00  0.00     0.124 S 
ATOM     90  O   UNL     1     -12.098  16.701   4.828  1.00  0.00    -0.237 OA
ATOM     91  O   UNL     1     -11.067  14.460   4.669  1.00  0.00    -0.237 OA
ATOM     92  O   UNL     1     -12.777  14.910   6.388  1.00  0.00    -0.744 OA
ENDBRANCH  88  89
ENDBRANCH  60  83
BRANCH  72  93
ATOM     93  C   UNL     1      -4.679  14.808  14.471  1.00  0.00    -0.014 A 
ATOM     94  C   UNL     1      -4.738  16.060  15.100  1.00  0.00     0.010 A 
ATOM     95  C   UNL     1      -4.365  13.703  15.306  1.00  0.00     0.010 A 
ATOM     96  C   UNL     1      -4.570  16.190  16.491  1.00  0.00     0.020 A 
ATOM     97  C   UNL     1      -4.178  13.819  16.686  1.00  0.00     0.020 A 
ATOM     98  C   UNL     1      -4.296  15.067  17.275  1.00  0.00     0.054 A 
BRANCH  98  99
ATOM     99  S   UNL     1      -4.079  15.265  19.061  1.00  0.00     0.124 S 
ATOM    100  O   UNL     1      -2.917  16.148  19.135  1.00  0.00    -0.237 OA
ATOM    101  O   UNL     1      -5.349  15.865  19.462  1.00  0.00    -0.237 OA
ATOM    102  O   UNL     1      -3.857  13.905  19.543  1.00  0.00    -0.744 OA
ENDBRANCH  98  99
ENDBRANCH  72  93
ENDBRANCH  46  47
ENDBRANCH  38  41
ENDBRANCH  36  37
ENDBRANCH  35  36
ENDBRANCH   1  35
TORSDOF 18
