REMARK SMILES CC(C)Oc1ccccc1NCc1cc(C(=O)NCCCCCCNC(=O)c2ccc(-c3c4nc(c(-c5ccc(S(=O)(=O)[O-])cc5)c5ccc([nH]5)c(-c5ccc(S(=O)(=O)[O-])cc5)c5nc(c(-c6ccc(S(=O)(=O)[O-])cc6)c6ccc3[nH]6)C=C5)C=C4)cc2)cs1
REMARK SMILES IDX 20 1 19 2 18 3 16 4 17 5 15 7 13 8 14 9 89 10 88 11 12 12
REMARK SMILES IDX 11 13 10 15 5 16 6 17 7 18 9 19 8 20 4 21 2 22 1 23 3 24
REMARK SMILES IDX 21 25 22 26 23 27 24 28 25 29 26 30 27 32 28 33 29 34 87 35
REMARK SMILES IDX 30 36 86 37 31 38 32 39 33 40 80 41 34 42 85 43 79 44 81 45
REMARK SMILES IDX 35 46 84 47 78 48 77 49 36 51 66 52 47 53 65 54 48 55 51 56
REMARK SMILES IDX 64 57 82 58 49 59 50 60 63 62 83 63 52 64 37 65 38 66 46 67
REMARK SMILES IDX 39 68 45 69 40 70 41 71 42 72 43 73 44 74 67 75 68 76 76 77
REMARK SMILES IDX 69 78 75 79 70 80 71 81 72 82 73 83 74 84 53 85 54 86 62 87
REMARK SMILES IDX 55 88 61 89 56 90 57 91 58 92 59 93 60 94
REMARK H PARENT 18 6 11 14 25 31 81 50 51 61
REMARK Flexibility Score: inf
ROOT
ATOM      1  C   UNL     1       5.045   0.739   1.093  1.00  0.00     0.021 C 
ENDROOT
BRANCH   1   2
ATOM      2  C   UNL     1       4.746  -0.212  -0.066  1.00  0.00     0.116 C 
BRANCH   2   3
ATOM      3  N   UNL     1       5.578  -1.397  -0.004  1.00  0.00    -0.352 N 
ATOM      4  C   UNL     1       5.245  -2.721   0.112  1.00  0.00     0.252 C 
ATOM      5  O   UNL     1       6.154  -3.546  -0.044  1.00  0.00    -0.269 OA
ATOM      6  H   UNL     1       6.545  -1.221  -0.053  1.00  0.00     0.163 HD
BRANCH   4   7
ATOM      7  C   UNL     1       3.866  -3.151   0.356  1.00  0.00     0.050 A 
ATOM      8  C   UNL     1       1.610  -3.196   1.059  1.00  0.00     0.024 A 
ATOM      9  C   UNL     1       2.819  -2.521   1.115  1.00  0.00     0.031 A 
ATOM     10  S   UNL     1       1.766  -4.666   0.204  1.00  0.00    -0.146 S 
ATOM     11  C   UNL     1       3.414  -4.370  -0.125  1.00  0.00     0.079 A 
BRANCH   8  12
ATOM     12  C   UNL     1       0.284  -2.795   1.654  1.00  0.00     0.160 C 
BRANCH  12  13
ATOM     13  N   UNL     1      -0.379  -1.715   0.953  1.00  0.00    -0.377 N 
ATOM     14  H   UNL     1      -0.128  -0.804   1.228  1.00  0.00     0.161 HD
BRANCH  13  15
ATOM     15  C   UNL     1      -1.320  -1.806  -0.055  1.00  0.00     0.077 A 
ATOM     16  C   UNL     1      -1.635  -0.660  -0.817  1.00  0.00     0.142 A 
ATOM     17  C   UNL     1      -2.637  -0.669  -1.790  1.00  0.00     0.048 A 
ATOM     18  C   UNL     1      -3.318  -1.850  -2.064  1.00  0.00     0.004 A 
ATOM     19  C   UNL     1      -1.994  -2.988  -0.379  1.00  0.00     0.029 A 
ATOM     20  C   UNL     1      -2.992  -3.009  -1.365  1.00  0.00     0.002 A 
BRANCH  16  21
ATOM     21  O   UNL     1      -1.037   0.539  -0.527  1.00  0.00    -0.489 OA
BRANCH  21  22
ATOM     22  C   UNL     1       0.139   0.882  -1.281  1.00  0.00     0.167 C 
ATOM     23  C   UNL     1       1.296   0.966  -0.292  1.00  0.00     0.052 C 
ATOM     24  C   UNL     1       0.529   0.015  -2.482  1.00  0.00     0.052 C 
ENDBRANCH  21  22
ENDBRANCH  16  21
ENDBRANCH  13  15
ENDBRANCH  12  13
ENDBRANCH   8  12
ENDBRANCH   4   7
ENDBRANCH   2   3
ENDBRANCH   1   2
BRANCH   1  25
ATOM     25  C   UNL     1       6.224   1.683   0.821  1.00  0.00     0.002 C 
BRANCH  25  26
ATOM     26  C   UNL     1       5.991   2.715  -0.292  1.00  0.00     0.002 C 
BRANCH  26  27
ATOM     27  C   UNL     1       4.778   3.633  -0.103  1.00  0.00     0.021 C 
BRANCH  27  28
ATOM     28  C   UNL     1       4.791   4.474   1.171  1.00  0.00     0.116 C 
BRANCH  28  29
ATOM     29  N   UNL     1       5.905   5.409   1.200  1.00  0.00    -0.352 N 
ATOM     30  C   UNL     1       5.905   6.767   1.399  1.00  0.00     0.251 C 
ATOM     31  H   UNL     1       6.792   5.007   1.055  1.00  0.00     0.163 HD
ATOM     32  O   UNL     1       6.932   7.410   1.197  1.00  0.00    -0.269 OA
BRANCH  30  33
ATOM     33  C   UNL     1       4.673   7.461   1.838  1.00  0.00     0.039 A 
ATOM     34  C   UNL     1       4.330   8.673   1.232  1.00  0.00     0.014 A 
ATOM     35  C   UNL     1       3.874   6.941   2.861  1.00  0.00     0.014 A 
ATOM     36  C   UNL     1       3.159   9.335   1.611  1.00  0.00     0.010 A 
ATOM     37  C   UNL     1       2.676   7.570   3.196  1.00  0.00     0.010 A 
ATOM     38  C   UNL     1       2.307   8.774   2.576  1.00  0.00    -0.014 A 
BRANCH  38  39
ATOM     39  C   UNL     1       1.024   9.429   2.942  1.00  0.00     0.031 A 
ATOM     40  C   UNL     1       0.815   9.976   4.327  1.00  0.00     0.074 A 
ATOM     41  C   UNL     1       0.023   9.476   2.041  1.00  0.00     0.049 A 
ATOM     42  N   UNL     1      -0.251  10.537   4.840  1.00  0.00    -0.248 NA
ATOM     43  C   UNL     1       1.941   9.857   5.266  1.00  0.00     0.031 C 
ATOM     44  C   UNL     1       0.084   8.942   0.678  1.00  0.00     0.029 A 
ATOM     45  N   UNL     1      -1.246   9.988   2.140  1.00  0.00    -0.354 N 
ATOM     46  C   UNL     1       0.068  10.820   6.162  1.00  0.00     0.074 A 
ATOM     47  C   UNL     1       1.412  10.331   6.385  1.00  0.00     0.031 C 
ATOM     48  C   UNL     1      -1.087   9.176   0.062  1.00  0.00     0.029 A 
ATOM     49  C   UNL     1      -1.991   9.842   0.994  1.00  0.00     0.049 A 
ATOM     50  H   UNL     1      -1.591  10.420   2.955  1.00  0.00     0.167 HD
ATOM     51  C   UNL     1      -0.682  11.444   7.103  1.00  0.00     0.031 A 
ATOM     52  C   UNL     1      -3.261  10.199   0.721  1.00  0.00     0.031 A 
ATOM     53  C   UNL     1      -2.015  11.938   6.878  1.00  0.00     0.049 A 
ATOM     54  C   UNL     1      -4.073  10.895   1.777  1.00  0.00     0.074 A 
ATOM     55  C   UNL     1      -2.833  12.637   7.749  1.00  0.00     0.029 A 
ATOM     56  N   UNL     1      -2.727  11.785   5.698  1.00  0.00    -0.354 N 
ATOM     57  N   UNL     1      -3.729  11.214   3.002  1.00  0.00    -0.248 NA
ATOM     58  C   UNL     1      -5.439  11.291   1.410  1.00  0.00     0.031 C 
ATOM     59  C   UNL     1      -4.057  12.867   7.110  1.00  0.00     0.029 A 
ATOM     60  C   UNL     1      -3.983  12.356   5.825  1.00  0.00     0.049 A 
ATOM     61  H   UNL     1      -2.390  11.335   4.889  1.00  0.00     0.167 HD
ATOM     62  C   UNL     1      -4.830  11.866   3.546  1.00  0.00     0.074 A 
ATOM     63  C   UNL     1      -5.844  11.909   2.512  1.00  0.00     0.031 C 
ATOM     64  C   UNL     1      -4.985  12.384   4.790  1.00  0.00     0.031 A 
BRANCH  51  65
ATOM     65  C   UNL     1      -0.074  11.615   8.470  1.00  0.00    -0.014 A 
ATOM     66  C   UNL     1       0.985  12.516   8.687  1.00  0.00     0.010 A 
ATOM     67  C   UNL     1      -0.581  10.882   9.559  1.00  0.00     0.010 A 
ATOM     68  C   UNL     1       1.560  12.642   9.954  1.00  0.00     0.020 A 
ATOM     69  C   UNL     1      -0.026  11.024  10.834  1.00  0.00     0.020 A 
ATOM     70  C   UNL     1       1.056  11.888  11.018  1.00  0.00     0.054 A 
BRANCH  70  71
ATOM     71  S   UNL     1       1.819  12.070  12.654  1.00  0.00     0.124 S 
ATOM     72  O   UNL     1       3.063  11.320  12.488  1.00  0.00    -0.237 OA
ATOM     73  O   UNL     1       1.971  13.517  12.780  1.00  0.00    -0.237 OA
ATOM     74  O   UNL     1       0.845  11.467  13.560  1.00  0.00    -0.744 OA
ENDBRANCH  70  71
ENDBRANCH  51  65
BRANCH  52  75
ATOM     75  C   UNL     1      -3.831   9.921  -0.624  1.00  0.00    -0.014 A 
ATOM     76  C   UNL     1      -4.027  10.967  -1.543  1.00  0.00     0.010 A 
ATOM     77  C   UNL     1      -4.149   8.605  -1.005  1.00  0.00     0.010 A 
ATOM     78  C   UNL     1      -4.536  10.703  -2.818  1.00  0.00     0.020 A 
ATOM     79  C   UNL     1      -4.636   8.334  -2.287  1.00  0.00     0.020 A 
ATOM     80  C   UNL     1      -4.833   9.387  -3.183  1.00  0.00     0.054 A 
BRANCH  80  81
ATOM     81  S   UNL     1      -5.423   9.057  -4.867  1.00  0.00     0.124 S 
ATOM     82  O   UNL     1      -6.809   9.510  -4.798  1.00  0.00    -0.237 OA
ATOM     83  O   UNL     1      -4.529   9.876  -5.682  1.00  0.00    -0.237 OA
ATOM     84  O   UNL     1      -5.240   7.615  -5.016  1.00  0.00    -0.744 OA
ENDBRANCH  80  81
ENDBRANCH  52  75
BRANCH  64  85
ATOM     85  C   UNL     1      -6.293  13.063   5.095  1.00  0.00    -0.014 A 
ATOM     86  C   UNL     1      -7.468  12.319   5.297  1.00  0.00     0.010 A 
ATOM     87  C   UNL     1      -6.334  14.463   5.229  1.00  0.00     0.010 A 
ATOM     88  C   UNL     1      -8.670  12.966   5.598  1.00  0.00     0.020 A 
ATOM     89  C   UNL     1      -7.529  15.111   5.553  1.00  0.00     0.020 A 
ATOM     90  C   UNL     1      -8.693  14.358   5.721  1.00  0.00     0.054 A 
BRANCH  90  91
ATOM     91  S   UNL     1     -10.255  15.173   6.152  1.00  0.00     0.124 S 
ATOM     92  O   UNL     1     -10.982  15.123   4.886  1.00  0.00    -0.237 OA
ATOM     93  O   UNL     1     -10.783  14.320   7.214  1.00  0.00    -0.237 OA
ATOM     94  O   UNL     1      -9.843  16.507   6.582  1.00  0.00    -0.744 OA
ENDBRANCH  90  91
ENDBRANCH  64  85
ENDBRANCH  38  39
ENDBRANCH  30  33
ENDBRANCH  28  29
ENDBRANCH  27  28
ENDBRANCH  26  27
ENDBRANCH  25  26
ENDBRANCH   1  25
TORSDOF 21
