REMARK SMILES O=C(C[C@H](NC(=O)[C@]12C[C@H]3C[C@H](C[C@H](C3)C1)C2)c1cccc([N+](=O)[O-])c1)NCCCCCCNC(=O)c1ccc(-c2c3nc(c(-c4ccc(S(=O)(=O)[O-])cc4)c4ccc([nH]4)c(-c4ccc(S(=O)(=O)[O-])cc4)c4nc(c(-c5ccc(S(=O)(=O)[O-])cc5)c5ccc2[nH]5)C=C4)C=C3)cc1
REMARK SMILES IDX 30 1 29 2 28 3 27 4 1 5 2 6 3 8 4 9 18 10 19 11 26 12 20 13
REMARK SMILES IDX 22 14 21 15 23 16 24 17 25 18 5 19 6 20 7 22 8 23 9 24 16 25
REMARK SMILES IDX 17 26 10 27 14 28 12 29 11 30 15 31 13 32 31 33 32 34 33 35
REMARK SMILES IDX 34 36 35 37 36 39 37 40 38 41 96 42 39 43 95 44 40 45 41 46
REMARK SMILES IDX 42 47 89 48 43 49 94 50 88 51 90 52 44 53 93 54 87 55 86 56
REMARK SMILES IDX 45 58 75 59 56 60 74 61 57 62 60 63 73 64 91 65 58 66 59 67
REMARK SMILES IDX 72 69 92 70 61 71 46 72 47 73 55 74 48 75 54 76 49 77 50 78
REMARK SMILES IDX 51 79 52 80 53 81 76 82 77 83 85 84 78 85 84 86 79 87 80 88
REMARK SMILES IDX 81 89 82 90 83 91 62 92 63 93 71 94 64 95 70 96 65 97 66 98
REMARK SMILES IDX 67 99 68 100 69 101
REMARK H PARENT 27 7 5 21 34 38 90 57 60 68
REMARK Flexibility Score: inf
ROOT
ATOM      1  C   UNL     1       3.134  -2.516  -5.719  1.00  0.00     0.002 C 
ENDROOT
BRANCH   1   2
ATOM      2  C   UNL     1       3.201  -1.015  -5.432  1.00  0.00     0.021 C 
BRANCH   2   3
ATOM      3  C   UNL     1       2.563  -0.608  -4.102  1.00  0.00     0.116 C 
BRANCH   3   4
ATOM      4  N   UNL     1       2.972  -1.381  -2.937  1.00  0.00    -0.356 N 
ATOM      5  O   UNL     1       5.204  -1.329  -3.421  1.00  0.00    -0.275 OA
ATOM      6  C   UNL     1       4.293  -1.560  -2.626  1.00  0.00     0.222 C 
ATOM      7  H   UNL     1       2.283  -1.784  -2.361  1.00  0.00     0.163 HD
BRANCH   6   8
ATOM      8  C   UNL     1       4.654  -2.076  -1.258  1.00  0.00     0.129 C 
BRANCH   8   9
ATOM      9  C   UNL     1       3.730  -1.939  -0.040  1.00  0.00     0.122 C 
BRANCH   9  10
ATOM     10  C   UNL     1       4.304  -2.869   1.044  1.00  0.00    -0.018 A 
ATOM     11  C   UNL     1       4.165  -4.264   0.885  1.00  0.00     0.006 A 
ATOM     12  C   UNL     1       5.072  -2.393   2.118  1.00  0.00     0.091 A 
ATOM     13  C   UNL     1       4.804  -5.160   1.744  1.00  0.00     0.007 A 
ATOM     14  C   UNL     1       5.704  -3.299   2.985  1.00  0.00     0.269 A 
ATOM     15  C   UNL     1       5.581  -4.681   2.795  1.00  0.00     0.085 A 
BRANCH  14  16
ATOM     16  N   UNL     1       6.533  -2.796   4.087  1.00  0.00     0.062 N 
ATOM     17  O   UNL     1       6.964  -3.620   4.907  1.00  0.00    -0.258 OA
ATOM     18  O   UNL     1       6.759  -1.578   4.130  1.00  0.00    -0.258 OA
ENDBRANCH  14  16
ENDBRANCH   9  10
BRANCH   9  19
ATOM     19  N   UNL     1       3.276  -0.659   0.558  1.00  0.00    -0.348 N 
ATOM     20  C   UNL     1       3.647   0.627   0.799  1.00  0.00     0.226 C 
ATOM     21  H   UNL     1       2.366  -0.790   0.912  1.00  0.00     0.164 HD
ATOM     22  O   UNL     1       2.977   1.200   1.668  1.00  0.00    -0.274 OA
BRANCH  20  23
ATOM     23  C   UNL     1       4.744   1.394   0.055  1.00  0.00     0.050 C 
ATOM     24  C   UNL     1       6.130   0.792   0.336  1.00  0.00     0.020 C 
ATOM     25  C   UNL     1       4.845   2.897   0.469  1.00  0.00     0.020 C 
ATOM     26  C   UNL     1       4.364   1.444  -1.427  1.00  0.00     0.020 C 
ATOM     27  C   UNL     1       7.200   1.460  -0.536  1.00  0.00    -0.010 C 
ATOM     28  C   UNL     1       5.925   3.622  -0.382  1.00  0.00    -0.010 C 
ATOM     29  C   UNL     1       5.471   2.050  -2.283  1.00  0.00    -0.010 C 
ATOM     30  C   UNL     1       6.802   1.328  -2.014  1.00  0.00     0.007 C 
ATOM     31  C   UNL     1       7.289   2.946  -0.160  1.00  0.00     0.007 C 
ATOM     32  C   UNL     1       5.588   3.525  -1.883  1.00  0.00     0.007 C 
ENDBRANCH  20  23
ENDBRANCH   9  19
ENDBRANCH   8   9
ENDBRANCH   6   8
ENDBRANCH   3   4
ENDBRANCH   2   3
ENDBRANCH   1   2
BRANCH   1  33
ATOM     33  C   UNL     1       1.713  -3.078  -5.751  1.00  0.00     0.002 C 
BRANCH  33  34
ATOM     34  C   UNL     1       0.790  -2.391  -6.758  1.00  0.00     0.021 C 
BRANCH  34  35
ATOM     35  C   UNL     1       1.332  -2.374  -8.183  1.00  0.00     0.116 C 
BRANCH  35  36
ATOM     36  N   UNL     1       1.512  -3.723  -8.700  1.00  0.00    -0.352 N 
ATOM     37  C   UNL     1       0.950  -4.288  -9.817  1.00  0.00     0.251 C 
ATOM     38  H   UNL     1       2.115  -4.304  -8.181  1.00  0.00     0.163 HD
ATOM     39  O   UNL     1       0.989  -5.498  -9.995  1.00  0.00    -0.269 OA
BRANCH  37  40
ATOM     40  C   UNL     1       0.286  -3.402 -10.793  1.00  0.00     0.039 A 
ATOM     41  C   UNL     1      -1.007  -3.704 -11.221  1.00  0.00     0.014 A 
ATOM     42  C   UNL     1       0.939  -2.248 -11.239  1.00  0.00     0.014 A 
ATOM     43  C   UNL     1      -1.673  -2.809 -12.058  1.00  0.00     0.010 A 
ATOM     44  C   UNL     1       0.246  -1.326 -12.013  1.00  0.00     0.010 A 
ATOM     45  C   UNL     1      -1.064  -1.599 -12.432  1.00  0.00    -0.014 A 
BRANCH  45  46
ATOM     46  C   UNL     1      -1.786  -0.595 -13.251  1.00  0.00     0.031 A 
ATOM     47  C   UNL     1      -1.284  -0.241 -14.622  1.00  0.00     0.074 A 
ATOM     48  C   UNL     1      -2.845   0.051 -12.726  1.00  0.00     0.049 A 
ATOM     49  N   UNL     1      -1.740   0.652 -15.461  1.00  0.00    -0.248 NA
ATOM     50  C   UNL     1      -0.096  -0.967 -15.101  1.00  0.00     0.031 C 
ATOM     51  C   UNL     1      -3.389  -0.168 -11.383  1.00  0.00     0.029 A 
ATOM     52  N   UNL     1      -3.644   1.034 -13.252  1.00  0.00    -0.354 N 
ATOM     53  C   UNL     1      -0.892   0.603 -16.561  1.00  0.00     0.074 A 
ATOM     54  C   UNL     1       0.140  -0.364 -16.257  1.00  0.00     0.031 C 
ATOM     55  C   UNL     1      -4.440   0.647 -11.198  1.00  0.00     0.029 A 
ATOM     56  C   UNL     1      -4.620   1.470 -12.390  1.00  0.00     0.049 A 
ATOM     57  H   UNL     1      -3.528   1.393 -14.162  1.00  0.00     0.167 HD
ATOM     58  C   UNL     1      -0.977   1.285 -17.728  1.00  0.00     0.031 A 
ATOM     59  C   UNL     1      -5.549   2.435 -12.533  1.00  0.00     0.031 A 
ATOM     60  C   UNL     1      -2.001   2.253 -18.018  1.00  0.00     0.049 A 
ATOM     61  C   UNL     1      -5.620   3.192 -13.830  1.00  0.00     0.074 A 
ATOM     62  C   UNL     1      -2.209   2.963 -19.187  1.00  0.00     0.029 A 
ATOM     63  N   UNL     1      -2.985   2.655 -17.125  1.00  0.00    -0.354 N 
ATOM     64  N   UNL     1      -4.859   3.075 -14.892  1.00  0.00    -0.248 NA
ATOM     65  C   UNL     1      -6.680   4.200 -13.953  1.00  0.00     0.031 C 
ATOM     66  C   UNL     1      -3.285   3.834 -18.982  1.00  0.00     0.029 A 
ATOM     67  C   UNL     1      -3.785   3.625 -17.705  1.00  0.00     0.049 A 
ATOM     68  H   UNL     1      -3.097   2.302 -16.213  1.00  0.00     0.167 HD
ATOM     69  C   UNL     1      -5.354   3.988 -15.815  1.00  0.00     0.074 A 
ATOM     70  C   UNL     1      -6.495   4.632 -15.194  1.00  0.00     0.031 C 
ATOM     71  C   UNL     1      -4.906   4.268 -17.064  1.00  0.00     0.031 A 
BRANCH  58  72
ATOM     72  C   UNL     1       0.081   1.008 -18.765  1.00  0.00    -0.014 A 
ATOM     73  C   UNL     1       0.152  -0.239 -19.414  1.00  0.00     0.010 A 
ATOM     74  C   UNL     1       1.018   2.004 -19.096  1.00  0.00     0.010 A 
ATOM     75  C   UNL     1       1.177  -0.506 -20.326  1.00  0.00     0.020 A 
ATOM     76  C   UNL     1       2.026   1.751 -20.031  1.00  0.00     0.020 A 
ATOM     77  C   UNL     1       2.113   0.488 -20.621  1.00  0.00     0.054 A 
BRANCH  77  78
ATOM     78  S   UNL     1       3.441   0.109 -21.798  1.00  0.00     0.124 S 
ATOM     79  O   UNL     1       4.303  -0.765 -21.005  1.00  0.00    -0.237 OA
ATOM     80  O   UNL     1       2.724  -0.541 -22.892  1.00  0.00    -0.237 OA
ATOM     81  O   UNL     1       4.005   1.418 -22.117  1.00  0.00    -0.744 OA
ENDBRANCH  77  78
ENDBRANCH  58  72
BRANCH  59  82
ATOM     82  C   UNL     1      -6.481   2.726 -11.410  1.00  0.00    -0.014 A 
ATOM     83  C   UNL     1      -7.830   2.341 -11.479  1.00  0.00     0.010 A 
ATOM     84  C   UNL     1      -6.002   3.340 -10.237  1.00  0.00     0.010 A 
ATOM     85  C   UNL     1      -8.685   2.563 -10.394  1.00  0.00     0.020 A 
ATOM     86  C   UNL     1      -6.847   3.539  -9.142  1.00  0.00     0.020 A 
ATOM     87  C   UNL     1      -8.185   3.153  -9.229  1.00  0.00     0.054 A 
BRANCH  87  88
ATOM     88  S   UNL     1      -9.289   3.347  -7.802  1.00  0.00     0.124 S 
ATOM     89  O   UNL     1     -10.146   4.449  -8.228  1.00  0.00    -0.237 OA
ATOM     90  O   UNL     1      -9.933   2.038  -7.721  1.00  0.00    -0.237 OA
ATOM     91  O   UNL     1      -8.376   3.650  -6.702  1.00  0.00    -0.744 OA
ENDBRANCH  87  88
ENDBRANCH  59  82
BRANCH  71  92
ATOM     92  C   UNL     1      -5.652   5.314 -17.848  1.00  0.00    -0.014 A 
ATOM     93  C   UNL     1      -5.542   6.678 -17.522  1.00  0.00     0.010 A 
ATOM     94  C   UNL     1      -6.420   4.934 -18.963  1.00  0.00     0.010 A 
ATOM     95  C   UNL     1      -6.208   7.641 -18.285  1.00  0.00     0.020 A 
ATOM     96  C   UNL     1      -7.064   5.896 -19.745  1.00  0.00     0.020 A 
ATOM     97  C   UNL     1      -6.963   7.244 -19.393  1.00  0.00     0.054 A 
BRANCH  97  98
ATOM     98  S   UNL     1      -7.771   8.518 -20.399  1.00  0.00     0.124 S 
ATOM     99  O   UNL     1      -8.870   8.938 -19.532  1.00  0.00    -0.237 OA
ATOM    100  O   UNL     1      -6.707   9.502 -20.586  1.00  0.00    -0.237 OA
ATOM    101  O   UNL     1      -8.171   7.803 -21.609  1.00  0.00    -0.744 OA
ENDBRANCH  97  98
ENDBRANCH  71  92
ENDBRANCH  45  46
ENDBRANCH  37  40
ENDBRANCH  35  36
ENDBRANCH  34  35
ENDBRANCH  33  34
ENDBRANCH   1  33
TORSDOF 21
