REMARK SMILES Cc1cnc(N2CCO[C@H](CC(=O)NCCCCCCNC(=O)c3ccc(-c4c5nc(c(-c6ccc(S(=O)(=O)[O-])cc6)c6ccc([nH]6)c(-c6ccc(S(=O)(=O)[O-])cc6)c6nc(c(-c7ccc(S(=O)(=O)[O-])cc7)c7ccc4[nH]7)C=C6)C=C5)cc3)C2)c([N+](=O)[O-])c1
REMARK SMILES IDX 17 1 16 2 15 3 14 4 12 5 13 6 11 8 10 9 6 10 7 11 84 12 8 13
REMARK SMILES IDX 9 14 5 15 1 16 2 17 3 18 89 19 4 20 85 21 86 22 87 23 88 24
REMARK SMILES IDX 18 25 19 26 20 27 21 28 22 29 23 31 24 32 25 33 83 34 26 35
REMARK SMILES IDX 82 36 27 37 28 38 29 39 76 40 30 41 81 42 75 43 77 44 31 45
REMARK SMILES IDX 80 46 74 47 73 48 32 50 62 51 43 52 61 53 44 54 47 55 60 56
REMARK SMILES IDX 78 57 45 58 46 59 59 61 79 62 48 63 33 64 34 65 42 66 35 67
REMARK SMILES IDX 41 68 36 69 37 70 38 71 39 72 40 73 63 74 64 75 72 76 65 77
REMARK SMILES IDX 71 78 66 79 67 80 68 81 69 82 70 83 49 84 50 85 58 86 51 87
REMARK SMILES IDX 57 88 52 89 53 90 54 91 55 92 56 93
REMARK H PARENT 14 7 21 30 77 49 47 60
REMARK Flexibility Score: inf
ROOT
ATOM      1  C   UNL     1      -8.747   3.290   3.742  1.00  0.00     0.002 C 
ENDROOT
BRANCH   1   2
ATOM      2  C   UNL     1      -7.923   2.711   2.585  1.00  0.00     0.021 C 
BRANCH   2   3
ATOM      3  C   UNL     1      -6.555   3.373   2.443  1.00  0.00     0.116 C 
BRANCH   3   4
ATOM      4  N   UNL     1      -5.709   2.997   3.558  1.00  0.00    -0.356 N 
ATOM      5  C   UNL     1      -4.661   2.133   3.558  1.00  0.00     0.222 C 
ATOM      6  O   UNL     1      -4.201   1.739   4.630  1.00  0.00    -0.275 OA
ATOM      7  H   UNL     1      -5.919   3.421   4.422  1.00  0.00     0.163 HD
BRANCH   5   8
ATOM      8  C   UNL     1      -4.053   1.720   2.245  1.00  0.00     0.133 C 
BRANCH   8   9
ATOM      9  C   UNL     1      -4.752   0.506   1.609  1.00  0.00     0.147 C 
ATOM     10  N   UNL     1      -3.027   0.324  -0.052  1.00  0.00    -0.346 N 
ATOM     11  C   UNL     1      -3.919   0.645  -1.165  1.00  0.00     0.147 C 
ATOM     12  C   UNL     1      -3.687  -0.437   1.011  1.00  0.00     0.151 C 
ATOM     13  C   UNL     1      -5.121   1.439  -0.613  1.00  0.00     0.182 C 
ATOM     14  O   UNL     1      -5.709   0.861   0.576  1.00  0.00    -0.374 OA
BRANCH  10  15
ATOM     15  C   UNL     1      -1.668   0.248  -0.179  1.00  0.00     0.208 A 
ATOM     16  C   UNL     1       2.580  -0.330  -0.033  1.00  0.00     0.046 C 
ATOM     17  C   UNL     1       1.108  -0.090  -0.113  1.00  0.00    -0.026 A 
ATOM     18  C   UNL     1       0.208  -1.143  -0.060  1.00  0.00     0.117 A 
ATOM     19  C   UNL     1       0.576   1.190  -0.215  1.00  0.00     0.094 A 
ATOM     20  N   UNL     1      -1.138  -0.997  -0.086  1.00  0.00    -0.233 NA
ATOM     21  C   UNL     1      -0.818   1.356  -0.246  1.00  0.00     0.311 A 
BRANCH  21  22
ATOM     22  N   UNL     1      -1.320   2.717  -0.170  1.00  0.00     0.066 N 
ATOM     23  O   UNL     1      -2.234   3.061  -0.929  1.00  0.00    -0.258 OA
ATOM     24  O   UNL     1      -0.744   3.482   0.620  1.00  0.00    -0.258 OA
ENDBRANCH  21  22
ENDBRANCH  10  15
ENDBRANCH   8   9
ENDBRANCH   5   8
ENDBRANCH   3   4
ENDBRANCH   2   3
ENDBRANCH   1   2
BRANCH   1  25
ATOM     25  C   UNL     1      -9.012   4.796   3.638  1.00  0.00     0.002 C 
BRANCH  25  26
ATOM     26  C   UNL     1      -9.701   5.231   2.342  1.00  0.00     0.021 C 
BRANCH  26  27
ATOM     27  C   UNL     1     -11.066   4.589   2.120  1.00  0.00     0.116 C 
BRANCH  27  28
ATOM     28  N   UNL     1     -12.010   4.961   3.162  1.00  0.00    -0.352 N 
ATOM     29  C   UNL     1     -13.261   5.511   3.038  1.00  0.00     0.251 C 
ATOM     30  H   UNL     1     -11.710   4.794   4.085  1.00  0.00     0.163 HD
ATOM     31  O   UNL     1     -13.834   5.969   4.021  1.00  0.00    -0.269 OA
BRANCH  29  32
ATOM     32  C   UNL     1     -13.903   5.561   1.708  1.00  0.00     0.039 A 
ATOM     33  C   UNL     1     -14.528   6.741   1.300  1.00  0.00     0.014 A 
ATOM     34  C   UNL     1     -13.883   4.444   0.868  1.00  0.00     0.014 A 
ATOM     35  C   UNL     1     -15.085   6.818   0.022  1.00  0.00     0.010 A 
ATOM     36  C   UNL     1     -14.372   4.547  -0.430  1.00  0.00     0.010 A 
ATOM     37  C   UNL     1     -14.983   5.733  -0.865  1.00  0.00    -0.014 A 
BRANCH  37  38
ATOM     38  C   UNL     1     -15.507   5.817  -2.251  1.00  0.00     0.031 A 
ATOM     39  C   UNL     1     -16.627   4.912  -2.690  1.00  0.00     0.074 A 
ATOM     40  C   UNL     1     -14.930   6.658  -3.132  1.00  0.00     0.049 A 
ATOM     41  N   UNL     1     -17.169   4.788  -3.874  1.00  0.00    -0.248 NA
ATOM     42  C   UNL     1     -17.194   4.012  -1.673  1.00  0.00     0.031 C 
ATOM     43  C   UNL     1     -13.813   7.560  -2.837  1.00  0.00     0.029 A 
ATOM     44  N   UNL     1     -15.197   6.886  -4.459  1.00  0.00    -0.354 N 
ATOM     45  C   UNL     1     -18.126   3.788  -3.749  1.00  0.00     0.074 A 
ATOM     46  C   UNL     1     -18.056   3.304  -2.387  1.00  0.00     0.031 C 
ATOM     47  C   UNL     1     -13.509   8.259  -3.942  1.00  0.00     0.029 A 
ATOM     48  C   UNL     1     -14.374   7.826  -5.034  1.00  0.00     0.049 A 
ATOM     49  H   UNL     1     -15.911   6.421  -4.952  1.00  0.00     0.167 HD
ATOM     50  C   UNL     1     -18.997   3.326  -4.677  1.00  0.00     0.031 A 
ATOM     51  C   UNL     1     -14.314   8.280  -6.301  1.00  0.00     0.031 A 
ATOM     52  C   UNL     1     -19.068   3.817  -6.028  1.00  0.00     0.049 A 
ATOM     53  C   UNL     1     -15.280   7.739  -7.320  1.00  0.00     0.074 A 
ATOM     54  C   UNL     1     -19.950   3.452  -7.030  1.00  0.00     0.029 A 
ATOM     55  N   UNL     1     -18.222   4.774  -6.569  1.00  0.00    -0.354 N 
ATOM     56  N   UNL     1     -16.221   6.838  -7.165  1.00  0.00    -0.248 NA
ATOM     57  C   UNL     1     -15.184   8.284  -8.681  1.00  0.00     0.031 C 
ATOM     58  C   UNL     1     -19.602   4.147  -8.192  1.00  0.00     0.029 A 
ATOM     59  C   UNL     1     -18.546   4.994  -7.897  1.00  0.00     0.049 A 
ATOM     60  H   UNL     1     -17.500   5.231  -6.080  1.00  0.00     0.167 HD
ATOM     61  C   UNL     1     -16.849   6.731  -8.401  1.00  0.00     0.074 A 
ATOM     62  C   UNL     1     -16.189   7.668  -9.288  1.00  0.00     0.031 C 
ATOM     63  C   UNL     1     -17.881   5.932  -8.767  1.00  0.00     0.031 A 
BRANCH  50  64
ATOM     64  C   UNL     1     -19.940   2.225  -4.265  1.00  0.00    -0.014 A 
ATOM     65  C   UNL     1     -20.980   2.463  -3.347  1.00  0.00     0.010 A 
ATOM     66  C   UNL     1     -19.812   0.945  -4.834  1.00  0.00     0.010 A 
ATOM     67  C   UNL     1     -21.846   1.431  -2.975  1.00  0.00     0.020 A 
ATOM     68  C   UNL     1     -20.695  -0.082  -4.488  1.00  0.00     0.020 A 
ATOM     69  C   UNL     1     -21.697   0.164  -3.547  1.00  0.00     0.054 A 
BRANCH  69  70
ATOM     70  S   UNL     1     -22.850  -1.149  -3.062  1.00  0.00     0.124 S 
ATOM     71  O   UNL     1     -22.413  -1.444  -1.699  1.00  0.00    -0.237 OA
ATOM     72  O   UNL     1     -24.149  -0.491  -3.176  1.00  0.00    -0.237 OA
ATOM     73  O   UNL     1     -22.602  -2.207  -4.038  1.00  0.00    -0.744 OA
ENDBRANCH  69  70
ENDBRANCH  50  64
BRANCH  51  74
ATOM     74  C   UNL     1     -13.307   9.312  -6.673  1.00  0.00    -0.014 A 
ATOM     75  C   UNL     1     -13.708  10.623  -6.986  1.00  0.00     0.010 A 
ATOM     76  C   UNL     1     -11.937   8.992  -6.703  1.00  0.00     0.010 A 
ATOM     77  C   UNL     1     -12.762  11.588  -7.341  1.00  0.00     0.020 A 
ATOM     78  C   UNL     1     -10.985   9.963  -7.028  1.00  0.00     0.020 A 
ATOM     79  C   UNL     1     -11.405  11.252  -7.357  1.00  0.00     0.054 A 
BRANCH  79  80
ATOM     80  S   UNL     1     -10.191  12.535  -7.774  1.00  0.00     0.124 S 
ATOM     81  O   UNL     1     -10.398  12.694  -9.210  1.00  0.00    -0.237 OA
ATOM     82  O   UNL     1     -10.621  13.657  -6.943  1.00  0.00    -0.237 OA
ATOM     83  O   UNL     1      -8.915  11.936  -7.387  1.00  0.00    -0.744 OA
ENDBRANCH  79  80
ENDBRANCH  51  74
BRANCH  63  84
ATOM     84  C   UNL     1     -18.395   6.060 -10.177  1.00  0.00    -0.014 A 
ATOM     85  C   UNL     1     -17.655   5.580 -11.273  1.00  0.00     0.010 A 
ATOM     86  C   UNL     1     -19.671   6.610 -10.400  1.00  0.00     0.010 A 
ATOM     87  C   UNL     1     -18.172   5.674 -12.568  1.00  0.00     0.020 A 
ATOM     88  C   UNL     1     -20.203   6.678 -11.689  1.00  0.00     0.020 A 
ATOM     89  C   UNL     1     -19.444   6.220 -12.768  1.00  0.00     0.054 A 
BRANCH  89  90
ATOM     90  S   UNL     1     -20.113   6.280 -14.452  1.00  0.00     0.124 S 
ATOM     91  O   UNL     1     -19.317   7.344 -15.058  1.00  0.00    -0.237 OA
ATOM     92  O   UNL     1     -19.845   4.933 -14.951  1.00  0.00    -0.237 OA
ATOM     93  O   UNL     1     -21.526   6.595 -14.254  1.00  0.00    -0.744 OA
ENDBRANCH  89  90
ENDBRANCH  63  84
ENDBRANCH  37  38
ENDBRANCH  29  32
ENDBRANCH  27  28
ENDBRANCH  26  27
ENDBRANCH  25  26
ENDBRANCH   1  25
TORSDOF 19
