REMARK SMILES O=C(NCCCCCCNC(=O)c1ccc([C@H]2CCCN(C(=O)c3ccc4[nH]ccc4c3)C2)cc1)c1ccc(-c2c3nc(c(-c4ccc(S(=O)(=O)[O-])cc4)c4ccc([nH]4)c(-c4ccc(S(=O)(=O)[O-])cc4)c4nc(c(-c5ccc(S(=O)(=O)[O-])cc5)c5ccc2[nH]5)C=C4)C=C3)cc1
REMARK SMILES IDX 6 1 5 2 4 3 3 4 1 5 2 6 36 8 37 9 95 10 38 11 94 12 39 13
REMARK SMILES IDX 40 14 41 15 88 16 42 17 93 18 87 19 89 20 43 21 92 22 86 23
REMARK SMILES IDX 85 24 44 26 74 27 55 28 73 29 56 30 59 31 72 32 90 33 57 34
REMARK SMILES IDX 58 35 71 37 91 38 60 39 45 40 46 41 54 42 47 43 53 44 48 45
REMARK SMILES IDX 49 46 50 47 51 48 52 49 75 50 76 51 84 52 77 53 83 54 78 55
REMARK SMILES IDX 79 56 80 57 81 58 82 59 61 60 62 61 70 62 63 63 69 64 64 65
REMARK SMILES IDX 65 66 66 67 67 68 68 69 7 70 8 71 9 72 10 73 11 74 12 76
REMARK SMILES IDX 13 77 14 78 35 79 15 80 34 81 16 82 17 83 18 84 33 85 19 86
REMARK SMILES IDX 21 87 20 88 22 89 23 90 24 91 25 92 32 93 26 94 31 95 27 96
REMARK SMILES IDX 30 97 28 98 29 99
REMARK H PARENT 3 7 89 25 59 36 10 75 28 100
REMARK Flexibility Score: inf
ROOT
ATOM      1  C   UNL     1      20.578  -4.372  -8.996  1.00  0.00     0.002 C 
ENDROOT
BRANCH   1   2
ATOM      2  C   UNL     1      21.214  -3.502  -7.914  1.00  0.00     0.021 C 
BRANCH   2   3
ATOM      3  C   UNL     1      22.479  -4.078  -7.294  1.00  0.00     0.116 C 
BRANCH   3   4
ATOM      4  N   UNL     1      23.567  -4.218  -8.251  1.00  0.00    -0.352 N 
ATOM      5  O   UNL     1      25.588  -3.804  -9.169  1.00  0.00    -0.269 OA
ATOM      6  C   UNL     1      24.844  -3.709  -8.198  1.00  0.00     0.251 C 
ATOM      7  H   UNL     1      23.359  -4.753  -9.051  1.00  0.00     0.163 HD
BRANCH   6   8
ATOM      8  C   UNL     1      25.299  -3.015  -6.973  1.00  0.00     0.039 A 
ATOM      9  C   UNL     1      25.027  -3.553  -5.715  1.00  0.00     0.014 A 
ATOM     10  C   UNL     1      25.968  -1.794  -7.084  1.00  0.00     0.014 A 
ATOM     11  C   UNL     1      25.246  -2.786  -4.579  1.00  0.00     0.010 A 
ATOM     12  C   UNL     1      26.289  -1.073  -5.929  1.00  0.00     0.010 A 
ATOM     13  C   UNL     1      25.885  -1.538  -4.668  1.00  0.00    -0.014 A 
BRANCH  13  14
ATOM     14  C   UNL     1      26.139  -0.764  -3.423  1.00  0.00     0.031 A 
ATOM     15  C   UNL     1      25.521   0.594  -3.205  1.00  0.00     0.074 A 
ATOM     16  C   UNL     1      26.898  -1.320  -2.458  1.00  0.00     0.049 A 
ATOM     17  N   UNL     1      25.594   1.370  -2.153  1.00  0.00    -0.248 NA
ATOM     18  C   UNL     1      24.727   1.159  -4.308  1.00  0.00     0.031 C 
ATOM     19  C   UNL     1      27.553  -2.629  -2.550  1.00  0.00     0.029 A 
ATOM     20  N   UNL     1      27.226  -0.876  -1.202  1.00  0.00    -0.354 N 
ATOM     21  C   UNL     1      24.883   2.522  -2.474  1.00  0.00     0.074 A 
ATOM     22  C   UNL     1      24.407   2.354  -3.830  1.00  0.00     0.031 C 
ATOM     23  C   UNL     1      28.146  -2.909  -1.381  1.00  0.00     0.029 A 
ATOM     24  C   UNL     1      27.981  -1.773  -0.482  1.00  0.00     0.049 A 
ATOM     25  H   UNL     1      26.947  -0.000  -0.850  1.00  0.00     0.167 HD
ATOM     26  C   UNL     1      24.646   3.616  -1.709  1.00  0.00     0.031 A 
ATOM     27  C   UNL     1      28.497  -1.691   0.758  1.00  0.00     0.031 A 
ATOM     28  C   UNL     1      25.122   3.775  -0.358  1.00  0.00     0.049 A 
ATOM     29  C   UNL     1      28.242  -0.455   1.572  1.00  0.00     0.074 A 
ATOM     30  C   UNL     1      24.901   4.830   0.513  1.00  0.00     0.029 A 
ATOM     31  N   UNL     1      25.921   2.864   0.317  1.00  0.00    -0.354 N 
ATOM     32  N   UNL     1      27.533   0.604   1.262  1.00  0.00    -0.248 NA
ATOM     33  C   UNL     1      28.852  -0.408   2.906  1.00  0.00     0.031 C 
ATOM     34  C   UNL     1      25.620   4.586   1.688  1.00  0.00     0.029 A 
ATOM     35  C   UNL     1      26.225   3.344   1.581  1.00  0.00     0.049 A 
ATOM     36  H   UNL     1      26.226   2.002  -0.048  1.00  0.00     0.167 HD
ATOM     37  C   UNL     1      27.585   1.431   2.379  1.00  0.00     0.074 A 
ATOM     38  C   UNL     1      28.380   0.739   3.373  1.00  0.00     0.031 C 
ATOM     39  C   UNL     1      27.020   2.649   2.564  1.00  0.00     0.031 A 
BRANCH  26  40
ATOM     40  C   UNL     1      23.864   4.751  -2.325  1.00  0.00    -0.014 A 
ATOM     41  C   UNL     1      22.493   4.631  -2.616  1.00  0.00     0.010 A 
ATOM     42  C   UNL     1      24.506   5.980  -2.571  1.00  0.00     0.010 A 
ATOM     43  C   UNL     1      21.791   5.701  -3.180  1.00  0.00     0.020 A 
ATOM     44  C   UNL     1      23.801   7.062  -3.106  1.00  0.00     0.020 A 
ATOM     45  C   UNL     1      22.451   6.910  -3.424  1.00  0.00     0.054 A 
BRANCH  45  46
ATOM     46  S   UNL     1      21.511   8.286  -4.141  1.00  0.00     0.124 S 
ATOM     47  O   UNL     1      21.299   7.823  -5.511  1.00  0.00    -0.237 OA
ATOM     48  O   UNL     1      20.316   8.328  -3.302  1.00  0.00    -0.237 OA
ATOM     49  O   UNL     1      22.408   9.430  -4.002  1.00  0.00    -0.744 OA
ENDBRANCH  45  46
ENDBRANCH  26  40
BRANCH  27  50
ATOM     50  C   UNL     1      29.305  -2.817   1.300  1.00  0.00    -0.014 A 
ATOM     51  C   UNL     1      28.828  -3.592   2.371  1.00  0.00     0.010 A 
ATOM     52  C   UNL     1      30.555  -3.131   0.732  1.00  0.00     0.010 A 
ATOM     53  C   UNL     1      29.595  -4.645   2.878  1.00  0.00     0.020 A 
ATOM     54  C   UNL     1      31.308  -4.204   1.213  1.00  0.00     0.020 A 
ATOM     55  C   UNL     1      30.828  -4.946   2.293  1.00  0.00     0.054 A 
BRANCH  55  56
ATOM     56  S   UNL     1      31.784  -6.345   2.940  1.00  0.00     0.124 S 
ATOM     57  O   UNL     1      32.246  -5.829   4.224  1.00  0.00    -0.237 OA
ATOM     58  O   UNL     1      30.782  -7.406   3.006  1.00  0.00    -0.237 OA
ATOM     59  O   UNL     1      32.824  -6.544   1.933  1.00  0.00    -0.744 OA
ENDBRANCH  55  56
ENDBRANCH  27  50
BRANCH  39  60
ATOM     60  C   UNL     1      27.195   3.292   3.915  1.00  0.00    -0.014 A 
ATOM     61  C   UNL     1      28.445   3.769   4.351  1.00  0.00     0.010 A 
ATOM     62  C   UNL     1      26.076   3.440   4.756  1.00  0.00     0.010 A 
ATOM     63  C   UNL     1      28.580   4.338   5.620  1.00  0.00     0.020 A 
ATOM     64  C   UNL     1      26.200   4.039   6.011  1.00  0.00     0.020 A 
ATOM     65  C   UNL     1      27.457   4.466   6.444  1.00  0.00     0.054 A 
BRANCH  65  66
ATOM     66  S   UNL     1      27.654   5.224   8.079  1.00  0.00     0.124 S 
ATOM     67  O   UNL     1      28.354   4.176   8.817  1.00  0.00    -0.237 OA
ATOM     68  O   UNL     1      28.440   6.420   7.785  1.00  0.00    -0.237 OA
ATOM     69  O   UNL     1      26.281   5.478   8.511  1.00  0.00    -0.744 OA
ENDBRANCH  65  66
ENDBRANCH  39  60
ENDBRANCH  13  14
ENDBRANCH   6   8
ENDBRANCH   3   4
ENDBRANCH   2   3
ENDBRANCH   1   2
BRANCH   1  70
ATOM     70  C   UNL     1      20.264  -5.810  -8.575  1.00  0.00     0.002 C 
BRANCH  70  71
ATOM     71  C   UNL     1      19.390  -5.953  -7.326  1.00  0.00     0.021 C 
BRANCH  71  72
ATOM     72  C   UNL     1      18.044  -5.237  -7.400  1.00  0.00     0.116 C 
BRANCH  72  73
ATOM     73  N   UNL     1      17.213  -5.753  -8.478  1.00  0.00    -0.352 N 
ATOM     74  C   UNL     1      15.928  -6.236  -8.422  1.00  0.00     0.251 C 
ATOM     75  H   UNL     1      17.629  -5.755  -9.370  1.00  0.00     0.163 HD
ATOM     76  O   UNL     1      15.437  -6.820  -9.379  1.00  0.00    -0.269 OA
BRANCH  74  77
ATOM     77  C   UNL     1      15.149  -6.059  -7.181  1.00  0.00     0.039 A 
ATOM     78  C   UNL     1      14.523  -7.162  -6.605  1.00  0.00     0.014 A 
ATOM     79  C   UNL     1      15.048  -4.803  -6.585  1.00  0.00     0.014 A 
ATOM     80  C   UNL     1      13.878  -7.021  -5.373  1.00  0.00     0.005 A 
ATOM     81  C   UNL     1      14.424  -4.673  -5.346  1.00  0.00     0.005 A 
ATOM     82  C   UNL     1      13.868  -5.787  -4.694  1.00  0.00    -0.043 A 
BRANCH  82  83
ATOM     83  C   UNL     1      13.254  -5.689  -3.297  1.00  0.00     0.039 C 
ATOM     84  C   UNL     1      13.840  -6.765  -2.347  1.00  0.00     0.012 C 
ATOM     85  C   UNL     1      13.413  -4.300  -2.637  1.00  0.00     0.128 C 
ATOM     86  C   UNL     1      13.290  -6.651  -0.923  1.00  0.00     0.022 C 
ATOM     87  N   UNL     1      12.865  -4.279  -1.288  1.00  0.00    -0.338 N 
ATOM     88  C   UNL     1      13.463  -5.242  -0.367  1.00  0.00     0.120 C 
BRANCH  87  89
ATOM     89  C   UNL     1      11.786  -3.447  -1.019  1.00  0.00     0.253 C 
ATOM     90  O   UNL     1      11.239  -2.732  -1.854  1.00  0.00    -0.269 OA
BRANCH  89  91
ATOM     91  C   UNL     1      11.220  -3.451   0.337  1.00  0.00     0.040 A 
ATOM     92  C   UNL     1      10.011  -4.117   0.542  1.00  0.00     0.016 A 
ATOM     93  C   UNL     1      11.870  -2.757   1.366  1.00  0.00     0.024 A 
ATOM     94  C   UNL     1       9.436  -4.159   1.812  1.00  0.00     0.027 A 
ATOM     95  C   UNL     1      11.279  -2.759   2.643  1.00  0.00     0.000 A 
ATOM     96  C   UNL     1      10.096  -3.475   2.841  1.00  0.00     0.045 A 
ATOM     97  C   UNL     1      11.602  -2.137   3.880  1.00  0.00     0.028 A 
ATOM     98  N   UNL     1       9.763  -3.343   4.170  1.00  0.00    -0.361 N 
ATOM     99  C   UNL     1      10.641  -2.500   4.796  1.00  0.00     0.083 A 
ATOM    100  H   UNL     1       9.003  -3.790   4.608  1.00  0.00     0.166 HD
ENDBRANCH  89  91
ENDBRANCH  87  89
ENDBRANCH  82  83
ENDBRANCH  74  77
ENDBRANCH  72  73
ENDBRANCH  71  72
ENDBRANCH  70  71
ENDBRANCH   1  70
TORSDOF 19
