REMARK SMILES COc1ccc([C@@H]2[NH2+][C@H](C(=O)NCCCCCCNC(=O)c3ccc(-c4c5nc(c(-c6ccc(S(=O)(=O)[O-])cc6)c6ccc([nH]6)c(-c6ccc(S(=O)(=O)[O-])cc6)c6nc(c(-c7ccc(S(=O)(=O)[O-])cc7)c7ccc4[nH]7)C=C6)C=C5)cc3)CS2)cc1Cn1nc(C)c(Br)c1C
REMARK SMILES IDX 15 1 14 2 13 3 12 4 10 5 11 6 9 8 7 9 8 10 83 11 82 14 6 15
REMARK SMILES IDX 3 16 4 17 85 18 5 19 84 20 2 21 1 22 86 23 87 24 88 25 93 26
REMARK SMILES IDX 89 27 91 28 94 29 90 30 92 31 16 32 17 33 18 34 19 35 20 36
REMARK SMILES IDX 21 38 22 39 23 40 81 41 24 42 80 43 25 44 26 45 27 46 74 47
REMARK SMILES IDX 28 48 79 49 73 50 75 51 29 52 78 53 72 54 71 55 30 57 60 58
REMARK SMILES IDX 41 59 59 60 42 61 45 62 58 63 76 64 43 65 44 66 57 68 77 69
REMARK SMILES IDX 46 70 31 71 32 72 40 73 33 74 39 75 34 76 35 77 36 78 37 79
REMARK SMILES IDX 38 80 61 81 62 82 70 83 63 84 69 85 64 86 65 87 66 88 67 89
REMARK SMILES IDX 68 90 47 91 48 92 56 93 49 94 55 95 50 96 51 97 52 98 53 99
REMARK SMILES IDX 54 100
REMARK H PARENT 12 7 8 12 8 13 19 37 75 56 45 67
REMARK Flexibility Score: inf
ROOT
ATOM      1  C   UNL     1       3.628   4.372  -3.783  1.00  0.00     0.002 C 
ENDROOT
BRANCH   1   2
ATOM      2  C   UNL     1       3.100   5.167  -2.577  1.00  0.00     0.021 C 
BRANCH   2   3
ATOM      3  C   UNL     1       3.911   5.029  -1.288  1.00  0.00     0.116 C 
BRANCH   3   4
ATOM      4  N   UNL     1       4.840   6.113  -1.041  1.00  0.00    -0.351 N 
ATOM      5  C   UNL     1       4.909   7.019  -0.025  1.00  0.00     0.279 C 
ATOM      6  O   UNL     1       5.965   7.663   0.058  1.00  0.00    -0.268 OA
ATOM      7  H   UNL     1       5.542   6.212  -1.724  1.00  0.00     0.163 HD
BRANCH   5   8
ATOM      8  C   UNL     1       3.811   7.263   1.038  1.00  0.00     0.283 C 
ATOM      9  C   UNL     1       1.783   6.131   1.777  1.00  0.00     0.274 C 
ATOM     10  N   UNL     1       2.455   6.808   0.656  1.00  0.00    -0.321 N 
ATOM     11  S   UNL     1       2.713   6.452   3.287  1.00  0.00    -0.088 SA
ATOM     12  H   UNL     1       1.900   7.616   0.375  1.00  0.00     0.348 HD
ATOM     13  H   UNL     1       2.543   6.146  -0.115  1.00  0.00     0.348 HD
ATOM     14  C   UNL     1       4.250   6.712   2.388  1.00  0.00     0.151 C 
BRANCH   9  15
ATOM     15  C   UNL     1       1.564   4.657   1.432  1.00  0.00     0.021 A 
ATOM     16  C   UNL     1       1.289   2.062   0.355  1.00  0.00     0.123 A 
ATOM     17  C   UNL     1       0.285   3.019   0.167  1.00  0.00     0.047 A 
ATOM     18  C   UNL     1       2.446   2.361   1.090  1.00  0.00     0.016 A 
ATOM     19  C   UNL     1       0.423   4.304   0.695  1.00  0.00     0.015 A 
ATOM     20  C   UNL     1       2.537   3.654   1.651  1.00  0.00     0.020 A 
BRANCH  16  21
ATOM     21  O   UNL     1       1.163   0.899  -0.352  1.00  0.00    -0.496 OA
ATOM     22  C   UNL     1       0.704  -0.193   0.442  1.00  0.00     0.278 C 
ENDBRANCH  16  21
BRANCH  18  23
ATOM     23  C   UNL     1       3.566   1.358   1.303  1.00  0.00     0.184 C 
BRANCH  23  24
ATOM     24  N   UNL     1       4.748   1.532   0.446  1.00  0.00    -0.264 N 
ATOM     25  N   UNL     1       4.934   0.664  -0.580  1.00  0.00    -0.177 NA
ATOM     26  C   UNL     1       5.851   2.341   0.634  1.00  0.00     0.050 A 
ATOM     27  C   UNL     1       6.066   1.061  -1.175  1.00  0.00     0.074 A 
ATOM     28  C   UNL     1       6.659   2.109  -0.455  1.00  0.00     0.061 A 
ATOM     29  C   UNL     1       6.065   3.267   1.764  1.00  0.00     0.067 C 
ATOM     30  C   UNL     1       6.525   0.402  -2.424  1.00  0.00     0.070 C 
ATOM     31  Br  UNL     1       8.252   2.989  -0.899  1.00  0.00    -0.047 Br
ENDBRANCH  23  24
ENDBRANCH  18  23
ENDBRANCH   9  15
ENDBRANCH   5   8
ENDBRANCH   3   4
ENDBRANCH   2   3
ENDBRANCH   1   2
BRANCH   1  32
ATOM     32  C   UNL     1       3.978   2.896  -3.545  1.00  0.00     0.002 C 
BRANCH  32  33
ATOM     33  C   UNL     1       2.898   2.066  -2.854  1.00  0.00     0.021 C 
BRANCH  33  34
ATOM     34  C   UNL     1       1.807   1.516  -3.757  1.00  0.00     0.116 C 
BRANCH  34  35
ATOM     35  N   UNL     1       2.293   0.413  -4.576  1.00  0.00    -0.352 N 
ATOM     36  C   UNL     1       1.857  -0.884  -4.696  1.00  0.00     0.251 C 
ATOM     37  H   UNL     1       3.068   0.635  -5.141  1.00  0.00     0.163 HD
ATOM     38  O   UNL     1       2.569  -1.688  -5.300  1.00  0.00    -0.269 OA
BRANCH  36  39
ATOM     39  C   UNL     1       0.562  -1.343  -4.127  1.00  0.00     0.039 A 
ATOM     40  C   UNL     1       0.430  -2.690  -3.760  1.00  0.00     0.014 A 
ATOM     41  C   UNL     1      -0.548  -0.503  -4.020  1.00  0.00     0.014 A 
ATOM     42  C   UNL     1      -0.788  -3.175  -3.268  1.00  0.00     0.010 A 
ATOM     43  C   UNL     1      -1.729  -0.961  -3.436  1.00  0.00     0.010 A 
ATOM     44  C   UNL     1      -1.876  -2.309  -3.081  1.00  0.00    -0.014 A 
BRANCH  44  45
ATOM     45  C   UNL     1      -3.189  -2.795  -2.576  1.00  0.00     0.031 A 
ATOM     46  C   UNL     1      -4.421  -2.663  -3.440  1.00  0.00     0.074 A 
ATOM     47  C   UNL     1      -3.293  -3.299  -1.330  1.00  0.00     0.049 A 
ATOM     48  N   UNL     1      -5.669  -2.930  -3.148  1.00  0.00    -0.248 NA
ATOM     49  C   UNL     1      -4.229  -2.132  -4.801  1.00  0.00     0.031 C 
ATOM     50  C   UNL     1      -2.189  -3.456  -0.381  1.00  0.00     0.029 A 
ATOM     51  N   UNL     1      -4.386  -3.769  -0.644  1.00  0.00    -0.354 N 
ATOM     52  C   UNL     1      -6.407  -2.575  -4.273  1.00  0.00     0.074 A 
ATOM     53  C   UNL     1      -5.477  -2.025  -5.233  1.00  0.00     0.031 C 
ATOM     54  C   UNL     1      -2.655  -4.008   0.751  1.00  0.00     0.029 A 
ATOM     55  C   UNL     1      -4.096  -4.207   0.627  1.00  0.00     0.049 A 
ATOM     56  H   UNL     1      -5.293  -3.791  -1.026  1.00  0.00     0.167 HD
ATOM     57  C   UNL     1      -7.735  -2.717  -4.500  1.00  0.00     0.031 A 
ATOM     58  C   UNL     1      -4.899  -4.706   1.588  1.00  0.00     0.031 A 
ATOM     59  C   UNL     1      -8.655  -3.299  -3.561  1.00  0.00     0.049 A 
ATOM     60  C   UNL     1      -6.370  -4.861   1.308  1.00  0.00     0.074 A 
ATOM     61  C   UNL     1     -10.011  -3.535  -3.717  1.00  0.00     0.029 A 
ATOM     62  N   UNL     1      -8.313  -3.751  -2.296  1.00  0.00    -0.354 N 
ATOM     63  N   UNL     1      -7.039  -4.556   0.222  1.00  0.00    -0.248 NA
ATOM     64  C   UNL     1      -7.192  -5.438   2.381  1.00  0.00     0.031 C 
ATOM     65  C   UNL     1     -10.495  -4.095  -2.530  1.00  0.00     0.029 A 
ATOM     66  C   UNL     1      -9.432  -4.255  -1.656  1.00  0.00     0.049 A 
ATOM     67  H   UNL     1      -7.408  -3.719  -1.911  1.00  0.00     0.167 HD
ATOM     68  C   UNL     1      -8.354  -4.936   0.469  1.00  0.00     0.074 A 
ATOM     69  C   UNL     1      -8.383  -5.503   1.802  1.00  0.00     0.031 C 
ATOM     70  C   UNL     1      -9.440  -4.825  -0.334  1.00  0.00     0.031 A 
BRANCH  57  71
ATOM     71  C   UNL     1      -8.274  -2.243  -5.826  1.00  0.00    -0.014 A 
ATOM     72  C   UNL     1      -7.978  -2.932  -7.016  1.00  0.00     0.010 A 
ATOM     73  C   UNL     1      -9.130  -1.128  -5.878  1.00  0.00     0.010 A 
ATOM     74  C   UNL     1      -8.496  -2.493  -8.237  1.00  0.00     0.020 A 
ATOM     75  C   UNL     1      -9.675  -0.703  -7.094  1.00  0.00     0.020 A 
ATOM     76  C   UNL     1      -9.341  -1.380  -8.269  1.00  0.00     0.054 A 
BRANCH  76  77
ATOM     77  S   UNL     1     -10.030  -0.853  -9.862  1.00  0.00     0.124 S 
ATOM     78  O   UNL     1      -8.863  -0.256 -10.510  1.00  0.00    -0.237 OA
ATOM     79  O   UNL     1     -10.490  -2.115 -10.444  1.00  0.00    -0.237 OA
ATOM     80  O   UNL     1     -11.085   0.081  -9.494  1.00  0.00    -0.744 OA
ENDBRANCH  76  77
ENDBRANCH  57  71
BRANCH  58  81
ATOM     81  C   UNL     1      -4.330  -5.111   2.903  1.00  0.00    -0.014 A 
ATOM     82  C   UNL     1      -4.261  -6.469   3.263  1.00  0.00     0.010 A 
ATOM     83  C   UNL     1      -3.866  -4.140   3.809  1.00  0.00     0.010 A 
ATOM     84  C   UNL     1      -3.766  -6.846   4.515  1.00  0.00     0.020 A 
ATOM     85  C   UNL     1      -3.343  -4.515   5.050  1.00  0.00     0.020 A 
ATOM     86  C   UNL     1      -3.312  -5.866   5.402  1.00  0.00     0.054 A 
BRANCH  86  87
ATOM     87  S   UNL     1      -2.646  -6.378   7.010  1.00  0.00     0.124 S 
ATOM     88  O   UNL     1      -3.860  -6.714   7.747  1.00  0.00    -0.237 OA
ATOM     89  O   UNL     1      -1.788  -7.505   6.654  1.00  0.00    -0.237 OA
ATOM     90  O   UNL     1      -1.937  -5.189   7.478  1.00  0.00    -0.744 OA
ENDBRANCH  86  87
ENDBRANCH  58  81
BRANCH  70  91
ATOM     91  C   UNL     1     -10.744  -5.368   0.184  1.00  0.00    -0.014 A 
ATOM     92  C   UNL     1     -11.461  -4.702   1.194  1.00  0.00     0.010 A 
ATOM     93  C   UNL     1     -11.285  -6.533  -0.389  1.00  0.00     0.010 A 
ATOM     94  C   UNL     1     -12.683  -5.211   1.642  1.00  0.00     0.020 A 
ATOM     95  C   UNL     1     -12.518  -7.030   0.038  1.00  0.00     0.020 A 
ATOM     96  C   UNL     1     -13.203  -6.373   1.062  1.00  0.00     0.054 A 
BRANCH  96  97
ATOM     97  S   UNL     1     -14.811  -6.988   1.631  1.00  0.00     0.124 S 
ATOM     98  O   UNL     1     -14.471  -7.575   2.925  1.00  0.00    -0.237 OA
ATOM     99  O   UNL     1     -15.620  -5.773   1.686  1.00  0.00    -0.237 OA
ATOM    100  O   UNL     1     -15.202  -7.943   0.597  1.00  0.00    -0.744 OA
ENDBRANCH  96  97
ENDBRANCH  70  91
ENDBRANCH  44  45
ENDBRANCH  36  39
ENDBRANCH  34  35
ENDBRANCH  33  34
ENDBRANCH  32  33
ENDBRANCH   1  32
TORSDOF 20
