REMARK SMILES CCOC(=O)c1c(NC(=O)[C@@H]2[C@@H](C(=O)NCCCCCCNC(=O)c3ccc(-c4c5nc(c(-c6ccc(S(=O)(=O)[O-])cc6)c6ccc([nH]6)c(-c6ccc(S(=O)(=O)[O-])cc6)c6nc(c(-c7ccc(S(=O)(=O)[O-])cc7)c7ccc4[nH]7)C=C6)C=C5)cc3)[C@@H]3C=C[C@H]2CC3)sc2c1CCC2
REMARK SMILES IDX 17 1 16 2 15 3 13 4 14 5 12 7 11 8 88 9 85 10 87 11 89 12
REMARK SMILES IDX 86 13 90 14 9 15 8 16 10 18 7 19 6 20 93 21 91 22 92 23
REMARK SMILES IDX 94 24 96 25 95 26 4 27 5 28 3 29 2 30 1 31 18 32 19 33 20 34
REMARK SMILES IDX 21 35 22 36 23 37 24 39 25 40 26 41 84 42 27 43 83 44 28 45
REMARK SMILES IDX 29 46 30 47 77 48 31 49 82 50 76 51 78 52 32 53 81 54 75 55
REMARK SMILES IDX 74 56 33 58 63 59 44 60 62 61 45 62 48 63 61 64 79 65 46 66
REMARK SMILES IDX 47 67 60 69 80 70 49 71 34 72 35 73 43 74 36 75 42 76 37 77
REMARK SMILES IDX 38 78 39 79 40 80 41 81 64 82 65 83 73 84 66 85 72 86 67 87
REMARK SMILES IDX 68 88 69 89 70 90 71 91 50 92 51 93 59 94 52 95 58 96 53 97
REMARK SMILES IDX 54 98 55 99 56 100 57 101
REMARK H PARENT 15 6 8 17 22 38 78 57 48 68
REMARK Flexibility Score: inf
ROOT
ATOM      1  C   UNL     1       9.235  -2.706   3.954  1.00  0.00     0.021 C 
ENDROOT
BRANCH   1   2
ATOM      2  C   UNL     1       8.069  -2.725   4.935  1.00  0.00     0.116 C 
BRANCH   2   3
ATOM      3  N   UNL     1       8.326  -1.946   6.140  1.00  0.00    -0.356 N 
ATOM      4  C   UNL     1       7.537  -1.057   6.820  1.00  0.00     0.224 C 
ATOM      5  O   UNL     1       8.042  -0.458   7.768  1.00  0.00    -0.275 OA
ATOM      6  H   UNL     1       9.220  -2.081   6.531  1.00  0.00     0.163 HD
BRANCH   4   7
ATOM      7  C   UNL     1       6.090  -0.845   6.380  1.00  0.00     0.098 C 
ATOM      8  C   UNL     1       5.853   0.502   5.705  1.00  0.00     0.099 C 
ATOM      9  C   UNL     1       4.856   1.332   6.573  1.00  0.00     0.025 C 
ATOM     10  C   UNL     1       5.012  -1.088   7.483  1.00  0.00     0.025 C 
ATOM     11  C   UNL     1       3.538   0.604   6.542  1.00  0.00    -0.027 C 
ATOM     12  C   UNL     1       5.310   1.315   8.075  1.00  0.00     0.009 C 
ATOM     13  C   UNL     1       3.621  -0.659   6.993  1.00  0.00    -0.027 C 
ATOM     14  C   UNL     1       5.259  -0.127   8.649  1.00  0.00     0.009 C 
BRANCH   8  15
ATOM     15  C   UNL     1       5.469   0.448   4.196  1.00  0.00     0.229 C 
ATOM     16  N   UNL     1       4.670  -0.418   3.493  1.00  0.00    -0.317 N 
ATOM     17  H   UNL     1       4.653  -0.209   2.531  1.00  0.00     0.170 HD
ATOM     18  O   UNL     1       5.868   1.413   3.518  1.00  0.00    -0.274 OA
BRANCH  16  19
ATOM     19  C   UNL     1       3.879  -1.516   3.804  1.00  0.00     0.110 A 
ATOM     20  C   UNL     1       2.647  -1.909   3.253  1.00  0.00     0.098 A 
ATOM     21  C   UNL     1       2.029  -2.806   4.184  1.00  0.00    -0.017 A 
ATOM     22  S   UNL     1       4.489  -2.920   4.594  1.00  0.00    -0.122 S 
ATOM     23  C   UNL     1       2.950  -3.296   5.068  1.00  0.00     0.011 A 
ATOM     24  C   UNL     1       0.720  -3.451   4.449  1.00  0.00     0.038 C 
ATOM     25  C   UNL     1       2.433  -4.161   6.139  1.00  0.00     0.047 C 
ATOM     26  C   UNL     1       0.905  -3.962   5.925  1.00  0.00     0.010 C 
BRANCH  20  27
ATOM     27  C   UNL     1       2.170  -1.402   1.982  1.00  0.00     0.341 C 
ATOM     28  O   UNL     1       2.957  -1.027   1.117  1.00  0.00    -0.246 OA
BRANCH  27  29
ATOM     29  O   UNL     1       0.822  -1.476   1.823  1.00  0.00    -0.462 OA
BRANCH  29  30
ATOM     30  C   UNL     1       0.345  -1.293   0.477  1.00  0.00     0.230 C 
ATOM     31  C   UNL     1       0.580   0.098  -0.092  1.00  0.00     0.049 C 
ENDBRANCH  29  30
ENDBRANCH  27  29
ENDBRANCH  20  27
ENDBRANCH  16  19
ENDBRANCH   8  15
ENDBRANCH   4   7
ENDBRANCH   2   3
ENDBRANCH   1   2
BRANCH   1  32
ATOM     32  C   UNL     1      10.532  -3.329   4.469  1.00  0.00     0.002 C 
BRANCH  32  33
ATOM     33  C   UNL     1      10.430  -4.776   4.974  1.00  0.00     0.002 C 
BRANCH  33  34
ATOM     34  C   UNL     1       9.881  -5.816   3.987  1.00  0.00     0.021 C 
BRANCH  34  35
ATOM     35  C   UNL     1      10.739  -5.997   2.746  1.00  0.00     0.116 C 
BRANCH  35  36
ATOM     36  N   UNL     1      12.066  -6.555   3.040  1.00  0.00    -0.352 N 
ATOM     37  C   UNL     1      13.078  -6.885   2.151  1.00  0.00     0.251 C 
ATOM     38  H   UNL     1      12.263  -6.714   3.991  1.00  0.00     0.163 HD
ATOM     39  O   UNL     1      13.980  -7.649   2.474  1.00  0.00    -0.269 OA
BRANCH  37  40
ATOM     40  C   UNL     1      13.052  -6.274   0.811  1.00  0.00     0.039 A 
ATOM     41  C   UNL     1      13.428  -6.950  -0.356  1.00  0.00     0.014 A 
ATOM     42  C   UNL     1      12.595  -4.966   0.751  1.00  0.00     0.014 A 
ATOM     43  C   UNL     1      13.277  -6.302  -1.584  1.00  0.00     0.010 A 
ATOM     44  C   UNL     1      12.203  -4.447  -0.442  1.00  0.00     0.010 A 
ATOM     45  C   UNL     1      12.659  -5.046  -1.608  1.00  0.00    -0.014 A 
BRANCH  45  46
ATOM     46  C   UNL     1      12.412  -4.282  -2.823  1.00  0.00     0.031 A 
ATOM     47  C   UNL     1      11.394  -4.878  -3.733  1.00  0.00     0.074 A 
ATOM     48  C   UNL     1      12.806  -2.986  -2.878  1.00  0.00     0.049 A 
ATOM     49  N   UNL     1      11.540  -5.247  -4.962  1.00  0.00    -0.248 NA
ATOM     50  C   UNL     1      10.081  -5.236  -3.163  1.00  0.00     0.031 C 
ATOM     51  C   UNL     1      13.503  -2.206  -1.837  1.00  0.00     0.029 A 
ATOM     52  N   UNL     1      12.509  -2.029  -3.792  1.00  0.00    -0.354 N 
ATOM     53  C   UNL     1      10.282  -5.675  -5.386  1.00  0.00     0.074 A 
ATOM     54  C   UNL     1       9.495  -5.846  -4.194  1.00  0.00     0.031 C 
ATOM     55  C   UNL     1      13.318  -0.885  -2.055  1.00  0.00     0.029 A 
ATOM     56  C   UNL     1      12.653  -0.719  -3.333  1.00  0.00     0.049 A 
ATOM     57  H   UNL     1      12.216  -2.241  -4.707  1.00  0.00     0.167 HD
ATOM     58  C   UNL     1       9.901  -5.600  -6.693  1.00  0.00     0.031 A 
ATOM     59  C   UNL     1      12.208   0.414  -3.938  1.00  0.00     0.031 A 
ATOM     60  C   UNL     1      11.025  -5.327  -7.551  1.00  0.00     0.049 A 
ATOM     61  C   UNL     1      11.932   0.053  -5.352  1.00  0.00     0.074 A 
ATOM     62  C   UNL     1      12.202  -5.981  -7.850  1.00  0.00     0.029 A 
ATOM     63  N   UNL     1      11.210  -4.015  -7.926  1.00  0.00    -0.354 N 
ATOM     64  N   UNL     1      12.857  -0.342  -6.184  1.00  0.00    -0.248 NA
ATOM     65  C   UNL     1      10.577  -0.355  -5.690  1.00  0.00     0.031 C 
ATOM     66  C   UNL     1      13.182  -4.948  -7.928  1.00  0.00     0.029 A 
ATOM     67  C   UNL     1      12.539  -3.719  -7.760  1.00  0.00     0.049 A 
ATOM     68  H   UNL     1      10.515  -3.401  -8.255  1.00  0.00     0.167 HD
ATOM     69  C   UNL     1      12.281  -1.392  -6.887  1.00  0.00     0.074 A 
ATOM     70  C   UNL     1      10.849  -1.296  -6.601  1.00  0.00     0.031 C 
ATOM     71  C   UNL     1      13.042  -2.410  -7.390  1.00  0.00     0.031 A 
BRANCH  58  72
ATOM     72  C   UNL     1       8.481  -5.359  -7.155  1.00  0.00    -0.014 A 
ATOM     73  C   UNL     1       8.224  -5.313  -8.541  1.00  0.00     0.010 A 
ATOM     74  C   UNL     1       7.454  -4.903  -6.303  1.00  0.00     0.010 A 
ATOM     75  C   UNL     1       7.042  -4.755  -9.046  1.00  0.00     0.020 A 
ATOM     76  C   UNL     1       6.253  -4.386  -6.795  1.00  0.00     0.020 A 
ATOM     77  C   UNL     1       6.072  -4.277  -8.166  1.00  0.00     0.054 A 
BRANCH  77  78
ATOM     78  S   UNL     1       4.609  -3.442  -8.826  1.00  0.00     0.124 S 
ATOM     79  O   UNL     1       5.192  -2.247  -9.427  1.00  0.00    -0.237 OA
ATOM     80  O   UNL     1       4.084  -4.433  -9.762  1.00  0.00    -0.237 OA
ATOM     81  O   UNL     1       3.784  -3.211  -7.643  1.00  0.00    -0.744 OA
ENDBRANCH  77  78
ENDBRANCH  58  72
BRANCH  59  82
ATOM     82  C   UNL     1      11.687   1.657  -3.305  1.00  0.00    -0.014 A 
ATOM     83  C   UNL     1      11.542   2.853  -4.035  1.00  0.00     0.010 A 
ATOM     84  C   UNL     1      11.067   1.595  -2.038  1.00  0.00     0.010 A 
ATOM     85  C   UNL     1      10.767   3.921  -3.541  1.00  0.00     0.020 A 
ATOM     86  C   UNL     1      10.295   2.654  -1.538  1.00  0.00     0.020 A 
ATOM     87  C   UNL     1      10.131   3.807  -2.302  1.00  0.00     0.054 A 
BRANCH  87  88
ATOM     88  S   UNL     1       8.995   5.119  -1.749  1.00  0.00     0.124 S 
ATOM     89  O   UNL     1       9.908   6.223  -1.467  1.00  0.00    -0.237 OA
ATOM     90  O   UNL     1       8.127   5.299  -2.909  1.00  0.00    -0.237 OA
ATOM     91  O   UNL     1       8.344   4.538  -0.577  1.00  0.00    -0.744 OA
ENDBRANCH  87  88
ENDBRANCH  59  82
BRANCH  71  92
ATOM     92  C   UNL     1      14.550  -2.268  -7.364  1.00  0.00    -0.014 A 
ATOM     93  C   UNL     1      15.315  -2.211  -6.180  1.00  0.00     0.010 A 
ATOM     94  C   UNL     1      15.228  -2.389  -8.588  1.00  0.00     0.010 A 
ATOM     95  C   UNL     1      16.718  -2.260  -6.226  1.00  0.00     0.020 A 
ATOM     96  C   UNL     1      16.622  -2.456  -8.640  1.00  0.00     0.020 A 
ATOM     97  C   UNL     1      17.363  -2.384  -7.460  1.00  0.00     0.054 A 
BRANCH  97  98
ATOM     98  S   UNL     1      19.174  -2.505  -7.520  1.00  0.00     0.124 S 
ATOM     99  O   UNL     1      19.595  -1.166  -7.120  1.00  0.00    -0.237 OA
ATOM    100  O   UNL     1      19.463  -3.569  -6.561  1.00  0.00    -0.237 OA
ATOM    101  O   UNL     1      19.453  -2.849  -8.914  1.00  0.00    -0.744 OA
ENDBRANCH  97  98
ENDBRANCH  71  92
ENDBRANCH  45  46
ENDBRANCH  37  40
ENDBRANCH  35  36
ENDBRANCH  34  35
ENDBRANCH  33  34
ENDBRANCH  32  33
ENDBRANCH   1  32
TORSDOF 21
