REMARK SMILES CC[C@](C)(NC(=O)Cc1cccc(F)c1)C(=O)NCCCCCCNC(=O)c1ccc(-c2c3nc(c(-c4ccc(S(=O)(=O)[O-])cc4)c4ccc([nH]4)c(-c4ccc(S(=O)(=O)[O-])cc4)c4nc(c(-c5ccc(S(=O)(=O)[O-])cc5)c5ccc2[nH]5)C=C4)C=C3)cc1
REMARK SMILES IDX 21 1 20 2 19 3 18 4 16 5 17 6 3 8 4 9 2 10 1 11 5 12 6 13
REMARK SMILES IDX 7 15 8 16 9 17 10 18 15 19 11 20 13 21 12 22 14 23 22 24
REMARK SMILES IDX 23 25 24 26 25 27 26 28 27 30 28 31 29 32 87 33 30 34 86 35
REMARK SMILES IDX 31 36 32 37 33 38 80 39 34 40 85 41 79 42 81 43 35 44 84 45
REMARK SMILES IDX 78 46 77 47 36 49 66 50 47 51 65 52 48 53 51 54 64 55 82 56
REMARK SMILES IDX 49 57 50 58 63 60 83 61 52 62 37 63 38 64 46 65 39 66 45 67
REMARK SMILES IDX 40 68 41 69 42 70 43 71 44 72 67 73 68 74 76 75 69 76 75 77
REMARK SMILES IDX 70 78 71 79 72 80 73 81 74 82 53 83 54 84 62 85 55 86 61 87
REMARK SMILES IDX 56 88 57 89 58 90 59 91 60 92
REMARK H PARENT 18 7 5 14 25 29 81 48 51 59
REMARK Flexibility Score: inf
ROOT
ATOM      1  C   UNL     1       4.545   5.588  -2.610  1.00  0.00     0.002 C 
ENDROOT
BRANCH   1   2
ATOM      2  C   UNL     1       3.019   5.520  -2.509  1.00  0.00     0.021 C 
BRANCH   2   3
ATOM      3  C   UNL     1       2.393   4.225  -3.022  1.00  0.00     0.116 C 
BRANCH   3   4
ATOM      4  N   UNL     1       2.973   3.025  -2.437  1.00  0.00    -0.354 N 
ATOM      5  C   UNL     1       2.438   2.075  -1.610  1.00  0.00     0.245 C 
ATOM      6  O   UNL     1       3.127   1.074  -1.396  1.00  0.00    -0.272 OA
ATOM      7  H   UNL     1       3.915   2.870  -2.677  1.00  0.00     0.163 HD
BRANCH   5   8
ATOM      8  C   UNL     1       0.970   2.193  -1.099  1.00  0.00     0.116 C 
ATOM      9  C   UNL     1       0.556   1.198   0.006  1.00  0.00     0.045 C 
BRANCH   8  10
ATOM     10  C   UNL     1       0.088   1.851  -2.348  1.00  0.00     0.035 C 
ATOM     11  C   UNL     1       0.238   0.401  -2.829  1.00  0.00     0.007 C 
ENDBRANCH   8  10
BRANCH   8  12
ATOM     12  N   UNL     1       0.694   3.555  -0.580  1.00  0.00    -0.342 N 
ATOM     13  C   UNL     1       1.292   4.220   0.468  1.00  0.00     0.225 C 
ATOM     14  H   UNL     1      -0.015   4.052  -1.048  1.00  0.00     0.164 HD
ATOM     15  O   UNL     1       0.591   5.029   1.083  1.00  0.00    -0.275 OA
BRANCH  13  16
ATOM     16  C   UNL     1       2.788   4.109   0.772  1.00  0.00     0.135 C 
BRANCH  16  17
ATOM     17  C   UNL     1       3.247   3.229   1.913  1.00  0.00    -0.036 A 
ATOM     18  C   UNL     1       3.840   3.783   3.058  1.00  0.00     0.004 A 
ATOM     19  C   UNL     1       3.239   1.835   1.808  1.00  0.00     0.043 A 
ATOM     20  C   UNL     1       4.369   2.963   4.065  1.00  0.00     0.003 A 
ATOM     21  C   UNL     1       3.721   1.024   2.826  1.00  0.00     0.123 A 
ATOM     22  C   UNL     1       4.293   1.576   3.957  1.00  0.00     0.039 A 
ATOM     23  F   UNL     1       3.650  -0.307   2.693  1.00  0.00    -0.207 F 
ENDBRANCH  16  17
ENDBRANCH  13  16
ENDBRANCH   8  12
ENDBRANCH   5   8
ENDBRANCH   3   4
ENDBRANCH   2   3
ENDBRANCH   1   2
BRANCH   1  24
ATOM     24  C   UNL     1       5.111   5.333  -4.009  1.00  0.00     0.002 C 
BRANCH  24  25
ATOM     25  C   UNL     1       4.485   6.176  -5.121  1.00  0.00     0.021 C 
BRANCH  25  26
ATOM     26  C   UNL     1       4.536   7.678  -4.879  1.00  0.00     0.116 C 
BRANCH  26  27
ATOM     27  N   UNL     1       5.899   8.182  -4.889  1.00  0.00    -0.352 N 
ATOM     28  C   UNL     1       6.447   9.144  -5.702  1.00  0.00     0.251 C 
ATOM     29  H   UNL     1       6.509   7.783  -4.227  1.00  0.00     0.163 HD
ATOM     30  O   UNL     1       7.663   9.310  -5.736  1.00  0.00    -0.269 OA
BRANCH  28  31
ATOM     31  C   UNL     1       5.555   9.956  -6.554  1.00  0.00     0.039 A 
ATOM     32  C   UNL     1       5.848  10.088  -7.912  1.00  0.00     0.014 A 
ATOM     33  C   UNL     1       4.406  10.544  -6.015  1.00  0.00     0.014 A 
ATOM     34  C   UNL     1       4.950  10.756  -8.746  1.00  0.00     0.010 A 
ATOM     35  C   UNL     1       3.477  11.142  -6.861  1.00  0.00     0.010 A 
ATOM     36  C   UNL     1       3.738  11.252  -8.235  1.00  0.00    -0.014 A 
BRANCH  36  37
ATOM     37  C   UNL     1       2.721  11.863  -9.128  1.00  0.00     0.031 A 
ATOM     38  C   UNL     1       2.330  13.305  -8.959  1.00  0.00     0.074 A 
ATOM     39  C   UNL     1       2.099  11.098 -10.046  1.00  0.00     0.049 A 
ATOM     40  N   UNL     1       1.425  13.994  -9.606  1.00  0.00    -0.248 NA
ATOM     41  C   UNL     1       3.027  14.063  -7.909  1.00  0.00     0.031 C 
ATOM     42  C   UNL     1       2.355   9.673 -10.274  1.00  0.00     0.029 A 
ATOM     43  N   UNL     1       1.115  11.406 -10.952  1.00  0.00    -0.354 N 
ATOM     44  C   UNL     1       1.440  15.263  -9.040  1.00  0.00     0.074 A 
ATOM     45  C   UNL     1       2.400  15.229  -7.957  1.00  0.00     0.031 C 
ATOM     46  C   UNL     1       1.562   9.237 -11.264  1.00  0.00     0.029 A 
ATOM     47  C   UNL     1       0.710  10.334 -11.712  1.00  0.00     0.049 A 
ATOM     48  H   UNL     1       0.735  12.309 -11.048  1.00  0.00     0.167 HD
ATOM     49  C   UNL     1       0.735  16.362  -9.400  1.00  0.00     0.031 A 
ATOM     50  C   UNL     1      -0.251  10.236 -12.651  1.00  0.00     0.031 A 
ATOM     51  C   UNL     1      -0.230  16.384 -10.468  1.00  0.00     0.049 A 
ATOM     52  C   UNL     1      -1.045  11.458 -13.018  1.00  0.00     0.074 A 
ATOM     53  C   UNL     1      -0.964  17.457 -10.942  1.00  0.00     0.029 A 
ATOM     54  N   UNL     1      -0.607  15.280 -11.219  1.00  0.00    -0.354 N 
ATOM     55  N   UNL     1      -0.961  12.671 -12.524  1.00  0.00    -0.248 NA
ATOM     56  C   UNL     1      -2.054  11.304 -14.073  1.00  0.00     0.031 C 
ATOM     57  C   UNL     1      -1.831  16.988 -11.935  1.00  0.00     0.029 A 
ATOM     58  C   UNL     1      -1.588  15.637 -12.129  1.00  0.00     0.049 A 
ATOM     59  H   UNL     1      -0.232  14.375 -11.119  1.00  0.00     0.167 HD
ATOM     60  C   UNL     1      -1.896  13.429 -13.219  1.00  0.00     0.074 A 
ATOM     61  C   UNL     1      -2.518  12.542 -14.182  1.00  0.00     0.031 C 
ATOM     62  C   UNL     1      -2.211  14.740 -13.072  1.00  0.00     0.031 A 
BRANCH  49  63
ATOM     63  C   UNL     1       0.977  17.626  -8.613  1.00  0.00    -0.014 A 
ATOM     64  C   UNL     1       2.213  18.296  -8.672  1.00  0.00     0.010 A 
ATOM     65  C   UNL     1      -0.047  18.156  -7.807  1.00  0.00     0.010 A 
ATOM     66  C   UNL     1       2.441  19.434  -7.895  1.00  0.00     0.020 A 
ATOM     67  C   UNL     1       0.166  19.315  -7.053  1.00  0.00     0.020 A 
ATOM     68  C   UNL     1       1.418  19.932  -7.083  1.00  0.00     0.054 A 
BRANCH  68  69
ATOM     69  S   UNL     1       1.747  21.403  -6.075  1.00  0.00     0.124 S 
ATOM     70  O   UNL     1       2.640  20.870  -5.049  1.00  0.00    -0.237 OA
ATOM     71  O   UNL     1       2.366  22.315  -7.033  1.00  0.00    -0.237 OA
ATOM     72  O   UNL     1       0.424  21.804  -5.603  1.00  0.00    -0.744 OA
ENDBRANCH  68  69
ENDBRANCH  49  63
BRANCH  50  73
ATOM     73  C   UNL     1      -0.511   8.919 -13.297  1.00  0.00    -0.014 A 
ATOM     74  C   UNL     1      -0.154   8.690 -14.636  1.00  0.00     0.010 A 
ATOM     75  C   UNL     1      -1.074   7.868 -12.549  1.00  0.00     0.010 A 
ATOM     76  C   UNL     1      -0.356   7.433 -15.217  1.00  0.00     0.020 A 
ATOM     77  C   UNL     1      -1.251   6.603 -13.117  1.00  0.00     0.020 A 
ATOM     78  C   UNL     1      -0.895   6.396 -14.450  1.00  0.00     0.054 A 
BRANCH  78  79
ATOM     79  S   UNL     1      -1.068   4.752 -15.199  1.00  0.00     0.124 S 
ATOM     80  O   UNL     1      -2.178   4.955 -16.125  1.00  0.00    -0.237 OA
ATOM     81  O   UNL     1       0.241   4.547 -15.813  1.00  0.00    -0.237 OA
ATOM     82  O   UNL     1      -1.355   3.885 -14.058  1.00  0.00    -0.744 OA
ENDBRANCH  78  79
ENDBRANCH  50  73
BRANCH  62  83
ATOM     83  C   UNL     1      -3.272  15.305 -13.981  1.00  0.00    -0.014 A 
ATOM     84  C   UNL     1      -4.626  14.962 -13.822  1.00  0.00     0.010 A 
ATOM     85  C   UNL     1      -2.915  16.244 -14.966  1.00  0.00     0.010 A 
ATOM     86  C   UNL     1      -5.601  15.529 -14.647  1.00  0.00     0.020 A 
ATOM     87  C   UNL     1      -3.889  16.836 -15.773  1.00  0.00     0.020 A 
ATOM     88  C   UNL     1      -5.226  16.466 -15.616  1.00  0.00     0.054 A 
BRANCH  88  89
ATOM     89  S   UNL     1      -6.518  17.228 -16.635  1.00  0.00     0.124 S 
ATOM     90  O   UNL     1      -6.914  16.122 -17.503  1.00  0.00    -0.237 OA
ATOM     91  O   UNL     1      -7.510  17.634 -15.642  1.00  0.00    -0.237 OA
ATOM     92  O   UNL     1      -5.828  18.328 -17.305  1.00  0.00    -0.744 OA
ENDBRANCH  88  89
ENDBRANCH  62  83
ENDBRANCH  36  37
ENDBRANCH  28  31
ENDBRANCH  26  27
ENDBRANCH  25  26
ENDBRANCH  24  25
ENDBRANCH   1  24
TORSDOF 20
