REMARK SMILES CCc1cc(OC(F)(F)F)cc2c1O[C@@H](C(F)(F)F)C(C(=O)NCCCCCCNC(=O)c1ccc(-c3c4nc(c(-c5ccc(S(=O)(=O)[O-])cc5)c5ccc([nH]5)c(-c5ccc(S(=O)(=O)[O-])cc5)c5nc(c(-c6ccc(S(=O)(=O)[O-])cc6)c6ccc3[nH]6)C=C5)C=C4)cc1)=C2
REMARK SMILES IDX 27 1 26 2 25 3 24 4 23 5 21 6 22 7 20 9 3 10 4 11 13 12 5 13
REMARK SMILES IDX 12 14 14 15 11 16 93 17 15 18 2 19 1 20 6 21 7 22 8 23 9 24
REMARK SMILES IDX 10 25 16 26 17 27 18 28 19 29 28 30 29 31 30 32 31 33 32 35
REMARK SMILES IDX 33 36 34 37 92 38 35 39 91 40 36 41 37 42 38 43 85 44 39 45
REMARK SMILES IDX 90 46 84 47 86 48 40 49 89 50 83 51 82 52 41 54 71 55 52 56
REMARK SMILES IDX 70 57 53 58 56 59 69 60 87 61 54 62 55 63 68 65 88 66 57 67
REMARK SMILES IDX 42 68 43 69 51 70 44 71 50 72 45 73 46 74 47 75 48 76 49 77
REMARK SMILES IDX 72 78 73 79 81 80 74 81 80 82 75 83 76 84 77 85 78 86 79 87
REMARK SMILES IDX 58 88 59 89 67 90 60 91 66 92 61 93 62 94 63 95 64 96 65 97
REMARK H PARENT 23 8 30 34 86 53 56 64
REMARK Flexibility Score: inf
ROOT
ATOM      1  C   UNL     1       7.723  -6.592  -6.299  1.00  0.00     0.002 C 
ENDROOT
BRANCH   1   2
ATOM      2  C   UNL     1       6.535  -5.862  -6.936  1.00  0.00     0.002 C 
BRANCH   2   3
ATOM      3  C   UNL     1       5.434  -5.447  -5.949  1.00  0.00     0.021 C 
BRANCH   3   4
ATOM      4  C   UNL     1       5.908  -4.415  -4.919  1.00  0.00     0.116 C 
BRANCH   4   5
ATOM      5  N   UNL     1       5.949  -3.101  -5.539  1.00  0.00    -0.352 N 
ATOM      6  C   UNL     1       5.050  -2.087  -5.609  1.00  0.00     0.251 C 
ATOM      7  O   UNL     1       5.268  -1.178  -6.406  1.00  0.00    -0.270 OA
ATOM      8  H   UNL     1       6.797  -2.909  -6.000  1.00  0.00     0.163 HD
BRANCH   6   9
ATOM      9  C   UNL     1       3.875  -1.984  -4.703  1.00  0.00     0.067 C 
ATOM     10  C   UNL     1       0.799  -1.412  -1.886  1.00  0.00    -0.002 A 
ATOM     11  C   UNL     1       0.097  -2.537  -1.412  1.00  0.00     0.054 A 
ATOM     12  C   UNL     1       1.808  -1.590  -2.846  1.00  0.00     0.131 A 
ATOM     13  C   UNL     1       0.385  -3.815  -1.891  1.00  0.00     0.130 A 
ATOM     14  C   UNL     1       2.080  -2.860  -3.352  1.00  0.00     0.021 A 
ATOM     15  O   UNL     1       2.540  -0.494  -3.198  1.00  0.00    -0.475 OA
ATOM     16  C   UNL     1       1.369  -3.965  -2.871  1.00  0.00     0.058 A 
ATOM     17  C   UNL     1       3.159  -3.046  -4.311  1.00  0.00     0.025 C 
ATOM     18  C   UNL     1       3.420  -0.570  -4.355  1.00  0.00     0.314 C 
BRANCH  10  19
ATOM     19  C   UNL     1       0.461  -0.047  -1.331  1.00  0.00     0.036 C 
ATOM     20  C   UNL     1       1.091   0.195   0.031  1.00  0.00     0.009 C 
ENDBRANCH  10  19
BRANCH  13  21
ATOM     21  O   UNL     1      -0.193  -4.985  -1.491  1.00  0.00    -0.406 OA
BRANCH  21  22
ATOM     22  C   UNL     1      -1.189  -4.925  -0.485  1.00  0.00     0.573 C 
ATOM     23  F   UNL     1      -0.701  -4.391   0.656  1.00  0.00    -0.132 F 
ATOM     24  F   UNL     1      -2.250  -4.199  -0.901  1.00  0.00    -0.132 F 
ATOM     25  F   UNL     1      -1.615  -6.178  -0.217  1.00  0.00    -0.132 F 
ENDBRANCH  21  22
ENDBRANCH  13  21
BRANCH  18  26
ATOM     26  C   UNL     1       4.530   0.486  -4.146  1.00  0.00     0.429 C 
ATOM     27  F   UNL     1       4.945   1.050  -5.303  1.00  0.00    -0.167 F 
ATOM     28  F   UNL     1       4.076   1.523  -3.388  1.00  0.00    -0.167 F 
ATOM     29  F   UNL     1       5.612  -0.015  -3.507  1.00  0.00    -0.167 F 
ENDBRANCH  18  26
ENDBRANCH   6   9
ENDBRANCH   4   5
ENDBRANCH   3   4
ENDBRANCH   2   3
ENDBRANCH   1   2
BRANCH   1  30
ATOM     30  C   UNL     1       7.353  -7.836  -5.486  1.00  0.00     0.021 C 
BRANCH  30  31
ATOM     31  C   UNL     1       6.675  -8.935  -6.296  1.00  0.00     0.116 C 
BRANCH  31  32
ATOM     32  N   UNL     1       7.577  -9.498  -7.287  1.00  0.00    -0.352 N 
ATOM     33  C   UNL     1       7.913 -10.810  -7.504  1.00  0.00     0.251 C 
ATOM     34  H   UNL     1       8.008  -8.846  -7.887  1.00  0.00     0.163 HD
ATOM     35  O   UNL     1       8.871 -11.086  -8.218  1.00  0.00    -0.269 OA
BRANCH  33  36
ATOM     36  C   UNL     1       7.119 -11.888  -6.874  1.00  0.00     0.039 A 
ATOM     37  C   UNL     1       7.784 -12.992  -6.335  1.00  0.00     0.014 A 
ATOM     38  C   UNL     1       5.722 -11.830  -6.854  1.00  0.00     0.014 A 
ATOM     39  C   UNL     1       7.049 -14.028  -5.755  1.00  0.00     0.010 A 
ATOM     40  C   UNL     1       4.995 -12.829  -6.213  1.00  0.00     0.010 A 
ATOM     41  C   UNL     1       5.649 -13.950  -5.680  1.00  0.00    -0.014 A 
BRANCH  41  42
ATOM     42  C   UNL     1       4.847 -15.056  -5.099  1.00  0.00     0.031 A 
ATOM     43  C   UNL     1       3.907 -15.838  -5.979  1.00  0.00     0.074 A 
ATOM     44  C   UNL     1       4.926 -15.326  -3.782  1.00  0.00     0.049 A 
ATOM     45  N   UNL     1       3.079 -16.798  -5.655  1.00  0.00    -0.248 NA
ATOM     46  C   UNL     1       3.873 -15.475  -7.406  1.00  0.00     0.031 C 
ATOM     47  C   UNL     1       5.773 -14.617  -2.820  1.00  0.00     0.029 A 
ATOM     48  N   UNL     1       4.279 -16.268  -3.023  1.00  0.00    -0.354 N 
ATOM     49  C   UNL     1       2.413 -17.136  -6.828  1.00  0.00     0.074 A 
ATOM     50  C   UNL     1       2.896 -16.246  -7.861  1.00  0.00     0.031 C 
ATOM     51  C   UNL     1       5.611 -15.166  -1.604  1.00  0.00     0.029 A 
ATOM     52  C   UNL     1       4.626 -16.239  -1.692  1.00  0.00     0.049 A 
ATOM     53  H   UNL     1       3.628 -16.906  -3.396  1.00  0.00     0.167 HD
ATOM     54  C   UNL     1       1.498 -18.112  -7.034  1.00  0.00     0.031 A 
ATOM     55  C   UNL     1       4.196 -16.991  -0.660  1.00  0.00     0.031 A 
ATOM     56  C   UNL     1       1.039 -19.012  -6.010  1.00  0.00     0.049 A 
ATOM     57  C   UNL     1       3.189 -18.080  -0.917  1.00  0.00     0.074 A 
ATOM     58  C   UNL     1       0.153 -20.069  -6.127  1.00  0.00     0.029 A 
ATOM     59  N   UNL     1       1.437 -18.967  -4.683  1.00  0.00    -0.354 N 
ATOM     60  N   UNL     1       2.610 -18.417  -2.045  1.00  0.00    -0.248 NA
ATOM     61  C   UNL     1       2.793 -18.901   0.235  1.00  0.00     0.031 C 
ATOM     62  C   UNL     1      -0.018 -20.636  -4.860  1.00  0.00     0.029 A 
ATOM     63  C   UNL     1       0.806 -19.969  -3.967  1.00  0.00     0.049 A 
ATOM     64  H   UNL     1       2.073 -18.317  -4.305  1.00  0.00     0.167 HD
ATOM     65  C   UNL     1       1.809 -19.514  -1.744  1.00  0.00     0.074 A 
ATOM     66  C   UNL     1       1.986 -19.787  -0.333  1.00  0.00     0.031 C 
ATOM     67  C   UNL     1       1.003 -20.233  -2.564  1.00  0.00     0.031 A 
BRANCH  54  68
ATOM     68  C   UNL     1       0.932 -18.257  -8.423  1.00  0.00    -0.014 A 
ATOM     69  C   UNL     1       1.723 -18.736  -9.484  1.00  0.00     0.010 A 
ATOM     70  C   UNL     1      -0.419 -17.948  -8.663  1.00  0.00     0.010 A 
ATOM     71  C   UNL     1       1.185 -18.862 -10.767  1.00  0.00     0.020 A 
ATOM     72  C   UNL     1      -0.969 -18.101  -9.940  1.00  0.00     0.020 A 
ATOM     73  C   UNL     1      -0.157 -18.541 -10.987  1.00  0.00     0.054 A 
BRANCH  73  74
ATOM     74  S   UNL     1      -0.836 -18.740 -12.658  1.00  0.00     0.124 S 
ATOM     75  O   UNL     1      -0.234 -17.610 -13.362  1.00  0.00    -0.237 OA
ATOM     76  O   UNL     1      -0.344 -20.058 -13.050  1.00  0.00    -0.237 OA
ATOM     77  O   UNL     1      -2.280 -18.650 -12.458  1.00  0.00    -0.744 OA
ENDBRANCH  73  74
ENDBRANCH  54  68
BRANCH  55  78
ATOM     78  C   UNL     1       4.735 -16.756   0.707  1.00  0.00    -0.014 A 
ATOM     79  C   UNL     1       5.601 -17.690   1.303  1.00  0.00     0.010 A 
ATOM     80  C   UNL     1       4.388 -15.595   1.420  1.00  0.00     0.010 A 
ATOM     81  C   UNL     1       6.089 -17.480   2.596  1.00  0.00     0.020 A 
ATOM     82  C   UNL     1       4.896 -15.367   2.702  1.00  0.00     0.020 A 
ATOM     83  C   UNL     1       5.733 -16.319   3.288  1.00  0.00     0.054 A 
BRANCH  83  84
ATOM     84  S   UNL     1       6.410 -16.046   4.949  1.00  0.00     0.124 S 
ATOM     85  O   UNL     1       5.630 -16.983   5.752  1.00  0.00    -0.237 OA
ATOM     86  O   UNL     1       7.821 -16.382   4.775  1.00  0.00    -0.237 OA
ATOM     87  O   UNL     1       6.141 -14.631   5.198  1.00  0.00    -0.744 OA
ENDBRANCH  83  84
ENDBRANCH  55  78
BRANCH  67  88
ATOM     88  C   UNL     1       0.291 -21.419  -1.971  1.00  0.00    -0.014 A 
ATOM     89  C   UNL     1      -0.790 -21.259  -1.087  1.00  0.00     0.010 A 
ATOM     90  C   UNL     1       0.682 -22.716  -2.351  1.00  0.00     0.010 A 
ATOM     91  C   UNL     1      -1.445 -22.378  -0.566  1.00  0.00     0.020 A 
ATOM     92  C   UNL     1       0.012 -23.836  -1.854  1.00  0.00     0.020 A 
ATOM     93  C   UNL     1      -1.038 -23.660  -0.951  1.00  0.00     0.054 A 
BRANCH  93  94
ATOM     94  S   UNL     1      -1.929 -25.095  -0.291  1.00  0.00     0.124 S 
ATOM     95  O   UNL     1      -1.430 -25.157   1.080  1.00  0.00    -0.237 OA
ATOM     96  O   UNL     1      -3.328 -24.700  -0.435  1.00  0.00    -0.237 OA
ATOM     97  O   UNL     1      -1.506 -26.193  -1.159  1.00  0.00    -0.744 OA
ENDBRANCH  93  94
ENDBRANCH  67  88
ENDBRANCH  41  42
ENDBRANCH  33  36
ENDBRANCH  31  32
ENDBRANCH  30  31
ENDBRANCH   1  30
TORSDOF 20
