REMARK SMILES CC1=C[C@H](C)[C@H](CN2C[C@]34C=C[C@@H](O3)[C@H](C(=O)NCCCCCCNC(=O)c3ccc(-c5c6nc(c(-c7ccc(S(=O)(=O)[O-])cc7)c7ccc([nH]7)c(-c7ccc(S(=O)(=O)[O-])cc7)c7nc(c(-c8ccc(S(=O)(=O)[O-])cc8)c8ccc5[nH]8)C=C7)C=C6)cc3)[C@@H]4C2=O)[C@H](C)C1
REMARK SMILES IDX 22 1 21 2 20 3 19 4 18 5 16 6 17 7 15 9 8 10 9 11 89 12
REMARK SMILES IDX 10 13 88 14 90 15 11 16 14 17 12 18 13 19 7 20 6 21 1 22
REMARK SMILES IDX 2 23 3 24 93 25 4 26 91 27 5 28 92 29 23 30 24 31 25 32
REMARK SMILES IDX 26 33 27 35 28 36 29 37 87 38 30 39 86 40 31 41 32 42 33 43
REMARK SMILES IDX 80 44 34 45 85 46 79 47 81 48 35 49 84 50 78 51 77 52 36 54
REMARK SMILES IDX 66 55 47 56 65 57 48 58 51 59 64 60 82 61 49 62 50 63 63 65
REMARK SMILES IDX 83 66 52 67 37 68 38 69 46 70 39 71 45 72 40 73 41 74 42 75
REMARK SMILES IDX 43 76 44 77 67 78 68 79 76 80 69 81 75 82 70 83 71 84 72 85
REMARK SMILES IDX 73 86 74 87 53 88 54 89 62 90 55 91 61 92 56 93 57 94 58 95
REMARK SMILES IDX 59 96 60 97
REMARK H PARENT 18 8 25 34 81 53 51 64
REMARK Flexibility Score: inf
ROOT
ATOM      1  C   UNL     1      -5.815  -1.541   0.568  1.00  0.00     0.002 C 
ENDROOT
BRANCH   1   2
ATOM      2  C   UNL     1      -4.393  -2.017   0.250  1.00  0.00     0.002 C 
BRANCH   2   3
ATOM      3  C   UNL     1      -4.273  -3.327  -0.551  1.00  0.00     0.021 C 
BRANCH   3   4
ATOM      4  C   UNL     1      -4.945  -3.332  -1.925  1.00  0.00     0.116 C 
BRANCH   4   5
ATOM      5  N   UNL     1      -4.384  -2.302  -2.765  1.00  0.00    -0.356 N 
ATOM      6  C   UNL     1      -3.857  -2.323  -4.005  1.00  0.00     0.227 C 
ATOM      7  O   UNL     1      -3.571  -1.210  -4.461  1.00  0.00    -0.275 OA
ATOM      8  H   UNL     1      -4.387  -1.408  -2.351  1.00  0.00     0.163 HD
BRANCH   6   9
ATOM      9  C   UNL     1      -3.737  -3.583  -4.850  1.00  0.00     0.127 C 
ATOM     10  N   UNL     1      -1.268  -4.719  -2.893  1.00  0.00    -0.339 N 
ATOM     11  C   UNL     1      -0.981  -3.911  -4.019  1.00  0.00     0.160 C 
ATOM     12  C   UNL     1      -2.416  -5.390  -3.187  1.00  0.00     0.230 C 
ATOM     13  C   UNL     1      -1.524  -4.614  -5.355  1.00  0.00     0.117 C 
ATOM     14  C   UNL     1      -2.899  -4.866  -4.530  1.00  0.00     0.132 C 
ATOM     15  O   UNL     1      -2.903  -6.331  -2.570  1.00  0.00    -0.274 OA
ATOM     16  C   UNL     1      -0.869  -3.367  -6.025  1.00  0.00     0.009 C 
ATOM     17  O   UNL     1      -2.478  -4.484  -6.486  1.00  0.00    -0.360 OA
ATOM     18  C   UNL     1      -1.811  -2.462  -6.311  1.00  0.00     0.004 C 
ATOM     19  C   UNL     1      -3.097  -3.202  -6.210  1.00  0.00     0.155 C 
BRANCH  10  20
ATOM     20  C   UNL     1      -0.249  -4.912  -1.850  1.00  0.00     0.124 C 
BRANCH  20  21
ATOM     21  C   UNL     1      -0.031  -3.704  -0.878  1.00  0.00     0.018 C 
ATOM     22  C   UNL     1       1.465   0.119   0.787  1.00  0.00     0.039 C 
ATOM     23  C   UNL     1       0.976  -1.242   0.388  1.00  0.00    -0.077 C 
ATOM     24  C   UNL     1       1.711  -2.364   0.504  1.00  0.00    -0.025 C 
ATOM     25  C   UNL     1      -0.350  -1.270  -0.316  1.00  0.00     0.034 C 
ATOM     26  C   UNL     1       1.316  -3.726  -0.065  1.00  0.00     0.014 C 
ATOM     27  C   UNL     1      -0.303  -2.284  -1.464  1.00  0.00    -0.005 C 
ATOM     28  C   UNL     1       2.514  -4.301  -0.835  1.00  0.00     0.012 C 
ATOM     29  C   UNL     1       0.703  -1.781  -2.523  1.00  0.00     0.008 C 
ENDBRANCH  20  21
ENDBRANCH  10  20
ENDBRANCH   6   9
ENDBRANCH   4   5
ENDBRANCH   3   4
ENDBRANCH   2   3
ENDBRANCH   1   2
BRANCH   1  30
ATOM     30  C   UNL     1      -6.734  -2.586   1.203  1.00  0.00     0.021 C 
BRANCH  30  31
ATOM     31  C   UNL     1      -6.204  -3.222   2.483  1.00  0.00     0.116 C 
BRANCH  31  32
ATOM     32  N   UNL     1      -6.150  -2.284   3.592  1.00  0.00    -0.352 N 
ATOM     33  C   UNL     1      -6.597  -2.450   4.881  1.00  0.00     0.251 C 
ATOM     34  H   UNL     1      -5.738  -1.413   3.393  1.00  0.00     0.163 HD
ATOM     35  O   UNL     1      -6.626  -1.489   5.645  1.00  0.00    -0.269 OA
BRANCH  33  36
ATOM     36  C   UNL     1      -7.066  -3.778   5.341  1.00  0.00     0.039 A 
ATOM     37  C   UNL     1      -8.234  -3.852   6.103  1.00  0.00     0.014 A 
ATOM     38  C   UNL     1      -6.358  -4.945   5.035  1.00  0.00     0.014 A 
ATOM     39  C   UNL     1      -8.713  -5.097   6.519  1.00  0.00     0.010 A 
ATOM     40  C   UNL     1      -6.879  -6.190   5.385  1.00  0.00     0.010 A 
ATOM     41  C   UNL     1      -8.056  -6.281   6.142  1.00  0.00    -0.014 A 
BRANCH  41  42
ATOM     42  C   UNL     1      -8.595  -7.609   6.542  1.00  0.00     0.031 A 
ATOM     43  C   UNL     1      -7.799  -8.518   7.445  1.00  0.00     0.074 A 
ATOM     44  C   UNL     1      -9.791  -8.011   6.066  1.00  0.00     0.049 A 
ATOM     45  N   UNL     1      -8.119  -9.699   7.910  1.00  0.00    -0.248 NA
ATOM     46  C   UNL     1      -6.465  -8.055   7.861  1.00  0.00     0.031 C 
ATOM     47  C   UNL     1     -10.632  -7.252   5.136  1.00  0.00     0.029 A 
ATOM     48  N   UNL     1     -10.511  -9.157   6.298  1.00  0.00    -0.354 N 
ATOM     49  C   UNL     1      -7.024 -10.125   8.655  1.00  0.00     0.074 A 
ATOM     50  C   UNL     1      -6.013  -9.098   8.545  1.00  0.00     0.031 C 
ATOM     51  C   UNL     1     -11.763  -7.938   4.902  1.00  0.00     0.029 A 
ATOM     52  C   UNL     1     -11.715  -9.200   5.634  1.00  0.00     0.049 A 
ATOM     53  H   UNL     1     -10.195  -9.881   6.886  1.00  0.00     0.167 HD
ATOM     54  C   UNL     1      -6.880 -11.261   9.378  1.00  0.00     0.031 A 
ATOM     55  C   UNL     1     -12.674 -10.146   5.612  1.00  0.00     0.031 A 
ATOM     56  C   UNL     1      -7.898 -12.272   9.505  1.00  0.00     0.049 A 
ATOM     57  C   UNL     1     -12.498 -11.384   6.451  1.00  0.00     0.074 A 
ATOM     58  C   UNL     1      -7.875 -13.418  10.281  1.00  0.00     0.029 A 
ATOM     59  N   UNL     1      -9.114 -12.263   8.841  1.00  0.00    -0.354 N 
ATOM     60  N   UNL     1     -11.493 -11.721   7.224  1.00  0.00    -0.248 NA
ATOM     61  C   UNL     1     -13.598 -12.358   6.433  1.00  0.00     0.031 C 
ATOM     62  C   UNL     1      -9.050 -14.135  10.037  1.00  0.00     0.029 A 
ATOM     63  C   UNL     1      -9.837 -13.399   9.167  1.00  0.00     0.049 A 
ATOM     64  H   UNL     1      -9.418 -11.556   8.228  1.00  0.00     0.167 HD
ATOM     65  C   UNL     1     -11.855 -12.930   7.809  1.00  0.00     0.074 A 
ATOM     66  C   UNL     1     -13.180 -13.250   7.320  1.00  0.00     0.031 C 
ATOM     67  C   UNL     1     -11.155 -13.707   8.672  1.00  0.00     0.031 A 
BRANCH  54  68
ATOM     68  C   UNL     1      -5.573 -11.488  10.094  1.00  0.00    -0.014 A 
ATOM     69  C   UNL     1      -5.215 -10.727  11.222  1.00  0.00     0.010 A 
ATOM     70  C   UNL     1      -4.735 -12.544   9.689  1.00  0.00     0.010 A 
ATOM     71  C   UNL     1      -4.038 -11.009  11.921  1.00  0.00     0.020 A 
ATOM     72  C   UNL     1      -3.572 -12.847  10.402  1.00  0.00     0.020 A 
ATOM     73  C   UNL     1      -3.227 -12.072  11.511  1.00  0.00     0.054 A 
BRANCH  73  74
ATOM     74  S   UNL     1      -1.745 -12.459  12.483  1.00  0.00     0.124 S 
ATOM     75  O   UNL     1      -0.873 -11.331  12.166  1.00  0.00    -0.237 OA
ATOM     76  O   UNL     1      -2.260 -12.492  13.849  1.00  0.00    -0.237 OA
ATOM     77  O   UNL     1      -1.309 -13.749  11.953  1.00  0.00    -0.744 OA
ENDBRANCH  73  74
ENDBRANCH  54  68
BRANCH  55  78
ATOM     78  C   UNL     1     -13.889  -9.968   4.766  1.00  0.00    -0.014 A 
ATOM     79  C   UNL     1     -15.159  -9.805   5.346  1.00  0.00     0.010 A 
ATOM     80  C   UNL     1     -13.779  -9.991   3.363  1.00  0.00     0.010 A 
ATOM     81  C   UNL     1     -16.300  -9.715   4.542  1.00  0.00     0.020 A 
ATOM     82  C   UNL     1     -14.912  -9.864   2.555  1.00  0.00     0.020 A 
ATOM     83  C   UNL     1     -16.169  -9.748   3.151  1.00  0.00     0.054 A 
BRANCH  83  84
ATOM     84  S   UNL     1     -17.659  -9.617   2.124  1.00  0.00     0.124 S 
ATOM     85  O   UNL     1     -18.271 -10.929   2.309  1.00  0.00    -0.237 OA
ATOM     86  O   UNL     1     -18.366  -8.495   2.736  1.00  0.00    -0.237 OA
ATOM     87  O   UNL     1     -17.130  -9.355   0.787  1.00  0.00    -0.744 OA
ENDBRANCH  83  84
ENDBRANCH  55  78
BRANCH  67  88
ATOM     88  C   UNL     1     -11.831 -14.953   9.184  1.00  0.00    -0.014 A 
ATOM     89  C   UNL     1     -12.098 -16.046   8.340  1.00  0.00     0.010 A 
ATOM     90  C   UNL     1     -12.195 -15.032  10.541  1.00  0.00     0.010 A 
ATOM     91  C   UNL     1     -12.774 -17.167   8.830  1.00  0.00     0.020 A 
ATOM     92  C   UNL     1     -12.838 -16.166  11.042  1.00  0.00     0.020 A 
ATOM     93  C   UNL     1     -13.147 -17.216  10.177  1.00  0.00     0.054 A 
BRANCH  93  94
ATOM     94  S   UNL     1     -14.029 -18.677  10.787  1.00  0.00     0.124 S 
ATOM     95  O   UNL     1     -15.358 -18.491  10.211  1.00  0.00    -0.237 OA
ATOM     96  O   UNL     1     -13.250 -19.780  10.230  1.00  0.00    -0.237 OA
ATOM     97  O   UNL     1     -13.957 -18.543  12.241  1.00  0.00    -0.744 OA
ENDBRANCH  93  94
ENDBRANCH  67  88
ENDBRANCH  41  42
ENDBRANCH  33  36
ENDBRANCH  31  32
ENDBRANCH  30  31
ENDBRANCH   1  30
TORSDOF 18
