REMARK SMILES Cc1ccc(C(=O)NCCCCCCNC(=O)c2ccc(-c3c4nc(c(-c5ccc(S(=O)(=O)[O-])cc5)c5ccc([nH]5)c(-c5ccc(S(=O)(=O)[O-])cc5)c5nc(c(-c6ccc(S(=O)(=O)[O-])cc6)c6ccc3[nH]6)C=C5)C=C4)cc2)cc1N1C(=O)/C(=C/c2ccc([N+](=O)[O-])cc2)SC1=S
REMARK SMILES IDX 11 1 10 2 9 3 8 4 6 5 7 6 5 8 1 9 2 10 3 11 79 12 4 13 78 14
REMARK SMILES IDX 80 15 81 16 95 17 82 18 83 19 94 20 96 21 84 22 85 23 86 24
REMARK SMILES IDX 93 25 87 26 92 27 88 28 89 29 90 30 91 31 12 32 13 33 14 34
REMARK SMILES IDX 15 35 16 36 17 38 18 39 19 40 77 41 20 42 76 43 21 44 22 45
REMARK SMILES IDX 23 46 70 47 24 48 75 49 69 50 71 51 25 52 74 53 68 54 67 55
REMARK SMILES IDX 26 57 56 58 37 59 55 60 38 61 41 62 54 63 72 64 39 65 40 66
REMARK SMILES IDX 53 68 73 69 42 70 27 71 28 72 36 73 29 74 35 75 30 76 31 77
REMARK SMILES IDX 32 78 33 79 34 80 57 81 58 82 66 83 59 84 65 85 60 86 61 87
REMARK SMILES IDX 62 88 63 89 64 90 43 91 44 92 52 93 45 94 51 95 46 96 47 97
REMARK SMILES IDX 48 98 49 99 50 100
REMARK H PARENT 8 7 15 37 71 56 41 67
REMARK Flexibility Score: inf
ROOT
ATOM      1  C   UNL     1      -5.770   3.561  -1.151  1.00  0.00     0.002 C 
ENDROOT
BRANCH   1   2
ATOM      2  C   UNL     1      -4.285   3.213  -1.272  1.00  0.00     0.021 C 
BRANCH   2   3
ATOM      3  C   UNL     1      -3.639   2.528  -0.071  1.00  0.00     0.116 C 
BRANCH   3   4
ATOM      4  N   UNL     1      -3.856   1.095   0.009  1.00  0.00    -0.352 N 
ATOM      5  C   UNL     1      -3.055  -0.005   0.204  1.00  0.00     0.251 C 
ATOM      6  O   UNL     1      -3.640  -1.077   0.396  1.00  0.00    -0.269 OA
ATOM      7  H   UNL     1      -4.803   0.853  -0.103  1.00  0.00     0.163 HD
BRANCH   5   8
ATOM      8  C   UNL     1      -1.556  -0.032   0.155  1.00  0.00     0.041 A 
ATOM      9  C   UNL     1       2.758  -0.481  -0.297  1.00  0.00     0.046 C 
ATOM     10  C   UNL     1       1.275  -0.295  -0.152  1.00  0.00    -0.027 A 
ATOM     11  C   UNL     1       0.453  -1.425  -0.053  1.00  0.00     0.006 A 
ATOM     12  C   UNL     1       0.667   0.963  -0.071  1.00  0.00     0.054 A 
ATOM     13  C   UNL     1      -0.940  -1.292   0.062  1.00  0.00     0.014 A 
ATOM     14  C   UNL     1      -0.716   1.074   0.160  1.00  0.00     0.041 A 
BRANCH  12  15
ATOM     15  N   UNL     1       1.367   2.164  -0.354  1.00  0.00    -0.261 N 
ATOM     16  C   UNL     1       2.131   2.777   0.625  1.00  0.00     0.270 C 
ATOM     17  C   UNL     1       1.216   2.843  -1.558  1.00  0.00     0.152 C 
ATOM     18  O   UNL     1       2.391   2.349   1.742  1.00  0.00    -0.268 OA
ATOM     19  C   UNL     1       2.589   4.109   0.134  1.00  0.00     0.081 C 
ATOM     20  S   UNL     1       2.142   4.338  -1.506  1.00  0.00    -0.054 SA
ATOM     21  S   UNL     1       0.339   2.402  -2.911  1.00  0.00    -0.051 S 
ATOM     22  C   UNL     1       3.232   4.974   0.928  1.00  0.00     0.029 C 
BRANCH  22  23
ATOM     23  C   UNL     1       3.746   6.286   0.525  1.00  0.00    -0.024 A 
ATOM     24  C   UNL     1       2.911   7.406   0.417  1.00  0.00     0.015 A 
ATOM     25  C   UNL     1       5.118   6.417   0.275  1.00  0.00     0.015 A 
ATOM     26  C   UNL     1       3.448   8.659   0.098  1.00  0.00     0.086 A 
ATOM     27  C   UNL     1       5.663   7.662  -0.045  1.00  0.00     0.086 A 
ATOM     28  C   UNL     1       4.828   8.784  -0.115  1.00  0.00     0.269 A 
BRANCH  28  29
ATOM     29  N   UNL     1       5.415  10.108  -0.363  1.00  0.00     0.062 N 
ATOM     30  O   UNL     1       4.653  11.084  -0.383  1.00  0.00    -0.258 OA
ATOM     31  O   UNL     1       6.647  10.174  -0.494  1.00  0.00    -0.258 OA
ENDBRANCH  28  29
ENDBRANCH  22  23
ENDBRANCH  12  15
ENDBRANCH   5   8
ENDBRANCH   3   4
ENDBRANCH   2   3
ENDBRANCH   1   2
BRANCH   1  32
ATOM     32  C   UNL     1      -6.231   4.257   0.139  1.00  0.00     0.002 C 
BRANCH  32  33
ATOM     33  C   UNL     1      -5.367   5.404   0.667  1.00  0.00     0.021 C 
BRANCH  33  34
ATOM     34  C   UNL     1      -5.329   6.633  -0.232  1.00  0.00     0.116 C 
BRANCH  34  35
ATOM     35  N   UNL     1      -5.994   7.785   0.362  1.00  0.00    -0.352 N 
ATOM     36  C   UNL     1      -5.907   9.105  -0.043  1.00  0.00     0.251 C 
ATOM     37  H   UNL     1      -6.572   7.604   1.138  1.00  0.00     0.163 HD
ATOM     38  O   UNL     1      -6.279  10.043   0.642  1.00  0.00    -0.269 OA
BRANCH  36  39
ATOM     39  C   UNL     1      -5.455   9.324  -1.430  1.00  0.00     0.039 A 
ATOM     40  C   UNL     1      -6.440   9.641  -2.373  1.00  0.00     0.014 A 
ATOM     41  C   UNL     1      -4.182   8.915  -1.814  1.00  0.00     0.014 A 
ATOM     42  C   UNL     1      -6.197   9.388  -3.718  1.00  0.00     0.010 A 
ATOM     43  C   UNL     1      -3.977   8.578  -3.136  1.00  0.00     0.010 A 
ATOM     44  C   UNL     1      -4.997   8.776  -4.078  1.00  0.00    -0.014 A 
BRANCH  44  45
ATOM     45  C   UNL     1      -4.736   8.255  -5.412  1.00  0.00     0.031 A 
ATOM     46  C   UNL     1      -3.874   9.021  -6.337  1.00  0.00     0.074 A 
ATOM     47  C   UNL     1      -5.215   7.046  -5.783  1.00  0.00     0.049 A 
ATOM     48  N   UNL     1      -3.938   8.943  -7.625  1.00  0.00    -0.248 NA
ATOM     49  C   UNL     1      -2.880   9.982  -5.865  1.00  0.00     0.031 C 
ATOM     50  C   UNL     1      -4.821   6.274  -6.958  1.00  0.00     0.029 A 
ATOM     51  N   UNL     1      -6.326   6.361  -5.288  1.00  0.00    -0.354 N 
ATOM     52  C   UNL     1      -2.812   9.561  -8.118  1.00  0.00     0.074 A 
ATOM     53  C   UNL     1      -2.237  10.271  -7.000  1.00  0.00     0.031 C 
ATOM     54  C   UNL     1      -5.821   5.437  -7.274  1.00  0.00     0.029 A 
ATOM     55  C   UNL     1      -6.937   5.760  -6.400  1.00  0.00     0.049 A 
ATOM     56  H   UNL     1      -6.622   6.310  -4.350  1.00  0.00     0.167 HD
ATOM     57  C   UNL     1      -2.371   9.277  -9.375  1.00  0.00     0.031 A 
ATOM     58  C   UNL     1      -8.206   6.039  -6.817  1.00  0.00     0.031 A 
ATOM     59  C   UNL     1      -3.252   8.344 -10.069  1.00  0.00     0.049 A 
ATOM     60  C   UNL     1      -8.265   6.514  -8.256  1.00  0.00     0.074 A 
ATOM     61  C   UNL     1      -3.183   6.981 -10.308  1.00  0.00     0.029 A 
ATOM     62  N   UNL     1      -4.554   8.729 -10.366  1.00  0.00    -0.354 N 
ATOM     63  N   UNL     1      -7.233   6.946  -8.926  1.00  0.00    -0.248 NA
ATOM     64  C   UNL     1      -9.494   6.573  -9.041  1.00  0.00     0.031 C 
ATOM     65  C   UNL     1      -4.470   6.537 -10.704  1.00  0.00     0.029 A 
ATOM     66  C   UNL     1      -5.314   7.633 -10.725  1.00  0.00     0.049 A 
ATOM     67  H   UNL     1      -4.888   9.655 -10.326  1.00  0.00     0.167 HD
ATOM     68  C   UNL     1      -7.615   7.315 -10.192  1.00  0.00     0.074 A 
ATOM     69  C   UNL     1      -9.044   7.059 -10.213  1.00  0.00     0.031 C 
ATOM     70  C   UNL     1      -6.714   7.796 -11.102  1.00  0.00     0.031 A 
BRANCH  57  71
ATOM     71  C   UNL     1      -0.962   9.600  -9.808  1.00  0.00    -0.014 A 
ATOM     72  C   UNL     1      -0.240   8.672 -10.584  1.00  0.00     0.010 A 
ATOM     73  C   UNL     1      -0.278  10.771  -9.428  1.00  0.00     0.010 A 
ATOM     74  C   UNL     1       1.120   8.845 -10.872  1.00  0.00     0.020 A 
ATOM     75  C   UNL     1       1.094  10.940  -9.677  1.00  0.00     0.020 A 
ATOM     76  C   UNL     1       1.789   9.966 -10.389  1.00  0.00     0.054 A 
BRANCH  76  77
ATOM     77  S   UNL     1       3.571  10.114 -10.685  1.00  0.00     0.124 S 
ATOM     78  O   UNL     1       4.083   8.841 -10.183  1.00  0.00    -0.237 OA
ATOM     79  O   UNL     1       3.633  10.290 -12.133  1.00  0.00    -0.237 OA
ATOM     80  O   UNL     1       3.957  11.284  -9.898  1.00  0.00    -0.744 OA
ENDBRANCH  76  77
ENDBRANCH  57  71
BRANCH  58  81
ATOM     81  C   UNL     1      -9.130   6.474  -5.732  1.00  0.00    -0.014 A 
ATOM     82  C   UNL     1      -9.485   5.519  -4.755  1.00  0.00     0.010 A 
ATOM     83  C   UNL     1      -9.289   7.839  -5.436  1.00  0.00     0.010 A 
ATOM     84  C   UNL     1      -9.831   5.918  -3.460  1.00  0.00     0.020 A 
ATOM     85  C   UNL     1      -9.645   8.241  -4.139  1.00  0.00     0.020 A 
ATOM     86  C   UNL     1      -9.850   7.277  -3.147  1.00  0.00     0.054 A 
BRANCH  86  87
ATOM     87  S   UNL     1      -9.958   7.748  -1.393  1.00  0.00     0.124 S 
ATOM     88  O   UNL     1     -11.264   7.224  -1.009  1.00  0.00    -0.237 OA
ATOM     89  O   UNL     1      -8.808   7.053  -0.815  1.00  0.00    -0.237 OA
ATOM     90  O   UNL     1      -9.847   9.203  -1.429  1.00  0.00    -0.744 OA
ENDBRANCH  86  87
ENDBRANCH  58  81
BRANCH  70  91
ATOM     91  C   UNL     1      -6.998   8.397 -12.468  1.00  0.00    -0.014 A 
ATOM     92  C   UNL     1      -8.261   8.788 -12.933  1.00  0.00     0.010 A 
ATOM     93  C   UNL     1      -5.899   8.683 -13.322  1.00  0.00     0.010 A 
ATOM     94  C   UNL     1      -8.424   9.392 -14.192  1.00  0.00     0.020 A 
ATOM     95  C   UNL     1      -6.043   9.322 -14.557  1.00  0.00     0.020 A 
ATOM     96  C   UNL     1      -7.315   9.657 -14.995  1.00  0.00     0.054 A 
BRANCH  96  97
ATOM     97  S   UNL     1      -7.537  10.503 -16.580  1.00  0.00     0.124 S 
ATOM     98  O   UNL     1      -7.920   9.402 -17.459  1.00  0.00    -0.237 OA
ATOM     99  O   UNL     1      -8.594  11.468 -16.286  1.00  0.00    -0.237 OA
ATOM    100  O   UNL     1      -6.226  11.090 -16.845  1.00  0.00    -0.744 OA
ENDBRANCH  96  97
ENDBRANCH  70  91
ENDBRANCH  44  45
ENDBRANCH  36  39
ENDBRANCH  34  35
ENDBRANCH  33  34
ENDBRANCH  32  33
ENDBRANCH   1  32
TORSDOF 19
