REMARK SMILES Cc1ccc(C(C)C)c(OCC(=O)Nc2nc(CC(=O)NCCCCCCNC(=O)c3ccc(-c4c5nc(c(-c6ccc(S(=O)(=O)[O-])cc6)c6ccc([nH]6)c(-c6ccc(S(=O)(=O)[O-])cc6)c6nc(c(-c7ccc(S(=O)(=O)[O-])cc7)c7ccc4[nH]7)C=C6)C=C5)cc3)cs2)c1
REMARK SMILES IDX 23 1 22 2 21 3 19 4 20 5 18 7 17 8 15 9 16 10 92 11 91 12
REMARK SMILES IDX 14 13 12 14 13 15 11 17 10 18 9 19 1 20 2 21 3 22 93 23 4 24
REMARK SMILES IDX 5 25 6 26 7 27 8 28 24 29 25 30 26 31 27 32 28 33 29 34
REMARK SMILES IDX 30 36 31 37 32 38 90 39 33 40 89 41 34 42 35 43 36 44 83 45
REMARK SMILES IDX 37 46 88 47 82 48 84 49 38 50 87 51 81 52 80 53 39 55 69 56
REMARK SMILES IDX 50 57 68 58 51 59 54 60 67 61 85 62 52 63 53 64 66 66 86 67
REMARK SMILES IDX 55 68 40 69 41 70 49 71 42 72 48 73 43 74 44 75 45 76 46 77
REMARK SMILES IDX 47 78 70 79 71 80 79 81 72 82 78 83 73 84 74 85 75 86 76 87
REMARK SMILES IDX 77 88 56 89 57 90 65 91 58 92 64 93 59 94 60 95 61 96 62 97
REMARK SMILES IDX 63 98
REMARK H PARENT 21 6 14 16 28 35 84 54 54 65
REMARK Flexibility Score: inf
ROOT
ATOM      1  C   UNL     1      -3.509   0.194   5.006  1.00  0.00     0.021 C 
ENDROOT
BRANCH   1   2
ATOM      2  C   UNL     1      -4.281   0.110   3.690  1.00  0.00     0.116 C 
BRANCH   2   3
ATOM      3  N   UNL     1      -5.662   0.541   3.808  1.00  0.00    -0.356 N 
ATOM      4  C   UNL     1      -6.337   1.470   3.066  1.00  0.00     0.226 C 
ATOM      5  O   UNL     1      -7.547   1.613   3.259  1.00  0.00    -0.275 OA
ATOM      6  H   UNL     1      -6.184   0.106   4.520  1.00  0.00     0.163 HD
BRANCH   4   7
ATOM      7  C   UNL     1      -5.616   2.285   2.005  1.00  0.00     0.157 C 
BRANCH   7   8
ATOM      8  C   UNL     1      -4.553   3.168   2.573  1.00  0.00     0.063 A 
ATOM      9  C   UNL     1      -2.481   3.911   2.618  1.00  0.00     0.189 A 
ATOM     10  N   UNL     1      -3.353   3.279   1.880  1.00  0.00    -0.224 NA
ATOM     11  S   UNL     1      -3.049   4.536   4.099  1.00  0.00    -0.105 S 
ATOM     12  C   UNL     1      -4.596   3.877   3.761  1.00  0.00     0.093 A 
BRANCH   9  13
ATOM     13  N   UNL     1      -1.158   4.130   2.393  1.00  0.00    -0.299 N 
ATOM     14  C   UNL     1      -0.464   3.849   1.259  1.00  0.00     0.264 C 
ATOM     15  O   UNL     1       0.759   4.040   1.269  1.00  0.00    -0.271 OA
ATOM     16  H   UNL     1      -0.648   4.536   3.131  1.00  0.00     0.172 HD
BRANCH  14  17
ATOM     17  C   UNL     1      -1.163   3.420  -0.042  1.00  0.00     0.329 C 
BRANCH  17  18
ATOM     18  O   UNL     1      -1.727   2.130  -0.153  1.00  0.00    -0.483 OA
BRANCH  18  19
ATOM     19  C   UNL     1      -0.922   1.027  -0.234  1.00  0.00     0.123 A 
ATOM     20  C   UNL     1       2.718  -0.096  -0.049  1.00  0.00     0.044 C 
ATOM     21  C   UNL     1       1.224  -0.129  -0.183  1.00  0.00    -0.047 A 
ATOM     22  C   UNL     1       0.564  -1.352  -0.299  1.00  0.00     0.004 A 
ATOM     23  C   UNL     1       0.475   1.056  -0.166  1.00  0.00     0.050 A 
ATOM     24  C   UNL     1      -0.825  -1.391  -0.409  1.00  0.00     0.008 A 
ATOM     25  C   UNL     1      -1.588  -0.210  -0.372  1.00  0.00    -0.003 A 
BRANCH  25  26
ATOM     26  C   UNL     1      -3.107  -0.285  -0.477  1.00  0.00     0.017 C 
ATOM     27  C   UNL     1      -3.551  -0.623  -1.901  1.00  0.00     0.012 C 
ATOM     28  C   UNL     1      -3.696  -1.292   0.515  1.00  0.00     0.012 C 
ENDBRANCH  25  26
ENDBRANCH  18  19
ENDBRANCH  17  18
ENDBRANCH  14  17
ENDBRANCH   9  13
ENDBRANCH   7   8
ENDBRANCH   4   7
ENDBRANCH   2   3
ENDBRANCH   1   2
BRANCH   1  29
ATOM     29  C   UNL     1      -3.846  -0.902   6.027  1.00  0.00     0.002 C 
BRANCH  29  30
ATOM     30  C   UNL     1      -3.737  -2.360   5.545  1.00  0.00     0.002 C 
BRANCH  30  31
ATOM     31  C   UNL     1      -2.459  -2.738   4.793  1.00  0.00     0.021 C 
BRANCH  31  32
ATOM     32  C   UNL     1      -1.192  -2.629   5.633  1.00  0.00     0.116 C 
BRANCH  32  33
ATOM     33  N   UNL     1      -0.624  -3.914   6.014  1.00  0.00    -0.352 N 
ATOM     34  C   UNL     1       0.588  -4.136   6.648  1.00  0.00     0.251 C 
ATOM     35  H   UNL     1      -1.159  -4.711   5.799  1.00  0.00     0.163 HD
ATOM     36  O   UNL     1       1.110  -5.235   6.709  1.00  0.00    -0.269 OA
BRANCH  34  37
ATOM     37  C   UNL     1       1.167  -2.988   7.377  1.00  0.00     0.039 A 
ATOM     38  C   UNL     1       1.118  -3.037   8.775  1.00  0.00     0.014 A 
ATOM     39  C   UNL     1       1.462  -1.805   6.706  1.00  0.00     0.014 A 
ATOM     40  C   UNL     1       1.198  -1.853   9.503  1.00  0.00     0.010 A 
ATOM     41  C   UNL     1       1.447  -0.623   7.423  1.00  0.00     0.010 A 
ATOM     42  C   UNL     1       1.267  -0.642   8.814  1.00  0.00    -0.014 A 
BRANCH  42  43
ATOM     43  C   UNL     1       1.091   0.658   9.454  1.00  0.00     0.031 A 
ATOM     44  C   UNL     1       2.265   1.530   9.685  1.00  0.00     0.074 A 
ATOM     45  C   UNL     1      -0.143   1.100   9.787  1.00  0.00     0.049 A 
ATOM     46  N   UNL     1       2.317   2.482  10.558  1.00  0.00    -0.248 NA
ATOM     47  C   UNL     1       3.526   1.333   8.978  1.00  0.00     0.031 C 
ATOM     48  C   UNL     1      -0.511   2.469  10.142  1.00  0.00     0.029 A 
ATOM     49  N   UNL     1      -1.282   0.354  10.098  1.00  0.00    -0.354 N 
ATOM     50  C   UNL     1       3.467   3.202  10.317  1.00  0.00     0.074 A 
ATOM     51  C   UNL     1       4.231   2.384   9.406  1.00  0.00     0.031 C 
ATOM     52  C   UNL     1      -1.622   2.431  10.892  1.00  0.00     0.029 A 
ATOM     53  C   UNL     1      -1.917   1.032  11.152  1.00  0.00     0.049 A 
ATOM     54  H   UNL     1      -1.579  -0.479   9.666  1.00  0.00     0.167 HD
ATOM     55  C   UNL     1       3.579   4.477  10.791  1.00  0.00     0.031 A 
ATOM     56  C   UNL     1      -2.157   0.494  12.383  1.00  0.00     0.031 A 
ATOM     57  C   UNL     1       2.475   4.821  11.689  1.00  0.00     0.049 A 
ATOM     58  C   UNL     1      -1.552   1.299  13.513  1.00  0.00     0.074 A 
ATOM     59  C   UNL     1       1.323   5.574  11.530  1.00  0.00     0.029 A 
ATOM     60  N   UNL     1       2.334   4.133  12.890  1.00  0.00    -0.354 N 
ATOM     61  N   UNL     1      -0.655   2.231  13.342  1.00  0.00    -0.248 NA
ATOM     62  C   UNL     1      -1.867   1.087  14.924  1.00  0.00     0.031 C 
ATOM     63  C   UNL     1       0.447   5.263  12.604  1.00  0.00     0.029 A 
ATOM     64  C   UNL     1       1.080   4.350  13.428  1.00  0.00     0.049 A 
ATOM     65  H   UNL     1       3.030   3.571  13.299  1.00  0.00     0.167 HD
ATOM     66  C   UNL     1      -0.266   2.727  14.558  1.00  0.00     0.074 A 
ATOM     67  C   UNL     1      -1.065   1.989  15.519  1.00  0.00     0.031 C 
ATOM     68  C   UNL     1       0.690   3.696  14.671  1.00  0.00     0.031 A 
BRANCH  55  69
ATOM     69  C   UNL     1       4.528   5.510  10.205  1.00  0.00    -0.014 A 
ATOM     70  C   UNL     1       4.239   6.885  10.345  1.00  0.00     0.010 A 
ATOM     71  C   UNL     1       5.665   5.205   9.434  1.00  0.00     0.010 A 
ATOM     72  C   UNL     1       4.970   7.878   9.670  1.00  0.00     0.020 A 
ATOM     73  C   UNL     1       6.388   6.179   8.729  1.00  0.00     0.020 A 
ATOM     74  C   UNL     1       6.024   7.514   8.837  1.00  0.00     0.054 A 
BRANCH  74  75
ATOM     75  S   UNL     1       6.902   8.786   7.893  1.00  0.00     0.124 S 
ATOM     76  O   UNL     1       5.828   9.395   7.112  1.00  0.00    -0.237 OA
ATOM     77  O   UNL     1       7.471   9.622   8.944  1.00  0.00    -0.237 OA
ATOM     78  O   UNL     1       7.876   8.027   7.110  1.00  0.00    -0.744 OA
ENDBRANCH  74  75
ENDBRANCH  55  69
BRANCH  56  79
ATOM     79  C   UNL     1      -2.333  -0.984  12.386  1.00  0.00    -0.014 A 
ATOM     80  C   UNL     1      -3.509  -1.494  11.797  1.00  0.00     0.010 A 
ATOM     81  C   UNL     1      -1.221  -1.830  12.536  1.00  0.00     0.010 A 
ATOM     82  C   UNL     1      -3.513  -2.759  11.204  1.00  0.00     0.020 A 
ATOM     83  C   UNL     1      -1.226  -3.102  11.945  1.00  0.00     0.020 A 
ATOM     84  C   UNL     1      -2.347  -3.524  11.224  1.00  0.00     0.054 A 
BRANCH  84  85
ATOM     85  S   UNL     1      -2.262  -4.977  10.134  1.00  0.00     0.124 S 
ATOM     86  O   UNL     1      -3.405  -5.769  10.577  1.00  0.00    -0.237 OA
ATOM     87  O   UNL     1      -2.394  -4.368   8.810  1.00  0.00    -0.237 OA
ATOM     88  O   UNL     1      -0.950  -5.542  10.432  1.00  0.00    -0.744 OA
ENDBRANCH  84  85
ENDBRANCH  56  79
BRANCH  68  89
ATOM     89  C   UNL     1       1.302   4.184  15.961  1.00  0.00    -0.014 A 
ATOM     90  C   UNL     1       1.397   3.412  17.129  1.00  0.00     0.010 A 
ATOM     91  C   UNL     1       1.937   5.450  15.974  1.00  0.00     0.010 A 
ATOM     92  C   UNL     1       2.038   3.904  18.277  1.00  0.00     0.020 A 
ATOM     93  C   UNL     1       2.613   5.932  17.098  1.00  0.00     0.020 A 
ATOM     94  C   UNL     1       2.638   5.164  18.256  1.00  0.00     0.054 A 
BRANCH  94  95
ATOM     95  S   UNL     1       3.520   5.768  19.718  1.00  0.00     0.124 S 
ATOM     96  O   UNL     1       2.458   6.454  20.448  1.00  0.00    -0.237 OA
ATOM     97  O   UNL     1       4.013   4.539  20.338  1.00  0.00    -0.237 OA
ATOM     98  O   UNL     1       4.557   6.631  19.157  1.00  0.00    -0.744 OA
ENDBRANCH  94  95
ENDBRANCH  68  89
ENDBRANCH  42  43
ENDBRANCH  34  37
ENDBRANCH  32  33
ENDBRANCH  31  32
ENDBRANCH  30  31
ENDBRANCH  29  30
ENDBRANCH   1  29
TORSDOF 22
