REMARK SMILES Cc1nn(CC(=O)NCCCCCCNC(=O)c2ccc(-c3c4nc(c(-c5ccc(S(=O)(=O)[O-])cc5)c5ccc([nH]5)c(-c5ccc(S(=O)(=O)[O-])cc5)c5nc(c(-c6ccc(S(=O)(=O)[O-])cc6)c6ccc3[nH]6)C=C5)C=C4)cc2)c(C)c1NC(=O)C(=O)Nc1ccc(F)cc1
REMARK SMILES IDX 11 1 10 2 9 3 8 4 6 5 7 6 5 8 4 9 1 10 2 11 3 12 80 13 78 14
REMARK SMILES IDX 79 15 81 16 82 17 83 19 84 20 85 21 86 22 87 24 88 25 93 26
REMARK SMILES IDX 89 27 92 28 90 29 91 30 12 31 13 32 14 33 15 34 16 35 17 37
REMARK SMILES IDX 18 38 19 39 77 40 20 41 76 42 21 43 22 44 23 45 70 46 24 47
REMARK SMILES IDX 75 48 69 49 71 50 25 51 74 52 68 53 67 54 26 56 56 57 37 58
REMARK SMILES IDX 55 59 38 60 41 61 54 62 72 63 39 64 40 65 53 67 73 68 42 69
REMARK SMILES IDX 27 70 28 71 36 72 29 73 35 74 30 75 31 76 32 77 33 78 34 79
REMARK SMILES IDX 57 80 58 81 66 82 59 83 65 84 60 85 61 86 62 87 63 88 64 89
REMARK SMILES IDX 43 90 44 91 52 92 45 93 51 94 46 95 47 96 48 97 49 98 50 99
REMARK H PARENT 8 7 81 18 86 23 15 36 71 55 41 66
REMARK Flexibility Score: inf
ROOT
ATOM      1  C   UNL     1      -0.402  -4.128  -5.031  1.00  0.00     0.002 C 
ENDROOT
BRANCH   1   2
ATOM      2  C   UNL     1      -0.664  -3.752  -3.570  1.00  0.00     0.021 C 
BRANCH   2   3
ATOM      3  C   UNL     1      -0.881  -4.957  -2.663  1.00  0.00     0.116 C 
BRANCH   3   4
ATOM      4  N   UNL     1       0.348  -5.670  -2.386  1.00  0.00    -0.354 N 
ATOM      5  C   UNL     1       1.126  -5.750  -1.271  1.00  0.00     0.241 C 
ATOM      6  O   UNL     1       2.132  -6.467  -1.375  1.00  0.00    -0.273 OA
ATOM      7  H   UNL     1       0.685  -6.196  -3.147  1.00  0.00     0.163 HD
BRANCH   5   8
ATOM      8  C   UNL     1       0.746  -5.192   0.085  1.00  0.00     0.244 C 
BRANCH   8   9
ATOM      9  N   UNL     1       0.205  -3.844   0.108  1.00  0.00    -0.258 N 
ATOM     10  C   UNL     1       0.939  -0.392  -0.033  1.00  0.00     0.071 C 
ATOM     11  C   UNL     1       0.305  -1.736   0.075  1.00  0.00     0.083 A 
ATOM     12  N   UNL     1       1.051  -2.828  -0.090  1.00  0.00    -0.175 NA
ATOM     13  C   UNL     1      -1.065  -2.055   0.344  1.00  0.00     0.086 A 
ATOM     14  C   UNL     1      -1.092  -3.443   0.386  1.00  0.00     0.060 A 
ATOM     15  C   UNL     1      -2.170  -4.455   0.571  1.00  0.00     0.069 C 
BRANCH  13  16
ATOM     16  N   UNL     1      -2.038  -1.074   0.464  1.00  0.00    -0.315 N 
ATOM     17  C   UNL     1      -3.354  -1.055   0.855  1.00  0.00     0.314 C 
ATOM     18  H   UNL     1      -1.708  -0.182   0.208  1.00  0.00     0.170 HD
ATOM     19  O   UNL     1      -4.005  -0.018   0.769  1.00  0.00    -0.263 OA
BRANCH  17  20
ATOM     20  C   UNL     1      -3.983  -2.276   1.496  1.00  0.00     0.314 C 
ATOM     21  O   UNL     1      -3.496  -2.741   2.524  1.00  0.00    -0.263 OA
ATOM     22  N   UNL     1      -5.077  -2.903   0.913  1.00  0.00    -0.318 N 
ATOM     23  H   UNL     1      -4.999  -3.851   0.658  1.00  0.00     0.170 HD
BRANCH  22  24
ATOM     24  C   UNL     1      -6.292  -2.235   0.672  1.00  0.00     0.041 A 
ATOM     25  C   UNL     1      -7.377  -2.636   1.465  1.00  0.00     0.029 A 
ATOM     26  C   UNL     1      -6.443  -1.190  -0.237  1.00  0.00     0.029 A 
ATOM     27  C   UNL     1      -8.569  -1.920   1.435  1.00  0.00     0.041 A 
ATOM     28  C   UNL     1      -7.649  -0.483  -0.279  1.00  0.00     0.041 A 
ATOM     29  C   UNL     1      -8.690  -0.839   0.573  1.00  0.00     0.123 A 
ATOM     30  F   UNL     1      -9.825  -0.130   0.570  1.00  0.00    -0.207 F 
ENDBRANCH  22  24
ENDBRANCH  17  20
ENDBRANCH  13  16
ENDBRANCH   8   9
ENDBRANCH   5   8
ENDBRANCH   3   4
ENDBRANCH   2   3
ENDBRANCH   1   2
BRANCH   1  31
ATOM     31  C   UNL     1      -1.460  -5.033  -5.686  1.00  0.00     0.002 C 
BRANCH  31  32
ATOM     32  C   UNL     1      -2.917  -4.550  -5.614  1.00  0.00     0.021 C 
BRANCH  32  33
ATOM     33  C   UNL     1      -3.171  -3.261  -6.377  1.00  0.00     0.116 C 
BRANCH  33  34
ATOM     34  N   UNL     1      -2.962  -3.415  -7.819  1.00  0.00    -0.352 N 
ATOM     35  C   UNL     1      -3.052  -2.455  -8.814  1.00  0.00     0.251 C 
ATOM     36  H   UNL     1      -2.725  -4.321  -8.121  1.00  0.00     0.163 HD
ATOM     37  O   UNL     1      -3.209  -2.773  -9.979  1.00  0.00    -0.269 OA
BRANCH  35  38
ATOM     38  C   UNL     1      -2.939  -1.038  -8.424  1.00  0.00     0.039 A 
ATOM     39  C   UNL     1      -3.715  -0.034  -9.012  1.00  0.00     0.014 A 
ATOM     40  C   UNL     1      -2.036  -0.737  -7.412  1.00  0.00     0.014 A 
ATOM     41  C   UNL     1      -3.615   1.265  -8.514  1.00  0.00     0.010 A 
ATOM     42  C   UNL     1      -2.100   0.475  -6.789  1.00  0.00     0.010 A 
ATOM     43  C   UNL     1      -2.809   1.503  -7.393  1.00  0.00    -0.014 A 
BRANCH  43  44
ATOM     44  C   UNL     1      -2.715   2.810  -6.760  1.00  0.00     0.031 A 
ATOM     45  C   UNL     1      -3.997   3.320  -6.208  1.00  0.00     0.074 A 
ATOM     46  C   UNL     1      -1.516   3.351  -6.444  1.00  0.00     0.049 A 
ATOM     47  N   UNL     1      -4.703   4.314  -6.632  1.00  0.00    -0.248 NA
ATOM     48  C   UNL     1      -4.661   2.529  -5.156  1.00  0.00     0.031 C 
ATOM     49  C   UNL     1      -0.178   2.759  -6.612  1.00  0.00     0.029 A 
ATOM     50  N   UNL     1      -1.241   4.491  -5.762  1.00  0.00    -0.354 N 
ATOM     51  C   UNL     1      -5.772   4.427  -5.745  1.00  0.00     0.074 A 
ATOM     52  C   UNL     1      -5.814   3.186  -5.017  1.00  0.00     0.031 C 
ATOM     53  C   UNL     1       0.710   3.409  -5.828  1.00  0.00     0.029 A 
ATOM     54  C   UNL     1       0.053   4.568  -5.254  1.00  0.00     0.049 A 
ATOM     55  H   UNL     1      -1.905   5.207  -5.636  1.00  0.00     0.167 HD
ATOM     56  C   UNL     1      -6.355   5.633  -5.486  1.00  0.00     0.031 A 
ATOM     57  C   UNL     1       0.537   5.500  -4.394  1.00  0.00     0.031 A 
ATOM     58  C   UNL     1      -5.916   6.635  -6.426  1.00  0.00     0.049 A 
ATOM     59  C   UNL     1      -0.392   6.656  -4.456  1.00  0.00     0.074 A 
ATOM     60  C   UNL     1      -5.984   6.786  -7.795  1.00  0.00     0.029 A 
ATOM     61  N   UNL     1      -4.922   7.485  -5.995  1.00  0.00    -0.354 N 
ATOM     62  N   UNL     1      -0.567   7.375  -5.531  1.00  0.00    -0.248 NA
ATOM     63  C   UNL     1      -1.478   6.705  -3.490  1.00  0.00     0.031 C 
ATOM     64  C   UNL     1      -4.726   7.348  -8.163  1.00  0.00     0.029 A 
ATOM     65  C   UNL     1      -3.994   7.588  -6.997  1.00  0.00     0.049 A 
ATOM     66  H   UNL     1      -4.885   7.939  -5.122  1.00  0.00     0.167 HD
ATOM     67  C   UNL     1      -1.934   7.612  -5.583  1.00  0.00     0.074 A 
ATOM     68  C   UNL     1      -2.429   7.257  -4.252  1.00  0.00     0.031 C 
ATOM     69  C   UNL     1      -2.577   7.795  -6.776  1.00  0.00     0.031 A 
BRANCH  56  70
ATOM     70  C   UNL     1      -6.951   6.024  -4.149  1.00  0.00    -0.014 A 
ATOM     71  C   UNL     1      -7.462   7.333  -4.007  1.00  0.00     0.010 A 
ATOM     72  C   UNL     1      -6.771   5.282  -2.965  1.00  0.00     0.010 A 
ATOM     73  C   UNL     1      -7.663   7.905  -2.745  1.00  0.00     0.020 A 
ATOM     74  C   UNL     1      -7.012   5.828  -1.702  1.00  0.00     0.020 A 
ATOM     75  C   UNL     1      -7.413   7.152  -1.599  1.00  0.00     0.054 A 
BRANCH  75  76
ATOM     76  S   UNL     1      -7.538   7.943   0.022  1.00  0.00     0.124 S 
ATOM     77  O   UNL     1      -6.447   8.911  -0.035  1.00  0.00    -0.237 OA
ATOM     78  O   UNL     1      -8.886   8.502  -0.011  1.00  0.00    -0.237 OA
ATOM     79  O   UNL     1      -7.348   6.836   0.957  1.00  0.00    -0.744 OA
ENDBRANCH  75  76
ENDBRANCH  56  70
BRANCH  57  80
ATOM     80  C   UNL     1       1.537   5.315  -3.310  1.00  0.00    -0.014 A 
ATOM     81  C   UNL     1       2.174   6.411  -2.699  1.00  0.00     0.010 A 
ATOM     82  C   UNL     1       1.667   4.056  -2.686  1.00  0.00     0.010 A 
ATOM     83  C   UNL     1       2.869   6.263  -1.483  1.00  0.00     0.020 A 
ATOM     84  C   UNL     1       2.360   3.900  -1.478  1.00  0.00     0.020 A 
ATOM     85  C   UNL     1       2.941   5.009  -0.870  1.00  0.00     0.054 A 
BRANCH  85  86
ATOM     86  S   UNL     1       3.690   4.849   0.781  1.00  0.00     0.124 S 
ATOM     87  O   UNL     1       5.109   5.042   0.499  1.00  0.00    -0.237 OA
ATOM     88  O   UNL     1       3.042   5.921   1.531  1.00  0.00    -0.237 OA
ATOM     89  O   UNL     1       3.317   3.496   1.194  1.00  0.00    -0.744 OA
ENDBRANCH  85  86
ENDBRANCH  57  80
BRANCH  69  90
ATOM     90  C   UNL     1      -1.749   8.016  -8.021  1.00  0.00    -0.014 A 
ATOM     91  C   UNL     1      -0.903   7.042  -8.590  1.00  0.00     0.010 A 
ATOM     92  C   UNL     1      -2.002   9.191  -8.750  1.00  0.00     0.010 A 
ATOM     93  C   UNL     1      -0.327   7.246  -9.855  1.00  0.00     0.020 A 
ATOM     94  C   UNL     1      -1.446   9.392 -10.014  1.00  0.00     0.020 A 
ATOM     95  C   UNL     1      -0.608   8.420 -10.561  1.00  0.00     0.054 A 
BRANCH  95  96
ATOM     96  S   UNL     1       0.070   8.652 -12.230  1.00  0.00     0.124 S 
ATOM     97  O   UNL     1       1.494   8.840 -11.970  1.00  0.00    -0.237 OA
ATOM     98  O   UNL     1      -0.288   7.406 -12.904  1.00  0.00    -0.237 OA
ATOM     99  O   UNL     1      -0.629   9.837 -12.729  1.00  0.00    -0.744 OA
ENDBRANCH  95  96
ENDBRANCH  69  90
ENDBRANCH  43  44
ENDBRANCH  35  38
ENDBRANCH  33  34
ENDBRANCH  32  33
ENDBRANCH  31  32
ENDBRANCH   1  31
TORSDOF 20
