REMARK SMILES O=C(NCCCCCCNC(=O)[C@H]1CC2=c3ccccc3=N[C@H]2[C@@H](c2ccccc2)[NH2+]1)c1ccc(-c2c3nc(c(-c4ccc(S(=O)(=O)[O-])cc4)c4ccc([nH]4)c(-c4ccc(S(=O)(=O)[O-])cc4)c4nc(c(-c5ccc(S(=O)(=O)[O-])cc5)c5ccc2[nH]5)C=C4)C=C3)cc1
REMARK SMILES IDX 5 1 4 2 3 3 1 4 2 5 32 7 33 8 91 9 34 10 90 11 35 12 36 13
REMARK SMILES IDX 37 14 84 15 38 16 89 17 83 18 85 19 39 20 88 21 82 22 81 23
REMARK SMILES IDX 40 25 70 26 51 27 69 28 52 29 55 30 68 31 86 32 53 33 54 34
REMARK SMILES IDX 67 36 87 37 56 38 41 39 42 40 50 41 43 42 49 43 44 44 45 45
REMARK SMILES IDX 46 46 47 47 48 48 71 49 72 50 80 51 73 52 79 53 74 54 75 55
REMARK SMILES IDX 76 56 77 57 78 58 57 59 58 60 66 61 59 62 65 63 60 64 61 65
REMARK SMILES IDX 62 66 63 67 64 68 6 69 7 70 8 71 9 72 10 73 11 74 12 76
REMARK SMILES IDX 13 77 14 78 31 79 15 80 24 81 16 84 23 85 17 86 21 87 22 88
REMARK SMILES IDX 18 89 20 90 19 91 25 92 26 93 30 94 27 95 29 96 28 97
REMARK H PARENT 3 6 85 24 55 35 10 75 31 82 31 83
REMARK Flexibility Score: inf
ROOT
ATOM      1  C   UNL     1       5.048   1.048   2.411  1.00  0.00     0.021 C 
ENDROOT
BRANCH   1   2
ATOM      2  C   UNL     1       4.691  -0.014   1.371  1.00  0.00     0.116 C 
BRANCH   2   3
ATOM      3  N   UNL     1       3.254  -0.149   1.183  1.00  0.00    -0.352 N 
ATOM      4  O   UNL     1       1.262  -0.025   0.150  1.00  0.00    -0.269 OA
ATOM      5  C   UNL     1       2.498  -0.045   0.045  1.00  0.00     0.251 C 
ATOM      6  H   UNL     1       2.745  -0.347   2.002  1.00  0.00     0.163 HD
BRANCH   5   7
ATOM      7  C   UNL     1       3.111   0.050  -1.301  1.00  0.00     0.039 A 
ATOM      8  C   UNL     1       2.505   0.868  -2.264  1.00  0.00     0.014 A 
ATOM      9  C   UNL     1       4.228  -0.712  -1.657  1.00  0.00     0.014 A 
ATOM     10  C   UNL     1       3.026   0.937  -3.561  1.00  0.00     0.010 A 
ATOM     11  C   UNL     1       4.791  -0.585  -2.928  1.00  0.00     0.010 A 
ATOM     12  C   UNL     1       4.181   0.217  -3.905  1.00  0.00    -0.014 A 
BRANCH  12  13
ATOM     13  C   UNL     1       4.718   0.229  -5.294  1.00  0.00     0.031 A 
ATOM     14  C   UNL     1       4.719  -1.042  -6.105  1.00  0.00     0.074 A 
ATOM     15  C   UNL     1       5.221   1.361  -5.825  1.00  0.00     0.049 A 
ATOM     16  N   UNL     1       5.191  -1.254  -7.308  1.00  0.00    -0.248 NA
ATOM     17  C   UNL     1       4.129  -2.237  -5.478  1.00  0.00     0.031 C 
ATOM     18  C   UNL     1       5.274   2.658  -5.149  1.00  0.00     0.029 A 
ATOM     19  N   UNL     1       5.777   1.607  -7.058  1.00  0.00    -0.354 N 
ATOM     20  C   UNL     1       4.962  -2.599  -7.574  1.00  0.00     0.074 A 
ATOM     21  C   UNL     1       4.368  -3.171  -6.388  1.00  0.00     0.031 C 
ATOM     22  C   UNL     1       5.795   3.568  -5.987  1.00  0.00     0.029 A 
ATOM     23  C   UNL     1       6.161   2.915  -7.243  1.00  0.00     0.049 A 
ATOM     24  H   UNL     1       5.889   0.911  -7.746  1.00  0.00     0.167 HD
ATOM     25  C   UNL     1       5.195  -3.290  -8.715  1.00  0.00     0.031 A 
ATOM     26  C   UNL     1       6.742   3.526  -8.298  1.00  0.00     0.031 A 
ATOM     27  C   UNL     1       5.760  -2.710  -9.905  1.00  0.00     0.049 A 
ATOM     28  C   UNL     1       7.036   2.728  -9.541  1.00  0.00     0.074 A 
ATOM     29  C   UNL     1       5.999  -3.323 -11.122  1.00  0.00     0.029 A 
ATOM     30  N   UNL     1       6.163  -1.390 -10.035  1.00  0.00    -0.354 N 
ATOM     31  N   UNL     1       6.782   1.464  -9.785  1.00  0.00    -0.248 NA
ATOM     32  C   UNL     1       7.685   3.435 -10.655  1.00  0.00     0.031 C 
ATOM     33  C   UNL     1       6.612  -2.395 -11.964  1.00  0.00     0.029 A 
ATOM     34  C   UNL     1       6.678  -1.178 -11.303  1.00  0.00     0.049 A 
ATOM     35  H   UNL     1       6.093  -0.705  -9.332  1.00  0.00     0.167 HD
ATOM     36  C   UNL     1       7.216   1.232 -11.086  1.00  0.00     0.074 A 
ATOM     37  C   UNL     1       7.735   2.488 -11.585  1.00  0.00     0.031 C 
ATOM     38  C   UNL     1       7.187   0.078 -11.798  1.00  0.00     0.031 A 
BRANCH  25  39
ATOM     39  C   UNL     1       4.817  -4.750  -8.757  1.00  0.00    -0.014 A 
ATOM     40  C   UNL     1       5.815  -5.728  -8.926  1.00  0.00     0.010 A 
ATOM     41  C   UNL     1       3.468  -5.147  -8.751  1.00  0.00     0.010 A 
ATOM     42  C   UNL     1       5.471  -7.068  -9.123  1.00  0.00     0.020 A 
ATOM     43  C   UNL     1       3.120  -6.491  -8.913  1.00  0.00     0.020 A 
ATOM     44  C   UNL     1       4.123  -7.439  -9.124  1.00  0.00     0.054 A 
BRANCH  44  45
ATOM     45  S   UNL     1       3.695  -9.178  -9.415  1.00  0.00     0.124 S 
ATOM     46  O   UNL     1       3.953  -9.324 -10.844  1.00  0.00    -0.237 OA
ATOM     47  O   UNL     1       4.616  -9.886  -8.530  1.00  0.00    -0.237 OA
ATOM     48  O   UNL     1       2.288  -9.254  -9.023  1.00  0.00    -0.744 OA
ENDBRANCH  44  45
ENDBRANCH  25  39
BRANCH  26  49
ATOM     49  C   UNL     1       7.032   4.987  -8.226  1.00  0.00    -0.014 A 
ATOM     50  C   UNL     1       7.987   5.487  -7.321  1.00  0.00     0.010 A 
ATOM     51  C   UNL     1       6.294   5.896  -9.005  1.00  0.00     0.010 A 
ATOM     52  C   UNL     1       8.151   6.864  -7.147  1.00  0.00     0.020 A 
ATOM     53  C   UNL     1       6.479   7.276  -8.858  1.00  0.00     0.020 A 
ATOM     54  C   UNL     1       7.383   7.750  -7.906  1.00  0.00     0.054 A 
BRANCH  54  55
ATOM     55  S   UNL     1       7.562   9.531  -7.609  1.00  0.00     0.124 S 
ATOM     56  O   UNL     1       6.886   9.689  -6.324  1.00  0.00    -0.237 OA
ATOM     57  O   UNL     1       9.011   9.705  -7.583  1.00  0.00    -0.237 OA
ATOM     58  O   UNL     1       6.883  10.139  -8.751  1.00  0.00    -0.744 OA
ENDBRANCH  54  55
ENDBRANCH  26  49
BRANCH  38  59
ATOM     59  C   UNL     1       7.723   0.086 -13.208  1.00  0.00    -0.014 A 
ATOM     60  C   UNL     1       6.852  -0.164 -14.286  1.00  0.00     0.010 A 
ATOM     61  C   UNL     1       9.105   0.174 -13.454  1.00  0.00     0.010 A 
ATOM     62  C   UNL     1       7.354  -0.378 -15.572  1.00  0.00     0.020 A 
ATOM     63  C   UNL     1       9.609  -0.006 -14.746  1.00  0.00     0.020 A 
ATOM     64  C   UNL     1       8.732  -0.312 -15.790  1.00  0.00     0.054 A 
BRANCH  64  65
ATOM     65  S   UNL     1       9.370  -0.656 -17.453  1.00  0.00     0.124 S 
ATOM     66  O   UNL     1       9.213  -2.104 -17.550  1.00  0.00    -0.237 OA
ATOM     67  O   UNL     1       8.484   0.132 -18.306  1.00  0.00    -0.237 OA
ATOM     68  O   UNL     1      10.751  -0.181 -17.396  1.00  0.00    -0.744 OA
ENDBRANCH  64  65
ENDBRANCH  38  59
ENDBRANCH  12  13
ENDBRANCH   5   7
ENDBRANCH   2   3
ENDBRANCH   1   2
BRANCH   1  69
ATOM     69  C   UNL     1       4.676   0.717   3.861  1.00  0.00     0.002 C 
BRANCH  69  70
ATOM     70  C   UNL     1       5.295  -0.559   4.452  1.00  0.00     0.002 C 
BRANCH  70  71
ATOM     71  C   UNL     1       6.827  -0.646   4.400  1.00  0.00     0.021 C 
BRANCH  71  72
ATOM     72  C   UNL     1       7.559   0.293   5.370  1.00  0.00     0.116 C 
BRANCH  72  73
ATOM     73  N   UNL     1       7.841  -0.368   6.646  1.00  0.00    -0.351 N 
ATOM     74  C   UNL     1       8.953  -0.455   7.441  1.00  0.00     0.278 C 
ATOM     75  H   UNL     1       7.066  -0.855   7.010  1.00  0.00     0.163 HD
ATOM     76  O   UNL     1       8.984  -1.438   8.197  1.00  0.00    -0.268 OA
BRANCH  74  77
ATOM     77  C   UNL     1      10.049   0.645   7.598  1.00  0.00     0.277 C 
ATOM     78  C   UNL     1      11.534   0.112   7.681  1.00  0.00     0.109 C 
ATOM     79  N   UNL     1       9.870   1.826   6.746  1.00  0.00    -0.327 N 
ATOM     80  C   UNL     1      12.211  -0.062   6.312  1.00  0.00    -0.024 C 
ATOM     81  C   UNL     1      10.945   1.953   5.758  1.00  0.00     0.243 C 
ATOM     82  H   UNL     1       9.863   2.659   7.335  1.00  0.00     0.347 HD
ATOM     83  H   UNL     1       8.989   1.723   6.244  1.00  0.00     0.347 HD
ATOM     84  C   UNL     1      12.586  -1.265   5.889  1.00  0.00     0.002 A 
ATOM     85  C   UNL     1      11.513   0.623   5.161  1.00  0.00     0.196 C 
ATOM     86  C   UNL     1      13.331  -2.289   6.545  1.00  0.00     0.010 A 
ATOM     87  C   UNL     1      11.304  -1.543   5.176  1.00  0.00     0.066 A 
ATOM     88  N   UNL     1      10.628  -0.508   4.720  1.00  0.00    -0.270 NA
ATOM     89  C   UNL     1      12.883  -3.549   6.524  1.00  0.00     0.001 A 
ATOM     90  C   UNL     1      10.849  -2.962   5.258  1.00  0.00     0.028 A 
ATOM     91  C   UNL     1      11.598  -3.864   5.928  1.00  0.00     0.002 A 
BRANCH  81  92
ATOM     92  C   UNL     1      10.871   3.263   4.985  1.00  0.00     0.012 A 
ATOM     93  C   UNL     1      10.731   4.441   5.761  1.00  0.00     0.010 A 
ATOM     94  C   UNL     1      11.166   3.402   3.628  1.00  0.00     0.010 A 
ATOM     95  C   UNL     1      10.946   5.706   5.224  1.00  0.00     0.001 A 
ATOM     96  C   UNL     1      11.377   4.679   3.087  1.00  0.00     0.001 A 
ATOM     97  C   UNL     1      11.287   5.823   3.885  1.00  0.00     0.000 A 
ENDBRANCH  81  92
ENDBRANCH  74  77
ENDBRANCH  72  73
ENDBRANCH  71  72
ENDBRANCH  70  71
ENDBRANCH  69  70
ENDBRANCH   1  69
TORSDOF 17
