REMARK SMILES CCCCCN(C(=O)N1CCC(CC(=O)NCCCCCCNC(=O)c2ccc(-c3c4nc(c(-c5ccc(S(=O)(=O)[O-])cc5)c5ccc([nH]5)c(-c5ccc(S(=O)(=O)[O-])cc5)c5nc(c(-c6ccc(S(=O)(=O)[O-])cc6)c6ccc3[nH]6)C=C5)C=C4)cc2)CC1)C(C)C
REMARK SMILES IDX 18 1 17 2 16 3 14 4 15 5 13 7 12 8 7 9 8 10 9 11 10 12 87 13
REMARK SMILES IDX 11 14 86 15 6 16 5 17 4 18 3 19 2 20 1 21 88 22 89 23 90 24
REMARK SMILES IDX 19 25 20 26 21 27 22 28 23 29 24 30 25 32 26 33 27 34 85 35
REMARK SMILES IDX 28 36 84 37 29 38 30 39 31 40 78 41 32 42 83 43 77 44 79 45
REMARK SMILES IDX 33 46 82 47 76 48 75 49 34 51 64 52 45 53 63 54 46 55 49 56
REMARK SMILES IDX 62 57 80 58 47 59 48 60 61 62 81 63 50 64 35 65 36 66 44 67
REMARK SMILES IDX 37 68 43 69 38 70 39 71 40 72 41 73 42 74 65 75 66 76 74 77
REMARK SMILES IDX 67 78 73 79 68 80 69 81 70 82 71 83 72 84 51 85 52 86 60 87
REMARK SMILES IDX 53 88 59 89 54 90 55 91 56 92 57 93 58 94
REMARK H PARENT 16 6 23 31 79 50 49 61
REMARK Flexibility Score: inf
ROOT
ATOM      1  C   UNL     1      -4.274   3.037  -9.420  1.00  0.00     0.021 C 
ENDROOT
BRANCH   1   2
ATOM      2  C   UNL     1      -5.669   2.676  -8.899  1.00  0.00     0.116 C 
BRANCH   2   3
ATOM      3  N   UNL     1      -5.976   1.281  -9.174  1.00  0.00    -0.356 N 
ATOM      4  C   UNL     1      -6.076   0.219  -8.325  1.00  0.00     0.220 C 
ATOM      5  O   UNL     1      -6.234  -0.905  -8.806  1.00  0.00    -0.275 OA
ATOM      6  H   UNL     1      -6.138   1.070 -10.122  1.00  0.00     0.163 HD
BRANCH   4   7
ATOM      7  C   UNL     1      -6.008   0.417  -6.819  1.00  0.00     0.103 C 
BRANCH   7   8
ATOM      8  C   UNL     1      -4.612   0.180  -6.211  1.00  0.00     0.002 C 
ATOM      9  C   UNL     1      -2.123   2.334  -3.899  1.00  0.00     0.320 C 
ATOM     10  O   UNL     1      -2.274   3.411  -4.478  1.00  0.00    -0.248 OA
ATOM     11  N   UNL     1      -2.408   1.145  -4.548  1.00  0.00    -0.325 N 
ATOM     12  C   UNL     1      -2.250   1.100  -5.987  1.00  0.00     0.121 C 
ATOM     13  C   UNL     1      -3.322   0.148  -3.997  1.00  0.00     0.121 C 
ATOM     14  C   UNL     1      -3.592   1.218  -6.690  1.00  0.00     0.026 C 
ATOM     15  C   UNL     1      -4.697   0.205  -4.673  1.00  0.00     0.026 C 
BRANCH   9  16
ATOM     16  N   UNL     1      -1.642   2.248  -2.591  1.00  0.00    -0.322 N 
BRANCH  16  17
ATOM     17  C   UNL     1      -0.926   1.060  -2.086  1.00  0.00     0.121 C 
BRANCH  17  18
ATOM     18  C   UNL     1       0.567   0.966  -2.451  1.00  0.00     0.022 C 
BRANCH  18  19
ATOM     19  C   UNL     1       1.603   1.405  -1.405  1.00  0.00     0.002 C 
BRANCH  19  20
ATOM     20  C   UNL     1       1.311   1.050   0.054  1.00  0.00    -0.003 C 
ATOM     21  C   UNL     1       1.340  -0.445   0.325  1.00  0.00     0.004 C 
ENDBRANCH  19  20
ENDBRANCH  18  19
ENDBRANCH  17  18
ENDBRANCH  16  17
BRANCH  16  22
ATOM     22  C   UNL     1      -1.660   3.500  -1.800  1.00  0.00     0.080 C 
ATOM     23  C   UNL     1      -2.262   3.312  -0.407  1.00  0.00     0.031 C 
ATOM     24  C   UNL     1      -0.309   4.206  -1.726  1.00  0.00     0.031 C 
ENDBRANCH  16  22
ENDBRANCH   9  16
ENDBRANCH   7   8
ENDBRANCH   4   7
ENDBRANCH   2   3
ENDBRANCH   1   2
BRANCH   1  25
ATOM     25  C   UNL     1      -4.256   3.655 -10.816  1.00  0.00     0.002 C 
BRANCH  25  26
ATOM     26  C   UNL     1      -4.856   5.059 -10.908  1.00  0.00     0.002 C 
BRANCH  26  27
ATOM     27  C   UNL     1      -4.267   6.095  -9.944  1.00  0.00     0.021 C 
BRANCH  27  28
ATOM     28  C   UNL     1      -2.747   6.237  -9.983  1.00  0.00     0.116 C 
BRANCH  28  29
ATOM     29  N   UNL     1      -2.269   6.593 -11.308  1.00  0.00    -0.352 N 
ATOM     30  C   UNL     1      -1.558   7.690 -11.720  1.00  0.00     0.251 C 
ATOM     31  H   UNL     1      -2.490   5.948 -12.018  1.00  0.00     0.163 HD
ATOM     32  O   UNL     1      -1.450   7.923 -12.921  1.00  0.00    -0.269 OA
BRANCH  30  33
ATOM     33  C   UNL     1      -0.923   8.592 -10.733  1.00  0.00     0.039 A 
ATOM     34  C   UNL     1      -0.953   9.970 -10.966  1.00  0.00     0.014 A 
ATOM     35  C   UNL     1      -0.238   8.086  -9.623  1.00  0.00     0.014 A 
ATOM     36  C   UNL     1      -0.313  10.839 -10.080  1.00  0.00     0.010 A 
ATOM     37  C   UNL     1       0.341   8.959  -8.704  1.00  0.00     0.010 A 
ATOM     38  C   UNL     1       0.335  10.341  -8.938  1.00  0.00    -0.014 A 
BRANCH  38  39
ATOM     39  C   UNL     1       1.065  11.252  -8.020  1.00  0.00     0.031 A 
ATOM     40  C   UNL     1       2.565  11.159  -7.908  1.00  0.00     0.074 A 
ATOM     41  C   UNL     1       0.385  12.144  -7.275  1.00  0.00     0.049 A 
ATOM     42  N   UNL     1       3.382  11.857  -7.161  1.00  0.00    -0.248 NA
ATOM     43  C   UNL     1       3.232  10.131  -8.725  1.00  0.00     0.031 C 
ATOM     44  C   UNL     1      -1.071  12.308  -7.267  1.00  0.00     0.029 A 
ATOM     45  N   UNL     1       0.829  13.084  -6.380  1.00  0.00    -0.354 N 
ATOM     46  C   UNL     1       4.652  11.344  -7.406  1.00  0.00     0.074 A 
ATOM     47  C   UNL     1       4.491  10.242  -8.329  1.00  0.00     0.031 C 
ATOM     48  C   UNL     1      -1.395  13.309  -6.433  1.00  0.00     0.029 A 
ATOM     49  C   UNL     1      -0.178  13.838  -5.826  1.00  0.00     0.049 A 
ATOM     50  H   UNL     1       1.780  13.207  -6.155  1.00  0.00     0.167 HD
ATOM     51  C   UNL     1       5.847  11.764  -6.926  1.00  0.00     0.031 A 
ATOM     52  C   UNL     1      -0.126  14.848  -4.935  1.00  0.00     0.031 A 
ATOM     53  C   UNL     1       6.006  12.870  -6.021  1.00  0.00     0.049 A 
ATOM     54  C   UNL     1       1.214  15.309  -4.429  1.00  0.00     0.074 A 
ATOM     55  C   UNL     1       7.175  13.402  -5.505  1.00  0.00     0.029 A 
ATOM     56  N   UNL     1       4.962  13.622  -5.503  1.00  0.00    -0.354 N 
ATOM     57  N   UNL     1       2.408  14.843  -4.710  1.00  0.00    -0.248 NA
ATOM     58  C   UNL     1       1.215  16.450  -3.503  1.00  0.00     0.031 C 
ATOM     59  C   UNL     1       6.835  14.453  -4.646  1.00  0.00     0.029 A 
ATOM     60  C   UNL     1       5.458  14.610  -4.669  1.00  0.00     0.049 A 
ATOM     61  H   UNL     1       4.008  13.475  -5.699  1.00  0.00     0.167 HD
ATOM     62  C   UNL     1       3.304  15.657  -4.026  1.00  0.00     0.074 A 
ATOM     63  C   UNL     1       2.514  16.650  -3.325  1.00  0.00     0.031 C 
ATOM     64  C   UNL     1       4.658  15.594  -3.987  1.00  0.00     0.031 A 
BRANCH  51  65
ATOM     65  C   UNL     1       7.076  11.018  -7.375  1.00  0.00    -0.014 A 
ATOM     66  C   UNL     1       7.538  11.112  -8.701  1.00  0.00     0.010 A 
ATOM     67  C   UNL     1       7.795  10.231  -6.457  1.00  0.00     0.010 A 
ATOM     68  C   UNL     1       8.666  10.397  -9.112  1.00  0.00     0.020 A 
ATOM     69  C   UNL     1       8.941   9.538  -6.857  1.00  0.00     0.020 A 
ATOM     70  C   UNL     1       9.358   9.610  -8.188  1.00  0.00     0.054 A 
BRANCH  70  71
ATOM     71  S   UNL     1      10.828   8.704  -8.744  1.00  0.00     0.124 S 
ATOM     72  O   UNL     1      10.235   7.613  -9.514  1.00  0.00    -0.237 OA
ATOM     73  O   UNL     1      11.548   9.706  -9.525  1.00  0.00    -0.237 OA
ATOM     74  O   UNL     1      11.480   8.304  -7.499  1.00  0.00    -0.744 OA
ENDBRANCH  70  71
ENDBRANCH  51  65
BRANCH  52  75
ATOM     75  C   UNL     1      -1.380  15.518  -4.496  1.00  0.00    -0.014 A 
ATOM     76  C   UNL     1      -1.677  16.825  -4.923  1.00  0.00     0.010 A 
ATOM     77  C   UNL     1      -2.288  14.851  -3.654  1.00  0.00     0.010 A 
ATOM     78  C   UNL     1      -2.847  17.461  -4.498  1.00  0.00     0.020 A 
ATOM     79  C   UNL     1      -3.472  15.474  -3.248  1.00  0.00     0.020 A 
ATOM     80  C   UNL     1      -3.737  16.781  -3.663  1.00  0.00     0.054 A 
BRANCH  80  81
ATOM     81  S   UNL     1      -5.271  17.609  -3.158  1.00  0.00     0.124 S 
ATOM     82  O   UNL     1      -4.790  18.558  -2.160  1.00  0.00    -0.237 OA
ATOM     83  O   UNL     1      -5.744  18.193  -4.411  1.00  0.00    -0.237 OA
ATOM     84  O   UNL     1      -6.094  16.517  -2.640  1.00  0.00    -0.744 OA
ENDBRANCH  80  81
ENDBRANCH  52  75
BRANCH  64  85
ATOM     85  C   UNL     1       5.376  16.660  -3.204  1.00  0.00    -0.014 A 
ATOM     86  C   UNL     1       5.354  16.680  -1.798  1.00  0.00     0.010 A 
ATOM     87  C   UNL     1       6.117  17.638  -3.893  1.00  0.00     0.010 A 
ATOM     88  C   UNL     1       6.026  17.685  -1.097  1.00  0.00     0.020 A 
ATOM     89  C   UNL     1       6.813  18.627  -3.195  1.00  0.00     0.020 A 
ATOM     90  C   UNL     1       6.747  18.655  -1.800  1.00  0.00     0.054 A 
BRANCH  90  91
ATOM     91  S   UNL     1       7.632  19.935  -0.869  1.00  0.00     0.124 S 
ATOM     92  O   UNL     1       6.545  20.820  -0.461  1.00  0.00    -0.237 OA
ATOM     93  O   UNL     1       8.261  19.174   0.208  1.00  0.00    -0.237 OA
ATOM     94  O   UNL     1       8.559  20.497  -1.849  1.00  0.00    -0.744 OA
ENDBRANCH  90  91
ENDBRANCH  64  85
ENDBRANCH  38  39
ENDBRANCH  30  33
ENDBRANCH  28  29
ENDBRANCH  27  28
ENDBRANCH  26  27
ENDBRANCH  25  26
ENDBRANCH   1  25
TORSDOF 23
