REMARK SMILES O=C(NCCCCCCNC(=O)[C@H]1CC=CC[C@H]1C(=O)N[C@@H]1CCN(c2cccc(Cl)c2)C1)c1ccc(-c2c3nc(c(-c4ccc(S(=O)(=O)[O-])cc4)c4ccc([nH]4)c(-c4ccc(S(=O)(=O)[O-])cc4)c4nc(c(-c5ccc(S(=O)(=O)[O-])cc5)c5ccc2[nH]5)C=C4)C=C3)cc1
REMARK SMILES IDX 6 1 5 2 4 3 3 4 1 5 2 6 34 8 35 9 93 10 36 11 92 12 37 13
REMARK SMILES IDX 38 14 39 15 86 16 40 17 91 18 85 19 87 20 41 21 90 22 84 23
REMARK SMILES IDX 83 24 42 26 72 27 53 28 71 29 54 30 57 31 70 32 88 33 55 34
REMARK SMILES IDX 56 35 69 37 89 38 58 39 43 40 44 41 52 42 45 43 51 44 46 45
REMARK SMILES IDX 47 46 48 47 49 48 50 49 73 50 74 51 82 52 75 53 81 54 76 55
REMARK SMILES IDX 77 56 78 57 79 58 80 59 59 60 60 61 68 62 61 63 67 64 62 65
REMARK SMILES IDX 63 66 64 67 65 68 66 69 7 70 8 71 9 72 10 73 11 74 12 76
REMARK SMILES IDX 13 77 14 78 18 79 15 80 17 81 16 82 19 83 20 84 21 85 22 87
REMARK SMILES IDX 23 88 33 89 24 90 25 91 26 92 27 93 32 94 28 95 30 96 29 97
REMARK SMILES IDX 31 98
REMARK H PARENT 3 7 87 25 57 36 10 75 21 86
REMARK Flexibility Score: inf
ROOT
ATOM      1  C   UNL     1       4.327  -3.764  -0.797  1.00  0.00     0.002 C 
ENDROOT
BRANCH   1   2
ATOM      2  C   UNL     1       4.697  -2.590   0.104  1.00  0.00     0.021 C 
BRANCH   2   3
ATOM      3  C   UNL     1       4.480  -1.211  -0.501  1.00  0.00     0.116 C 
BRANCH   3   4
ATOM      4  N   UNL     1       3.075  -0.886  -0.673  1.00  0.00    -0.352 N 
ATOM      5  O   UNL     1       1.142   0.215  -0.302  1.00  0.00    -0.269 OA
ATOM      6  C   UNL     1       2.360   0.181  -0.175  1.00  0.00     0.251 C 
ATOM      7  H   UNL     1       2.560  -1.518  -1.225  1.00  0.00     0.163 HD
BRANCH   6   8
ATOM      8  C   UNL     1       3.065   1.268   0.545  1.00  0.00     0.039 A 
ATOM      9  C   UNL     1       4.255   1.803   0.048  1.00  0.00     0.014 A 
ATOM     10  C   UNL     1       2.532   1.747   1.745  1.00  0.00     0.014 A 
ATOM     11  C   UNL     1       4.995   2.686   0.829  1.00  0.00     0.010 A 
ATOM     12  C   UNL     1       3.234   2.704   2.486  1.00  0.00     0.010 A 
ATOM     13  C   UNL     1       4.495   3.148   2.057  1.00  0.00    -0.014 A 
BRANCH  13  14
ATOM     14  C   UNL     1       5.299   4.111   2.856  1.00  0.00     0.031 A 
ATOM     15  C   UNL     1       5.837   3.740   4.213  1.00  0.00     0.074 A 
ATOM     16  C   UNL     1       5.581   5.319   2.329  1.00  0.00     0.049 A 
ATOM     17  N   UNL     1       6.603   4.440   5.013  1.00  0.00    -0.248 NA
ATOM     18  C   UNL     1       5.465   2.421   4.747  1.00  0.00     0.031 C 
ATOM     19  C   UNL     1       5.114   5.801   1.026  1.00  0.00     0.029 A 
ATOM     20  N   UNL     1       6.349   6.350   2.807  1.00  0.00    -0.354 N 
ATOM     21  C   UNL     1       6.780   3.663   6.153  1.00  0.00     0.074 A 
ATOM     22  C   UNL     1       6.026   2.445   5.949  1.00  0.00     0.031 C 
ATOM     23  C   UNL     1       5.655   7.004   0.782  1.00  0.00     0.029 A 
ATOM     24  C   UNL     1       6.457   7.405   1.932  1.00  0.00     0.049 A 
ATOM     25  H   UNL     1       6.782   6.336   3.691  1.00  0.00     0.167 HD
ATOM     26  C   UNL     1       7.505   3.937   7.265  1.00  0.00     0.031 A 
ATOM     27  C   UNL     1       7.123   8.570   2.039  1.00  0.00     0.031 A 
ATOM     28  C   UNL     1       8.264   5.145   7.462  1.00  0.00     0.049 A 
ATOM     29  C   UNL     1       7.917   8.849   3.281  1.00  0.00     0.074 A 
ATOM     30  C   UNL     1       9.060   5.496   8.540  1.00  0.00     0.029 A 
ATOM     31  N   UNL     1       8.322   6.200   6.564  1.00  0.00    -0.354 N 
ATOM     32  N   UNL     1       8.096   8.085   4.332  1.00  0.00    -0.248 NA
ATOM     33  C   UNL     1       8.604  10.145   3.349  1.00  0.00     0.031 C 
ATOM     34  C   UNL     1       9.564   6.782   8.312  1.00  0.00     0.029 A 
ATOM     35  C   UNL     1       9.124   7.210   7.071  1.00  0.00     0.049 A 
ATOM     36  H   UNL     1       7.860   6.228   5.695  1.00  0.00     0.167 HD
ATOM     37  C   UNL     1       8.937   8.799   5.177  1.00  0.00     0.074 A 
ATOM     38  C   UNL     1       9.241  10.049   4.508  1.00  0.00     0.031 C 
ATOM     39  C   UNL     1       9.417   8.449   6.396  1.00  0.00     0.031 A 
BRANCH  26  40
ATOM     40  C   UNL     1       7.485   2.920   8.378  1.00  0.00    -0.014 A 
ATOM     41  C   UNL     1       8.164   1.694   8.262  1.00  0.00     0.010 A 
ATOM     42  C   UNL     1       6.802   3.213   9.573  1.00  0.00     0.010 A 
ATOM     43  C   UNL     1       8.123   0.761   9.303  1.00  0.00     0.020 A 
ATOM     44  C   UNL     1       6.778   2.293  10.626  1.00  0.00     0.020 A 
ATOM     45  C   UNL     1       7.422   1.064  10.475  1.00  0.00     0.054 A 
BRANCH  45  46
ATOM     46  S   UNL     1       7.386  -0.162  11.812  1.00  0.00     0.124 S 
ATOM     47  O   UNL     1       6.434  -1.142  11.293  1.00  0.00    -0.237 OA
ATOM     48  O   UNL     1       8.774  -0.611  11.877  1.00  0.00    -0.237 OA
ATOM     49  O   UNL     1       6.926   0.601  12.970  1.00  0.00    -0.744 OA
ENDBRANCH  45  46
ENDBRANCH  26  40
BRANCH  27  50
ATOM     50  C   UNL     1       7.075   9.550   0.921  1.00  0.00    -0.014 A 
ATOM     51  C   UNL     1       8.207   9.770   0.118  1.00  0.00     0.010 A 
ATOM     52  C   UNL     1       5.885  10.243   0.635  1.00  0.00     0.010 A 
ATOM     53  C   UNL     1       8.152  10.673  -0.947  1.00  0.00     0.020 A 
ATOM     54  C   UNL     1       5.819  11.127  -0.445  1.00  0.00     0.020 A 
ATOM     55  C   UNL     1       6.957  11.344  -1.224  1.00  0.00     0.054 A 
BRANCH  55  56
ATOM     56  S   UNL     1       6.889  12.463  -2.650  1.00  0.00     0.124 S 
ATOM     57  O   UNL     1       7.598  13.636  -2.147  1.00  0.00    -0.237 OA
ATOM     58  O   UNL     1       7.582  11.700  -3.685  1.00  0.00    -0.237 OA
ATOM     59  O   UNL     1       5.457  12.642  -2.873  1.00  0.00    -0.744 OA
ENDBRANCH  55  56
ENDBRANCH  27  50
BRANCH  39  60
ATOM     60  C   UNL     1      10.356   9.415   7.065  1.00  0.00    -0.014 A 
ATOM     61  C   UNL     1       9.892  10.619   7.622  1.00  0.00     0.010 A 
ATOM     62  C   UNL     1      11.723   9.096   7.158  1.00  0.00     0.010 A 
ATOM     63  C   UNL     1      10.787  11.508   8.225  1.00  0.00     0.020 A 
ATOM     64  C   UNL     1      12.616   9.970   7.782  1.00  0.00     0.020 A 
ATOM     65  C   UNL     1      12.145  11.180   8.296  1.00  0.00     0.054 A 
BRANCH  65  66
ATOM     66  S   UNL     1      13.286  12.336   9.102  1.00  0.00     0.124 S 
ATOM     67  O   UNL     1      13.454  13.361   8.076  1.00  0.00    -0.237 OA
ATOM     68  O   UNL     1      12.542  12.750  10.289  1.00  0.00    -0.237 OA
ATOM     69  O   UNL     1      14.469  11.521   9.370  1.00  0.00    -0.744 OA
ENDBRANCH  65  66
ENDBRANCH  39  60
ENDBRANCH  13  14
ENDBRANCH   6   8
ENDBRANCH   3   4
ENDBRANCH   2   3
ENDBRANCH   1   2
BRANCH   1  70
ATOM     70  C   UNL     1       5.019  -3.818  -2.164  1.00  0.00     0.002 C 
BRANCH  70  71
ATOM     71  C   UNL     1       6.549  -3.687  -2.181  1.00  0.00     0.021 C 
BRANCH  71  72
ATOM     72  C   UNL     1       7.316  -4.557  -1.186  1.00  0.00     0.116 C 
BRANCH  72  73
ATOM     73  N   UNL     1       6.940  -5.953  -1.258  1.00  0.00    -0.356 N 
ATOM     74  C   UNL     1       7.663  -7.045  -1.624  1.00  0.00     0.224 C 
ATOM     75  H   UNL     1       6.009  -6.143  -1.001  1.00  0.00     0.163 HD
ATOM     76  O   UNL     1       7.137  -8.145  -1.445  1.00  0.00    -0.275 OA
BRANCH  74  77
ATOM     77  C   UNL     1       9.064  -6.867  -2.194  1.00  0.00     0.095 C 
ATOM     78  C   UNL     1      10.030  -7.030  -0.996  1.00  0.00     0.041 C 
ATOM     79  C   UNL     1       9.469  -7.867  -3.293  1.00  0.00     0.095 C 
ATOM     80  C   UNL     1      10.301  -8.474  -0.647  1.00  0.00    -0.030 C 
ATOM     81  C   UNL     1       9.434  -9.328  -2.846  1.00  0.00     0.041 C 
ATOM     82  C   UNL     1      10.015  -9.501  -1.465  1.00  0.00    -0.030 C 
BRANCH  79  83
ATOM     83  C   UNL     1       8.988  -7.581  -4.719  1.00  0.00     0.224 C 
ATOM     84  O   UNL     1       9.810  -7.185  -5.558  1.00  0.00    -0.275 OA
ATOM     85  N   UNL     1       7.724  -7.726  -5.181  1.00  0.00    -0.351 N 
ATOM     86  H   UNL     1       7.628  -7.533  -6.142  1.00  0.00     0.163 HD
BRANCH  85  87
ATOM     87  C   UNL     1       6.479  -8.110  -4.534  1.00  0.00     0.103 C 
ATOM     88  C   UNL     1       6.296  -9.624  -4.444  1.00  0.00     0.048 C 
ATOM     89  C   UNL     1       5.207  -7.572  -5.240  1.00  0.00     0.141 C 
ATOM     90  C   UNL     1       5.197  -9.965  -5.435  1.00  0.00     0.119 C 
ATOM     91  N   UNL     1       4.397  -8.757  -5.507  1.00  0.00    -0.369 N 
BRANCH  91  92
ATOM     92  C   UNL     1       3.030  -8.712  -5.370  1.00  0.00     0.038 A 
ATOM     93  C   UNL     1       2.337  -9.575  -4.509  1.00  0.00     0.026 A 
ATOM     94  C   UNL     1       2.277  -7.774  -6.088  1.00  0.00     0.046 A 
ATOM     95  C   UNL     1       0.945  -9.518  -4.377  1.00  0.00     0.004 A 
ATOM     96  C   UNL     1       0.886  -7.728  -5.975  1.00  0.00     0.043 A 
ATOM     97  C   UNL     1       0.215  -8.597  -5.121  1.00  0.00     0.020 A 
ATOM     98  Cl  UNL     1      -0.011  -6.596  -6.913  1.00  0.00    -0.084 Cl
ENDBRANCH  91  92
ENDBRANCH  85  87
ENDBRANCH  79  83
ENDBRANCH  74  77
ENDBRANCH  72  73
ENDBRANCH  71  72
ENDBRANCH  70  71
ENDBRANCH   1  70
TORSDOF 19
