REMARK SMILES COc1ccc2cc([C@@H](C)C(=O)NCCCCCCNC(=O)c3ccc(-c4c5nc(c(-c6ccc(S(=O)(=O)[O-])cc6)c6ccc([nH]6)c(-c6ccc(S(=O)(=O)[O-])cc6)c6nc(c(-c7ccc(S(=O)(=O)[O-])cc7)c7ccc4[nH]7)C=C6)C=C5)cc3)ccc2c1
REMARK SMILES IDX 17 1 16 2 15 3 14 4 13 5 11 6 12 7 9 9 10 10 8 11 3 12 4 13
REMARK SMILES IDX 86 14 5 15 85 16 6 17 84 18 7 19 83 20 2 21 1 22 18 23 19 24
REMARK SMILES IDX 20 25 21 26 22 28 23 29 24 30 82 31 25 32 81 33 26 34 27 35
REMARK SMILES IDX 28 36 75 37 29 38 80 39 74 40 76 41 30 42 79 43 73 44 72 45
REMARK SMILES IDX 31 47 61 48 42 49 60 50 43 51 46 52 59 53 77 54 44 55 45 56
REMARK SMILES IDX 58 58 78 59 47 60 32 61 33 62 41 63 34 64 40 65 35 66 36 67
REMARK SMILES IDX 37 68 38 69 39 70 62 71 63 72 71 73 64 74 70 75 65 76 66 77
REMARK SMILES IDX 67 78 68 79 69 80 48 81 49 82 57 83 50 84 56 85 51 86 52 87
REMARK SMILES IDX 53 88 54 89 55 90
REMARK H PARENT 13 8 20 27 76 46 46 57
REMARK Flexibility Score: inf
ROOT
ATOM      1  C   UNL     1       7.141   2.814  -6.309  1.00  0.00     0.002 C 
ENDROOT
BRANCH   1   2
ATOM      2  C   UNL     1       5.837   2.045  -6.560  1.00  0.00     0.002 C 
BRANCH   2   3
ATOM      3  C   UNL     1       4.561   2.779  -6.138  1.00  0.00     0.021 C 
BRANCH   3   4
ATOM      4  C   UNL     1       4.288   4.057  -6.934  1.00  0.00     0.116 C 
BRANCH   4   5
ATOM      5  N   UNL     1       3.473   3.795  -8.102  1.00  0.00    -0.356 N 
ATOM      6  C   UNL     1       2.145   3.972  -8.343  1.00  0.00     0.227 C 
ATOM      7  O   UNL     1       1.726   3.550  -9.429  1.00  0.00    -0.274 OA
ATOM      8  H   UNL     1       3.972   3.418  -8.863  1.00  0.00     0.163 HD
BRANCH   6   9
ATOM      9  C   UNL     1       1.179   4.666  -7.369  1.00  0.00     0.105 C 
ATOM     10  C   UNL     1       1.565   6.101  -7.015  1.00  0.00     0.023 C 
BRANCH   9  11
ATOM     11  C   UNL     1       0.750   3.785  -6.205  1.00  0.00    -0.035 A 
ATOM     12  C   UNL     1       0.527   0.841  -2.053  1.00  0.00     0.119 A 
ATOM     13  C   UNL     1       1.700   1.585  -1.950  1.00  0.00     0.047 A 
ATOM     14  C   UNL     1      -0.309   1.027  -3.159  1.00  0.00     0.055 A 
ATOM     15  C   UNL     1       2.013   2.535  -2.924  1.00  0.00     0.012 A 
ATOM     16  C   UNL     1       0.008   1.958  -4.163  1.00  0.00    -0.015 A 
ATOM     17  C   UNL     1       1.176   2.733  -4.032  1.00  0.00    -0.018 A 
ATOM     18  C   UNL     1      -0.794   2.128  -5.300  1.00  0.00     0.009 A 
ATOM     19  C   UNL     1       1.498   3.670  -5.027  1.00  0.00     0.013 A 
ATOM     20  C   UNL     1      -0.414   3.010  -6.317  1.00  0.00     0.005 A 
BRANCH  12  21
ATOM     21  O   UNL     1       0.104  -0.106  -1.160  1.00  0.00    -0.497 OA
ATOM     22  C   UNL     1       0.763  -0.121   0.102  1.00  0.00     0.278 C 
ENDBRANCH  12  21
ENDBRANCH   9  11
ENDBRANCH   6   9
ENDBRANCH   4   5
ENDBRANCH   3   4
ENDBRANCH   2   3
ENDBRANCH   1   2
BRANCH   1  23
ATOM     23  C   UNL     1       7.360   3.292  -4.869  1.00  0.00     0.021 C 
BRANCH  23  24
ATOM     24  C   UNL     1       7.380   2.183  -3.820  1.00  0.00     0.116 C 
BRANCH  24  25
ATOM     25  N   UNL     1       8.475   1.252  -4.039  1.00  0.00    -0.352 N 
ATOM     26  C   UNL     1       9.524   0.922  -3.217  1.00  0.00     0.251 C 
ATOM     27  H   UNL     1       8.462   0.789  -4.908  1.00  0.00     0.163 HD
ATOM     28  O   UNL     1      10.478   0.298  -3.670  1.00  0.00    -0.269 OA
BRANCH  26  29
ATOM     29  C   UNL     1       9.509   1.321  -1.793  1.00  0.00     0.039 A 
ATOM     30  C   UNL     1      10.684   1.808  -1.214  1.00  0.00     0.014 A 
ATOM     31  C   UNL     1       8.355   1.177  -1.017  1.00  0.00     0.014 A 
ATOM     32  C   UNL     1      10.690   2.192   0.129  1.00  0.00     0.010 A 
ATOM     33  C   UNL     1       8.343   1.623   0.303  1.00  0.00     0.010 A 
ATOM     34  C   UNL     1       9.513   2.124   0.893  1.00  0.00    -0.014 A 
BRANCH  34  35
ATOM     35  C   UNL     1       9.494   2.567   2.311  1.00  0.00     0.031 A 
ATOM     36  C   UNL     1       9.225   1.578   3.413  1.00  0.00     0.074 A 
ATOM     37  C   UNL     1       9.658   3.873   2.602  1.00  0.00     0.049 A 
ATOM     38  N   UNL     1       9.134   1.785   4.702  1.00  0.00    -0.248 NA
ATOM     39  C   UNL     1       9.003   0.180   3.012  1.00  0.00     0.031 C 
ATOM     40  C   UNL     1       9.870   4.939   1.621  1.00  0.00     0.029 A 
ATOM     41  N   UNL     1       9.662   4.527   3.809  1.00  0.00    -0.354 N 
ATOM     42  C   UNL     1       8.827   0.550   5.263  1.00  0.00     0.074 A 
ATOM     43  C   UNL     1       8.697  -0.388   4.169  1.00  0.00     0.031 C 
ATOM     44  C   UNL     1      10.001   6.109   2.265  1.00  0.00     0.029 A 
ATOM     45  C   UNL     1       9.851   5.884   3.699  1.00  0.00     0.049 A 
ATOM     46  H   UNL     1       9.542   4.067   4.671  1.00  0.00     0.167 HD
ATOM     47  C   UNL     1       8.686   0.222   6.570  1.00  0.00     0.031 A 
ATOM     48  C   UNL     1       9.893   6.843   4.645  1.00  0.00     0.031 A 
ATOM     49  C   UNL     1       8.825   1.156   7.655  1.00  0.00     0.049 A 
ATOM     50  C   UNL     1       9.752   6.456   6.090  1.00  0.00     0.074 A 
ATOM     51  C   UNL     1       8.764   0.911   9.016  1.00  0.00     0.029 A 
ATOM     52  N   UNL     1       9.048   2.517   7.504  1.00  0.00    -0.354 N 
ATOM     53  N   UNL     1       9.543   5.268   6.606  1.00  0.00    -0.248 NA
ATOM     54  C   UNL     1       9.870   7.534   7.081  1.00  0.00     0.031 C 
ATOM     55  C   UNL     1       8.900   2.132   9.687  1.00  0.00     0.029 A 
ATOM     56  C   UNL     1       9.103   3.129   8.745  1.00  0.00     0.049 A 
ATOM     57  H   UNL     1       9.152   2.979   6.641  1.00  0.00     0.167 HD
ATOM     58  C   UNL     1       9.523   5.452   7.984  1.00  0.00     0.074 A 
ATOM     59  C   UNL     1       9.759   6.863   8.220  1.00  0.00     0.031 C 
ATOM     60  C   UNL     1       9.329   4.536   8.965  1.00  0.00     0.031 A 
BRANCH  47  61
ATOM     61  C   UNL     1       8.352  -1.213   6.890  1.00  0.00    -0.014 A 
ATOM     62  C   UNL     1       9.287  -2.243   6.677  1.00  0.00     0.010 A 
ATOM     63  C   UNL     1       7.090  -1.536   7.419  1.00  0.00     0.010 A 
ATOM     64  C   UNL     1       8.945  -3.574   6.931  1.00  0.00     0.020 A 
ATOM     65  C   UNL     1       6.754  -2.864   7.703  1.00  0.00     0.020 A 
ATOM     66  C   UNL     1       7.677  -3.877   7.433  1.00  0.00     0.054 A 
BRANCH  66  67
ATOM     67  S   UNL     1       7.255  -5.613   7.744  1.00  0.00     0.124 S 
ATOM     68  O   UNL     1       7.048  -6.118   6.388  1.00  0.00    -0.237 OA
ATOM     69  O   UNL     1       8.444  -6.117   8.427  1.00  0.00    -0.237 OA
ATOM     70  O   UNL     1       6.052  -5.535   8.569  1.00  0.00    -0.744 OA
ENDBRANCH  66  67
ENDBRANCH  47  61
BRANCH  48  71
ATOM     71  C   UNL     1      10.095   8.261   4.241  1.00  0.00    -0.014 A 
ATOM     72  C   UNL     1      11.323   8.904   4.472  1.00  0.00     0.010 A 
ATOM     73  C   UNL     1       9.068   8.961   3.581  1.00  0.00     0.010 A 
ATOM     74  C   UNL     1      11.519  10.224   4.054  1.00  0.00     0.020 A 
ATOM     75  C   UNL     1       9.270  10.271   3.139  1.00  0.00     0.020 A 
ATOM     76  C   UNL     1      10.493  10.897   3.385  1.00  0.00     0.054 A 
BRANCH  76  77
ATOM     77  S   UNL     1      10.796  12.582   2.783  1.00  0.00     0.124 S 
ATOM     78  O   UNL     1      10.740  13.360   4.016  1.00  0.00    -0.237 OA
ATOM     79  O   UNL     1      12.116  12.464   2.167  1.00  0.00    -0.237 OA
ATOM     80  O   UNL     1       9.699  12.812   1.846  1.00  0.00    -0.744 OA
ENDBRANCH  76  77
ENDBRANCH  48  71
BRANCH  60  81
ATOM     81  C   UNL     1       9.383   5.023  10.388  1.00  0.00    -0.014 A 
ATOM     82  C   UNL     1       8.342   5.795  10.933  1.00  0.00     0.010 A 
ATOM     83  C   UNL     1      10.467   4.655  11.207  1.00  0.00     0.010 A 
ATOM     84  C   UNL     1       8.398   6.214  12.265  1.00  0.00     0.020 A 
ATOM     85  C   UNL     1      10.513   5.051  12.546  1.00  0.00     0.020 A 
ATOM     86  C   UNL     1       9.484   5.840  13.063  1.00  0.00     0.054 A 
BRANCH  86  87
ATOM     87  S   UNL     1       9.511   6.359  14.801  1.00  0.00     0.124 S 
ATOM     88  O   UNL     1       9.846   7.776  14.689  1.00  0.00    -0.237 OA
ATOM     89  O   UNL     1       8.150   6.068  15.244  1.00  0.00    -0.237 OA
ATOM     90  O   UNL     1      10.547   5.518  15.397  1.00  0.00    -0.744 OA
ENDBRANCH  86  87
ENDBRANCH  60  81
ENDBRANCH  34  35
ENDBRANCH  26  29
ENDBRANCH  24  25
ENDBRANCH  23  24
ENDBRANCH   1  23
TORSDOF 18
