REMARK SMILES O=C(C[C@@H](C[NH+]1CCCCC1)C(=O)NCCCCCCNC(=O)c1ccc(-c2c3nc(c(-c4ccc(S(=O)(=O)[O-])cc4)c4ccc([nH]4)c(-c4ccc(S(=O)(=O)[O-])cc4)c4nc(c(-c5ccc(S(=O)(=O)[O-])cc5)c5ccc2[nH]5)C=C4)C=C3)cc1)Nc1ccccc1O
REMARK SMILES IDX 17 1 16 2 15 3 14 4 12 5 13 6 4 8 3 9 2 10 1 11 84 12 85 14
REMARK SMILES IDX 86 15 90 16 87 17 89 18 88 19 91 20 5 22 6 23 7 24 11 25
REMARK SMILES IDX 8 27 10 28 9 29 18 30 19 31 20 32 21 33 22 34 23 36 24 37
REMARK SMILES IDX 25 38 83 39 26 40 82 41 27 42 28 43 29 44 76 45 30 46 81 47
REMARK SMILES IDX 75 48 77 49 31 50 80 51 74 52 73 53 32 55 62 56 43 57 61 58
REMARK SMILES IDX 44 59 47 60 60 61 78 62 45 63 46 64 59 66 79 67 48 68 33 69
REMARK SMILES IDX 34 70 42 71 35 72 41 73 36 74 37 75 38 76 39 77 40 78 63 79
REMARK SMILES IDX 64 80 72 81 65 82 71 83 66 84 67 85 68 86 69 87 70 88 49 89
REMARK SMILES IDX 50 90 58 91 51 92 57 93 52 94 53 95 54 96 55 97 56 98
REMARK H PARENT 14 7 84 13 91 21 6 26 21 35 77 54 47 65
REMARK Flexibility Score: inf
ROOT
ATOM      1  C   UNL     1       6.249   1.921  -5.187  1.00  0.00     0.002 C 
ENDROOT
BRANCH   1   2
ATOM      2  C   UNL     1       5.110   1.319  -4.350  1.00  0.00     0.021 C 
BRANCH   2   3
ATOM      3  C   UNL     1       5.289   1.403  -2.833  1.00  0.00     0.116 C 
BRANCH   3   4
ATOM      4  N   UNL     1       4.762   2.608  -2.218  1.00  0.00    -0.356 N 
ATOM      5  C   UNL     1       4.287   2.810  -0.953  1.00  0.00     0.229 C 
ATOM      6  O   UNL     1       4.239   3.980  -0.554  1.00  0.00    -0.275 OA
ATOM      7  H   UNL     1       4.744   3.401  -2.801  1.00  0.00     0.163 HD
BRANCH   5   8
ATOM      8  C   UNL     1       3.823   1.679  -0.017  1.00  0.00     0.142 C 
BRANCH   8   9
ATOM      9  C   UNL     1       2.799   0.767  -0.698  1.00  0.00     0.119 C 
BRANCH   9  10
ATOM     10  C   UNL     1       1.766   0.035   0.150  1.00  0.00     0.225 C 
ATOM     11  O   UNL     1       0.592  -0.013  -0.218  1.00  0.00    -0.275 OA
ATOM     12  N   UNL     1       2.252  -0.679   1.215  1.00  0.00    -0.323 N 
ATOM     13  H   UNL     1       3.073  -0.323   1.626  1.00  0.00     0.170 HD
BRANCH  12  14
ATOM     14  C   UNL     1       1.734  -1.860   1.806  1.00  0.00     0.083 A 
ATOM     15  C   UNL     1       2.391  -2.288   2.975  1.00  0.00     0.030 A 
ATOM     16  C   UNL     1       0.726  -2.683   1.284  1.00  0.00     0.139 A 
ATOM     17  C   UNL     1       2.049  -3.490   3.604  1.00  0.00     0.002 A 
ATOM     18  C   UNL     1       0.399  -3.893   1.904  1.00  0.00     0.048 A 
ATOM     19  C   UNL     1       1.054  -4.295   3.065  1.00  0.00     0.004 A 
BRANCH  16  20
ATOM     20  O   UNL     1       0.025  -2.434   0.139  1.00  0.00    -0.506 OA
ATOM     21  H   UNL     1       0.180  -1.646  -0.344  1.00  0.00     0.293 HD
ENDBRANCH  16  20
ENDBRANCH  12  14
ENDBRANCH   9  10
ENDBRANCH   8   9
BRANCH   8  22
ATOM     22  C   UNL     1       5.022   1.047   0.723  1.00  0.00     0.276 C 
BRANCH  22  23
ATOM     23  N   UNL     1       5.685  -0.014  -0.026  1.00  0.00    -0.334 N 
ATOM     24  C   UNL     1       5.273  -1.387   0.277  1.00  0.00     0.262 C 
ATOM     25  C   UNL     1       7.119   0.192  -0.198  1.00  0.00     0.262 C 
ATOM     26  H   UNL     1       5.300   0.091  -0.965  1.00  0.00     0.348 HD
ATOM     27  C   UNL     1       6.119  -2.463  -0.405  1.00  0.00     0.062 C 
ATOM     28  C   UNL     1       7.746  -0.793  -1.195  1.00  0.00     0.062 C 
ATOM     29  C   UNL     1       6.786  -1.893  -1.643  1.00  0.00     0.012 C 
ENDBRANCH  22  23
ENDBRANCH   8  22
ENDBRANCH   5   8
ENDBRANCH   3   4
ENDBRANCH   2   3
ENDBRANCH   1   2
BRANCH   1  30
ATOM     30  C   UNL     1       7.669   1.411  -4.899  1.00  0.00     0.002 C 
BRANCH  30  31
ATOM     31  C   UNL     1       7.862  -0.106  -4.893  1.00  0.00     0.021 C 
BRANCH  31  32
ATOM     32  C   UNL     1       7.532  -0.841  -6.185  1.00  0.00     0.116 C 
BRANCH  32  33
ATOM     33  N   UNL     1       8.360  -0.418  -7.300  1.00  0.00    -0.352 N 
ATOM     34  C   UNL     1       9.165  -1.150  -8.132  1.00  0.00     0.251 C 
ATOM     35  H   UNL     1       8.340   0.548  -7.488  1.00  0.00     0.163 HD
ATOM     36  O   UNL     1       9.904  -0.554  -8.926  1.00  0.00    -0.269 OA
BRANCH  34  37
ATOM     37  C   UNL     1       9.186  -2.631  -8.088  1.00  0.00     0.039 A 
ATOM     38  C   UNL     1      10.409  -3.289  -8.254  1.00  0.00     0.014 A 
ATOM     39  C   UNL     1       8.017  -3.381  -7.929  1.00  0.00     0.014 A 
ATOM     40  C   UNL     1      10.466  -4.686  -8.211  1.00  0.00     0.010 A 
ATOM     41  C   UNL     1       8.086  -4.769  -7.805  1.00  0.00     0.010 A 
ATOM     42  C   UNL     1       9.309  -5.439  -7.959  1.00  0.00    -0.014 A 
BRANCH  42  43
ATOM     43  C   UNL     1       9.360  -6.923  -7.878  1.00  0.00     0.031 A 
ATOM     44  C   UNL     1       8.615  -7.766  -8.881  1.00  0.00     0.074 A 
ATOM     45  C   UNL     1      10.044  -7.517  -6.878  1.00  0.00     0.049 A 
ATOM     46  N   UNL     1       8.518  -9.069  -8.954  1.00  0.00    -0.248 NA
ATOM     47  C   UNL     1       7.862  -7.051  -9.925  1.00  0.00     0.031 C 
ATOM     48  C   UNL     1      10.779  -6.816  -5.822  1.00  0.00     0.029 A 
ATOM     49  N   UNL     1      10.232  -8.845  -6.585  1.00  0.00    -0.354 N 
ATOM     50  C   UNL     1       7.686  -9.329 -10.037  1.00  0.00     0.074 A 
ATOM     51  C   UNL     1       7.261  -8.049 -10.559  1.00  0.00     0.031 C 
ATOM     52  C   UNL     1      11.362  -7.720  -5.018  1.00  0.00     0.029 A 
ATOM     53  C   UNL     1      11.010  -9.062  -5.471  1.00  0.00     0.049 A 
ATOM     54  H   UNL     1       9.847  -9.575  -7.122  1.00  0.00     0.167 HD
ATOM     55  C   UNL     1       7.322 -10.523 -10.564  1.00  0.00     0.031 A 
ATOM     56  C   UNL     1      11.393 -10.209  -4.876  1.00  0.00     0.031 A 
ATOM     57  C   UNL     1       7.756 -11.795 -10.051  1.00  0.00     0.049 A 
ATOM     58  C   UNL     1      10.962 -11.523  -5.468  1.00  0.00     0.074 A 
ATOM     59  C   UNL     1       7.492 -13.058 -10.551  1.00  0.00     0.029 A 
ATOM     60  N   UNL     1       8.540 -11.968  -8.921  1.00  0.00    -0.354 N 
ATOM     61  N   UNL     1      10.235 -11.745  -6.537  1.00  0.00    -0.248 NA
ATOM     62  C   UNL     1      11.409 -12.742  -4.779  1.00  0.00     0.031 C 
ATOM     63  C   UNL     1       8.067 -13.997  -9.690  1.00  0.00     0.029 A 
ATOM     64  C   UNL     1       8.743 -13.318  -8.689  1.00  0.00     0.049 A 
ATOM     65  H   UNL     1       8.899 -11.239  -8.365  1.00  0.00     0.167 HD
ATOM     66  C   UNL     1      10.158 -13.128  -6.662  1.00  0.00     0.074 A 
ATOM     67  C   UNL     1      10.925 -13.691  -5.569  1.00  0.00     0.031 C 
ATOM     68  C   UNL     1       9.510 -13.864  -7.598  1.00  0.00     0.031 A 
BRANCH  55  69
ATOM     69  C   UNL     1       6.404 -10.510 -11.759  1.00  0.00    -0.014 A 
ATOM     70  C   UNL     1       6.847 -10.051 -13.013  1.00  0.00     0.010 A 
ATOM     71  C   UNL     1       5.092 -11.005 -11.638  1.00  0.00     0.010 A 
ATOM     72  C   UNL     1       5.984 -10.047 -14.112  1.00  0.00     0.020 A 
ATOM     73  C   UNL     1       4.235 -11.031 -12.742  1.00  0.00     0.020 A 
ATOM     74  C   UNL     1       4.681 -10.535 -13.969  1.00  0.00     0.054 A 
BRANCH  74  75
ATOM     75  S   UNL     1       3.591 -10.537 -15.418  1.00  0.00     0.124 S 
ATOM     76  O   UNL     1       3.298  -9.114 -15.575  1.00  0.00    -0.237 OA
ATOM     77  O   UNL     1       4.438 -11.122 -16.455  1.00  0.00    -0.237 OA
ATOM     78  O   UNL     1       2.460 -11.363 -15.001  1.00  0.00    -0.744 OA
ENDBRANCH  74  75
ENDBRANCH  55  69
BRANCH  56  79
ATOM     79  C   UNL     1      12.240 -10.163  -3.651  1.00  0.00    -0.014 A 
ATOM     80  C   UNL     1      13.581 -10.583  -3.692  1.00  0.00     0.010 A 
ATOM     81  C   UNL     1      11.711  -9.686  -2.438  1.00  0.00     0.010 A 
ATOM     82  C   UNL     1      14.373 -10.541  -2.539  1.00  0.00     0.020 A 
ATOM     83  C   UNL     1      12.507  -9.616  -1.291  1.00  0.00     0.020 A 
ATOM     84  C   UNL     1      13.831 -10.055  -1.347  1.00  0.00     0.054 A 
BRANCH  84  85
ATOM     85  S   UNL     1      14.891  -9.960   0.123  1.00  0.00     0.124 S 
ATOM     86  O   UNL     1      15.013 -11.364   0.501  1.00  0.00    -0.237 OA
ATOM     87  O   UNL     1      16.103  -9.337  -0.402  1.00  0.00    -0.237 OA
ATOM     88  O   UNL     1      14.122  -9.127   1.046  1.00  0.00    -0.744 OA
ENDBRANCH  84  85
ENDBRANCH  56  79
BRANCH  68  89
ATOM     89  C   UNL     1       9.617 -15.363  -7.505  1.00  0.00    -0.014 A 
ATOM     90  C   UNL     1       8.933 -16.081  -6.509  1.00  0.00     0.010 A 
ATOM     91  C   UNL     1      10.349 -16.068  -8.479  1.00  0.00     0.010 A 
ATOM     92  C   UNL     1       8.993 -17.477  -6.479  1.00  0.00     0.020 A 
ATOM     93  C   UNL     1      10.388 -17.464  -8.469  1.00  0.00     0.020 A 
ATOM     94  C   UNL     1       9.716 -18.160  -7.463  1.00  0.00     0.054 A 
BRANCH  94  95
ATOM     95  S   UNL     1       9.719 -19.974  -7.440  1.00  0.00     0.124 S 
ATOM     96  O   UNL     1      10.575 -20.262  -6.292  1.00  0.00    -0.237 OA
ATOM     97  O   UNL     1       8.305 -20.294  -7.266  1.00  0.00    -0.237 OA
ATOM     98  O   UNL     1      10.279 -20.336  -8.740  1.00  0.00    -0.744 OA
ENDBRANCH  94  95
ENDBRANCH  68  89
ENDBRANCH  42  43
ENDBRANCH  34  37
ENDBRANCH  32  33
ENDBRANCH  31  32
ENDBRANCH  30  31
ENDBRANCH   1  30
TORSDOF 22
