REMARK SMILES C[C@@H]1[C@H](C(=O)NCCCCCCNC(=O)c2ccc(-c3c4nc(c(-c5ccc(S(=O)(=O)[O-])cc5)c5ccc([nH]5)c(-c5ccc(S(=O)(=O)[O-])cc5)c5nc(c(-c6ccc(S(=O)(=O)[O-])cc6)c6ccc3[nH]6)C=C5)C=C4)cc2)CCN1C(=O)COc1ccccc1O
REMARK SMILES IDX 8 1 7 2 6 3 4 4 5 5 3 7 1 8 2 9 78 10 76 11 77 12 79 13
REMARK SMILES IDX 80 14 81 15 82 16 83 17 84 18 88 19 85 20 87 21 86 22 89 23
REMARK SMILES IDX 9 25 10 26 11 27 12 28 13 29 14 30 15 32 16 33 17 34 75 35
REMARK SMILES IDX 18 36 74 37 19 38 20 39 21 40 68 41 22 42 73 43 67 44 69 45
REMARK SMILES IDX 23 46 72 47 66 48 65 49 24 51 54 52 35 53 53 54 36 55 39 56
REMARK SMILES IDX 52 57 70 58 37 59 38 60 51 62 71 63 40 64 25 65 26 66 34 67
REMARK SMILES IDX 27 68 33 69 28 70 29 71 30 72 31 73 32 74 55 75 56 76 64 77
REMARK SMILES IDX 57 78 63 79 58 80 59 81 60 82 61 83 62 84 41 85 42 86 50 87
REMARK SMILES IDX 43 88 49 89 44 90 45 91 46 92 47 93 48 94
REMARK H PARENT 6 6 89 24 13 31 69 50 39 61
REMARK Flexibility Score: inf
ROOT
ATOM      1  C   UNL     1       2.884   1.589   2.526  1.00  0.00     0.021 C 
ENDROOT
BRANCH   1   2
ATOM      2  C   UNL     1       1.410   1.794   2.178  1.00  0.00     0.116 C 
BRANCH   2   3
ATOM      3  N   UNL     1       1.264   2.597   0.979  1.00  0.00    -0.356 N 
ATOM      4  C   UNL     1       0.674   2.329  -0.214  1.00  0.00     0.225 C 
ATOM      5  O   UNL     1       0.801   3.172  -1.107  1.00  0.00    -0.275 OA
ATOM      6  H   UNL     1       1.663   3.494   1.041  1.00  0.00     0.163 HD
BRANCH   4   7
ATOM      7  C   UNL     1      -0.112   1.057  -0.486  1.00  0.00     0.102 C 
ATOM      8  C   UNL     1       2.112  -0.319  -0.248  1.00  0.00     0.032 C 
ATOM      9  C   UNL     1       0.675  -0.238  -0.749  1.00  0.00     0.094 C 
ATOM     10  N   UNL     1      -0.166  -1.305  -0.180  1.00  0.00    -0.336 N 
ATOM     11  C   UNL     1      -1.214   0.733   0.520  1.00  0.00     0.037 C 
ATOM     12  C   UNL     1      -1.275  -0.780   0.598  1.00  0.00     0.121 C 
BRANCH  10  13
ATOM     13  C   UNL     1      -0.001  -2.683  -0.245  1.00  0.00     0.260 C 
ATOM     14  O   UNL     1      -0.651  -3.433   0.489  1.00  0.00    -0.271 OA
BRANCH  13  15
ATOM     15  C   UNL     1       0.971  -3.278  -1.275  1.00  0.00     0.329 C 
BRANCH  15  16
ATOM     16  O   UNL     1       1.266  -2.496  -2.423  1.00  0.00    -0.480 OA
BRANCH  16  17
ATOM     17  C   UNL     1       0.538  -2.775  -3.544  1.00  0.00     0.161 A 
ATOM     18  C   UNL     1       1.289  -2.997  -4.700  1.00  0.00     0.050 A 
ATOM     19  C   UNL     1      -0.855  -2.735  -3.637  1.00  0.00     0.157 A 
ATOM     20  C   UNL     1       0.653  -3.228  -5.922  1.00  0.00     0.004 A 
ATOM     21  C   UNL     1      -1.493  -2.997  -4.847  1.00  0.00     0.050 A 
ATOM     22  C   UNL     1      -0.739  -3.239  -5.992  1.00  0.00     0.004 A 
BRANCH  19  23
ATOM     23  O   UNL     1      -1.672  -2.368  -2.611  1.00  0.00    -0.504 OA
ATOM     24  H   UNL     1      -1.310  -2.177  -1.768  1.00  0.00     0.293 HD
ENDBRANCH  19  23
ENDBRANCH  16  17
ENDBRANCH  15  16
ENDBRANCH  13  15
ENDBRANCH  10  13
ENDBRANCH   4   7
ENDBRANCH   2   3
ENDBRANCH   1   2
BRANCH   1  25
ATOM     25  C   UNL     1       3.561   2.799   3.169  1.00  0.00     0.002 C 
BRANCH  25  26
ATOM     26  C   UNL     1       2.987   3.223   4.523  1.00  0.00     0.002 C 
BRANCH  26  27
ATOM     27  C   UNL     1       2.852   2.107   5.562  1.00  0.00     0.021 C 
BRANCH  27  28
ATOM     28  C   UNL     1       4.119   1.295   5.819  1.00  0.00     0.116 C 
BRANCH  28  29
ATOM     29  N   UNL     1       5.220   2.123   6.277  1.00  0.00    -0.352 N 
ATOM     30  C   UNL     1       5.992   2.004   7.404  1.00  0.00     0.251 C 
ATOM     31  H   UNL     1       5.445   2.881   5.692  1.00  0.00     0.163 HD
ATOM     32  O   UNL     1       6.759   2.911   7.713  1.00  0.00    -0.269 OA
BRANCH  30  33
ATOM     33  C   UNL     1       5.891   0.797   8.254  1.00  0.00     0.039 A 
ATOM     34  C   UNL     1       5.846   0.959   9.641  1.00  0.00     0.014 A 
ATOM     35  C   UNL     1       5.877  -0.486   7.697  1.00  0.00     0.014 A 
ATOM     36  C   UNL     1       5.750  -0.163  10.467  1.00  0.00     0.010 A 
ATOM     37  C   UNL     1       5.718  -1.600   8.519  1.00  0.00     0.010 A 
ATOM     38  C   UNL     1       5.667  -1.451   9.913  1.00  0.00    -0.014 A 
BRANCH  38  39
ATOM     39  C   UNL     1       5.548  -2.646  10.786  1.00  0.00     0.031 A 
ATOM     40  C   UNL     1       6.667  -3.651  10.853  1.00  0.00     0.074 A 
ATOM     41  C   UNL     1       4.421  -2.842  11.498  1.00  0.00     0.049 A 
ATOM     42  N   UNL     1       6.744  -4.753  11.554  1.00  0.00    -0.248 NA
ATOM     43  C   UNL     1       7.844  -3.395  10.007  1.00  0.00     0.031 C 
ATOM     44  C   UNL     1       3.249  -1.963  11.488  1.00  0.00     0.029 A 
ATOM     45  N   UNL     1       4.076  -3.845  12.368  1.00  0.00    -0.354 N 
ATOM     46  C   UNL     1       7.967  -5.327  11.226  1.00  0.00     0.074 A 
ATOM     47  C   UNL     1       8.577  -4.477  10.228  1.00  0.00     0.031 C 
ATOM     48  C   UNL     1       2.328  -2.450  12.336  1.00  0.00     0.029 A 
ATOM     49  C   UNL     1       2.828  -3.688  12.924  1.00  0.00     0.049 A 
ATOM     50  H   UNL     1       4.666  -4.606  12.575  1.00  0.00     0.167 HD
ATOM     51  C   UNL     1       8.540  -6.448  11.725  1.00  0.00     0.031 A 
ATOM     52  C   UNL     1       2.162  -4.454  13.811  1.00  0.00     0.031 A 
ATOM     53  C   UNL     1       7.938  -7.285  12.728  1.00  0.00     0.049 A 
ATOM     54  C   UNL     1       2.820  -5.692  14.352  1.00  0.00     0.074 A 
ATOM     55  C   UNL     1       8.463  -8.412  13.338  1.00  0.00     0.029 A 
ATOM     56  N   UNL     1       6.676  -7.089  13.268  1.00  0.00    -0.354 N 
ATOM     57  N   UNL     1       4.006  -6.181  14.079  1.00  0.00    -0.248 NA
ATOM     58  C   UNL     1       2.055  -6.475  15.332  1.00  0.00     0.031 C 
ATOM     59  C   UNL     1       7.500  -8.922  14.216  1.00  0.00     0.029 A 
ATOM     60  C   UNL     1       6.396  -8.085  14.189  1.00  0.00     0.049 A 
ATOM     61  H   UNL     1       6.069  -6.351  13.032  1.00  0.00     0.167 HD
ATOM     62  C   UNL     1       4.138  -7.318  14.868  1.00  0.00     0.074 A 
ATOM     63  C   UNL     1       2.918  -7.433  15.643  1.00  0.00     0.031 C 
ATOM     64  C   UNL     1       5.175  -8.188  14.946  1.00  0.00     0.031 A 
BRANCH  51  65
ATOM     65  C   UNL     1       9.894  -6.833  11.188  1.00  0.00    -0.014 A 
ATOM     66  C   UNL     1      11.041  -6.084  11.509  1.00  0.00     0.010 A 
ATOM     67  C   UNL     1      10.028  -7.975  10.378  1.00  0.00     0.010 A 
ATOM     68  C   UNL     1      12.289  -6.444  10.995  1.00  0.00     0.020 A 
ATOM     69  C   UNL     1      11.279  -8.354   9.883  1.00  0.00     0.020 A 
ATOM     70  C   UNL     1      12.399  -7.575  10.180  1.00  0.00     0.054 A 
BRANCH  70  71
ATOM     71  S   UNL     1      14.034  -8.028   9.537  1.00  0.00     0.124 S 
ATOM     72  O   UNL     1      14.234  -7.027   8.493  1.00  0.00    -0.237 OA
ATOM     73  O   UNL     1      14.891  -7.890  10.712  1.00  0.00    -0.237 OA
ATOM     74  O   UNL     1      13.851  -9.397   9.061  1.00  0.00    -0.744 OA
ENDBRANCH  70  71
ENDBRANCH  51  65
BRANCH  52  75
ATOM     75  C   UNL     1       0.801  -4.054  14.259  1.00  0.00    -0.014 A 
ATOM     76  C   UNL     1       0.595  -3.561  15.560  1.00  0.00     0.010 A 
ATOM     77  C   UNL     1      -0.295  -4.151  13.383  1.00  0.00     0.010 A 
ATOM     78  C   UNL     1      -0.684  -3.188  15.982  1.00  0.00     0.020 A 
ATOM     79  C   UNL     1      -1.571  -3.755  13.793  1.00  0.00     0.020 A 
ATOM     80  C   UNL     1      -1.760  -3.286  15.094  1.00  0.00     0.054 A 
BRANCH  80  81
ATOM     81  S   UNL     1      -3.402  -2.744  15.643  1.00  0.00     0.124 S 
ATOM     82  O   UNL     1      -3.814  -3.849  16.503  1.00  0.00    -0.237 OA
ATOM     83  O   UNL     1      -3.109  -1.485  16.324  1.00  0.00    -0.237 OA
ATOM     84  O   UNL     1      -4.150  -2.607  14.395  1.00  0.00    -0.744 OA
ENDBRANCH  80  81
ENDBRANCH  52  75
BRANCH  64  85
ATOM     85  C   UNL     1       5.045  -9.330  15.918  1.00  0.00    -0.014 A 
ATOM     86  C   UNL     1       4.191 -10.415  15.652  1.00  0.00     0.010 A 
ATOM     87  C   UNL     1       5.823  -9.338  17.089  1.00  0.00     0.010 A 
ATOM     88  C   UNL     1       4.093 -11.474  16.558  1.00  0.00     0.020 A 
ATOM     89  C   UNL     1       5.747 -10.407  17.985  1.00  0.00     0.020 A 
ATOM     90  C   UNL     1       4.871 -11.462  17.721  1.00  0.00     0.054 A 
BRANCH  90  91
ATOM     91  S   UNL     1       4.756 -12.866  18.864  1.00  0.00     0.124 S 
ATOM     92  O   UNL     1       3.480 -12.613  19.528  1.00  0.00    -0.237 OA
ATOM     93  O   UNL     1       4.779 -14.017  17.964  1.00  0.00    -0.237 OA
ATOM     94  O   UNL     1       5.939 -12.721  19.709  1.00  0.00    -0.744 OA
ENDBRANCH  90  91
ENDBRANCH  64  85
ENDBRANCH  38  39
ENDBRANCH  30  33
ENDBRANCH  28  29
ENDBRANCH  27  28
ENDBRANCH  26  27
ENDBRANCH  25  26
ENDBRANCH   1  25
TORSDOF 21
