REMARK SMILES O=C(NCc1ccc(C(=O)NCCCCCCNC(=O)c2ccc(-c3c4nc(c(-c5ccc(S(=O)(=O)[O-])cc5)c5ccc([nH]5)c(-c5ccc(S(=O)(=O)[O-])cc5)c5nc(c(-c6ccc(S(=O)(=O)[O-])cc6)c6ccc3[nH]6)C=C5)C=C4)cc2)cc1)Nc1ccccc1Br
REMARK SMILES IDX 14 1 13 2 12 3 11 4 9 5 10 6 8 8 5 9 6 10 82 11 7 12 81 13
REMARK SMILES IDX 4 14 3 15 1 16 2 17 83 18 84 21 85 22 89 23 86 24 88 25
REMARK SMILES IDX 90 26 87 27 15 28 16 29 17 30 18 31 19 32 20 34 21 35 22 36
REMARK SMILES IDX 80 37 23 38 79 39 24 40 25 41 26 42 73 43 27 44 78 45 72 46
REMARK SMILES IDX 74 47 28 48 77 49 71 50 70 51 29 53 59 54 40 55 58 56 41 57
REMARK SMILES IDX 44 58 57 59 75 60 42 61 43 62 56 64 76 65 45 66 30 67 31 68
REMARK SMILES IDX 39 69 32 70 38 71 33 72 34 73 35 74 36 75 37 76 60 77 61 78
REMARK SMILES IDX 69 79 62 80 68 81 63 82 64 83 65 84 66 85 67 86 46 87 47 88
REMARK SMILES IDX 55 89 48 90 54 91 49 92 50 93 51 94 52 95 53 96
REMARK H PARENT 11 7 3 19 83 20 18 33 74 52 44 63
REMARK Flexibility Score: inf
ROOT
ATOM      1  C   UNL     1       7.083  -6.420   5.352  1.00  0.00     0.002 C 
ENDROOT
BRANCH   1   2
ATOM      2  C   UNL     1       6.738  -5.185   4.506  1.00  0.00     0.021 C 
BRANCH   2   3
ATOM      3  C   UNL     1       7.301  -5.240   3.084  1.00  0.00     0.116 C 
BRANCH   3   4
ATOM      4  N   UNL     1       6.529  -6.163   2.272  1.00  0.00    -0.352 N 
ATOM      5  C   UNL     1       5.629  -5.962   1.259  1.00  0.00     0.251 C 
ATOM      6  O   UNL     1       5.151  -6.952   0.705  1.00  0.00    -0.269 OA
ATOM      7  H   UNL     1       6.681  -7.111   2.490  1.00  0.00     0.163 HD
BRANCH   5   8
ATOM      8  C   UNL     1       5.264  -4.610   0.760  1.00  0.00     0.039 A 
ATOM      9  C   UNL     1       4.613  -2.112  -0.374  1.00  0.00    -0.029 A 
ATOM     10  C   UNL     1       4.679  -3.257  -1.175  1.00  0.00     0.006 A 
ATOM     11  C   UNL     1       4.810  -2.240   1.008  1.00  0.00     0.006 A 
ATOM     12  C   UNL     1       5.005  -4.493  -0.613  1.00  0.00     0.014 A 
ATOM     13  C   UNL     1       5.116  -3.484   1.573  1.00  0.00     0.014 A 
BRANCH   9  14
ATOM     14  C   UNL     1       4.297  -0.772  -0.983  1.00  0.00     0.153 C 
BRANCH  14  15
ATOM     15  N   UNL     1       2.874  -0.521  -0.981  1.00  0.00    -0.334 N 
ATOM     16  O   UNL     1       0.905   0.300  -0.377  1.00  0.00    -0.248 OA
ATOM     17  C   UNL     1       2.121   0.313  -0.216  1.00  0.00     0.319 C 
ATOM     18  N   UNL     1       2.805   1.144   0.624  1.00  0.00    -0.307 N 
ATOM     19  H   UNL     1       2.365  -1.040  -1.645  1.00  0.00     0.165 HD
ATOM     20  H   UNL     1       3.783   1.185   0.517  1.00  0.00     0.171 HD
BRANCH  18  21
ATOM     21  C   UNL     1       2.232   1.952   1.634  1.00  0.00     0.057 A 
ATOM     22  C   UNL     1       2.821   3.217   1.800  1.00  0.00     0.027 A 
ATOM     23  C   UNL     1       1.170   1.589   2.481  1.00  0.00     0.041 A 
ATOM     24  C   UNL     1       2.312   4.134   2.723  1.00  0.00     0.002 A 
ATOM     25  C   UNL     1       0.659   2.519   3.399  1.00  0.00     0.018 A 
ATOM     26  Br  UNL     1       0.498  -0.184   2.646  1.00  0.00    -0.049 Br
ATOM     27  C   UNL     1       1.219   3.791   3.510  1.00  0.00     0.001 A 
ENDBRANCH  18  21
ENDBRANCH  14  15
ENDBRANCH   9  14
ENDBRANCH   5   8
ENDBRANCH   3   4
ENDBRANCH   2   3
ENDBRANCH   1   2
BRANCH   1  28
ATOM     28  C   UNL     1       8.576  -6.611   5.643  1.00  0.00     0.002 C 
BRANCH  28  29
ATOM     29  C   UNL     1       9.271  -5.417   6.306  1.00  0.00     0.021 C 
BRANCH  29  30
ATOM     30  C   UNL     1       8.690  -5.008   7.657  1.00  0.00     0.116 C 
BRANCH  30  31
ATOM     31  N   UNL     1       8.865  -6.048   8.656  1.00  0.00    -0.352 N 
ATOM     32  C   UNL     1       9.408  -5.967   9.914  1.00  0.00     0.251 C 
ATOM     33  H   UNL     1       8.547  -6.942   8.393  1.00  0.00     0.163 HD
ATOM     34  O   UNL     1       9.671  -6.997  10.527  1.00  0.00    -0.269 OA
BRANCH  32  35
ATOM     35  C   UNL     1       9.682  -4.649  10.530  1.00  0.00     0.039 A 
ATOM     36  C   UNL     1      10.865  -4.481  11.256  1.00  0.00     0.014 A 
ATOM     37  C   UNL     1       8.760  -3.601  10.446  1.00  0.00     0.014 A 
ATOM     38  C   UNL     1      11.135  -3.258  11.874  1.00  0.00     0.010 A 
ATOM     39  C   UNL     1       9.058  -2.362  11.012  1.00  0.00     0.010 A 
ATOM     40  C   UNL     1      10.239  -2.184  11.748  1.00  0.00    -0.014 A 
BRANCH  40  41
ATOM     41  C   UNL     1      10.512  -0.885  12.413  1.00  0.00     0.031 A 
ATOM     42  C   UNL     1       9.637  -0.415  13.544  1.00  0.00     0.074 A 
ATOM     43  C   UNL     1      11.527  -0.113  11.980  1.00  0.00     0.049 A 
ATOM     44  N   UNL     1       9.715   0.688  14.244  1.00  0.00    -0.248 NA
ATOM     45  C   UNL     1       8.513  -1.287  13.923  1.00  0.00     0.031 C 
ATOM     46  C   UNL     1      12.421  -0.434  10.864  1.00  0.00     0.029 A 
ATOM     47  N   UNL     1      11.980   1.102  12.430  1.00  0.00    -0.354 N 
ATOM     48  C   UNL     1       8.646   0.651  15.132  1.00  0.00     0.074 A 
ATOM     49  C   UNL     1       7.906  -0.561  14.851  1.00  0.00     0.031 C 
ATOM     50  C   UNL     1      13.331   0.545  10.735  1.00  0.00     0.029 A 
ATOM     51  C   UNL     1      13.072   1.572  11.740  1.00  0.00     0.049 A 
ATOM     52  H   UNL     1      11.562   1.590  13.175  1.00  0.00     0.167 HD
ATOM     53  C   UNL     1       8.317   1.533  16.107  1.00  0.00     0.031 A 
ATOM     54  C   UNL     1      13.790   2.700  11.903  1.00  0.00     0.031 A 
ATOM     55  C   UNL     1       9.062   2.729  16.399  1.00  0.00     0.049 A 
ATOM     56  C   UNL     1      13.428   3.648  13.012  1.00  0.00     0.074 A 
ATOM     57  C   UNL     1       8.841   3.661  17.397  1.00  0.00     0.029 A 
ATOM     58  N   UNL     1      10.178   3.155  15.694  1.00  0.00    -0.354 N 
ATOM     59  N   UNL     1      12.445   3.566  13.878  1.00  0.00    -0.248 NA
ATOM     60  C   UNL     1      14.285   4.829  13.179  1.00  0.00     0.031 C 
ATOM     61  C   UNL     1       9.803   4.670  17.276  1.00  0.00     0.029 A 
ATOM     62  C   UNL     1      10.650   4.342  16.229  1.00  0.00     0.049 A 
ATOM     63  H   UNL     1      10.575   2.684  14.927  1.00  0.00     0.167 HD
ATOM     64  C   UNL     1      12.581   4.673  14.708  1.00  0.00     0.074 A 
ATOM     65  C   UNL     1      13.749   5.399  14.250  1.00  0.00     0.031 C 
ATOM     66  C   UNL     1      11.809   5.055  15.756  1.00  0.00     0.031 A 
BRANCH  53  67
ATOM     67  C   UNL     1       7.090   1.230  16.926  1.00  0.00    -0.014 A 
ATOM     68  C   UNL     1       7.082   0.174  17.856  1.00  0.00     0.010 A 
ATOM     69  C   UNL     1       5.936   2.021  16.779  1.00  0.00     0.010 A 
ATOM     70  C   UNL     1       5.927  -0.118  18.586  1.00  0.00     0.020 A 
ATOM     71  C   UNL     1       4.787   1.748  17.527  1.00  0.00     0.020 A 
ATOM     72  C   UNL     1       4.784   0.667  18.411  1.00  0.00     0.054 A 
BRANCH  72  73
ATOM     73  S   UNL     1       3.298   0.272  19.374  1.00  0.00     0.124 S 
ATOM     74  O   UNL     1       2.786  -0.900  18.669  1.00  0.00    -0.237 OA
ATOM     75  O   UNL     1       3.836   0.017  20.708  1.00  0.00    -0.237 OA
ATOM     76  O   UNL     1       2.480   1.477  19.257  1.00  0.00    -0.744 OA
ENDBRANCH  72  73
ENDBRANCH  53  67
BRANCH  54  77
ATOM     77  C   UNL     1      14.950   2.974  11.013  1.00  0.00    -0.014 A 
ATOM     78  C   UNL     1      16.264   2.840  11.495  1.00  0.00     0.010 A 
ATOM     79  C   UNL     1      14.745   3.350   9.674  1.00  0.00     0.010 A 
ATOM     80  C   UNL     1      17.354   3.094  10.658  1.00  0.00     0.020 A 
ATOM     81  C   UNL     1      15.833   3.582   8.827  1.00  0.00     0.020 A 
ATOM     82  C   UNL     1      17.131   3.462   9.328  1.00  0.00     0.054 A 
BRANCH  82  83
ATOM     83  S   UNL     1      18.558   3.729   8.240  1.00  0.00     0.124 S 
ATOM     84  O   UNL     1      19.017   5.049   8.660  1.00  0.00    -0.237 OA
ATOM     85  O   UNL     1      19.435   2.613   8.586  1.00  0.00    -0.237 OA
ATOM     86  O   UNL     1      17.980   3.662   6.900  1.00  0.00    -0.744 OA
ENDBRANCH  82  83
ENDBRANCH  54  77
BRANCH  66  87
ATOM     87  C   UNL     1      12.225   6.299  16.493  1.00  0.00    -0.014 A 
ATOM     88  C   UNL     1      12.052   7.573  15.925  1.00  0.00     0.010 A 
ATOM     89  C   UNL     1      12.781   6.189  17.780  1.00  0.00     0.010 A 
ATOM     90  C   UNL     1      12.472   8.715  16.613  1.00  0.00     0.020 A 
ATOM     91  C   UNL     1      13.179   7.330  18.481  1.00  0.00     0.020 A 
ATOM     92  C   UNL     1      13.041   8.585  17.883  1.00  0.00     0.054 A 
BRANCH  92  93
ATOM     93  S   UNL     1      13.570  10.079  18.765  1.00  0.00     0.124 S 
ATOM     94  O   UNL     1      14.839  10.382  18.110  1.00  0.00    -0.237 OA
ATOM     95  O   UNL     1      12.483  11.017  18.494  1.00  0.00    -0.237 OA
ATOM     96  O   UNL     1      13.673   9.641  20.155  1.00  0.00    -0.744 OA
ENDBRANCH  92  93
ENDBRANCH  66  87
ENDBRANCH  40  41
ENDBRANCH  32  35
ENDBRANCH  30  31
ENDBRANCH  29  30
ENDBRANCH  28  29
ENDBRANCH   1  28
TORSDOF 19
