REMARK SMILES O=C(NCCCCCCNC(=O)[C@H]1CCCN(C(=O)CCOc2ccc(F)cc2)C1)c1ccc(-c2c3nc(c(-c4ccc(S(=O)(=O)[O-])cc4)c4ccc([nH]4)c(-c4ccc(S(=O)(=O)[O-])cc4)c4nc(c(-c5ccc(S(=O)(=O)[O-])cc5)c5ccc2[nH]5)C=C4)C=C3)cc1
REMARK SMILES IDX 7 1 6 2 5 3 4 4 3 5 1 6 2 7 31 9 32 10 90 11 33 12 89 13
REMARK SMILES IDX 34 14 35 15 36 16 83 17 37 18 88 19 82 20 84 21 38 22 87 23
REMARK SMILES IDX 81 24 80 25 39 27 69 28 50 29 68 30 51 31 54 32 67 33 85 34
REMARK SMILES IDX 52 35 53 36 66 38 86 39 55 40 40 41 41 42 49 43 42 44 48 45
REMARK SMILES IDX 43 46 44 47 45 48 46 49 47 50 70 51 71 52 79 53 72 54 78 55
REMARK SMILES IDX 73 56 74 57 75 58 76 59 77 60 56 61 57 62 65 63 58 64 64 65
REMARK SMILES IDX 59 66 60 67 61 68 62 69 63 70 8 71 9 72 10 73 11 74 12 76
REMARK SMILES IDX 13 77 14 78 30 79 15 80 17 81 16 82 18 83 19 84 20 85 21 86
REMARK SMILES IDX 22 87 23 88 24 89 29 90 25 91 28 92 26 93 27 94
REMARK H PARENT 3 8 84 26 54 37 10 75
REMARK Flexibility Score: inf
ROOT
ATOM      1  C   UNL     1      12.619   8.536  -6.613  1.00  0.00     0.002 C 
ENDROOT
BRANCH   1   2
ATOM      2  C   UNL     1      12.108   9.876  -7.158  1.00  0.00     0.002 C 
BRANCH   2   3
ATOM      3  C   UNL     1      11.775  10.922  -6.094  1.00  0.00     0.021 C 
BRANCH   3   4
ATOM      4  C   UNL     1      12.931  11.252  -5.162  1.00  0.00     0.116 C 
BRANCH   4   5
ATOM      5  N   UNL     1      13.989  11.983  -5.840  1.00  0.00    -0.352 N 
ATOM      6  O   UNL     1      15.355  13.751  -6.184  1.00  0.00    -0.269 OA
ATOM      7  C   UNL     1      14.611  13.135  -5.427  1.00  0.00     0.251 C 
ATOM      8  H   UNL     1      14.295  11.608  -6.697  1.00  0.00     0.163 HD
BRANCH   7   9
ATOM      9  C   UNL     1      14.355  13.629  -4.057  1.00  0.00     0.039 A 
ATOM     10  C   UNL     1      14.418  12.745  -2.977  1.00  0.00     0.014 A 
ATOM     11  C   UNL     1      14.031  14.973  -3.855  1.00  0.00     0.014 A 
ATOM     12  C   UNL     1      14.047  13.179  -1.712  1.00  0.00     0.010 A 
ATOM     13  C   UNL     1      13.742  15.428  -2.565  1.00  0.00     0.010 A 
ATOM     14  C   UNL     1      13.737  14.531  -1.486  1.00  0.00    -0.014 A 
BRANCH  14  15
ATOM     15  C   UNL     1      13.530  14.984  -0.088  1.00  0.00     0.031 A 
ATOM     16  C   UNL     1      12.201  15.491   0.393  1.00  0.00     0.074 A 
ATOM     17  C   UNL     1      14.569  14.872   0.764  1.00  0.00     0.049 A 
ATOM     18  N   UNL     1      11.856  15.855   1.602  1.00  0.00    -0.248 NA
ATOM     19  C   UNL     1      11.123  15.612  -0.601  1.00  0.00     0.031 C 
ATOM     20  C   UNL     1      15.913  14.412   0.394  1.00  0.00     0.029 A 
ATOM     21  N   UNL     1      14.658  15.095   2.112  1.00  0.00    -0.354 N 
ATOM     22  C   UNL     1      10.529  16.260   1.516  1.00  0.00     0.074 A 
ATOM     23  C   UNL     1      10.136  16.117   0.130  1.00  0.00     0.031 C 
ATOM     24  C   UNL     1      16.668  14.322   1.497  1.00  0.00     0.029 A 
ATOM     25  C   UNL     1      15.888  14.779   2.639  1.00  0.00     0.049 A 
ATOM     26  H   UNL     1      13.913  15.447   2.651  1.00  0.00     0.167 HD
ATOM     27  C   UNL     1       9.717  16.706   2.505  1.00  0.00     0.031 A 
ATOM     28  C   UNL     1      16.346  14.858   3.901  1.00  0.00     0.031 A 
ATOM     29  C   UNL     1      10.122  16.851   3.881  1.00  0.00     0.049 A 
ATOM     30  C   UNL     1      15.422  15.350   4.974  1.00  0.00     0.074 A 
ATOM     31  C   UNL     1       9.374  17.296   4.958  1.00  0.00     0.029 A 
ATOM     32  N   UNL     1      11.384  16.548   4.372  1.00  0.00    -0.354 N 
ATOM     33  N   UNL     1      14.168  15.720   4.869  1.00  0.00    -0.248 NA
ATOM     34  C   UNL     1      15.972  15.435   6.331  1.00  0.00     0.031 C 
ATOM     35  C   UNL     1      10.195  17.298   6.092  1.00  0.00     0.029 A 
ATOM     36  C   UNL     1      11.440  16.808   5.732  1.00  0.00     0.049 A 
ATOM     37  H   UNL     1      12.131  16.200   3.833  1.00  0.00     0.167 HD
ATOM     38  C   UNL     1      13.779  16.089   6.149  1.00  0.00     0.074 A 
ATOM     39  C   UNL     1      14.918  15.857   7.016  1.00  0.00     0.031 C 
ATOM     40  C   UNL     1      12.591  16.589   6.570  1.00  0.00     0.031 A 
BRANCH  27  41
ATOM     41  C   UNL     1       8.306  17.086   2.138  1.00  0.00    -0.014 A 
ATOM     42  C   UNL     1       7.342  16.103   1.853  1.00  0.00     0.010 A 
ATOM     43  C   UNL     1       7.920  18.440   2.144  1.00  0.00     0.010 A 
ATOM     44  C   UNL     1       6.024  16.467   1.559  1.00  0.00     0.020 A 
ATOM     45  C   UNL     1       6.598  18.806   1.871  1.00  0.00     0.020 A 
ATOM     46  C   UNL     1       5.661  17.817   1.569  1.00  0.00     0.054 A 
BRANCH  46  47
ATOM     47  S   UNL     1       3.934  18.257   1.224  1.00  0.00     0.124 S 
ATOM     48  O   UNL     1       3.851  18.038  -0.218  1.00  0.00    -0.237 OA
ATOM     49  O   UNL     1       3.190  17.308   2.046  1.00  0.00    -0.237 OA
ATOM     50  O   UNL     1       3.840  19.652   1.648  1.00  0.00    -0.744 OA
ENDBRANCH  46  47
ENDBRANCH  27  41
BRANCH  28  51
ATOM     51  C   UNL     1      17.755  14.487   4.199  1.00  0.00    -0.014 A 
ATOM     52  C   UNL     1      18.056  13.334   4.943  1.00  0.00     0.010 A 
ATOM     53  C   UNL     1      18.808  15.283   3.710  1.00  0.00     0.010 A 
ATOM     54  C   UNL     1      19.386  12.993   5.208  1.00  0.00     0.020 A 
ATOM     55  C   UNL     1      20.137  14.929   3.947  1.00  0.00     0.020 A 
ATOM     56  C   UNL     1      20.418  13.794   4.709  1.00  0.00     0.054 A 
BRANCH  56  57
ATOM     57  S   UNL     1      22.139  13.312   5.019  1.00  0.00     0.124 S 
ATOM     58  O   UNL     1      22.338  13.770   6.390  1.00  0.00    -0.237 OA
ATOM     59  O   UNL     1      22.104  11.863   4.834  1.00  0.00    -0.237 OA
ATOM     60  O   UNL     1      22.885  14.043   3.997  1.00  0.00    -0.744 OA
ENDBRANCH  56  57
ENDBRANCH  28  51
BRANCH  40  61
ATOM     61  C   UNL     1      12.479  16.911   8.034  1.00  0.00    -0.014 A 
ATOM     62  C   UNL     1      13.140  18.026   8.579  1.00  0.00     0.010 A 
ATOM     63  C   UNL     1      11.707  16.089   8.873  1.00  0.00     0.010 A 
ATOM     64  C   UNL     1      13.072  18.285   9.950  1.00  0.00     0.020 A 
ATOM     65  C   UNL     1      11.616  16.359  10.240  1.00  0.00     0.020 A 
ATOM     66  C   UNL     1      12.318  17.443  10.773  1.00  0.00     0.054 A 
BRANCH  66  67
ATOM     67  S   UNL     1      12.241  17.797  12.550  1.00  0.00     0.124 S 
ATOM     68  O   UNL     1      13.533  17.298  13.013  1.00  0.00    -0.237 OA
ATOM     69  O   UNL     1      12.078  19.248  12.584  1.00  0.00    -0.237 OA
ATOM     70  O   UNL     1      11.079  17.035  13.002  1.00  0.00    -0.744 OA
ENDBRANCH  66  67
ENDBRANCH  40  61
ENDBRANCH  14  15
ENDBRANCH   7   9
ENDBRANCH   4   5
ENDBRANCH   3   4
ENDBRANCH   2   3
ENDBRANCH   1   2
BRANCH   1  71
ATOM     71  C   UNL     1      11.791   7.939  -5.466  1.00  0.00     0.021 C 
BRANCH  71  72
ATOM     72  C   UNL     1      10.346   7.644  -5.859  1.00  0.00     0.116 C 
BRANCH  72  73
ATOM     73  N   UNL     1      10.288   6.461  -6.691  1.00  0.00    -0.356 N 
ATOM     74  C   UNL     1      10.410   5.142  -6.412  1.00  0.00     0.224 C 
ATOM     75  H   UNL     1      10.129   6.653  -7.643  1.00  0.00     0.163 HD
ATOM     76  O   UNL     1      10.734   4.440  -7.380  1.00  0.00    -0.275 OA
BRANCH  74  77
ATOM     77  C   UNL     1      10.042   4.476  -5.081  1.00  0.00     0.098 C 
ATOM     78  C   UNL     1      10.902   3.208  -4.894  1.00  0.00     0.017 C 
ATOM     79  C   UNL     1      10.041   5.270  -3.780  1.00  0.00     0.132 C 
ATOM     80  C   UNL     1      10.455   2.392  -3.684  1.00  0.00     0.022 C 
ATOM     81  N   UNL     1       9.584   4.451  -2.647  1.00  0.00    -0.342 N 
ATOM     82  C   UNL     1      10.362   3.236  -2.418  1.00  0.00     0.119 C 
BRANCH  81  83
ATOM     83  C   UNL     1       8.511   4.908  -1.893  1.00  0.00     0.226 C 
ATOM     84  O   UNL     1       7.989   6.008  -2.109  1.00  0.00    -0.275 OA
BRANCH  83  85
ATOM     85  C   UNL     1       7.904   4.042  -0.811  1.00  0.00     0.141 C 
BRANCH  85  86
ATOM     86  C   UNL     1       6.526   3.545  -1.239  1.00  0.00     0.239 C 
BRANCH  86  87
ATOM     87  O   UNL     1       6.622   2.462  -2.168  1.00  0.00    -0.493 OA
BRANCH  87  88
ATOM     88  C   UNL     1       6.528   2.710  -3.509  1.00  0.00     0.119 A 
ATOM     89  C   UNL     1       6.261   3.938  -4.118  1.00  0.00     0.049 A 
ATOM     90  C   UNL     1       6.761   1.588  -4.316  1.00  0.00     0.049 A 
ATOM     91  C   UNL     1       6.265   4.049  -5.513  1.00  0.00     0.043 A 
ATOM     92  C   UNL     1       6.777   1.698  -5.708  1.00  0.00     0.043 A 
ATOM     93  C   UNL     1       6.534   2.932  -6.295  1.00  0.00     0.123 A 
ATOM     94  F   UNL     1       6.576   3.051  -7.628  1.00  0.00    -0.207 F 
ENDBRANCH  87  88
ENDBRANCH  86  87
ENDBRANCH  85  86
ENDBRANCH  83  85
ENDBRANCH  81  83
ENDBRANCH  74  77
ENDBRANCH  72  73
ENDBRANCH  71  72
ENDBRANCH   1  71
TORSDOF 21
