REMARK SMILES Cc1ccc(N)cc1S(=O)(=O)Nc1cccc(C(=O)NCCCCCCNC(=O)c2ccc(-c3c4nc(c(-c5ccc(S(=O)(=O)[O-])cc5)c5ccc([nH]5)c(-c5ccc(S(=O)(=O)[O-])cc5)c5nc(c(-c6ccc(S(=O)(=O)[O-])cc6)c6ccc3[nH]6)C=C5)C=C4)cc2)c1
REMARK SMILES IDX 23 1 22 2 21 3 20 4 18 5 19 6 17 8 13 9 14 10 90 11 15 12
REMARK SMILES IDX 16 13 12 14 9 16 10 17 11 18 8 19 1 20 2 21 3 22 4 23 7 24
REMARK SMILES IDX 5 25 6 26 24 29 25 30 26 31 27 32 28 33 29 35 30 36 31 37
REMARK SMILES IDX 89 38 32 39 88 40 33 41 34 42 35 43 82 44 36 45 87 46 81 47
REMARK SMILES IDX 83 48 37 49 86 50 80 51 79 52 38 54 68 55 49 56 67 57 50 58
REMARK SMILES IDX 53 59 66 60 84 61 51 62 52 63 65 65 85 66 54 67 39 68 40 69
REMARK SMILES IDX 48 70 41 71 47 72 42 73 43 74 44 75 45 76 46 77 69 78 70 79
REMARK SMILES IDX 78 80 71 81 77 82 72 83 73 84 74 85 75 86 76 87 55 88 56 89
REMARK SMILES IDX 64 90 57 91 63 92 58 93 59 94 60 95 61 96 62 97
REMARK H PARENT 20 7 12 15 6 27 6 28 27 34 83 53 53 64
REMARK Flexibility Score: inf
ROOT
ATOM      1  C   UNL     1      -0.821  -0.695   5.207  1.00  0.00     0.002 C 
ENDROOT
BRANCH   1   2
ATOM      2  C   UNL     1      -1.546  -0.024   4.035  1.00  0.00     0.021 C 
BRANCH   2   3
ATOM      3  C   UNL     1      -1.679  -0.954   2.828  1.00  0.00     0.116 C 
BRANCH   3   4
ATOM      4  N   UNL     1      -2.862  -1.785   2.972  1.00  0.00    -0.352 N 
ATOM      5  C   UNL     1      -4.145  -1.682   2.501  1.00  0.00     0.251 C 
ATOM      6  O   UNL     1      -4.949  -2.543   2.863  1.00  0.00    -0.269 OA
ATOM      7  H   UNL     1      -2.711  -2.587   3.522  1.00  0.00     0.163 HD
BRANCH   5   8
ATOM      8  C   UNL     1      -4.588  -0.660   1.508  1.00  0.00     0.041 A 
ATOM      9  C   UNL     1      -4.244   1.299   0.136  1.00  0.00     0.050 A 
ATOM     10  C   UNL     1      -5.362   0.966  -0.635  1.00  0.00     0.027 A 
ATOM     11  C   UNL     1      -3.946   0.559   1.278  1.00  0.00     0.040 A 
ATOM     12  C   UNL     1      -6.096  -0.179  -0.343  1.00  0.00     0.003 A 
ATOM     13  C   UNL     1      -5.685  -1.007   0.700  1.00  0.00     0.014 A 
BRANCH   9  14
ATOM     14  N   UNL     1      -3.387   2.296  -0.397  1.00  0.00    -0.280 N 
ATOM     15  H   UNL     1      -3.777   2.891  -1.077  1.00  0.00     0.180 HD
BRANCH  14  16
ATOM     16  S   UNL     1      -1.791   2.572  -0.001  1.00  0.00     0.262 S 
ATOM     17  O   UNL     1      -1.726   2.781   1.432  1.00  0.00    -0.201 OA
ATOM     18  O   UNL     1      -1.360   3.602  -0.923  1.00  0.00    -0.201 OA
BRANCH  16  19
ATOM     19  C   UNL     1      -0.759   1.147  -0.346  1.00  0.00     0.092 A 
ATOM     20  C   UNL     1      -2.369  -0.312  -1.763  1.00  0.00     0.046 C 
ATOM     21  C   UNL     1      -1.109  -0.042  -1.003  1.00  0.00    -0.030 A 
ATOM     22  C   UNL     1      -0.194  -1.114  -0.952  1.00  0.00     0.007 A 
ATOM     23  C   UNL     1       1.078  -0.970  -0.396  1.00  0.00     0.026 A 
ATOM     24  C   UNL     1       0.549   1.284   0.179  1.00  0.00     0.048 A 
ATOM     25  C   UNL     1       1.492   0.260   0.096  1.00  0.00     0.033 A 
BRANCH  25  26
ATOM     26  N   UNL     1       2.756   0.413   0.644  1.00  0.00    -0.399 N 
ATOM     27  H   UNL     1       3.413  -0.317   0.579  1.00  0.00     0.156 HD
ATOM     28  H   UNL     1       2.997   1.253   1.098  1.00  0.00     0.156 HD
ENDBRANCH  25  26
ENDBRANCH  16  19
ENDBRANCH  14  16
ENDBRANCH   9  14
ENDBRANCH   5   8
ENDBRANCH   3   4
ENDBRANCH   2   3
ENDBRANCH   1   2
BRANCH   1  29
ATOM     29  C   UNL     1       0.672  -0.948   4.962  1.00  0.00     0.002 C 
BRANCH  29  30
ATOM     30  C   UNL     1       1.496   0.300   4.628  1.00  0.00     0.021 C 
BRANCH  30  31
ATOM     31  C   UNL     1       1.438   1.399   5.684  1.00  0.00     0.116 C 
BRANCH  31  32
ATOM     32  N   UNL     1       1.990   0.956   6.955  1.00  0.00    -0.352 N 
ATOM     33  C   UNL     1       2.919   1.575   7.754  1.00  0.00     0.251 C 
ATOM     34  H   UNL     1       1.651   0.095   7.288  1.00  0.00     0.163 HD
ATOM     35  O   UNL     1       3.426   0.970   8.693  1.00  0.00    -0.269 OA
BRANCH  33  36
ATOM     36  C   UNL     1       3.314   2.969   7.465  1.00  0.00     0.039 A 
ATOM     37  C   UNL     1       4.671   3.305   7.463  1.00  0.00     0.014 A 
ATOM     38  C   UNL     1       2.344   3.943   7.212  1.00  0.00     0.014 A 
ATOM     39  C   UNL     1       5.059   4.611   7.159  1.00  0.00     0.010 A 
ATOM     40  C   UNL     1       2.735   5.230   6.855  1.00  0.00     0.010 A 
ATOM     41  C   UNL     1       4.094   5.577   6.833  1.00  0.00    -0.014 A 
BRANCH  41  42
ATOM     42  C   UNL     1       4.474   6.970   6.492  1.00  0.00     0.031 A 
ATOM     43  C   UNL     1       4.074   8.096   7.405  1.00  0.00     0.074 A 
ATOM     44  C   UNL     1       5.104   7.229   5.330  1.00  0.00     0.049 A 
ATOM     45  N   UNL     1       4.206   9.386   7.233  1.00  0.00    -0.248 NA
ATOM     46  C   UNL     1       3.415   7.720   8.666  1.00  0.00     0.031 C 
ATOM     47  C   UNL     1       5.525   6.226   4.351  1.00  0.00     0.029 A 
ATOM     48  N   UNL     1       5.487   8.422   4.771  1.00  0.00    -0.354 N 
ATOM     49  C   UNL     1       3.621   9.976   8.347  1.00  0.00     0.074 A 
ATOM     50  C   UNL     1       3.103   8.904   9.171  1.00  0.00     0.031 C 
ATOM     51  C   UNL     1       6.122   6.844   3.319  1.00  0.00     0.029 A 
ATOM     52  C   UNL     1       6.091   8.287   3.544  1.00  0.00     0.049 A 
ATOM     53  H   UNL     1       5.344   9.293   5.208  1.00  0.00     0.167 HD
ATOM     54  C   UNL     1       3.532  11.290   8.663  1.00  0.00     0.031 A 
ATOM     55  C   UNL     1       6.557   9.219   2.691  1.00  0.00     0.031 A 
ATOM     56  C   UNL     1       4.059  12.351   7.848  1.00  0.00     0.049 A 
ATOM     57  C   UNL     1       6.450  10.672   3.061  1.00  0.00     0.074 A 
ATOM     58  C   UNL     1       4.060  13.712   8.098  1.00  0.00     0.029 A 
ATOM     59  N   UNL     1       4.684  12.169   6.623  1.00  0.00    -0.354 N 
ATOM     60  N   UNL     1       5.927  11.211   4.136  1.00  0.00    -0.248 NA
ATOM     61  C   UNL     1       7.005  11.642   2.107  1.00  0.00     0.031 C 
ATOM     62  C   UNL     1       4.656  14.356   7.008  1.00  0.00     0.029 A 
ATOM     63  C   UNL     1       5.066  13.392   6.100  1.00  0.00     0.049 A 
ATOM     64  H   UNL     1       4.835  11.298   6.190  1.00  0.00     0.167 HD
ATOM     65  C   UNL     1       6.115  12.582   4.002  1.00  0.00     0.074 A 
ATOM     66  C   UNL     1       6.803  12.789   2.743  1.00  0.00     0.031 C 
ATOM     67  C   UNL     1       5.756  13.578   4.848  1.00  0.00     0.031 A 
BRANCH  54  68
ATOM     68  C   UNL     1       2.820  11.642   9.941  1.00  0.00    -0.014 A 
ATOM     69  C   UNL     1       3.393  11.355  11.194  1.00  0.00     0.010 A 
ATOM     70  C   UNL     1       1.559  12.261   9.891  1.00  0.00     0.010 A 
ATOM     71  C   UNL     1       2.692  11.628  12.372  1.00  0.00     0.020 A 
ATOM     72  C   UNL     1       0.866  12.561  11.068  1.00  0.00     0.020 A 
ATOM     73  C   UNL     1       1.427  12.218  12.300  1.00  0.00     0.054 A 
BRANCH  73  74
ATOM     74  S   UNL     1       0.529  12.550  13.841  1.00  0.00     0.124 S 
ATOM     75  O   UNL     1       0.033  11.221  14.190  1.00  0.00    -0.237 OA
ATOM     76  O   UNL     1       1.572  13.080  14.716  1.00  0.00    -0.237 OA
ATOM     77  O   UNL     1      -0.494  13.514  13.444  1.00  0.00    -0.744 OA
ENDBRANCH  73  74
ENDBRANCH  54  68
BRANCH  55  78
ATOM     78  C   UNL     1       7.194   8.796   1.416  1.00  0.00    -0.014 A 
ATOM     79  C   UNL     1       8.591   8.861   1.270  1.00  0.00     0.010 A 
ATOM     80  C   UNL     1       6.417   8.287   0.361  1.00  0.00     0.010 A 
ATOM     81  C   UNL     1       9.199   8.428   0.088  1.00  0.00     0.020 A 
ATOM     82  C   UNL     1       7.024   7.832  -0.814  1.00  0.00     0.020 A 
ATOM     83  C   UNL     1       8.412   7.912  -0.945  1.00  0.00     0.054 A 
BRANCH  83  84
ATOM     84  S   UNL     1       9.229   7.280  -2.437  1.00  0.00     0.124 S 
ATOM     85  O   UNL     1       9.584   8.512  -3.134  1.00  0.00    -0.237 OA
ATOM     86  O   UNL     1      10.348   6.518  -1.887  1.00  0.00    -0.237 OA
ATOM     87  O   UNL     1       8.193   6.472  -3.076  1.00  0.00    -0.744 OA
ENDBRANCH  83  84
ENDBRANCH  55  78
BRANCH  67  88
ATOM     88  C   UNL     1       6.136  14.982   4.467  1.00  0.00    -0.014 A 
ATOM     89  C   UNL     1       5.434  15.682   3.470  1.00  0.00     0.010 A 
ATOM     90  C   UNL     1       7.169  15.632   5.167  1.00  0.00     0.010 A 
ATOM     91  C   UNL     1       5.773  17.003   3.167  1.00  0.00     0.020 A 
ATOM     92  C   UNL     1       7.496  16.959   4.881  1.00  0.00     0.020 A 
ATOM     93  C   UNL     1       6.802  17.634   3.874  1.00  0.00     0.054 A 
BRANCH  93  94
ATOM     94  S   UNL     1       7.185  19.368   3.504  1.00  0.00     0.124 S 
ATOM     95  O   UNL     1       7.933  19.254   2.255  1.00  0.00    -0.237 OA
ATOM     96  O   UNL     1       5.861  19.974   3.391  1.00  0.00    -0.237 OA
ATOM     97  O   UNL     1       7.965  19.803   4.661  1.00  0.00    -0.744 OA
ENDBRANCH  93  94
ENDBRANCH  67  88
ENDBRANCH  41  42
ENDBRANCH  33  36
ENDBRANCH  31  32
ENDBRANCH  30  31
ENDBRANCH  29  30
ENDBRANCH   1  29
TORSDOF 20
