REMARK SMILES C/C(=N\Nc1ccccc1C(=O)NCCCCCCNC(=O)c1ccc(-c2c3nc(c(-c4ccc(S(=O)(=O)[O-])cc4)c4ccc([nH]4)c(-c4ccc(S(=O)(=O)[O-])cc4)c4nc(c(-c5ccc(S(=O)(=O)[O-])cc5)c5ccc2[nH]5)C=C4)C=C3)cc1)c1ccc(S(C)(=O)=O)cc1
REMARK SMILES IDX 16 1 15 2 14 3 13 4 11 5 12 6 10 8 5 9 6 10 7 11 9 12 8 13
REMARK SMILES IDX 4 14 3 16 1 17 2 18 83 19 84 20 92 21 85 22 91 23 86 24
REMARK SMILES IDX 87 25 88 26 89 27 90 28 17 29 18 30 19 31 20 32 21 33 22 35
REMARK SMILES IDX 23 36 24 37 82 38 25 39 81 40 26 41 27 42 28 43 75 44 29 45
REMARK SMILES IDX 80 46 74 47 76 48 30 49 79 50 73 51 72 52 31 54 61 55 42 56
REMARK SMILES IDX 60 57 43 58 46 59 59 60 77 61 44 62 45 63 58 65 78 66 47 67
REMARK SMILES IDX 32 68 33 69 41 70 34 71 40 72 35 73 36 74 37 75 38 76 39 77
REMARK SMILES IDX 62 78 63 79 71 80 64 81 70 82 65 83 66 84 67 85 68 86 69 87
REMARK SMILES IDX 48 88 49 89 57 90 50 91 56 92 51 93 52 94 53 95 54 96 55 97
REMARK H PARENT 13 7 4 15 20 34 76 53 46 64
REMARK Flexibility Score: inf
ROOT
ATOM      1  C   UNL     1      -3.672   1.975   2.179  1.00  0.00     0.002 C 
ENDROOT
BRANCH   1   2
ATOM      2  C   UNL     1      -3.600   1.932   0.646  1.00  0.00     0.021 C 
BRANCH   2   3
ATOM      3  C   UNL     1      -2.257   1.508   0.056  1.00  0.00     0.116 C 
BRANCH   3   4
ATOM      4  N   UNL     1      -1.886   0.146   0.386  1.00  0.00    -0.352 N 
ATOM      5  C   UNL     1      -0.969  -0.683  -0.215  1.00  0.00     0.253 C 
ATOM      6  O   UNL     1      -0.776  -1.793   0.287  1.00  0.00    -0.269 OA
ATOM      7  H   UNL     1      -2.361  -0.243   1.156  1.00  0.00     0.163 HD
BRANCH   5   8
ATOM      8  C   UNL     1      -0.294  -0.352  -1.501  1.00  0.00     0.064 A 
ATOM      9  C   UNL     1       0.331   0.863  -1.825  1.00  0.00     0.069 A 
ATOM     10  C   UNL     1       0.808   1.032  -3.147  1.00  0.00     0.028 A 
ATOM     11  C   UNL     1       0.787  -0.004  -4.080  1.00  0.00     0.002 A 
ATOM     12  C   UNL     1      -0.273  -1.406  -2.442  1.00  0.00     0.016 A 
ATOM     13  C   UNL     1       0.282  -1.240  -3.713  1.00  0.00     0.001 A 
BRANCH   9  14
ATOM     14  N   UNL     1       0.726   1.877  -0.928  1.00  0.00    -0.277 N 
ATOM     15  H   UNL     1       0.923   2.757  -1.323  1.00  0.00     0.190 HD
BRANCH  14  16
ATOM     16  N   UNL     1       0.862   1.777   0.408  1.00  0.00    -0.180 NA
ATOM     17  C   UNL     1       2.473  -0.155   0.256  1.00  0.00     0.069 C 
ATOM     18  C   UNL     1       1.666   0.912   0.955  1.00  0.00     0.065 C 
BRANCH  18  19
ATOM     19  C   UNL     1       1.803   0.981   2.433  1.00  0.00    -0.002 A 
ATOM     20  C   UNL     1       0.654   0.940   3.227  1.00  0.00     0.011 A 
ATOM     21  C   UNL     1       3.057   1.175   3.015  1.00  0.00     0.011 A 
ATOM     22  C   UNL     1       0.747   1.127   4.607  1.00  0.00     0.021 A 
ATOM     23  C   UNL     1       3.160   1.337   4.398  1.00  0.00     0.021 A 
ATOM     24  C   UNL     1       2.002   1.334   5.184  1.00  0.00     0.067 A 
BRANCH  24  25
ATOM     25  S   UNL     1       2.138   1.520   6.946  1.00  0.00     0.175 S 
ATOM     26  C   UNL     1       1.817   3.243   7.221  1.00  0.00     0.163 C 
ATOM     27  O   UNL     1       1.054   0.755   7.543  1.00  0.00    -0.224 OA
ATOM     28  O   UNL     1       3.513   1.252   7.308  1.00  0.00    -0.224 OA
ENDBRANCH  24  25
ENDBRANCH  18  19
ENDBRANCH  14  16
ENDBRANCH   9  14
ENDBRANCH   5   8
ENDBRANCH   3   4
ENDBRANCH   2   3
ENDBRANCH   1   2
BRANCH   1  29
ATOM     29  C   UNL     1      -2.616   2.817   2.901  1.00  0.00     0.002 C 
BRANCH  29  30
ATOM     30  C   UNL     1      -2.454   4.262   2.448  1.00  0.00     0.021 C 
BRANCH  30  31
ATOM     31  C   UNL     1      -3.734   5.079   2.444  1.00  0.00     0.116 C 
BRANCH  31  32
ATOM     32  N   UNL     1      -4.377   5.130   3.748  1.00  0.00    -0.352 N 
ATOM     33  C   UNL     1      -4.830   6.224   4.446  1.00  0.00     0.251 C 
ATOM     34  H   UNL     1      -4.506   4.261   4.192  1.00  0.00     0.163 HD
ATOM     35  O   UNL     1      -5.218   6.105   5.604  1.00  0.00    -0.269 OA
BRANCH  33  36
ATOM     36  C   UNL     1      -4.810   7.550   3.795  1.00  0.00     0.039 A 
ATOM     37  C   UNL     1      -4.293   8.646   4.489  1.00  0.00     0.014 A 
ATOM     38  C   UNL     1      -5.255   7.693   2.478  1.00  0.00     0.014 A 
ATOM     39  C   UNL     1      -4.152   9.871   3.834  1.00  0.00     0.010 A 
ATOM     40  C   UNL     1      -5.022   8.881   1.801  1.00  0.00     0.010 A 
ATOM     41  C   UNL     1      -4.476   9.986   2.473  1.00  0.00    -0.014 A 
BRANCH  41  42
ATOM     42  C   UNL     1      -4.282  11.250   1.720  1.00  0.00     0.031 A 
ATOM     43  C   UNL     1      -5.473  11.926   1.094  1.00  0.00     0.074 A 
ATOM     44  C   UNL     1      -3.040  11.733   1.519  1.00  0.00     0.049 A 
ATOM     45  N   UNL     1      -5.508  12.949   0.281  1.00  0.00    -0.248 NA
ATOM     46  C   UNL     1      -6.795  11.350   1.392  1.00  0.00     0.031 C 
ATOM     47  C   UNL     1      -1.804  11.149   2.046  1.00  0.00     0.029 A 
ATOM     48  N   UNL     1      -2.610  12.820   0.800  1.00  0.00    -0.354 N 
ATOM     49  C   UNL     1      -6.847  13.119  -0.050  1.00  0.00     0.074 A 
ATOM     50  C   UNL     1      -7.585  12.062   0.603  1.00  0.00     0.031 C 
ATOM     51  C   UNL     1      -0.760  11.897   1.652  1.00  0.00     0.029 A 
ATOM     52  C   UNL     1      -1.243  12.980   0.802  1.00  0.00     0.049 A 
ATOM     53  H   UNL     1      -3.222  13.429   0.327  1.00  0.00     0.167 HD
ATOM     54  C   UNL     1      -7.415  14.082  -0.813  1.00  0.00     0.031 A 
ATOM     55  C   UNL     1      -0.466  13.887   0.178  1.00  0.00     0.031 A 
ATOM     56  C   UNL     1      -6.676  15.142  -1.443  1.00  0.00     0.049 A 
ATOM     57  C   UNL     1      -1.118  14.942  -0.675  1.00  0.00     0.074 A 
ATOM     58  C   UNL     1      -7.159  16.200  -2.192  1.00  0.00     0.029 A 
ATOM     59  N   UNL     1      -5.297  15.281  -1.393  1.00  0.00    -0.354 N 
ATOM     60  N   UNL     1      -2.392  15.118  -0.937  1.00  0.00    -0.248 NA
ATOM     61  C   UNL     1      -0.231  15.927  -1.310  1.00  0.00     0.031 C 
ATOM     62  C   UNL     1      -6.068  16.948  -2.642  1.00  0.00     0.029 A 
ATOM     63  C   UNL     1      -4.910  16.396  -2.115  1.00  0.00     0.049 A 
ATOM     64  H   UNL     1      -4.684  14.677  -0.916  1.00  0.00     0.167 HD
ATOM     65  C   UNL     1      -2.462  16.256  -1.732  1.00  0.00     0.074 A 
ATOM     66  C   UNL     1      -1.104  16.729  -1.906  1.00  0.00     0.031 C 
ATOM     67  C   UNL     1      -3.553  16.860  -2.264  1.00  0.00     0.031 A 
BRANCH  54  68
ATOM     68  C   UNL     1      -8.907  14.026  -1.013  1.00  0.00    -0.014 A 
ATOM     69  C   UNL     1      -9.796  14.266   0.051  1.00  0.00     0.010 A 
ATOM     70  C   UNL     1      -9.431  13.764  -2.292  1.00  0.00     0.010 A 
ATOM     71  C   UNL     1     -11.177  14.200  -0.149  1.00  0.00     0.020 A 
ATOM     72  C   UNL     1     -10.812  13.730  -2.505  1.00  0.00     0.020 A 
ATOM     73  C   UNL     1     -11.676  13.931  -1.427  1.00  0.00     0.054 A 
BRANCH  73  74
ATOM     74  S   UNL     1     -13.473  13.875  -1.662  1.00  0.00     0.124 S 
ATOM     75  O   UNL     1     -13.825  12.627  -0.990  1.00  0.00    -0.237 OA
ATOM     76  O   UNL     1     -13.920  15.095  -0.994  1.00  0.00    -0.237 OA
ATOM     77  O   UNL     1     -13.634  13.867  -3.114  1.00  0.00    -0.744 OA
ENDBRANCH  73  74
ENDBRANCH  54  68
BRANCH  55  78
ATOM     78  C   UNL     1       1.013  13.844   0.347  1.00  0.00    -0.014 A 
ATOM     79  C   UNL     1       1.678  14.846   1.075  1.00  0.00     0.010 A 
ATOM     80  C   UNL     1       1.765  12.792  -0.208  1.00  0.00     0.010 A 
ATOM     81  C   UNL     1       3.067  14.809   1.229  1.00  0.00     0.020 A 
ATOM     82  C   UNL     1       3.151  12.735  -0.030  1.00  0.00     0.020 A 
ATOM     83  C   UNL     1       3.795  13.751   0.677  1.00  0.00     0.054 A 
BRANCH  83  84
ATOM     84  S   UNL     1       5.590  13.698   0.932  1.00  0.00     0.124 S 
ATOM     85  O   UNL     1       6.052  14.778   0.066  1.00  0.00    -0.237 OA
ATOM     86  O   UNL     1       5.711  13.940   2.368  1.00  0.00    -0.237 OA
ATOM     87  O   UNL     1       5.956  12.350   0.503  1.00  0.00    -0.744 OA
ENDBRANCH  83  84
ENDBRANCH  55  78
BRANCH  67  88
ATOM     88  C   UNL     1      -3.342  18.135  -3.036  1.00  0.00    -0.014 A 
ATOM     89  C   UNL     1      -2.766  18.131  -4.318  1.00  0.00     0.010 A 
ATOM     90  C   UNL     1      -3.814  19.347  -2.498  1.00  0.00     0.010 A 
ATOM     91  C   UNL     1      -2.649  19.322  -5.040  1.00  0.00     0.020 A 
ATOM     92  C   UNL     1      -3.727  20.533  -3.229  1.00  0.00     0.020 A 
ATOM     93  C   UNL     1      -3.135  20.514  -4.493  1.00  0.00     0.054 A 
BRANCH  93  94
ATOM     94  S   UNL     1      -3.036  22.032  -5.481  1.00  0.00     0.124 S 
ATOM     95  O   UNL     1      -1.606  22.327  -5.441  1.00  0.00    -0.237 OA
ATOM     96  O   UNL     1      -3.554  21.603  -6.777  1.00  0.00    -0.237 OA
ATOM     97  O   UNL     1      -3.886  22.974  -4.757  1.00  0.00    -0.744 OA
ENDBRANCH  93  94
ENDBRANCH  67  88
ENDBRANCH  41  42
ENDBRANCH  33  36
ENDBRANCH  31  32
ENDBRANCH  30  31
ENDBRANCH  29  30
ENDBRANCH   1  29
TORSDOF 20
