REMARK SMILES NS(=O)(=O)c1ccc(C(=O)N2CC[C@H](c3ccccc3C(=O)NCCCCCCNC(=O)c3ccc(-c4c5nc(c(-c6ccc(S(=O)(=O)[O-])cc6)c6ccc([nH]6)c(-c6ccc(S(=O)(=O)[O-])cc6)c6nc(c(-c7ccc(S(=O)(=O)[O-])cc7)c7ccc4[nH]7)C=C6)C=C5)cc3)C2)cc1
REMARK SMILES IDX 25 1 24 2 23 3 21 4 22 5 20 7 15 8 16 9 17 10 19 11 18 12
REMARK SMILES IDX 14 13 11 14 12 15 93 16 13 17 9 18 10 19 8 20 5 21 6 22
REMARK SMILES IDX 95 23 7 24 94 25 2 26 3 27 4 28 1 29 26 32 27 33 28 34 29 35
REMARK SMILES IDX 30 36 31 37 32 39 33 40 34 41 92 42 35 43 91 44 36 45 37 46
REMARK SMILES IDX 38 47 85 48 39 49 90 50 84 51 86 52 40 53 89 54 83 55 82 56
REMARK SMILES IDX 41 58 71 59 52 60 70 61 53 62 56 63 69 64 87 65 54 66 55 67
REMARK SMILES IDX 68 69 88 70 57 71 42 72 43 73 51 74 44 75 50 76 45 77 46 78
REMARK SMILES IDX 47 79 48 80 49 81 72 82 73 83 81 84 74 85 80 86 75 87 76 88
REMARK SMILES IDX 77 89 78 90 79 91 58 92 59 93 67 94 60 95 66 96 61 97 62 98
REMARK SMILES IDX 63 99 64 100 65 101
REMARK H PARENT 23 6 1 30 1 31 30 38 86 57 56 68
REMARK Flexibility Score: inf
ROOT
ATOM      1  C   UNL     1       7.631  -8.608  -1.992  1.00  0.00     0.021 C 
ENDROOT
BRANCH   1   2
ATOM      2  C   UNL     1       7.740  -7.218  -2.613  1.00  0.00     0.116 C 
BRANCH   2   3
ATOM      3  N   UNL     1       7.650  -7.267  -4.066  1.00  0.00    -0.352 N 
ATOM      4  C   UNL     1       7.338  -6.138  -4.794  1.00  0.00     0.251 C 
ATOM      5  O   UNL     1       8.142  -5.218  -4.903  1.00  0.00    -0.269 OA
ATOM      6  H   UNL     1       7.815  -8.117  -4.535  1.00  0.00     0.163 HD
BRANCH   4   7
ATOM      7  C   UNL     1       6.093  -6.168  -5.630  1.00  0.00     0.043 A 
ATOM      8  C   UNL     1       4.786  -6.474  -5.166  1.00  0.00    -0.030 A 
ATOM      9  C   UNL     1       3.730  -6.434  -6.096  1.00  0.00     0.005 A 
ATOM     10  C   UNL     1       3.942  -6.059  -7.424  1.00  0.00     0.000 A 
ATOM     11  C   UNL     1       6.285  -5.783  -6.970  1.00  0.00     0.014 A 
ATOM     12  C   UNL     1       5.216  -5.724  -7.861  1.00  0.00     0.001 A 
BRANCH   8  13
ATOM     13  C   UNL     1       4.503  -6.730  -3.706  1.00  0.00     0.041 C 
ATOM     14  N   UNL     1       3.004  -6.548  -1.857  1.00  0.00    -0.338 N 
ATOM     15  C   UNL     1       4.262  -5.914  -1.520  1.00  0.00     0.120 C 
ATOM     16  C   UNL     1       3.098  -7.157  -3.186  1.00  0.00     0.128 C 
ATOM     17  C   UNL     1       4.740  -5.451  -2.877  1.00  0.00     0.032 C 
BRANCH  14  18
ATOM     18  C   UNL     1       1.764  -6.394  -1.254  1.00  0.00     0.253 C 
ATOM     19  O   UNL     1       0.862  -7.211  -1.425  1.00  0.00    -0.269 OA
BRANCH  18  20
ATOM     20  C   UNL     1       1.468  -5.134  -0.500  1.00  0.00     0.040 A 
ATOM     21  C   UNL     1       0.765  -2.708   0.719  1.00  0.00     0.082 A 
ATOM     22  C   UNL     1       0.061  -3.875   1.036  1.00  0.00     0.022 A 
ATOM     23  C   UNL     1       1.805  -2.741  -0.202  1.00  0.00     0.022 A 
ATOM     24  C   UNL     1       0.428  -5.094   0.439  1.00  0.00     0.015 A 
ATOM     25  C   UNL     1       2.103  -3.934  -0.844  1.00  0.00     0.015 A 
BRANCH  21  26
ATOM     26  S   UNL     1       0.263  -1.145   1.373  1.00  0.00     0.238 S 
ATOM     27  O   UNL     1       0.984  -0.888   2.582  1.00  0.00    -0.207 OA
ATOM     28  O   UNL     1      -1.175  -1.012   1.224  1.00  0.00    -0.207 OA
BRANCH  26  29
ATOM     29  N   UNL     1       0.881  -0.039   0.246  1.00  0.00    -0.225 NA
ATOM     30  H   UNL     1       0.643   0.910   0.535  1.00  0.00     0.137 HD
ATOM     31  H   UNL     1       0.478  -0.227  -0.671  1.00  0.00     0.137 HD
ENDBRANCH  26  29
ENDBRANCH  21  26
ENDBRANCH  18  20
ENDBRANCH  14  18
ENDBRANCH   8  13
ENDBRANCH   4   7
ENDBRANCH   2   3
ENDBRANCH   1   2
BRANCH   1  32
ATOM     32  C   UNL     1       8.199  -8.661  -0.572  1.00  0.00     0.002 C 
BRANCH  32  33
ATOM     33  C   UNL     1       7.504  -7.763   0.456  1.00  0.00     0.002 C 
BRANCH  33  34
ATOM     34  C   UNL     1       6.112  -8.211   0.896  1.00  0.00     0.021 C 
BRANCH  34  35
ATOM     35  C   UNL     1       5.997  -9.631   1.423  1.00  0.00     0.116 C 
BRANCH  35  36
ATOM     36  N   UNL     1       6.885  -9.892   2.541  1.00  0.00    -0.352 N 
ATOM     37  C   UNL     1       6.589 -10.337   3.805  1.00  0.00     0.251 C 
ATOM     38  H   UNL     1       7.839  -9.724   2.367  1.00  0.00     0.163 HD
ATOM     39  O   UNL     1       7.462 -10.335   4.669  1.00  0.00    -0.269 OA
BRANCH  37  40
ATOM     40  C   UNL     1       5.220 -10.796   4.131  1.00  0.00     0.039 A 
ATOM     41  C   UNL     1       4.658 -10.425   5.355  1.00  0.00     0.014 A 
ATOM     42  C   UNL     1       4.493 -11.591   3.241  1.00  0.00     0.014 A 
ATOM     43  C   UNL     1       3.351 -10.811   5.662  1.00  0.00     0.010 A 
ATOM     44  C   UNL     1       3.161 -11.892   3.507  1.00  0.00     0.010 A 
ATOM     45  C   UNL     1       2.581 -11.523   4.729  1.00  0.00    -0.014 A 
BRANCH  45  46
ATOM     46  C   UNL     1       1.180 -11.919   5.024  1.00  0.00     0.031 A 
ATOM     47  C   UNL     1       0.808 -13.378   5.085  1.00  0.00     0.074 A 
ATOM     48  C   UNL     1       0.235 -10.972   5.185  1.00  0.00     0.049 A 
ATOM     49  N   UNL     1      -0.365 -13.923   5.283  1.00  0.00    -0.248 NA
ATOM     50  C   UNL     1       1.890 -14.353   4.866  1.00  0.00     0.031 C 
ATOM     51  C   UNL     1       0.459  -9.527   5.105  1.00  0.00     0.029 A 
ATOM     52  N   UNL     1      -1.108 -11.084   5.446  1.00  0.00    -0.354 N 
ATOM     53  C   UNL     1      -0.165 -15.296   5.190  1.00  0.00     0.074 A 
ATOM     54  C   UNL     1       1.228 -15.500   4.865  1.00  0.00     0.031 C 
ATOM     55  C   UNL     1      -0.697  -8.888   5.344  1.00  0.00     0.029 A 
ATOM     56  C   UNL     1      -1.753  -9.874   5.551  1.00  0.00     0.049 A 
ATOM     57  H   UNL     1      -1.566 -11.949   5.549  1.00  0.00     0.167 HD
ATOM     58  C   UNL     1      -1.056 -16.298   5.380  1.00  0.00     0.031 A 
ATOM     59  C   UNL     1      -3.049  -9.590   5.782  1.00  0.00     0.031 A 
ATOM     60  C   UNL     1      -2.437 -16.090   5.722  1.00  0.00     0.049 A 
ATOM     61  C   UNL     1      -4.021 -10.720   5.991  1.00  0.00     0.074 A 
ATOM     62  C   UNL     1      -3.406 -17.038   5.999  1.00  0.00     0.029 A 
ATOM     63  N   UNL     1      -3.047 -14.850   5.832  1.00  0.00    -0.354 N 
ATOM     64  N   UNL     1      -3.797 -12.012   5.972  1.00  0.00    -0.248 NA
ATOM     65  C   UNL     1      -5.416 -10.353   6.267  1.00  0.00     0.031 C 
ATOM     66  C   UNL     1      -4.616 -16.373   6.221  1.00  0.00     0.029 A 
ATOM     67  C   UNL     1      -4.386 -15.008   6.147  1.00  0.00     0.049 A 
ATOM     68  H   UNL     1      -2.595 -13.984   5.704  1.00  0.00     0.167 HD
ATOM     69  C   UNL     1      -5.018 -12.612   6.260  1.00  0.00     0.074 A 
ATOM     70  C   UNL     1      -5.971 -11.540   6.466  1.00  0.00     0.031 C 
ATOM     71  C   UNL     1      -5.322 -13.931   6.349  1.00  0.00     0.031 A 
BRANCH  58  72
ATOM     72  C   UNL     1      -0.561 -17.713   5.218  1.00  0.00    -0.014 A 
ATOM     73  C   UNL     1       0.341 -18.280   6.136  1.00  0.00     0.010 A 
ATOM     74  C   UNL     1      -1.035 -18.500   4.152  1.00  0.00     0.010 A 
ATOM     75  C   UNL     1       0.793 -19.592   5.968  1.00  0.00     0.020 A 
ATOM     76  C   UNL     1      -0.610 -19.823   3.998  1.00  0.00     0.020 A 
ATOM     77  C   UNL     1       0.316 -20.355   4.898  1.00  0.00     0.054 A 
BRANCH  77  78
ATOM     78  S   UNL     1       0.900 -22.062   4.720  1.00  0.00     0.124 S 
ATOM     79  O   UNL     1       2.278 -21.864   4.274  1.00  0.00    -0.237 OA
ATOM     80  O   UNL     1       0.749 -22.595   6.071  1.00  0.00    -0.237 OA
ATOM     81  O   UNL     1       0.001 -22.636   3.722  1.00  0.00    -0.744 OA
ENDBRANCH  77  78
ENDBRANCH  58  72
BRANCH  59  82
ATOM     82  C   UNL     1      -3.498  -8.172   5.847  1.00  0.00    -0.014 A 
ATOM     83  C   UNL     1      -3.893  -7.603   7.071  1.00  0.00     0.010 A 
ATOM     84  C   UNL     1      -3.519  -7.378   4.686  1.00  0.00     0.010 A 
ATOM     85  C   UNL     1      -4.318  -6.272   7.129  1.00  0.00     0.020 A 
ATOM     86  C   UNL     1      -3.915  -6.039   4.745  1.00  0.00     0.020 A 
ATOM     87  C   UNL     1      -4.324  -5.498   5.966  1.00  0.00     0.054 A 
BRANCH  87  88
ATOM     88  S   UNL     1      -4.831  -3.760   6.076  1.00  0.00     0.124 S 
ATOM     89  O   UNL     1      -6.273  -3.876   6.268  1.00  0.00    -0.237 OA
ATOM     90  O   UNL     1      -4.074  -3.284   7.232  1.00  0.00    -0.237 OA
ATOM     91  O   UNL     1      -4.411  -3.202   4.793  1.00  0.00    -0.744 OA
ENDBRANCH  87  88
ENDBRANCH  59  82
BRANCH  71  92
ATOM     92  C   UNL     1      -6.736 -14.294   6.719  1.00  0.00    -0.014 A 
ATOM     93  C   UNL     1      -7.797 -14.118   5.815  1.00  0.00     0.010 A 
ATOM     94  C   UNL     1      -6.992 -14.878   7.974  1.00  0.00     0.010 A 
ATOM     95  C   UNL     1      -9.096 -14.490   6.171  1.00  0.00     0.020 A 
ATOM     96  C   UNL     1      -8.284 -15.279   8.322  1.00  0.00     0.020 A 
ATOM     97  C   UNL     1      -9.331 -15.069   7.423  1.00  0.00     0.054 A 
BRANCH  97  98
ATOM     98  S   UNL     1     -11.018 -15.585   7.843  1.00  0.00     0.124 S 
ATOM     99  O   UNL     1     -11.680 -14.304   8.072  1.00  0.00    -0.237 OA
ATOM    100  O   UNL     1     -11.441 -16.305   6.644  1.00  0.00    -0.237 OA
ATOM    101  O   UNL     1     -10.841 -16.416   9.031  1.00  0.00    -0.744 OA
ENDBRANCH  97  98
ENDBRANCH  71  92
ENDBRANCH  45  46
ENDBRANCH  37  40
ENDBRANCH  35  36
ENDBRANCH  34  35
ENDBRANCH  33  34
ENDBRANCH  32  33
ENDBRANCH   1  32
TORSDOF 21
