REMARK SMILES Cc1ccc2c(c1)c(-c1ccnc3c(C)cccc13)c(C)n2CC(=O)NCCCCCCNC(=O)c1ccc(-c2c3nc(c(-c4ccc(S(=O)(=O)[O-])cc4)c4ccc([nH]4)c(-c4ccc(S(=O)(=O)[O-])cc4)c4nc(c(-c5ccc(S(=O)(=O)[O-])cc5)c5ccc2[nH]5)C=C4)C=C3)cc1
REMARK SMILES IDX 30 1 29 2 28 3 27 4 26 5 24 6 25 7 23 9 22 10 1 11 2 12 3 13
REMARK SMILES IDX 7 14 4 15 6 16 5 17 8 18 20 19 21 20 9 21 10 22 19 23 11 24
REMARK SMILES IDX 13 25 18 26 12 27 14 28 17 29 15 30 16 31 31 32 32 33 33 34
REMARK SMILES IDX 34 35 35 37 36 38 37 39 95 40 38 41 94 42 39 43 40 44 41 45
REMARK SMILES IDX 88 46 42 47 93 48 87 49 89 50 43 51 92 52 86 53 85 54 44 56
REMARK SMILES IDX 74 57 55 58 73 59 56 60 59 61 72 62 90 63 57 64 58 65 71 67
REMARK SMILES IDX 91 68 60 69 45 70 46 71 54 72 47 73 53 74 48 75 49 76 50 77
REMARK SMILES IDX 51 78 52 79 75 80 76 81 84 82 77 83 83 84 78 85 79 86 80 87
REMARK SMILES IDX 81 88 82 89 61 90 62 91 70 92 63 93 69 94 64 95 65 96 66 97
REMARK SMILES IDX 67 98 68 99
REMARK H PARENT 26 8 33 36 89 55 59 66
REMARK Flexibility Score: inf
ROOT
ATOM      1  C   UNL     1      -0.422  -5.263   5.687  1.00  0.00     0.002 C 
ENDROOT
BRANCH   1   2
ATOM      2  C   UNL     1      -1.470  -5.114   4.579  1.00  0.00     0.002 C 
BRANCH   2   3
ATOM      3  C   UNL     1      -0.902  -4.686   3.220  1.00  0.00     0.021 C 
BRANCH   3   4
ATOM      4  C   UNL     1       0.042  -5.713   2.599  1.00  0.00     0.116 C 
BRANCH   4   5
ATOM      5  N   UNL     1      -0.689  -6.876   2.128  1.00  0.00    -0.355 N 
ATOM      6  C   UNL     1      -1.018  -7.230   0.852  1.00  0.00     0.239 C 
ATOM      7  O   UNL     1      -1.712  -8.239   0.691  1.00  0.00    -0.273 OA
ATOM      8  H   UNL     1      -0.990  -7.498   2.829  1.00  0.00     0.163 HD
BRANCH   6   9
ATOM      9  C   UNL     1      -0.490  -6.446  -0.335  1.00  0.00     0.222 C 
BRANCH   9  10
ATOM     10  N   UNL     1      -1.089  -5.123  -0.490  1.00  0.00    -0.335 N 
ATOM     11  C   UNL     1       0.995   0.121  -0.072  1.00  0.00     0.044 C 
ATOM     12  C   UNL     1       0.525  -1.294  -0.238  1.00  0.00    -0.050 A 
ATOM     13  C   UNL     1       1.433  -2.352  -0.232  1.00  0.00     0.005 A 
ATOM     14  C   UNL     1      -0.846  -1.563  -0.377  1.00  0.00     0.014 A 
ATOM     15  C   UNL     1       1.005  -3.677  -0.354  1.00  0.00     0.027 A 
ATOM     16  C   UNL     1      -1.305  -2.895  -0.491  1.00  0.00     0.008 A 
ATOM     17  C   UNL     1      -0.374  -3.934  -0.457  1.00  0.00     0.049 A 
ATOM     18  C   UNL     1      -2.594  -3.486  -0.637  1.00  0.00     0.011 A 
ATOM     19  C   UNL     1      -2.432  -4.863  -0.701  1.00  0.00     0.024 A 
ATOM     20  C   UNL     1      -3.464  -5.925  -0.896  1.00  0.00     0.065 C 
BRANCH  18  21
ATOM     21  C   UNL     1      -3.888  -2.819  -0.728  1.00  0.00    -0.005 A 
ATOM     22  C   UNL     1      -4.187  -2.151  -1.912  1.00  0.00     0.029 A 
ATOM     23  C   UNL     1      -4.815  -2.814   0.346  1.00  0.00     0.008 A 
ATOM     24  C   UNL     1      -5.403  -1.513  -1.999  1.00  0.00     0.112 A 
ATOM     25  C   UNL     1      -6.038  -2.130   0.154  1.00  0.00     0.074 A 
ATOM     26  C   UNL     1      -4.571  -3.446   1.588  1.00  0.00     0.011 A 
ATOM     27  N   UNL     1      -6.317  -1.498  -1.006  1.00  0.00    -0.256 NA
ATOM     28  C   UNL     1      -6.970  -2.116   1.204  1.00  0.00    -0.025 A 
ATOM     29  C   UNL     1      -5.497  -3.414   2.622  1.00  0.00     0.001 A 
ATOM     30  C   UNL     1      -8.298  -1.417   1.071  1.00  0.00     0.047 C 
ATOM     31  C   UNL     1      -6.696  -2.750   2.430  1.00  0.00     0.005 A 
ENDBRANCH  18  21
ENDBRANCH   9  10
ENDBRANCH   6   9
ENDBRANCH   4   5
ENDBRANCH   3   4
ENDBRANCH   2   3
ENDBRANCH   1   2
BRANCH   1  32
ATOM     32  C   UNL     1       0.423  -4.010   5.953  1.00  0.00     0.021 C 
BRANCH  32  33
ATOM     33  C   UNL     1      -0.400  -2.760   6.271  1.00  0.00     0.116 C 
BRANCH  33  34
ATOM     34  N   UNL     1      -1.260  -2.922   7.425  1.00  0.00    -0.352 N 
ATOM     35  C   UNL     1      -1.101  -2.767   8.773  1.00  0.00     0.251 C 
ATOM     36  H   UNL     1      -2.170  -3.209   7.181  1.00  0.00     0.163 HD
ATOM     37  O   UNL     1      -2.119  -2.918   9.455  1.00  0.00    -0.269 OA
BRANCH  35  38
ATOM     38  C   UNL     1       0.192  -2.501   9.461  1.00  0.00     0.039 A 
ATOM     39  C   UNL     1       1.419  -2.275   8.836  1.00  0.00     0.014 A 
ATOM     40  C   UNL     1       0.158  -2.561  10.867  1.00  0.00     0.014 A 
ATOM     41  C   UNL     1       2.592  -2.240   9.582  1.00  0.00     0.010 A 
ATOM     42  C   UNL     1       1.325  -2.502  11.619  1.00  0.00     0.010 A 
ATOM     43  C   UNL     1       2.548  -2.409  10.967  1.00  0.00    -0.014 A 
BRANCH  43  44
ATOM     44  C   UNL     1       3.814  -2.434  11.690  1.00  0.00     0.031 A 
ATOM     45  C   UNL     1       4.649  -1.208  11.556  1.00  0.00     0.074 A 
ATOM     46  C   UNL     1       4.190  -3.452  12.490  1.00  0.00     0.049 A 
ATOM     47  N   UNL     1       5.819  -1.089  11.017  1.00  0.00    -0.248 NA
ATOM     48  C   UNL     1       4.049   0.067  11.977  1.00  0.00     0.031 C 
ATOM     49  C   UNL     1       3.394  -4.599  12.941  1.00  0.00     0.029 A 
ATOM     50  N   UNL     1       5.365  -3.618  13.156  1.00  0.00    -0.354 N 
ATOM     51  C   UNL     1       6.188   0.244  11.186  1.00  0.00     0.074 A 
ATOM     52  C   UNL     1       5.011   0.932  11.657  1.00  0.00     0.031 C 
ATOM     53  C   UNL     1       4.020  -5.197  13.982  1.00  0.00     0.029 A 
ATOM     54  C   UNL     1       5.326  -4.587  14.150  1.00  0.00     0.049 A 
ATOM     55  H   UNL     1       6.174  -3.096  12.951  1.00  0.00     0.167 HD
ATOM     56  C   UNL     1       7.482   0.662  11.106  1.00  0.00     0.031 A 
ATOM     57  C   UNL     1       6.284  -4.836  15.077  1.00  0.00     0.031 A 
ATOM     58  C   UNL     1       8.319  -0.297  10.440  1.00  0.00     0.049 A 
ATOM     59  C   UNL     1       7.556  -4.295  14.543  1.00  0.00     0.074 A 
ATOM     60  C   UNL     1       8.374  -0.817   9.164  1.00  0.00     0.029 A 
ATOM     61  N   UNL     1       9.066  -1.140  11.226  1.00  0.00    -0.354 N 
ATOM     62  N   UNL     1       8.152  -4.761  13.481  1.00  0.00    -0.248 NA
ATOM     63  C   UNL     1       7.952  -2.956  14.948  1.00  0.00     0.031 C 
ATOM     64  C   UNL     1       8.738  -2.183   9.341  1.00  0.00     0.029 A 
ATOM     65  C   UNL     1       8.941  -2.402  10.706  1.00  0.00     0.049 A 
ATOM     66  H   UNL     1       9.594  -0.884  12.017  1.00  0.00     0.167 HD
ATOM     67  C   UNL     1       8.678  -3.644  12.850  1.00  0.00     0.074 A 
ATOM     68  C   UNL     1       8.605  -2.578  13.847  1.00  0.00     0.031 C 
ATOM     69  C   UNL     1       8.881  -3.616  11.500  1.00  0.00     0.031 A 
BRANCH  56  70
ATOM     70  C   UNL     1       8.048   1.792  11.930  1.00  0.00    -0.014 A 
ATOM     71  C   UNL     1       7.381   2.323  13.053  1.00  0.00     0.010 A 
ATOM     72  C   UNL     1       9.394   2.176  11.751  1.00  0.00     0.010 A 
ATOM     73  C   UNL     1       8.006   3.193  13.947  1.00  0.00     0.020 A 
ATOM     74  C   UNL     1      10.046   3.016  12.667  1.00  0.00     0.020 A 
ATOM     75  C   UNL     1       9.342   3.521  13.759  1.00  0.00     0.054 A 
BRANCH  75  76
ATOM     76  S   UNL     1      10.153   4.542  15.014  1.00  0.00     0.124 S 
ATOM     77  O   UNL     1       9.498   5.835  14.814  1.00  0.00    -0.237 OA
ATOM     78  O   UNL     1       9.801   3.847  16.253  1.00  0.00    -0.237 OA
ATOM     79  O   UNL     1      11.559   4.488  14.648  1.00  0.00    -0.744 OA
ENDBRANCH  75  76
ENDBRANCH  56  70
BRANCH  57  80
ATOM     80  C   UNL     1       6.068  -5.059  16.531  1.00  0.00    -0.014 A 
ATOM     81  C   UNL     1       4.953  -4.474  17.166  1.00  0.00     0.010 A 
ATOM     82  C   UNL     1       7.098  -5.566  17.346  1.00  0.00     0.010 A 
ATOM     83  C   UNL     1       4.896  -4.336  18.557  1.00  0.00     0.020 A 
ATOM     84  C   UNL     1       7.046  -5.433  18.745  1.00  0.00     0.020 A 
ATOM     85  C   UNL     1       5.958  -4.787  19.338  1.00  0.00     0.054 A 
BRANCH  85  86
ATOM     86  S   UNL     1       5.923  -4.440  21.121  1.00  0.00     0.124 S 
ATOM     87  O   UNL     1       6.040  -2.984  21.151  1.00  0.00    -0.237 OA
ATOM     88  O   UNL     1       4.621  -4.971  21.519  1.00  0.00    -0.237 OA
ATOM     89  O   UNL     1       7.075  -5.171  21.641  1.00  0.00    -0.744 OA
ENDBRANCH  85  86
ENDBRANCH  57  80
BRANCH  69  90
ATOM     90  C   UNL     1       8.769  -4.903  10.707  1.00  0.00    -0.014 A 
ATOM     91  C   UNL     1       9.849  -5.239   9.869  1.00  0.00     0.010 A 
ATOM     92  C   UNL     1       7.567  -5.627  10.574  1.00  0.00     0.010 A 
ATOM     93  C   UNL     1       9.716  -6.216   8.881  1.00  0.00     0.020 A 
ATOM     94  C   UNL     1       7.436  -6.629   9.598  1.00  0.00     0.020 A 
ATOM     95  C   UNL     1       8.502  -6.889   8.733  1.00  0.00     0.054 A 
BRANCH  95  96
ATOM     96  S   UNL     1       8.336  -8.058   7.355  1.00  0.00     0.124 S 
ATOM     97  O   UNL     1       8.308  -7.168   6.195  1.00  0.00    -0.237 OA
ATOM     98  O   UNL     1       9.539  -8.879   7.479  1.00  0.00    -0.237 OA
ATOM     99  O   UNL     1       7.082  -8.756   7.628  1.00  0.00    -0.744 OA
ENDBRANCH  95  96
ENDBRANCH  69  90
ENDBRANCH  43  44
ENDBRANCH  35  38
ENDBRANCH  33  34
ENDBRANCH  32  33
ENDBRANCH   1  32
TORSDOF 18
