REMARK SMILES NS(=O)(=O)c1ccc(N2N=C(C(=O)NCCCCCCNC(=O)c3ccc(-c4c5nc(c(-c6ccc(S(=O)(=O)[O-])cc6)c6ccc([nH]6)c(-c6ccc(S(=O)(=O)[O-])cc6)c6nc(c(-c7ccc(S(=O)(=O)[O-])cc7)c7ccc4[nH]7)C=C6)C=C5)cc3)C[C@H]2c2cccs2)cc1
REMARK SMILES IDX 17 1 16 2 15 3 14 4 12 5 13 6 11 8 9 9 10 10 85 11 84 12
REMARK SMILES IDX 8 13 5 14 6 15 92 16 7 17 91 18 2 19 3 20 4 21 1 22 86 25
REMARK SMILES IDX 87 26 90 27 88 28 89 29 18 30 19 31 20 32 21 33 22 34 23 36
REMARK SMILES IDX 24 37 25 38 83 39 26 40 82 41 27 42 28 43 29 44 76 45 30 46
REMARK SMILES IDX 81 47 75 48 77 49 31 50 80 51 74 52 73 53 32 55 62 56 43 57
REMARK SMILES IDX 61 58 44 59 47 60 60 61 78 62 45 63 46 64 59 66 79 67 48 68
REMARK SMILES IDX 33 69 34 70 42 71 35 72 41 73 36 74 37 75 38 76 39 77 40 78
REMARK SMILES IDX 63 79 64 80 72 81 65 82 71 83 66 84 67 85 68 86 69 87 70 88
REMARK SMILES IDX 49 89 50 90 58 91 51 92 57 93 52 94 53 95 54 96 55 97 56 98
REMARK H PARENT 14 7 1 23 1 24 21 35 77 54 47 65
REMARK Flexibility Score: inf
ROOT
ATOM      1  C   UNL     1       2.844   7.246  11.346  1.00  0.00     0.002 C 
ENDROOT
BRANCH   1   2
ATOM      2  C   UNL     1       1.839   6.817  10.274  1.00  0.00     0.021 C 
BRANCH   2   3
ATOM      3  C   UNL     1       2.207   7.198   8.842  1.00  0.00     0.116 C 
BRANCH   3   4
ATOM      4  N   UNL     1       3.312   6.405   8.344  1.00  0.00    -0.351 N 
ATOM      5  C   UNL     1       3.529   5.684   7.197  1.00  0.00     0.267 C 
ATOM      6  O   UNL     1       4.591   5.070   7.109  1.00  0.00    -0.268 OA
ATOM      7  H   UNL     1       4.075   6.377   8.965  1.00  0.00     0.163 HD
BRANCH   5   8
ATOM      8  C   UNL     1       2.561   5.626   6.023  1.00  0.00     0.128 C 
ATOM      9  N   UNL     1       1.867   5.165   4.052  1.00  0.00    -0.256 N 
ATOM     10  N   UNL     1       2.825   4.893   4.981  1.00  0.00    -0.171 NA
ATOM     11  C   UNL     1       0.837   6.093   4.527  1.00  0.00     0.154 C 
ATOM     12  C   UNL     1       1.256   6.347   5.978  1.00  0.00     0.097 C 
BRANCH   9  13
ATOM     13  C   UNL     1       1.599   4.268   3.019  1.00  0.00     0.060 A 
ATOM     14  C   UNL     1       0.946   2.484   0.946  1.00  0.00     0.082 A 
ATOM     15  C   UNL     1       1.260   1.988   2.213  1.00  0.00     0.024 A 
ATOM     16  C   UNL     1       0.988   3.855   0.694  1.00  0.00     0.024 A 
ATOM     17  C   UNL     1       1.598   2.882   3.236  1.00  0.00     0.029 A 
ATOM     18  C   UNL     1       1.307   4.733   1.730  1.00  0.00     0.029 A 
BRANCH  14  19
ATOM     19  S   UNL     1       0.526   1.398  -0.380  1.00  0.00     0.238 S 
ATOM     20  O   UNL     1       1.143   1.882  -1.596  1.00  0.00    -0.207 OA
ATOM     21  O   UNL     1      -0.877   1.085  -0.292  1.00  0.00    -0.207 OA
BRANCH  19  22
ATOM     22  N   UNL     1       1.343  -0.028  -0.025  1.00  0.00    -0.225 NA
ATOM     23  H   UNL     1       1.152  -0.719  -0.751  1.00  0.00     0.137 HD
ATOM     24  H   UNL     1       1.026  -0.386   0.876  1.00  0.00     0.137 HD
ENDBRANCH  19  22
ENDBRANCH  14  19
ENDBRANCH   9  13
BRANCH  11  25
ATOM     25  C   UNL     1       0.630   7.361   3.726  1.00  0.00     0.030 A 
ATOM     26  C   UNL     1      -0.401   7.626   2.840  1.00  0.00     0.017 A 
ATOM     27  S   UNL     1       1.729   8.680   3.794  1.00  0.00    -0.147 S 
ATOM     28  C   UNL     1      -0.314   8.925   2.267  1.00  0.00     0.012 A 
ATOM     29  C   UNL     1       0.775   9.622   2.737  1.00  0.00     0.065 A 
ENDBRANCH  11  25
ENDBRANCH   5   8
ENDBRANCH   3   4
ENDBRANCH   2   3
ENDBRANCH   1   2
BRANCH   1  30
ATOM     30  C   UNL     1       3.145   8.746  11.416  1.00  0.00     0.002 C 
BRANCH  30  31
ATOM     31  C   UNL     1       1.927   9.672  11.473  1.00  0.00     0.021 C 
BRANCH  31  32
ATOM     32  C   UNL     1       0.925   9.377  12.585  1.00  0.00     0.116 C 
BRANCH  32  33
ATOM     33  N   UNL     1       1.507   9.504  13.909  1.00  0.00    -0.352 N 
ATOM     34  C   UNL     1       1.043  10.197  15.001  1.00  0.00     0.251 C 
ATOM     35  H   UNL     1       2.356   9.025  14.045  1.00  0.00     0.163 HD
ATOM     36  O   UNL     1       1.752  10.314  15.996  1.00  0.00    -0.269 OA
BRANCH  34  37
ATOM     37  C   UNL     1      -0.298  10.824  14.969  1.00  0.00     0.039 A 
ATOM     38  C   UNL     1      -0.439  12.131  15.442  1.00  0.00     0.014 A 
ATOM     39  C   UNL     1      -1.412  10.127  14.492  1.00  0.00     0.014 A 
ATOM     40  C   UNL     1      -1.686  12.759  15.386  1.00  0.00     0.010 A 
ATOM     41  C   UNL     1      -2.640  10.776  14.377  1.00  0.00     0.010 A 
ATOM     42  C   UNL     1      -2.791  12.096  14.828  1.00  0.00    -0.014 A 
BRANCH  42  43
ATOM     43  C   UNL     1      -4.108  12.771  14.702  1.00  0.00     0.031 A 
ATOM     44  C   UNL     1      -5.300  12.262  15.465  1.00  0.00     0.074 A 
ATOM     45  C   UNL     1      -4.251  13.796  13.839  1.00  0.00     0.049 A 
ATOM     46  N   UNL     1      -6.537  12.688  15.442  1.00  0.00    -0.248 NA
ATOM     47  C   UNL     1      -5.079  11.105  16.345  1.00  0.00     0.031 C 
ATOM     48  C   UNL     1      -3.187  14.345  12.996  1.00  0.00     0.029 A 
ATOM     49  N   UNL     1      -5.354  14.546  13.516  1.00  0.00    -0.354 N 
ATOM     50  C   UNL     1      -7.246  11.837  16.281  1.00  0.00     0.074 A 
ATOM     51  C   UNL     1      -6.309  10.846  16.764  1.00  0.00     0.031 C 
ATOM     52  C   UNL     1      -3.687  15.351  12.260  1.00  0.00     0.029 A 
ATOM     53  C   UNL     1      -5.109  15.498  12.556  1.00  0.00     0.049 A 
ATOM     54  H   UNL     1      -6.236  14.415  13.933  1.00  0.00     0.167 HD
ATOM     55  C   UNL     1      -8.555  11.882  16.630  1.00  0.00     0.031 A 
ATOM     56  C   UNL     1      -5.935  16.386  11.968  1.00  0.00     0.031 A 
ATOM     57  C   UNL     1      -9.483  12.876  16.156  1.00  0.00     0.049 A 
ATOM     58  C   UNL     1      -7.375  16.443  12.389  1.00  0.00     0.074 A 
ATOM     59  C   UNL     1     -10.808  13.056  16.512  1.00  0.00     0.029 A 
ATOM     60  N   UNL     1      -9.186  13.850  15.214  1.00  0.00    -0.354 N 
ATOM     61  N   UNL     1      -8.008  15.687  13.255  1.00  0.00    -0.248 NA
ATOM     62  C   UNL     1      -8.208  17.482  11.770  1.00  0.00     0.031 C 
ATOM     63  C   UNL     1     -11.326  14.109  15.749  1.00  0.00     0.029 A 
ATOM     64  C   UNL     1     -10.309  14.618  14.956  1.00  0.00     0.049 A 
ATOM     65  H   UNL     1      -8.306  13.977  14.792  1.00  0.00     0.167 HD
ATOM     66  C   UNL     1      -9.311  16.168  13.296  1.00  0.00     0.074 A 
ATOM     67  C   UNL     1      -9.371  17.290  12.379  1.00  0.00     0.031 C 
ATOM     68  C   UNL     1     -10.361  15.722  14.029  1.00  0.00     0.031 A 
BRANCH  55  69
ATOM     69  C   UNL     1      -9.058  10.803  17.552  1.00  0.00    -0.014 A 
ATOM     70  C   UNL     1      -8.651  10.743  18.898  1.00  0.00     0.010 A 
ATOM     71  C   UNL     1      -9.946   9.827  17.064  1.00  0.00     0.010 A 
ATOM     72  C   UNL     1      -9.065   9.688  19.717  1.00  0.00     0.020 A 
ATOM     73  C   UNL     1     -10.387   8.788  17.888  1.00  0.00     0.020 A 
ATOM     74  C   UNL     1      -9.920   8.710  19.201  1.00  0.00     0.054 A 
BRANCH  74  75
ATOM     75  S   UNL     1     -10.420   7.335  20.273  1.00  0.00     0.124 S 
ATOM     76  O   UNL     1      -9.216   6.507  20.278  1.00  0.00    -0.237 OA
ATOM     77  O   UNL     1     -10.727   8.004  21.535  1.00  0.00    -0.237 OA
ATOM     78  O   UNL     1     -11.571   6.758  19.582  1.00  0.00    -0.744 OA
ENDBRANCH  74  75
ENDBRANCH  55  69
BRANCH  56  79
ATOM     79  C   UNL     1      -5.392  17.301  10.930  1.00  0.00    -0.014 A 
ATOM     80  C   UNL     1      -5.134  18.649  11.230  1.00  0.00     0.010 A 
ATOM     81  C   UNL     1      -5.056  16.805   9.657  1.00  0.00     0.010 A 
ATOM     82  C   UNL     1      -4.539  19.483  10.278  1.00  0.00     0.020 A 
ATOM     83  C   UNL     1      -4.441  17.630   8.711  1.00  0.00     0.020 A 
ATOM     84  C   UNL     1      -4.186  18.965   9.029  1.00  0.00     0.054 A 
BRANCH  84  85
ATOM     85  S   UNL     1      -3.314  20.035   7.850  1.00  0.00     0.124 S 
ATOM     86  O   UNL     1      -4.389  20.894   7.366  1.00  0.00    -0.237 OA
ATOM     87  O   UNL     1      -2.314  20.685   8.695  1.00  0.00    -0.237 OA
ATOM     88  O   UNL     1      -2.772  19.093   6.873  1.00  0.00    -0.744 OA
ENDBRANCH  84  85
ENDBRANCH  56  79
BRANCH  68  89
ATOM     89  C   UNL     1     -11.668  16.454  13.884  1.00  0.00    -0.014 A 
ATOM     90  C   UNL     1     -12.457  16.310  12.729  1.00  0.00     0.010 A 
ATOM     91  C   UNL     1     -12.139  17.253  14.942  1.00  0.00     0.010 A 
ATOM     92  C   UNL     1     -13.683  16.973  12.624  1.00  0.00     0.020 A 
ATOM     93  C   UNL     1     -13.375  17.898  14.851  1.00  0.00     0.020 A 
ATOM     94  C   UNL     1     -14.134  17.764  13.686  1.00  0.00     0.054 A 
BRANCH  94  95
ATOM     95  S   UNL     1     -15.749  18.578  13.546  1.00  0.00     0.124 S 
ATOM     96  O   UNL     1     -15.455  19.679  12.633  1.00  0.00    -0.237 OA
ATOM     97  O   UNL     1     -16.597  17.520  13.002  1.00  0.00    -0.237 OA
ATOM     98  O   UNL     1     -16.058  18.971  14.919  1.00  0.00    -0.744 OA
ENDBRANCH  94  95
ENDBRANCH  68  89
ENDBRANCH  42  43
ENDBRANCH  34  37
ENDBRANCH  32  33
ENDBRANCH  31  32
ENDBRANCH  30  31
ENDBRANCH   1  30
TORSDOF 20
