REMARK SMILES O=C(NCCCCCCNC(=O)[C@@H]1CCCN1S(=O)(=O)c1ccc2c3c(cccc13)C(=O)N2)c1ccc(-c2c3nc(c(-c4ccc(S(=O)(=O)[O-])cc4)c4ccc([nH]4)c(-c4ccc(S(=O)(=O)[O-])cc4)c4nc(c(-c5ccc(S(=O)(=O)[O-])cc5)c5ccc2[nH]5)C=C4)C=C3)cc1
REMARK SMILES IDX 6 1 5 2 4 3 3 4 1 5 2 6 34 8 35 9 93 10 36 11 92 12 37 13
REMARK SMILES IDX 38 14 39 15 86 16 40 17 91 18 85 19 87 20 41 21 90 22 84 23
REMARK SMILES IDX 83 24 42 26 72 27 53 28 71 29 54 30 57 31 70 32 88 33 55 34
REMARK SMILES IDX 56 35 69 37 89 38 58 39 43 40 44 41 52 42 45 43 51 44 46 45
REMARK SMILES IDX 47 46 48 47 49 48 50 49 73 50 74 51 82 52 75 53 81 54 76 55
REMARK SMILES IDX 77 56 78 57 79 58 80 59 59 60 60 61 68 62 61 63 67 64 62 65
REMARK SMILES IDX 63 66 64 67 65 68 66 69 7 70 8 71 9 72 10 73 11 74 12 76
REMARK SMILES IDX 13 77 14 78 17 79 15 80 16 81 18 82 19 83 20 84 21 85 22 86
REMARK SMILES IDX 30 87 23 88 25 89 29 90 24 91 26 92 28 93 33 94 27 95 31 96
REMARK SMILES IDX 32 98
REMARK H PARENT 3 7 87 25 57 36 10 75 33 97
REMARK Flexibility Score: inf
ROOT
ATOM      1  C   UNL     1       3.899  -3.852  -0.247  1.00  0.00     0.002 C 
ENDROOT
BRANCH   1   2
ATOM      2  C   UNL     1       4.364  -2.591   0.500  1.00  0.00     0.021 C 
BRANCH   2   3
ATOM      3  C   UNL     1       4.282  -1.289  -0.297  1.00  0.00     0.116 C 
BRANCH   3   4
ATOM      4  N   UNL     1       2.903  -0.927  -0.584  1.00  0.00    -0.352 N 
ATOM      5  O   UNL     1       0.914   0.042  -0.107  1.00  0.00    -0.269 OA
ATOM      6  C   UNL     1       2.133   0.033   0.026  1.00  0.00     0.251 C 
ATOM      7  H   UNL     1       2.467  -1.433  -1.307  1.00  0.00     0.163 HD
BRANCH   6   8
ATOM      8  C   UNL     1       2.795   1.066   0.844  1.00  0.00     0.039 A 
ATOM      9  C   UNL     1       3.757   1.897   0.261  1.00  0.00     0.014 A 
ATOM     10  C   UNL     1       2.446   1.215   2.188  1.00  0.00     0.014 A 
ATOM     11  C   UNL     1       4.431   2.827   1.049  1.00  0.00     0.010 A 
ATOM     12  C   UNL     1       3.102   2.172   2.968  1.00  0.00     0.010 A 
ATOM     13  C   UNL     1       4.117   2.967   2.411  1.00  0.00    -0.014 A 
BRANCH  13  14
ATOM     14  C   UNL     1       4.864   3.951   3.236  1.00  0.00     0.031 A 
ATOM     15  C   UNL     1       5.860   3.484   4.262  1.00  0.00     0.074 A 
ATOM     16  C   UNL     1       4.673   5.269   3.030  1.00  0.00     0.049 A 
ATOM     17  N   UNL     1       6.649   4.201   5.021  1.00  0.00    -0.248 NA
ATOM     18  C   UNL     1       5.993   2.031   4.465  1.00  0.00     0.031 C 
ATOM     19  C   UNL     1       3.727   5.841   2.070  1.00  0.00     0.029 A 
ATOM     20  N   UNL     1       5.267   6.365   3.606  1.00  0.00    -0.354 N 
ATOM     21  C   UNL     1       7.367   3.293   5.788  1.00  0.00     0.074 A 
ATOM     22  C   UNL     1       6.905   1.972   5.428  1.00  0.00     0.031 C 
ATOM     23  C   UNL     1       3.819   7.181   2.109  1.00  0.00     0.029 A 
ATOM     24  C   UNL     1       4.804   7.564   3.117  1.00  0.00     0.049 A 
ATOM     25  H   UNL     1       5.959   6.298   4.303  1.00  0.00     0.167 HD
ATOM     26  C   UNL     1       8.335   3.541   6.701  1.00  0.00     0.031 A 
ATOM     27  C   UNL     1       5.125   8.831   3.447  1.00  0.00     0.031 A 
ATOM     28  C   UNL     1       8.802   4.856   7.048  1.00  0.00     0.049 A 
ATOM     29  C   UNL     1       6.180   9.079   4.490  1.00  0.00     0.074 A 
ATOM     30  C   UNL     1       9.820   5.195   7.924  1.00  0.00     0.029 A 
ATOM     31  N   UNL     1       8.285   6.041   6.553  1.00  0.00    -0.354 N 
ATOM     32  N   UNL     1       6.896   8.202   5.152  1.00  0.00    -0.248 NA
ATOM     33  C   UNL     1       6.474  10.478   4.831  1.00  0.00     0.031 C 
ATOM     34  C   UNL     1       9.878   6.587   8.004  1.00  0.00     0.029 A 
ATOM     35  C   UNL     1       8.936   7.114   7.135  1.00  0.00     0.049 A 
ATOM     36  H   UNL     1       7.564   6.110   5.887  1.00  0.00     0.167 HD
ATOM     37  C   UNL     1       7.729   8.944   5.982  1.00  0.00     0.074 A 
ATOM     38  C   UNL     1       7.443  10.340   5.729  1.00  0.00     0.031 C 
ATOM     39  C   UNL     1       8.645   8.500   6.875  1.00  0.00     0.031 A 
BRANCH  26  40
ATOM     40  C   UNL     1       8.979   2.379   7.404  1.00  0.00    -0.014 A 
ATOM     41  C   UNL     1       9.958   1.605   6.760  1.00  0.00     0.010 A 
ATOM     42  C   UNL     1       8.714   2.161   8.769  1.00  0.00     0.010 A 
ATOM     43  C   UNL     1      10.670   0.636   7.472  1.00  0.00     0.020 A 
ATOM     44  C   UNL     1       9.437   1.205   9.489  1.00  0.00     0.020 A 
ATOM     45  C   UNL     1      10.415   0.453   8.836  1.00  0.00     0.054 A 
BRANCH  45  46
ATOM     46  S   UNL     1      11.408  -0.763   9.744  1.00  0.00     0.124 S 
ATOM     47  O   UNL     1      11.130  -1.996   9.010  1.00  0.00    -0.237 OA
ATOM     48  O   UNL     1      12.762  -0.236   9.593  1.00  0.00    -0.237 OA
ATOM     49  O   UNL     1      10.866  -0.716  11.099  1.00  0.00    -0.744 OA
ENDBRANCH  45  46
ENDBRANCH  26  40
BRANCH  27  50
ATOM     50  C   UNL     1       4.412   9.960   2.790  1.00  0.00    -0.014 A 
ATOM     51  C   UNL     1       5.061  10.779   1.851  1.00  0.00     0.010 A 
ATOM     52  C   UNL     1       3.055  10.196   3.083  1.00  0.00     0.010 A 
ATOM     53  C   UNL     1       4.366  11.815   1.218  1.00  0.00     0.020 A 
ATOM     54  C   UNL     1       2.351  11.213   2.434  1.00  0.00     0.020 A 
ATOM     55  C   UNL     1       3.012  12.019   1.507  1.00  0.00     0.054 A 
BRANCH  55  56
ATOM     56  S   UNL     1       2.127  13.345   0.641  1.00  0.00     0.124 S 
ATOM     57  O   UNL     1       2.890  14.528   1.026  1.00  0.00    -0.237 OA
ATOM     58  O   UNL     1       2.252  12.938  -0.755  1.00  0.00    -0.237 OA
ATOM     59  O   UNL     1       0.774  13.271   1.189  1.00  0.00    -0.744 OA
ENDBRANCH  55  56
ENDBRANCH  27  50
BRANCH  39  60
ATOM     60  C   UNL     1       9.425   9.514   7.666  1.00  0.00    -0.014 A 
ATOM     61  C   UNL     1       8.844  10.156   8.773  1.00  0.00     0.010 A 
ATOM     62  C   UNL     1      10.794   9.701   7.400  1.00  0.00     0.010 A 
ATOM     63  C   UNL     1       9.624  10.958   9.610  1.00  0.00     0.020 A 
ATOM     64  C   UNL     1      11.581  10.485   8.246  1.00  0.00     0.020 A 
ATOM     65  C   UNL     1      10.991  11.103   9.351  1.00  0.00     0.054 A 
BRANCH  65  66
ATOM     66  S   UNL     1      11.991  12.080  10.507  1.00  0.00     0.124 S 
ATOM     67  O   UNL     1      11.341  13.387  10.451  1.00  0.00    -0.237 OA
ATOM     68  O   UNL     1      11.825  11.349  11.760  1.00  0.00    -0.237 OA
ATOM     69  O   UNL     1      13.334  12.032   9.933  1.00  0.00    -0.744 OA
ENDBRANCH  65  66
ENDBRANCH  39  60
ENDBRANCH  13  14
ENDBRANCH   6   8
ENDBRANCH   3   4
ENDBRANCH   2   3
ENDBRANCH   1   2
BRANCH   1  70
ATOM     70  C   UNL     1       4.568  -4.115  -1.595  1.00  0.00     0.002 C 
BRANCH  70  71
ATOM     71  C   UNL     1       6.095  -4.161  -1.548  1.00  0.00     0.021 C 
BRANCH  71  72
ATOM     72  C   UNL     1       6.752  -5.534  -1.551  1.00  0.00     0.116 C 
BRANCH  72  73
ATOM     73  N   UNL     1       6.537  -6.244  -2.794  1.00  0.00    -0.355 N 
ATOM     74  C   UNL     1       7.366  -6.553  -3.817  1.00  0.00     0.238 C 
ATOM     75  H   UNL     1       5.614  -6.562  -2.918  1.00  0.00     0.163 HD
ATOM     76  O   UNL     1       6.870  -7.262  -4.707  1.00  0.00    -0.273 OA
BRANCH  74  77
ATOM     77  C   UNL     1       8.819  -6.146  -3.926  1.00  0.00     0.162 C 
ATOM     78  C   UNL     1       9.700  -6.909  -2.927  1.00  0.00     0.032 C 
ATOM     79  N   UNL     1       9.431  -4.805  -4.087  1.00  0.00    -0.185 NA
ATOM     80  C   UNL     1      11.062  -6.272  -3.098  1.00  0.00     0.019 C 
ATOM     81  C   UNL     1      10.727  -4.811  -3.322  1.00  0.00     0.103 C 
BRANCH  79  82
ATOM     82  S   UNL     1       8.747  -3.264  -4.109  1.00  0.00     0.244 S 
ATOM     83  O   UNL     1       8.585  -2.905  -2.714  1.00  0.00    -0.207 OA
ATOM     84  O   UNL     1       9.610  -2.463  -4.953  1.00  0.00    -0.207 OA
BRANCH  82  85
ATOM     85  C   UNL     1       7.139  -3.188  -4.861  1.00  0.00     0.090 A 
ATOM     86  C   UNL     1       6.627  -4.262  -5.617  1.00  0.00     0.024 A 
ATOM     87  C   UNL     1       6.309  -2.062  -4.540  1.00  0.00     0.005 A 
ATOM     88  C   UNL     1       5.252  -4.365  -5.919  1.00  0.00     0.028 A 
ATOM     89  C   UNL     1       4.997  -2.204  -4.888  1.00  0.00     0.019 A 
ATOM     90  C   UNL     1       6.598  -0.831  -3.888  1.00  0.00     0.010 A 
ATOM     91  C   UNL     1       4.462  -3.311  -5.505  1.00  0.00     0.050 A 
ATOM     92  C   UNL     1       3.969  -1.312  -4.620  1.00  0.00     0.050 A 
ATOM     93  C   UNL     1       5.589   0.126  -3.640  1.00  0.00     0.002 A 
ATOM     94  N   UNL     1       3.097  -3.111  -5.593  1.00  0.00    -0.321 N 
ATOM     95  C   UNL     1       4.249  -0.101  -3.994  1.00  0.00     0.014 A 
ATOM     96  C   UNL     1       2.707  -1.872  -5.062  1.00  0.00     0.256 C 
ATOM     97  H   UNL     1       2.471  -3.763  -5.984  1.00  0.00     0.170 HD
ATOM     98  O   UNL     1       1.556  -1.471  -5.015  1.00  0.00    -0.269 OA
ENDBRANCH  82  85
ENDBRANCH  79  82
ENDBRANCH  74  77
ENDBRANCH  72  73
ENDBRANCH  71  72
ENDBRANCH  70  71
ENDBRANCH   1  70
TORSDOF 18
