REMARK SMILES COC(=O)c1sc(SCC(=O)NCCCCCCNC(=O)c2ccc(-c3c4nc(c(-c5ccc(S(=O)(=O)[O-])cc5)c5ccc([nH]5)c(-c5ccc(S(=O)(=O)[O-])cc5)c5nc(c(-c6ccc(S(=O)(=O)[O-])cc6)c6ccc3[nH]6)C=C5)C=C4)cc2)c(NC(=O)c2ccccc2)c1O
REMARK SMILES IDX 15 1 14 2 13 3 12 4 10 5 11 6 9 8 8 9 7 10 5 11 6 12 92 13
REMARK SMILES IDX 82 14 3 15 4 16 2 17 1 18 93 19 83 21 84 22 85 24 86 25
REMARK SMILES IDX 87 26 91 27 88 28 90 29 89 30 16 31 17 32 18 33 19 34 20 35
REMARK SMILES IDX 21 37 22 38 23 39 81 40 24 41 80 42 25 43 26 44 27 45 74 46
REMARK SMILES IDX 28 47 79 48 73 49 75 50 29 51 78 52 72 53 71 54 30 56 60 57
REMARK SMILES IDX 41 58 59 59 42 60 45 61 58 62 76 63 43 64 44 65 57 67 77 68
REMARK SMILES IDX 46 69 31 70 32 71 40 72 33 73 39 74 34 75 35 76 36 77 37 78
REMARK SMILES IDX 38 79 61 80 62 81 70 82 63 83 69 84 64 85 65 86 66 87 67 88
REMARK SMILES IDX 68 89 47 90 48 91 56 92 49 93 55 94 50 95 51 96 52 97 53 98
REMARK SMILES IDX 54 99
REMARK H PARENT 12 7 93 20 83 23 19 36 75 55 45 66
REMARK Flexibility Score: inf
ROOT
ATOM      1  C   UNL     1       0.676   1.856   9.345  1.00  0.00     0.002 C 
ENDROOT
BRANCH   1   2
ATOM      2  C   UNL     1       0.967   0.357   9.292  1.00  0.00     0.021 C 
BRANCH   2   3
ATOM      3  C   UNL     1       0.048  -0.502  10.159  1.00  0.00     0.116 C 
BRANCH   3   4
ATOM      4  N   UNL     1      -1.280  -0.622   9.609  1.00  0.00    -0.355 N 
ATOM      5  C   UNL     1      -1.937  -1.719   9.115  1.00  0.00     0.230 C 
ATOM      6  O   UNL     1      -3.152  -1.571   8.940  1.00  0.00    -0.274 OA
ATOM      7  H   UNL     1      -1.796   0.216   9.584  1.00  0.00     0.163 HD
BRANCH   5   8
ATOM      8  C   UNL     1      -1.106  -3.239   8.899  1.00  0.00     0.175 C 
BRANCH   8   9
ATOM      9  S   UNL     1      -0.298  -4.378   6.748  1.00  0.00    -0.103 SA
BRANCH   9  10
ATOM     10  C   UNL     1      -0.380  -3.455   5.140  1.00  0.00     0.089 A 
ATOM     11  C   UNL     1       0.307  -2.372   2.990  1.00  0.00     0.157 A 
ATOM     12  S   UNL     1       1.048  -3.380   4.164  1.00  0.00    -0.116 S 
ATOM     13  C   UNL     1      -1.018  -2.165   3.303  1.00  0.00     0.166 A 
ATOM     14  C   UNL     1      -1.435  -2.796   4.508  1.00  0.00     0.109 A 
BRANCH  11  15
ATOM     15  C   UNL     1       1.076  -1.867   1.871  1.00  0.00     0.352 C 
ATOM     16  O   UNL     1       2.180  -2.234   1.508  1.00  0.00    -0.245 OA
BRANCH  15  17
ATOM     17  O   UNL     1       0.362  -0.867   1.255  1.00  0.00    -0.465 OA
ATOM     18  C   UNL     1       1.006  -0.286   0.116  1.00  0.00     0.282 C 
ENDBRANCH  15  17
ENDBRANCH  11  15
BRANCH  13  19
ATOM     19  O   UNL     1      -1.858  -1.393   2.572  1.00  0.00    -0.504 OA
ATOM     20  H   UNL     1      -1.556  -0.990   1.783  1.00  0.00     0.293 HD
ENDBRANCH  13  19
BRANCH  14  21
ATOM     21  N   UNL     1      -2.752  -2.643   4.932  1.00  0.00    -0.317 N 
ATOM     22  C   UNL     1      -3.244  -2.971   6.159  1.00  0.00     0.255 C 
ATOM     23  H   UNL     1      -3.388  -2.262   4.285  1.00  0.00     0.170 HD
ATOM     24  O   UNL     1      -4.433  -3.094   6.410  1.00  0.00    -0.269 OA
BRANCH  22  25
ATOM     25  C   UNL     1      -2.217  -3.205   7.172  1.00  0.00     0.040 A 
ATOM     26  C   UNL     1      -2.233  -4.796   7.995  1.00  0.00     0.014 A 
ATOM     27  C   UNL     1      -0.712  -2.151   7.220  1.00  0.00     0.014 A 
ATOM     28  C   UNL     1      -0.759  -5.347   8.860  1.00  0.00     0.001 A 
ATOM     29  C   UNL     1       0.756  -2.754   8.069  1.00  0.00     0.001 A 
ATOM     30  C   UNL     1       0.726  -4.355   8.878  1.00  0.00     0.000 A 
ENDBRANCH  22  25
ENDBRANCH  14  21
ENDBRANCH   9  10
ENDBRANCH   8   9
ENDBRANCH   5   8
ENDBRANCH   3   4
ENDBRANCH   2   3
ENDBRANCH   1   2
BRANCH   1  31
ATOM     31  C   UNL     1       0.475   2.440  10.750  1.00  0.00     0.002 C 
BRANCH  31  32
ATOM     32  C   UNL     1       1.509   2.041  11.817  1.00  0.00     0.021 C 
BRANCH  32  33
ATOM     33  C   UNL     1       2.911   2.510  11.499  1.00  0.00     0.116 C 
BRANCH  33  34
ATOM     34  N   UNL     1       3.010   3.968  11.515  1.00  0.00    -0.352 N 
ATOM     35  C   UNL     1       4.126   4.752  11.305  1.00  0.00     0.251 C 
ATOM     36  H   UNL     1       2.173   4.453  11.698  1.00  0.00     0.163 HD
ATOM     37  O   UNL     1       4.166   5.905  11.716  1.00  0.00    -0.269 OA
BRANCH  35  38
ATOM     38  C   UNL     1       5.253   4.172  10.559  1.00  0.00     0.039 A 
ATOM     39  C   UNL     1       6.585   4.495  10.833  1.00  0.00     0.014 A 
ATOM     40  C   UNL     1       4.936   3.270   9.549  1.00  0.00     0.014 A 
ATOM     41  C   UNL     1       7.580   3.881  10.079  1.00  0.00     0.010 A 
ATOM     42  C   UNL     1       5.902   2.477   9.016  1.00  0.00     0.010 A 
ATOM     43  C   UNL     1       7.214   2.882   9.166  1.00  0.00    -0.014 A 
BRANCH  43  44
ATOM     44  C   UNL     1       8.165   2.183   8.330  1.00  0.00     0.031 A 
ATOM     45  C   UNL     1       9.120   1.345   9.082  1.00  0.00     0.074 A 
ATOM     46  C   UNL     1       8.008   2.107   6.990  1.00  0.00     0.049 A 
ATOM     47  N   UNL     1      10.348   1.633   9.341  1.00  0.00    -0.248 NA
ATOM     48  C   UNL     1       8.619   0.160   9.795  1.00  0.00     0.031 C 
ATOM     49  C   UNL     1       6.911   2.611   6.151  1.00  0.00     0.029 A 
ATOM     50  N   UNL     1       8.767   1.431   6.097  1.00  0.00    -0.354 N 
ATOM     51  C   UNL     1      10.851   0.546  10.041  1.00  0.00     0.074 A 
ATOM     52  C   UNL     1       9.703  -0.202  10.488  1.00  0.00     0.031 C 
ATOM     53  C   UNL     1       6.963   2.019   4.934  1.00  0.00     0.029 A 
ATOM     54  C   UNL     1       8.178   1.229   4.855  1.00  0.00     0.049 A 
ATOM     55  H   UNL     1       9.671   1.107   6.311  1.00  0.00     0.167 HD
ATOM     56  C   UNL     1      12.170   0.213   9.965  1.00  0.00     0.031 A 
ATOM     57  C   UNL     1       8.655   0.436   3.860  1.00  0.00     0.031 A 
ATOM     58  C   UNL     1      12.915   1.217   9.243  1.00  0.00     0.049 A 
ATOM     59  C   UNL     1      10.109   0.254   4.132  1.00  0.00     0.074 A 
ATOM     60  C   UNL     1      13.156   2.563   9.431  1.00  0.00     0.029 A 
ATOM     61  N   UNL     1      13.150   0.964   7.907  1.00  0.00    -0.354 N 
ATOM     62  N   UNL     1      10.963   1.242   4.090  1.00  0.00    -0.248 NA
ATOM     63  C   UNL     1      10.519  -0.879   4.953  1.00  0.00     0.031 C 
ATOM     64  C   UNL     1      13.044   3.135   8.130  1.00  0.00     0.029 A 
ATOM     65  C   UNL     1      12.845   2.104   7.207  1.00  0.00     0.049 A 
ATOM     66  H   UNL     1      13.477   0.118   7.524  1.00  0.00     0.167 HD
ATOM     67  C   UNL     1      11.778   1.060   5.201  1.00  0.00     0.074 A 
ATOM     68  C   UNL     1      11.520  -0.313   5.638  1.00  0.00     0.031 C 
ATOM     69  C   UNL     1      12.352   2.122   5.843  1.00  0.00     0.031 A 
BRANCH  56  70
ATOM     70  C   UNL     1      12.723  -1.171  10.164  1.00  0.00    -0.014 A 
ATOM     71  C   UNL     1      14.123  -1.338  10.117  1.00  0.00     0.010 A 
ATOM     72  C   UNL     1      11.934  -2.336  10.130  1.00  0.00     0.010 A 
ATOM     73  C   UNL     1      14.697  -2.602   9.954  1.00  0.00     0.020 A 
ATOM     74  C   UNL     1      12.500  -3.607  10.011  1.00  0.00     0.020 A 
ATOM     75  C   UNL     1      13.877  -3.727   9.885  1.00  0.00     0.054 A 
BRANCH  75  76
ATOM     76  S   UNL     1      14.623  -5.341   9.556  1.00  0.00     0.124 S 
ATOM     77  O   UNL     1      15.139  -5.161   8.202  1.00  0.00    -0.237 OA
ATOM     78  O   UNL     1      15.627  -5.437  10.611  1.00  0.00    -0.237 OA
ATOM     79  O   UNL     1      13.500  -6.267   9.682  1.00  0.00    -0.744 OA
ENDBRANCH  75  76
ENDBRANCH  56  70
BRANCH  57  80
ATOM     80  C   UNL     1       7.886  -0.398   2.897  1.00  0.00    -0.014 A 
ATOM     81  C   UNL     1       8.508  -0.994   1.783  1.00  0.00     0.010 A 
ATOM     82  C   UNL     1       6.586  -0.841   3.225  1.00  0.00     0.010 A 
ATOM     83  C   UNL     1       7.885  -2.041   1.075  1.00  0.00     0.020 A 
ATOM     84  C   UNL     1       5.956  -1.879   2.521  1.00  0.00     0.020 A 
ATOM     85  C   UNL     1       6.622  -2.495   1.465  1.00  0.00     0.054 A 
BRANCH  85  86
ATOM     86  S   UNL     1       5.930  -3.995   0.698  1.00  0.00     0.124 S 
ATOM     87  O   UNL     1       5.463  -3.499  -0.594  1.00  0.00    -0.237 OA
ATOM     88  O   UNL     1       7.085  -4.888   0.645  1.00  0.00    -0.237 OA
ATOM     89  O   UNL     1       4.886  -4.412   1.631  1.00  0.00    -0.744 OA
ENDBRANCH  85  86
ENDBRANCH  57  80
BRANCH  69  90
ATOM     90  C   UNL     1      12.280   3.489   5.196  1.00  0.00    -0.014 A 
ATOM     91  C   UNL     1      11.076   4.185   4.963  1.00  0.00     0.010 A 
ATOM     92  C   UNL     1      13.493   4.175   5.011  1.00  0.00     0.010 A 
ATOM     93  C   UNL     1      11.091   5.525   4.543  1.00  0.00     0.020 A 
ATOM     94  C   UNL     1      13.515   5.512   4.612  1.00  0.00     0.020 A 
ATOM     95  C   UNL     1      12.314   6.181   4.372  1.00  0.00     0.054 A 
BRANCH  95  96
ATOM     96  S   UNL     1      12.335   7.930   3.888  1.00  0.00     0.124 S 
ATOM     97  O   UNL     1      11.871   7.880   2.504  1.00  0.00    -0.237 OA
ATOM     98  O   UNL     1      11.412   8.544   4.839  1.00  0.00    -0.237 OA
ATOM     99  O   UNL     1      13.735   8.321   4.056  1.00  0.00    -0.744 OA
ENDBRANCH  95  96
ENDBRANCH  69  90
ENDBRANCH  43  44
ENDBRANCH  35  38
ENDBRANCH  33  34
ENDBRANCH  32  33
ENDBRANCH  31  32
ENDBRANCH   1  31
TORSDOF 23
