REMARK SMILES CCn1ccc(NC(=O)[C@H]2[C@@H](C(=O)NCCCCCCNC(=O)c3ccc(-c4c5nc(c(-c6ccc(S(=O)(=O)[O-])cc6)c6ccc([nH]6)c(-c6ccc(S(=O)(=O)[O-])cc6)c6nc(c(-c7ccc(S(=O)(=O)[O-])cc7)c7ccc4[nH]7)C=C6)C=C5)cc3)[C@H]3C=C[C@@H]2C3)n1
REMARK SMILES IDX 17 1 16 2 15 3 14 4 12 5 13 6 11 8 10 9 87 10 84 11 86 12
REMARK SMILES IDX 88 13 85 14 8 15 7 16 9 18 6 19 3 20 4 21 89 22 5 23 2 24
REMARK SMILES IDX 1 25 18 26 19 27 20 28 21 29 22 30 23 32 24 33 25 34 83 35
REMARK SMILES IDX 26 36 82 37 27 38 28 39 29 40 76 41 30 42 81 43 75 44 77 45
REMARK SMILES IDX 31 46 80 47 74 48 73 49 32 51 62 52 43 53 61 54 44 55 47 56
REMARK SMILES IDX 60 57 78 58 45 59 46 60 59 62 79 63 48 64 33 65 34 66 42 67
REMARK SMILES IDX 35 68 41 69 36 70 37 71 38 72 39 73 40 74 63 75 64 76 72 77
REMARK SMILES IDX 65 78 71 79 66 80 67 81 68 82 69 83 70 84 49 85 50 86 58 87
REMARK SMILES IDX 51 88 57 89 52 90 53 91 54 92 55 93 56 94
REMARK H PARENT 14 7 7 17 21 31 77 50 47 61
REMARK Flexibility Score: inf
ROOT
ATOM      1  C   UNL     1      -2.640   6.918  -1.462  1.00  0.00     0.002 C 
ENDROOT
BRANCH   1   2
ATOM      2  C   UNL     1      -1.186   7.351  -1.656  1.00  0.00     0.021 C 
BRANCH   2   3
ATOM      3  C   UNL     1      -0.433   6.642  -2.766  1.00  0.00     0.116 C 
BRANCH   3   4
ATOM      4  N   UNL     1      -0.739   7.017  -4.116  1.00  0.00    -0.356 N 
ATOM      5  C   UNL     1      -0.020   6.750  -5.239  1.00  0.00     0.224 C 
ATOM      6  O   UNL     1      -0.610   6.938  -6.314  1.00  0.00    -0.275 OA
ATOM      7  H   UNL     1      -1.570   7.528  -4.245  1.00  0.00     0.163 HD
BRANCH   5   8
ATOM      8  C   UNL     1       1.481   6.419  -5.285  1.00  0.00     0.098 C 
ATOM      9  C   UNL     1       2.367   5.559  -4.292  1.00  0.00     0.099 C 
ATOM     10  C   UNL     1       3.467   6.574  -3.899  1.00  0.00     0.025 C 
ATOM     11  C   UNL     1       2.288   7.750  -5.393  1.00  0.00     0.025 C 
ATOM     12  C   UNL     1       2.905   7.780  -3.188  1.00  0.00    -0.027 C 
ATOM     13  C   UNL     1       3.723   7.242  -5.261  1.00  0.00     0.017 C 
ATOM     14  C   UNL     1       2.207   8.491  -4.084  1.00  0.00    -0.027 C 
BRANCH   9  15
ATOM     15  C   UNL     1       1.640   4.610  -3.341  1.00  0.00     0.230 C 
ATOM     16  N   UNL     1       1.754   4.599  -1.988  1.00  0.00    -0.309 N 
ATOM     17  H   UNL     1       1.074   4.054  -1.530  1.00  0.00     0.171 HD
ATOM     18  O   UNL     1       0.811   3.828  -3.833  1.00  0.00    -0.274 OA
BRANCH  16  19
ATOM     19  C   UNL     1       2.641   5.209  -1.147  1.00  0.00     0.154 A 
ATOM     20  N   UNL     1       3.313   6.401   0.467  1.00  0.00    -0.271 N 
ATOM     21  C   UNL     1       4.449   6.054  -0.205  1.00  0.00     0.111 A 
ATOM     22  N   UNL     1       2.204   5.812  -0.038  1.00  0.00    -0.155 NA
ATOM     23  C   UNL     1       4.045   5.226  -1.222  1.00  0.00     0.068 A 
BRANCH  20  24
ATOM     24  C   UNL     1       3.251   7.323   1.587  1.00  0.00     0.141 C 
ATOM     25  C   UNL     1       2.214   6.960   2.627  1.00  0.00     0.029 C 
ENDBRANCH  20  24
ENDBRANCH  16  19
ENDBRANCH   9  15
ENDBRANCH   5   8
ENDBRANCH   3   4
ENDBRANCH   2   3
ENDBRANCH   1   2
BRANCH   1  26
ATOM     26  C   UNL     1      -2.937   5.408  -1.452  1.00  0.00     0.002 C 
BRANCH  26  27
ATOM     27  C   UNL     1      -2.131   4.517  -0.495  1.00  0.00     0.021 C 
BRANCH  27  28
ATOM     28  C   UNL     1      -2.271   4.875   0.973  1.00  0.00     0.116 C 
BRANCH  28  29
ATOM     29  N   UNL     1      -3.647   4.757   1.468  1.00  0.00    -0.352 N 
ATOM     30  C   UNL     1      -4.135   5.008   2.744  1.00  0.00     0.251 C 
ATOM     31  H   UNL     1      -4.314   4.461   0.807  1.00  0.00     0.163 HD
ATOM     32  O   UNL     1      -5.209   4.567   3.108  1.00  0.00    -0.269 OA
BRANCH  30  33
ATOM     33  C   UNL     1      -3.315   5.840   3.644  1.00  0.00     0.039 A 
ATOM     34  C   UNL     1      -3.180   5.585   5.013  1.00  0.00     0.014 A 
ATOM     35  C   UNL     1      -2.629   6.887   3.052  1.00  0.00     0.014 A 
ATOM     36  C   UNL     1      -2.281   6.357   5.754  1.00  0.00     0.010 A 
ATOM     37  C   UNL     1      -1.577   7.449   3.708  1.00  0.00     0.010 A 
ATOM     38  C   UNL     1      -1.472   7.282   5.082  1.00  0.00    -0.014 A 
BRANCH  38  39
ATOM     39  C   UNL     1      -0.446   8.084   5.741  1.00  0.00     0.031 A 
ATOM     40  C   UNL     1       0.641   7.314   6.420  1.00  0.00     0.074 A 
ATOM     41  C   UNL     1      -0.356   9.410   5.463  1.00  0.00     0.049 A 
ATOM     42  N   UNL     1       1.135   7.504   7.596  1.00  0.00    -0.248 NA
ATOM     43  C   UNL     1       1.227   6.151   5.729  1.00  0.00     0.031 C 
ATOM     44  C   UNL     1      -1.206  10.211   4.558  1.00  0.00     0.029 A 
ATOM     45  N   UNL     1       0.609  10.306   5.801  1.00  0.00    -0.354 N 
ATOM     46  C   UNL     1       2.207   6.623   7.730  1.00  0.00     0.074 A 
ATOM     47  C   UNL     1       2.183   5.765   6.576  1.00  0.00     0.031 C 
ATOM     48  C   UNL     1      -0.577  11.359   4.225  1.00  0.00     0.029 A 
ATOM     49  C   UNL     1       0.618  11.473   5.036  1.00  0.00     0.049 A 
ATOM     50  H   UNL     1       1.252  10.143   6.528  1.00  0.00     0.167 HD
ATOM     51  C   UNL     1       3.139   6.782   8.709  1.00  0.00     0.031 A 
ATOM     52  C   UNL     1       1.544  12.466   5.053  1.00  0.00     0.031 A 
ATOM     53  C   UNL     1       2.644   7.611   9.774  1.00  0.00     0.049 A 
ATOM     54  C   UNL     1       2.276  12.330   6.333  1.00  0.00     0.074 A 
ATOM     55  C   UNL     1       1.589   7.495  10.658  1.00  0.00     0.029 A 
ATOM     56  N   UNL     1       2.978   8.945   9.753  1.00  0.00    -0.354 N 
ATOM     57  N   UNL     1       1.709  12.483   7.498  1.00  0.00    -0.248 NA
ATOM     58  C   UNL     1       3.500  11.546   6.332  1.00  0.00     0.031 C 
ATOM     59  C   UNL     1       1.022   8.802  10.713  1.00  0.00     0.029 A 
ATOM     60  C   UNL     1       1.817   9.654   9.941  1.00  0.00     0.049 A 
ATOM     61  H   UNL     1       3.879   9.320   9.627  1.00  0.00     0.167 HD
ATOM     62  C   UNL     1       2.240  11.473   8.286  1.00  0.00     0.074 A 
ATOM     63  C   UNL     1       3.402  10.986   7.541  1.00  0.00     0.031 C 
ATOM     64  C   UNL     1       1.533  10.934   9.324  1.00  0.00     0.031 A 
BRANCH  51  65
ATOM     65  C   UNL     1       4.604   6.484   8.530  1.00  0.00    -0.014 A 
ATOM     66  C   UNL     1       5.468   6.644   9.633  1.00  0.00     0.010 A 
ATOM     67  C   UNL     1       5.199   6.346   7.259  1.00  0.00     0.010 A 
ATOM     68  C   UNL     1       6.854   6.751   9.460  1.00  0.00     0.020 A 
ATOM     69  C   UNL     1       6.583   6.415   7.081  1.00  0.00     0.020 A 
ATOM     70  C   UNL     1       7.399   6.657   8.180  1.00  0.00     0.054 A 
BRANCH  70  71
ATOM     71  S   UNL     1       9.174   6.938   7.955  1.00  0.00     0.124 S 
ATOM     72  O   UNL     1       9.306   8.341   8.335  1.00  0.00    -0.237 OA
ATOM     73  O   UNL     1       9.759   5.971   8.880  1.00  0.00    -0.237 OA
ATOM     74  O   UNL     1       9.388   6.650   6.539  1.00  0.00    -0.744 OA
ENDBRANCH  70  71
ENDBRANCH  51  65
BRANCH  52  75
ATOM     75  C   UNL     1       2.028  13.310   3.927  1.00  0.00    -0.014 A 
ATOM     76  C   UNL     1       2.783  14.478   4.154  1.00  0.00     0.010 A 
ATOM     77  C   UNL     1       1.990  12.808   2.609  1.00  0.00     0.010 A 
ATOM     78  C   UNL     1       3.522  15.081   3.117  1.00  0.00     0.020 A 
ATOM     79  C   UNL     1       2.721  13.404   1.571  1.00  0.00     0.020 A 
ATOM     80  C   UNL     1       3.506  14.524   1.836  1.00  0.00     0.054 A 
BRANCH  80  81
ATOM     81  S   UNL     1       4.611  15.186   0.549  1.00  0.00     0.124 S 
ATOM     82  O   UNL     1       4.001  16.476   0.245  1.00  0.00    -0.237 OA
ATOM     83  O   UNL     1       5.899  15.241   1.235  1.00  0.00    -0.237 OA
ATOM     84  O   UNL     1       4.527  14.191  -0.519  1.00  0.00    -0.744 OA
ENDBRANCH  80  81
ENDBRANCH  52  75
BRANCH  64  85
ATOM     85  C   UNL     1       0.222  11.586   9.723  1.00  0.00    -0.014 A 
ATOM     86  C   UNL     1      -0.908  11.652   8.881  1.00  0.00     0.010 A 
ATOM     87  C   UNL     1       0.074  11.978  11.063  1.00  0.00     0.010 A 
ATOM     88  C   UNL     1      -2.145  12.111   9.366  1.00  0.00     0.020 A 
ATOM     89  C   UNL     1      -1.157  12.419  11.557  1.00  0.00     0.020 A 
ATOM     90  C   UNL     1      -2.260  12.491  10.706  1.00  0.00     0.054 A 
BRANCH  90  91
ATOM     91  S   UNL     1      -3.870  13.030  11.350  1.00  0.00     0.124 S 
ATOM     92  O   UNL     1      -4.064  14.316  10.684  1.00  0.00    -0.237 OA
ATOM     93  O   UNL     1      -4.768  11.959  10.924  1.00  0.00    -0.237 OA
ATOM     94  O   UNL     1      -3.657  13.109  12.795  1.00  0.00    -0.744 OA
ENDBRANCH  90  91
ENDBRANCH  64  85
ENDBRANCH  38  39
ENDBRANCH  30  33
ENDBRANCH  28  29
ENDBRANCH  27  28
ENDBRANCH  26  27
ENDBRANCH   1  26
TORSDOF 19
