REMARK SMILES Cc1nc2cc(SCC(=O)NCCCCCCNC(=O)c3ccc(-c4c5nc(c(-c6ccc(S(=O)(=O)[O-])cc6)c6ccc([nH]6)c(-c6ccc(S(=O)(=O)[O-])cc6)c6nc(c(-c7ccc(S(=O)(=O)[O-])cc7)c7ccc4[nH]7)C=C6)C=C5)cc3)ccc2s1
REMARK SMILES IDX 15 1 14 2 13 3 12 4 11 5 9 6 10 7 8 9 7 10 6 11 1 12 2 13
REMARK SMILES IDX 3 14 84 15 4 16 83 17 5 18 82 19 81 20 16 21 17 22 18 23
REMARK SMILES IDX 19 24 20 26 21 27 22 28 80 29 23 30 79 31 24 32 25 33 26 34
REMARK SMILES IDX 73 35 27 36 78 37 72 38 74 39 28 40 77 41 71 42 70 43 29 45
REMARK SMILES IDX 59 46 40 47 58 48 41 49 44 50 57 51 75 52 42 53 43 54 56 56
REMARK SMILES IDX 76 57 45 58 30 59 31 60 39 61 32 62 38 63 33 64 34 65 35 66
REMARK SMILES IDX 36 67 37 68 60 69 61 70 69 71 62 72 68 73 63 74 64 75 65 76
REMARK SMILES IDX 66 77 67 78 46 79 47 80 55 81 48 82 54 83 49 84 50 85 51 86
REMARK SMILES IDX 52 87 53 88
REMARK H PARENT 11 8 18 25 74 44 44 55
REMARK Flexibility Score: inf
ROOT
ATOM      1  C   UNL     1       5.853   1.720   5.716  1.00  0.00     0.002 C 
ENDROOT
BRANCH   1   2
ATOM      2  C   UNL     1       4.643   1.459   4.812  1.00  0.00     0.002 C 
BRANCH   2   3
ATOM      3  C   UNL     1       4.719   2.101   3.419  1.00  0.00     0.021 C 
BRANCH   3   4
ATOM      4  C   UNL     1       5.952   1.692   2.611  1.00  0.00     0.116 C 
BRANCH   4   5
ATOM      5  N   UNL     1       5.914   0.276   2.301  1.00  0.00    -0.355 N 
ATOM      6  C   UNL     1       5.695  -0.351   1.114  1.00  0.00     0.230 C 
ATOM      7  O   UNL     1       5.625  -1.584   1.121  1.00  0.00    -0.274 OA
ATOM      8  H   UNL     1       6.071  -0.323   3.067  1.00  0.00     0.163 HD
BRANCH   6   9
ATOM      9  C   UNL     1       5.649   0.420  -0.191  1.00  0.00     0.174 C 
BRANCH   9  10
ATOM     10  S   UNL     1       4.269   1.592  -0.356  1.00  0.00    -0.116 SA
BRANCH  10  11
ATOM     11  C   UNL     1       2.775   0.626  -0.215  1.00  0.00     0.010 A 
ATOM     12  C   UNL     1      -3.307   0.769   0.057  1.00  0.00     0.079 C 
ATOM     13  C   UNL     1      -1.855   0.446   0.043  1.00  0.00     0.091 A 
ATOM     14  N   UNL     1      -0.899   1.346   0.004  1.00  0.00    -0.241 NA
ATOM     15  S   UNL     1      -1.337  -1.190   0.059  1.00  0.00    -0.119 S 
ATOM     16  C   UNL     1       0.335   0.722  -0.049  1.00  0.00     0.083 A 
ATOM     17  C   UNL     1       0.301  -0.672  -0.039  1.00  0.00     0.055 A 
ATOM     18  C   UNL     1       1.585   1.367  -0.124  1.00  0.00     0.045 A 
ATOM     19  C   UNL     1       1.474  -1.435  -0.115  1.00  0.00     0.022 A 
ATOM     20  C   UNL     1       2.702  -0.765  -0.222  1.00  0.00     0.016 A 
ENDBRANCH  10  11
ENDBRANCH   9  10
ENDBRANCH   6   9
ENDBRANCH   4   5
ENDBRANCH   3   4
ENDBRANCH   2   3
ENDBRANCH   1   2
BRANCH   1  21
ATOM     21  C   UNL     1       6.192   3.197   5.927  1.00  0.00     0.021 C 
BRANCH  21  22
ATOM     22  C   UNL     1       5.072   4.019   6.553  1.00  0.00     0.116 C 
BRANCH  22  23
ATOM     23  N   UNL     1       4.763   3.580   7.906  1.00  0.00    -0.352 N 
ATOM     24  C   UNL     1       4.736   4.308   9.068  1.00  0.00     0.251 C 
ATOM     25  H   UNL     1       4.544   2.625   8.000  1.00  0.00     0.163 HD
ATOM     26  O   UNL     1       4.657   3.733  10.152  1.00  0.00    -0.269 OA
BRANCH  24  27
ATOM     27  C   UNL     1       4.821   5.783   9.015  1.00  0.00     0.039 A 
ATOM     28  C   UNL     1       5.663   6.448   9.909  1.00  0.00     0.014 A 
ATOM     29  C   UNL     1       4.071   6.508   8.084  1.00  0.00     0.014 A 
ATOM     30  C   UNL     1       5.796   7.837   9.832  1.00  0.00     0.010 A 
ATOM     31  C   UNL     1       4.264   7.881   7.958  1.00  0.00     0.010 A 
ATOM     32  C   UNL     1       5.123   8.561   8.834  1.00  0.00    -0.014 A 
BRANCH  32  33
ATOM     33  C   UNL     1       5.297  10.030   8.694  1.00  0.00     0.031 A 
ATOM     34  C   UNL     1       4.122  10.951   8.887  1.00  0.00     0.074 A 
ATOM     35  C   UNL     1       6.495  10.531   8.331  1.00  0.00     0.049 A 
ATOM     36  N   UNL     1       4.059  12.250   8.740  1.00  0.00    -0.248 NA
ATOM     37  C   UNL     1       2.845  10.329   9.273  1.00  0.00     0.031 C 
ATOM     38  C   UNL     1       7.705   9.742   8.083  1.00  0.00     0.029 A 
ATOM     39  N   UNL     1       6.892  11.825   8.100  1.00  0.00    -0.354 N 
ATOM     40  C   UNL     1       2.737  12.596   8.998  1.00  0.00     0.074 A 
ATOM     41  C   UNL     1       2.022  11.367   9.259  1.00  0.00     0.031 C 
ATOM     42  C   UNL     1       8.711  10.569   7.761  1.00  0.00     0.029 A 
ATOM     43  C   UNL     1       8.212  11.941   7.731  1.00  0.00     0.049 A 
ATOM     44  H   UNL     1       6.289  12.598   8.190  1.00  0.00     0.167 HD
ATOM     45  C   UNL     1       2.173  13.828   9.032  1.00  0.00     0.031 A 
ATOM     46  C   UNL     1       8.937  13.025   7.394  1.00  0.00     0.031 A 
ATOM     47  C   UNL     1       2.890  15.049   8.776  1.00  0.00     0.049 A 
ATOM     48  C   UNL     1       8.282  14.380   7.412  1.00  0.00     0.074 A 
ATOM     49  C   UNL     1       2.421  16.349   8.836  1.00  0.00     0.029 A 
ATOM     50  N   UNL     1       4.225  15.122   8.406  1.00  0.00    -0.354 N 
ATOM     51  N   UNL     1       7.046  14.693   7.720  1.00  0.00    -0.248 NA
ATOM     52  C   UNL     1       9.122  15.529   7.048  1.00  0.00     0.031 C 
ATOM     53  C   UNL     1       3.455  17.205   8.442  1.00  0.00     0.029 A 
ATOM     54  C   UNL     1       4.588  16.444   8.206  1.00  0.00     0.049 A 
ATOM     55  H   UNL     1       4.826  14.349   8.301  1.00  0.00     0.167 HD
ATOM     56  C   UNL     1       6.969  16.078   7.617  1.00  0.00     0.074 A 
ATOM     57  C   UNL     1       8.287  16.542   7.234  1.00  0.00     0.031 C 
ATOM     58  C   UNL     1       5.904  16.892   7.824  1.00  0.00     0.031 A 
BRANCH  45  59
ATOM     59  C   UNL     1       0.702  13.913   9.349  1.00  0.00    -0.014 A 
ATOM     60  C   UNL     1       0.211  13.597  10.629  1.00  0.00     0.010 A 
ATOM     61  C   UNL     1      -0.200  14.356   8.364  1.00  0.00     0.010 A 
ATOM     62  C   UNL     1      -1.156  13.680  10.905  1.00  0.00     0.020 A 
ATOM     63  C   UNL     1      -1.565  14.472   8.646  1.00  0.00     0.020 A 
ATOM     64  C   UNL     1      -2.036  14.116   9.911  1.00  0.00     0.054 A 
BRANCH  64  65
ATOM     65  S   UNL     1      -3.802  14.236  10.306  1.00  0.00     0.124 S 
ATOM     66  O   UNL     1      -4.187  12.829  10.395  1.00  0.00    -0.237 OA
ATOM     67  O   UNL     1      -3.797  14.966  11.571  1.00  0.00    -0.237 OA
ATOM     68  O   UNL     1      -4.364  14.964   9.171  1.00  0.00    -0.744 OA
ENDBRANCH  64  65
ENDBRANCH  45  59
BRANCH  46  69
ATOM     69  C   UNL     1      10.370  12.875   7.015  1.00  0.00    -0.014 A 
ATOM     70  C   UNL     1      11.387  13.369   7.851  1.00  0.00     0.010 A 
ATOM     71  C   UNL     1      10.727  12.228   5.817  1.00  0.00     0.010 A 
ATOM     72  C   UNL     1      12.731  13.238   7.487  1.00  0.00     0.020 A 
ATOM     73  C   UNL     1      12.070  12.066   5.465  1.00  0.00     0.020 A 
ATOM     74  C   UNL     1      13.064  12.584   6.297  1.00  0.00     0.054 A 
BRANCH  74  75
ATOM     75  S   UNL     1      14.816  12.382   5.870  1.00  0.00     0.124 S 
ATOM     76  O   UNL     1      15.200  13.744   5.512  1.00  0.00    -0.237 OA
ATOM     77  O   UNL     1      15.385  11.869   7.114  1.00  0.00    -0.237 OA
ATOM     78  O   UNL     1      14.790  11.427   4.765  1.00  0.00    -0.744 OA
ENDBRANCH  74  75
ENDBRANCH  46  69
BRANCH  58  79
ATOM     79  C   UNL     1       6.124  18.376   7.679  1.00  0.00    -0.014 A 
ATOM     80  C   UNL     1       6.340  18.967   6.422  1.00  0.00     0.010 A 
ATOM     81  C   UNL     1       6.056  19.198   8.820  1.00  0.00     0.010 A 
ATOM     82  C   UNL     1       6.516  20.349   6.312  1.00  0.00     0.020 A 
ATOM     83  C   UNL     1       6.199  20.584   8.710  1.00  0.00     0.020 A 
ATOM     84  C   UNL     1       6.443  21.149   7.457  1.00  0.00     0.054 A 
BRANCH  84  85
ATOM     85  S   UNL     1       6.629  22.944   7.281  1.00  0.00     0.124 S 
ATOM     86  O   UNL     1       8.054  23.075   6.990  1.00  0.00    -0.237 OA
ATOM     87  O   UNL     1       5.730  23.251   6.171  1.00  0.00    -0.237 OA
ATOM     88  O   UNL     1       6.208  23.467   8.579  1.00  0.00    -0.744 OA
ENDBRANCH  84  85
ENDBRANCH  58  79
ENDBRANCH  32  33
ENDBRANCH  24  27
ENDBRANCH  22  23
ENDBRANCH  21  22
ENDBRANCH   1  21
TORSDOF 18
