REMARK SMILES CSCC[C@@H](NC(=O)[C@@]1(C)Oc2ccccc2NC1=O)C(=O)NCCCCCCNC(=O)c1ccc(-c2c3nc(c(-c4ccc(S(=O)(=O)[O-])cc4)c4ccc([nH]4)c(-c4ccc(S(=O)(=O)[O-])cc4)c4nc(c(-c5ccc(S(=O)(=O)[O-])cc5)c5ccc2[nH]5)C=C4)C=C3)cc1
REMARK SMILES IDX 26 1 25 2 24 3 23 4 21 5 22 6 5 8 4 9 3 10 2 11 1 12 6 13
REMARK SMILES IDX 7 14 8 16 9 17 10 18 11 19 19 20 12 21 18 22 20 23 13 24
REMARK SMILES IDX 17 25 14 27 16 28 15 29 27 30 28 31 29 32 30 33 31 34 32 36
REMARK SMILES IDX 33 37 34 38 92 39 35 40 91 41 36 42 37 43 38 44 85 45 39 46
REMARK SMILES IDX 90 47 84 48 86 49 40 50 89 51 83 52 82 53 41 55 71 56 52 57
REMARK SMILES IDX 70 58 53 59 56 60 69 61 87 62 54 63 55 64 68 66 88 67 57 68
REMARK SMILES IDX 42 69 43 70 51 71 44 72 50 73 45 74 46 75 47 76 48 77 49 78
REMARK SMILES IDX 72 79 73 80 81 81 74 82 80 83 75 84 76 85 77 86 78 87 79 88
REMARK SMILES IDX 58 89 59 90 67 91 60 92 66 93 61 94 62 95 63 96 64 97 65 98
REMARK H PARENT 23 7 6 15 18 26 30 35 86 54 56 65
REMARK Flexibility Score: inf
ROOT
ATOM      1  C   UNL     1       0.138  -6.568   4.957  1.00  0.00     0.002 C 
ENDROOT
BRANCH   1   2
ATOM      2  C   UNL     1       0.176  -5.108   5.448  1.00  0.00     0.021 C 
BRANCH   2   3
ATOM      3  C   UNL     1       0.509  -3.988   4.451  1.00  0.00     0.116 C 
BRANCH   3   4
ATOM      4  N   UNL     1      -0.449  -3.862   3.357  1.00  0.00    -0.354 N 
ATOM      5  C   UNL     1      -0.217  -3.410   2.079  1.00  0.00     0.242 C 
ATOM      6  O   UNL     1      -1.037  -3.698   1.197  1.00  0.00    -0.273 OA
ATOM      7  H   UNL     1      -1.373  -4.134   3.558  1.00  0.00     0.163 HD
BRANCH   5   8
ATOM      8  C   UNL     1       1.032  -2.547   1.718  1.00  0.00     0.172 C 
BRANCH   8   9
ATOM      9  C   UNL     1       0.965  -1.337   2.688  1.00  0.00     0.046 C 
BRANCH   9  10
ATOM     10  C   UNL     1       1.554  -0.017   2.209  1.00  0.00     0.072 C 
BRANCH  10  11
ATOM     11  S   UNL     1       0.470   0.887   1.058  1.00  0.00    -0.165 SA
ATOM     12  C   UNL     1       1.192   0.383  -0.519  1.00  0.00     0.085 C 
ENDBRANCH  10  11
ENDBRANCH   9  10
ENDBRANCH   8   9
BRANCH   8  13
ATOM     13  N   UNL     1       2.418  -3.107   1.689  1.00  0.00    -0.340 N 
ATOM     14  C   UNL     1       3.084  -4.071   0.972  1.00  0.00     0.274 C 
ATOM     15  H   UNL     1       3.002  -2.674   2.353  1.00  0.00     0.164 HD
ATOM     16  O   UNL     1       4.304  -3.866   0.866  1.00  0.00    -0.270 OA
BRANCH  14  17
ATOM     17  C   UNL     1       2.450  -5.332   0.301  1.00  0.00     0.261 C 
ATOM     18  C   UNL     1       2.135  -4.981  -1.155  1.00  0.00     0.079 C 
ATOM     19  O   UNL     1       3.394  -6.452   0.287  1.00  0.00    -0.466 OA
ATOM     20  C   UNL     1       1.249  -5.812   1.064  1.00  0.00     0.278 C 
ATOM     21  C   UNL     1       2.853  -7.725   0.402  1.00  0.00     0.145 A 
ATOM     22  N   UNL     1       0.598  -6.887   0.546  1.00  0.00    -0.319 N 
ATOM     23  O   UNL     1       1.042  -5.548   2.237  1.00  0.00    -0.269 OA
ATOM     24  C   UNL     1       3.725  -8.784   0.626  1.00  0.00     0.049 A 
ATOM     25  C   UNL     1       1.467  -7.977   0.442  1.00  0.00     0.084 A 
ATOM     26  H   UNL     1      -0.350  -6.897   0.281  1.00  0.00     0.170 HD
ATOM     27  C   UNL     1       3.213 -10.058   0.913  1.00  0.00     0.004 A 
ATOM     28  C   UNL     1       0.952  -9.248   0.683  1.00  0.00     0.030 A 
ATOM     29  C   UNL     1       1.834 -10.290   0.938  1.00  0.00     0.002 A 
ENDBRANCH  14  17
ENDBRANCH   8  13
ENDBRANCH   5   8
ENDBRANCH   3   4
ENDBRANCH   2   3
ENDBRANCH   1   2
BRANCH   1  30
ATOM     30  C   UNL     1       1.448  -7.313   4.649  1.00  0.00     0.002 C 
BRANCH  30  31
ATOM     31  C   UNL     1       2.608  -7.158   5.621  1.00  0.00     0.021 C 
BRANCH  31  32
ATOM     32  C   UNL     1       2.302  -7.485   7.071  1.00  0.00     0.116 C 
BRANCH  32  33
ATOM     33  N   UNL     1       1.850  -8.847   7.306  1.00  0.00    -0.352 N 
ATOM     34  C   UNL     1       2.040  -9.621   8.435  1.00  0.00     0.251 C 
ATOM     35  H   UNL     1       1.348  -9.269   6.572  1.00  0.00     0.163 HD
ATOM     36  O   UNL     1       1.635 -10.770   8.481  1.00  0.00    -0.269 OA
BRANCH  34  37
ATOM     37  C   UNL     1       2.807  -9.044   9.568  1.00  0.00     0.039 A 
ATOM     38  C   UNL     1       2.530  -7.758  10.031  1.00  0.00     0.014 A 
ATOM     39  C   UNL     1       3.879  -9.766  10.098  1.00  0.00     0.014 A 
ATOM     40  C   UNL     1       3.442  -7.119  10.862  1.00  0.00     0.010 A 
ATOM     41  C   UNL     1       4.739  -9.154  11.016  1.00  0.00     0.010 A 
ATOM     42  C   UNL     1       4.565  -7.803  11.356  1.00  0.00    -0.014 A 
BRANCH  42  43
ATOM     43  C   UNL     1       5.546  -7.076  12.206  1.00  0.00     0.031 A 
ATOM     44  C   UNL     1       6.966  -6.868  11.742  1.00  0.00     0.074 A 
ATOM     45  C   UNL     1       5.132  -6.534  13.369  1.00  0.00     0.049 A 
ATOM     46  N   UNL     1       7.938  -6.226  12.342  1.00  0.00    -0.248 NA
ATOM     47  C   UNL     1       7.349  -7.449  10.445  1.00  0.00     0.031 C 
ATOM     48  C   UNL     1       3.774  -6.642  13.908  1.00  0.00     0.029 A 
ATOM     49  N   UNL     1       5.790  -5.752  14.285  1.00  0.00    -0.354 N 
ATOM     50  C   UNL     1       9.045  -6.342  11.508  1.00  0.00     0.074 A 
ATOM     51  C   UNL     1       8.638  -7.140  10.374  1.00  0.00     0.031 C 
ATOM     52  C   UNL     1       3.680  -5.894  15.016  1.00  0.00     0.029 A 
ATOM     53  C   UNL     1       4.987  -5.314  15.312  1.00  0.00     0.049 A 
ATOM     54  H   UNL     1       6.746  -5.526  14.213  1.00  0.00     0.167 HD
ATOM     55  C   UNL     1      10.284  -5.819  11.669  1.00  0.00     0.031 A 
ATOM     56  C   UNL     1       5.261  -4.538  16.379  1.00  0.00     0.031 A 
ATOM     57  C   UNL     1      10.678  -5.007  12.792  1.00  0.00     0.049 A 
ATOM     58  C   UNL     1       6.651  -3.998  16.552  1.00  0.00     0.074 A 
ATOM     59  C   UNL     1      11.913  -4.433  13.042  1.00  0.00     0.029 A 
ATOM     60  N   UNL     1       9.848  -4.641  13.841  1.00  0.00    -0.354 N 
ATOM     61  N   UNL     1       7.688  -4.138  15.762  1.00  0.00    -0.248 NA
ATOM     62  C   UNL     1       6.912  -3.197  17.756  1.00  0.00     0.031 C 
ATOM     63  C   UNL     1      11.846  -3.766  14.266  1.00  0.00     0.029 A 
ATOM     64  C   UNL     1      10.550  -3.862  14.747  1.00  0.00     0.049 A 
ATOM     65  H   UNL     1       8.901  -4.895  13.929  1.00  0.00     0.167 HD
ATOM     66  C   UNL     1       8.721  -3.430  16.364  1.00  0.00     0.074 A 
ATOM     67  C   UNL     1       8.180  -2.849  17.576  1.00  0.00     0.031 C 
ATOM     68  C   UNL     1      10.002  -3.283  15.949  1.00  0.00     0.031 A 
BRANCH  55  69
ATOM     69  C   UNL     1      11.325  -6.096  10.614  1.00  0.00    -0.014 A 
ATOM     70  C   UNL     1      12.443  -6.891  10.928  1.00  0.00     0.010 A 
ATOM     71  C   UNL     1      11.266  -5.469   9.356  1.00  0.00     0.010 A 
ATOM     72  C   UNL     1      13.497  -7.029  10.020  1.00  0.00     0.020 A 
ATOM     73  C   UNL     1      12.305  -5.627   8.434  1.00  0.00     0.020 A 
ATOM     74  C   UNL     1      13.426  -6.386   8.781  1.00  0.00     0.054 A 
BRANCH  74  75
ATOM     75  S   UNL     1      14.815  -6.553   7.626  1.00  0.00     0.124 S 
ATOM     76  O   UNL     1      15.810  -5.658   8.210  1.00  0.00    -0.237 OA
ATOM     77  O   UNL     1      15.126  -7.978   7.702  1.00  0.00    -0.237 OA
ATOM     78  O   UNL     1      14.252  -6.116   6.350  1.00  0.00    -0.744 OA
ENDBRANCH  74  75
ENDBRANCH  55  69
BRANCH  56  79
ATOM     79  C   UNL     1       4.169  -4.217  17.339  1.00  0.00    -0.014 A 
ATOM     80  C   UNL     1       3.592  -5.232  18.126  1.00  0.00     0.010 A 
ATOM     81  C   UNL     1       3.635  -2.919  17.401  1.00  0.00     0.010 A 
ATOM     82  C   UNL     1       2.463  -4.972  18.905  1.00  0.00     0.020 A 
ATOM     83  C   UNL     1       2.524  -2.647  18.207  1.00  0.00     0.020 A 
ATOM     84  C   UNL     1       1.926  -3.683  18.927  1.00  0.00     0.054 A 
BRANCH  84  85
ATOM     85  S   UNL     1       0.425  -3.381  19.899  1.00  0.00     0.124 S 
ATOM     86  O   UNL     1      -0.609  -3.942  19.033  1.00  0.00    -0.237 OA
ATOM     87  O   UNL     1       0.685  -4.122  21.130  1.00  0.00    -0.237 OA
ATOM     88  O   UNL     1       0.399  -1.928  20.044  1.00  0.00    -0.744 OA
ENDBRANCH  84  85
ENDBRANCH  56  79
BRANCH  68  89
ATOM     89  C   UNL     1      10.931  -2.449  16.791  1.00  0.00    -0.014 A 
ATOM     90  C   UNL     1      11.412  -1.225  16.289  1.00  0.00     0.010 A 
ATOM     91  C   UNL     1      11.433  -2.935  18.010  1.00  0.00     0.010 A 
ATOM     92  C   UNL     1      12.402  -0.518  16.973  1.00  0.00     0.020 A 
ATOM     93  C   UNL     1      12.405  -2.216  18.712  1.00  0.00     0.020 A 
ATOM     94  C   UNL     1      12.901  -1.025  18.176  1.00  0.00     0.054 A 
BRANCH  94  95
ATOM     95  S   UNL     1      14.212  -0.111  19.034  1.00  0.00     0.124 S 
ATOM     96  O   UNL     1      15.394  -0.463  18.253  1.00  0.00    -0.237 OA
ATOM     97  O   UNL     1      13.770   1.276  18.916  1.00  0.00    -0.237 OA
ATOM     98  O   UNL     1      14.175  -0.654  20.390  1.00  0.00    -0.744 OA
ENDBRANCH  94  95
ENDBRANCH  68  89
ENDBRANCH  42  43
ENDBRANCH  34  37
ENDBRANCH  32  33
ENDBRANCH  31  32
ENDBRANCH  30  31
ENDBRANCH   1  30
TORSDOF 21
