REMARK SMILES CC(C)[C@H](NC(=O)CCNC(=O)c1ccoc1)C(=O)NCCCCCCNC(=O)c1ccc(-c2c3nc(c(-c4ccc(S(=O)(=O)[O-])cc4)c4ccc([nH]4)c(-c4ccc(S(=O)(=O)[O-])cc4)c4nc(c(-c5ccc(S(=O)(=O)[O-])cc5)c5ccc2[nH]5)C=C4)C=C3)cc1
REMARK SMILES IDX 22 1 21 2 20 3 18 4 19 5 4 7 2 8 1 9 3 10 5 11 6 12 7 14
REMARK SMILES IDX 8 15 9 16 10 17 11 18 12 20 13 21 14 22 17 23 15 24 16 25
REMARK SMILES IDX 23 26 24 27 25 28 26 29 27 30 28 31 29 33 30 34 31 35 89 36
REMARK SMILES IDX 32 37 88 38 33 39 34 40 35 41 82 42 36 43 87 44 81 45 83 46
REMARK SMILES IDX 37 47 86 48 80 49 79 50 38 52 68 53 49 54 67 55 50 56 53 57
REMARK SMILES IDX 66 58 84 59 51 60 52 61 65 63 85 64 54 65 39 66 40 67 48 68
REMARK SMILES IDX 41 69 47 70 42 71 43 72 44 73 45 74 46 75 69 76 70 77 78 78
REMARK SMILES IDX 71 79 77 80 72 81 73 82 74 83 75 84 76 85 55 86 56 87 64 88
REMARK SMILES IDX 57 89 63 90 58 91 59 92 60 93 61 94 62 95
REMARK H PARENT 20 6 5 13 10 19 27 32 83 51 53 62
REMARK Flexibility Score: inf
ROOT
ATOM      1  C   UNL     1       1.390   5.311   1.213  1.00  0.00     0.021 C 
ENDROOT
BRANCH   1   2
ATOM      2  C   UNL     1       0.337   4.217   1.154  1.00  0.00     0.116 C 
BRANCH   2   3
ATOM      3  N   UNL     1      -0.350   4.190  -0.128  1.00  0.00    -0.354 N 
ATOM      4  C   UNL     1      -1.031   3.193  -0.765  1.00  0.00     0.242 C 
ATOM      5  O   UNL     1      -1.781   3.520  -1.690  1.00  0.00    -0.273 OA
ATOM      6  H   UNL     1      -0.318   5.040  -0.623  1.00  0.00     0.163 HD
BRANCH   4   7
ATOM      7  C   UNL     1      -0.971   1.725  -0.292  1.00  0.00     0.173 C 
BRANCH   7   8
ATOM      8  C   UNL     1      -2.012   1.401   0.813  1.00  0.00     0.015 C 
ATOM      9  C   UNL     1      -2.119   2.365   1.992  1.00  0.00     0.010 C 
ATOM     10  C   UNL     1      -3.407   1.218   0.201  1.00  0.00     0.010 C 
ENDBRANCH   7   8
BRANCH   7  11
ATOM     11  N   UNL     1       0.417   1.345   0.001  1.00  0.00    -0.344 N 
ATOM     12  C   UNL     1       1.049   0.147  -0.026  1.00  0.00     0.222 C 
ATOM     13  H   UNL     1       0.993   2.098   0.266  1.00  0.00     0.164 HD
ATOM     14  O   UNL     1       2.261   0.119   0.187  1.00  0.00    -0.275 OA
BRANCH  12  15
ATOM     15  C   UNL     1       0.286  -1.111  -0.324  1.00  0.00     0.121 C 
BRANCH  15  16
ATOM     16  C   UNL     1      -0.316  -1.675   0.944  1.00  0.00     0.126 C 
BRANCH  16  17
ATOM     17  N   UNL     1      -1.720  -2.000   0.793  1.00  0.00    -0.351 N 
ATOM     18  C   UNL     1      -2.466  -2.207   1.936  1.00  0.00     0.254 C 
ATOM     19  H   UNL     1      -2.130  -2.072  -0.099  1.00  0.00     0.163 HD
ATOM     20  O   UNL     1      -2.251  -1.661   3.007  1.00  0.00    -0.269 OA
BRANCH  18  21
ATOM     21  C   UNL     1      -3.356  -3.332   1.796  1.00  0.00     0.077 A 
ATOM     22  C   UNL     1      -3.288  -4.526   2.563  1.00  0.00     0.056 A 
ATOM     23  C   UNL     1      -4.337  -3.540   0.853  1.00  0.00     0.208 A 
ATOM     24  C   UNL     1      -4.184  -5.397   1.997  1.00  0.00     0.195 A 
ATOM     25  O   UNL     1      -4.837  -4.800   0.965  1.00  0.00    -0.472 OA
ENDBRANCH  18  21
ENDBRANCH  16  17
ENDBRANCH  15  16
ENDBRANCH  12  15
ENDBRANCH   7  11
ENDBRANCH   4   7
ENDBRANCH   2   3
ENDBRANCH   1   2
BRANCH   1  26
ATOM     26  C   UNL     1       0.794   6.708   1.411  1.00  0.00     0.002 C 
BRANCH  26  27
ATOM     27  C   UNL     1      -0.137   6.860   2.622  1.00  0.00     0.002 C 
BRANCH  27  28
ATOM     28  C   UNL     1       0.428   6.375   3.962  1.00  0.00     0.021 C 
BRANCH  28  29
ATOM     29  C   UNL     1       1.789   6.950   4.337  1.00  0.00     0.116 C 
BRANCH  29  30
ATOM     30  N   UNL     1       1.812   8.400   4.286  1.00  0.00    -0.352 N 
ATOM     31  C   UNL     1       2.436   9.287   5.121  1.00  0.00     0.251 C 
ATOM     32  H   UNL     1       1.306   8.804   3.544  1.00  0.00     0.163 HD
ATOM     33  O   UNL     1       2.236  10.491   4.990  1.00  0.00    -0.269 OA
BRANCH  31  34
ATOM     34  C   UNL     1       3.323   8.793   6.194  1.00  0.00     0.039 A 
ATOM     35  C   UNL     1       3.197   9.352   7.467  1.00  0.00     0.014 A 
ATOM     36  C   UNL     1       4.280   7.803   5.949  1.00  0.00     0.014 A 
ATOM     37  C   UNL     1       4.006   8.892   8.506  1.00  0.00     0.010 A 
ATOM     38  C   UNL     1       5.042   7.301   7.001  1.00  0.00     0.010 A 
ATOM     39  C   UNL     1       4.920   7.849   8.286  1.00  0.00    -0.014 A 
BRANCH  39  40
ATOM     40  C   UNL     1       5.757   7.334   9.396  1.00  0.00     0.031 A 
ATOM     41  C   UNL     1       7.248   7.530   9.376  1.00  0.00     0.074 A 
ATOM     42  C   UNL     1       5.172   6.662  10.408  1.00  0.00     0.049 A 
ATOM     43  N   UNL     1       8.138   7.157  10.258  1.00  0.00    -0.248 NA
ATOM     44  C   UNL     1       7.816   8.213   8.202  1.00  0.00     0.031 C 
ATOM     45  C   UNL     1       3.741   6.366  10.511  1.00  0.00     0.029 A 
ATOM     46  N   UNL     1       5.709   6.108  11.541  1.00  0.00    -0.354 N 
ATOM     47  C   UNL     1       9.369   7.546   9.743  1.00  0.00     0.074 A 
ATOM     48  C   UNL     1       9.116   8.143   8.450  1.00  0.00     0.031 C 
ATOM     49  C   UNL     1       3.510   5.710  11.660  1.00  0.00     0.029 A 
ATOM     50  C   UNL     1       4.777   5.513  12.358  1.00  0.00     0.049 A 
ATOM     51  H   UNL     1       6.671   6.133  11.750  1.00  0.00     0.167 HD
ATOM     52  C   UNL     1      10.597   7.434  10.304  1.00  0.00     0.031 A 
ATOM     53  C   UNL     1       4.925   4.885  13.540  1.00  0.00     0.031 A 
ATOM     54  C   UNL     1      10.841   6.855  11.598  1.00  0.00     0.049 A 
ATOM     55  C   UNL     1       6.295   4.793  14.152  1.00  0.00     0.074 A 
ATOM     56  C   UNL     1      12.039   6.750  12.282  1.00  0.00     0.029 A 
ATOM     57  N   UNL     1       9.868   6.281  12.403  1.00  0.00    -0.354 N 
ATOM     58  N   UNL     1       7.437   5.234  13.682  1.00  0.00    -0.248 NA
ATOM     59  C   UNL     1       6.392   4.135  15.461  1.00  0.00     0.031 C 
ATOM     60  C   UNL     1      11.798   6.074  13.483  1.00  0.00     0.029 A 
ATOM     61  C   UNL     1      10.441   5.804  13.569  1.00  0.00     0.049 A 
ATOM     62  H   UNL     1       8.911   6.223  12.179  1.00  0.00     0.167 HD
ATOM     63  C   UNL     1       8.387   4.926  14.649  1.00  0.00     0.074 A 
ATOM     64  C   UNL     1       7.681   4.279  15.737  1.00  0.00     0.031 C 
ATOM     65  C   UNL     1       9.723   5.157  14.638  1.00  0.00     0.031 A 
BRANCH  52  66
ATOM     66  C   UNL     1      11.772   7.951   9.516  1.00  0.00    -0.014 A 
ATOM     67  C   UNL     1      11.970   9.331   9.330  1.00  0.00     0.010 A 
ATOM     68  C   UNL     1      12.713   7.048   8.990  1.00  0.00     0.010 A 
ATOM     69  C   UNL     1      13.066   9.797   8.599  1.00  0.00     0.020 A 
ATOM     70  C   UNL     1      13.825   7.511   8.280  1.00  0.00     0.020 A 
ATOM     71  C   UNL     1      13.985   8.883   8.075  1.00  0.00     0.054 A 
BRANCH  71  72
ATOM     72  S   UNL     1      15.413   9.516   7.153  1.00  0.00     0.124 S 
ATOM     73  O   UNL     1      14.801   9.915   5.888  1.00  0.00    -0.237 OA
ATOM     74  O   UNL     1      15.881  10.612   7.997  1.00  0.00    -0.237 OA
ATOM     75  O   UNL     1      16.312   8.367   7.074  1.00  0.00    -0.744 OA
ENDBRANCH  71  72
ENDBRANCH  52  66
BRANCH  53  76
ATOM     76  C   UNL     1       3.737   4.314  14.230  1.00  0.00    -0.014 A 
ATOM     77  C   UNL     1       3.227   4.920  15.392  1.00  0.00     0.010 A 
ATOM     78  C   UNL     1       3.100   3.169  13.719  1.00  0.00     0.010 A 
ATOM     79  C   UNL     1       2.114   4.378  16.043  1.00  0.00     0.020 A 
ATOM     80  C   UNL     1       1.972   2.640  14.352  1.00  0.00     0.020 A 
ATOM     81  C   UNL     1       1.494   3.241  15.518  1.00  0.00     0.054 A 
BRANCH  81  82
ATOM     82  S   UNL     1       0.021   2.583  16.349  1.00  0.00     0.124 S 
ATOM     83  O   UNL     1       0.601   1.914  17.509  1.00  0.00    -0.237 OA
ATOM     84  O   UNL     1      -0.749   3.791  16.634  1.00  0.00    -0.237 OA
ATOM     85  O   UNL     1      -0.570   1.700  15.346  1.00  0.00    -0.744 OA
ENDBRANCH  81  82
ENDBRANCH  53  76
BRANCH  65  86
ATOM     86  C   UNL     1      10.504   4.730  15.851  1.00  0.00    -0.014 A 
ATOM     87  C   UNL     1      10.759   3.371  16.109  1.00  0.00     0.010 A 
ATOM     88  C   UNL     1      11.020   5.705  16.724  1.00  0.00     0.010 A 
ATOM     89  C   UNL     1      11.484   2.993  17.242  1.00  0.00     0.020 A 
ATOM     90  C   UNL     1      11.768   5.332  17.843  1.00  0.00     0.020 A 
ATOM     91  C   UNL     1      11.980   3.976  18.104  1.00  0.00     0.054 A 
BRANCH  91  92
ATOM     92  S   UNL     1      12.943   3.464  19.553  1.00  0.00     0.124 S 
ATOM     93  O   UNL     1      11.899   2.988  20.457  1.00  0.00    -0.237 OA
ATOM     94  O   UNL     1      13.821   2.432  19.009  1.00  0.00    -0.237 OA
ATOM     95  O   UNL     1      13.618   4.691  19.971  1.00  0.00    -0.744 OA
ENDBRANCH  91  92
ENDBRANCH  65  86
ENDBRANCH  39  40
ENDBRANCH  31  34
ENDBRANCH  29  30
ENDBRANCH  28  29
ENDBRANCH  27  28
ENDBRANCH  26  27
ENDBRANCH   1  26
TORSDOF 22
