REMARK SMILES CN1C(=O)[C@@H]2CC=CC[C@]2(C(=O)NCCCCCCNC(=O)c2ccc(-c3c4nc(c(-c5ccc(S(=O)(=O)[O-])cc5)c5ccc([nH]5)c(-c5ccc(S(=O)(=O)[O-])cc5)c5nc(c(-c6ccc(S(=O)(=O)[O-])cc6)c6ccc3[nH]6)C=C5)C=C4)cc2)[C@H]1c1ccccc1
REMARK SMILES IDX 17 1 16 2 15 3 14 4 13 5 11 6 12 7 10 9 1 10 2 11 3 12 83 13
REMARK SMILES IDX 4 14 5 15 6 16 9 17 7 18 8 19 84 20 85 21 89 22 86 23 88 24
REMARK SMILES IDX 87 25 18 26 19 27 20 28 21 29 22 31 23 32 24 33 82 34 25 35
REMARK SMILES IDX 81 36 26 37 27 38 28 39 75 40 29 41 80 42 74 43 76 44 30 45
REMARK SMILES IDX 79 46 73 47 72 48 31 50 61 51 42 52 60 53 43 54 46 55 59 56
REMARK SMILES IDX 77 57 44 58 45 59 58 61 78 62 47 63 32 64 33 65 41 66 34 67
REMARK SMILES IDX 40 68 35 69 36 70 37 71 38 72 39 73 62 74 63 75 71 76 64 77
REMARK SMILES IDX 70 78 65 79 66 80 67 81 68 82 69 83 48 84 49 85 57 86 50 87
REMARK SMILES IDX 56 88 51 89 52 90 53 91 54 92 55 93
REMARK H PARENT 13 8 20 30 76 49 46 60
REMARK Flexibility Score: inf
ROOT
ATOM      1  C   UNL     1       1.337   6.592   1.980  1.00  0.00     0.002 C 
ENDROOT
BRANCH   1   2
ATOM      2  C   UNL     1       2.276   6.602   0.766  1.00  0.00     0.002 C 
BRANCH   2   3
ATOM      3  C   UNL     1       2.348   5.327  -0.072  1.00  0.00     0.021 C 
BRANCH   3   4
ATOM      4  C   UNL     1       1.047   4.565  -0.294  1.00  0.00     0.116 C 
BRANCH   4   5
ATOM      5  N   UNL     1       0.181   4.819  -1.444  1.00  0.00    -0.356 N 
ATOM      6  C   UNL     1      -0.479   3.900  -2.271  1.00  0.00     0.229 C 
ATOM      7  O   UNL     1      -1.492   4.279  -2.862  1.00  0.00    -0.274 OA
ATOM      8  H   UNL     1       0.043   5.767  -1.669  1.00  0.00     0.163 HD
BRANCH   6   9
ATOM      9  C   UNL     1       0.135   2.497  -2.546  1.00  0.00     0.089 C 
ATOM     10  C   UNL     1       0.886  -0.658  -0.676  1.00  0.00     0.147 C 
ATOM     11  N   UNL     1       0.258   0.320  -1.541  1.00  0.00    -0.337 N 
ATOM     12  C   UNL     1      -0.225   0.092  -2.807  1.00  0.00     0.227 C 
ATOM     13  C   UNL     1       0.215   1.705  -1.183  1.00  0.00     0.131 C 
ATOM     14  O   UNL     1      -0.296  -0.997  -3.343  1.00  0.00    -0.275 OA
ATOM     15  C   UNL     1      -0.676   1.440  -3.393  1.00  0.00     0.101 C 
ATOM     16  C   UNL     1      -0.572   1.388  -4.916  1.00  0.00     0.041 C 
ATOM     17  C   UNL     1       1.481   2.852  -3.260  1.00  0.00     0.047 C 
ATOM     18  C   UNL     1       0.600   2.087  -5.495  1.00  0.00    -0.030 C 
ATOM     19  C   UNL     1       1.511   2.730  -4.761  1.00  0.00    -0.030 C 
BRANCH  13  20
ATOM     20  C   UNL     1      -0.928   1.974  -0.180  1.00  0.00    -0.024 A 
ATOM     21  C   UNL     1      -2.283   1.988  -0.554  1.00  0.00     0.006 A 
ATOM     22  C   UNL     1      -0.631   2.357   1.137  1.00  0.00     0.006 A 
ATOM     23  C   UNL     1      -3.261   2.560   0.261  1.00  0.00     0.000 A 
ATOM     24  C   UNL     1      -1.609   2.937   1.956  1.00  0.00     0.000 A 
ATOM     25  C   UNL     1      -2.915   3.076   1.500  1.00  0.00     0.000 A 
ENDBRANCH  13  20
ENDBRANCH   6   9
ENDBRANCH   4   5
ENDBRANCH   3   4
ENDBRANCH   2   3
ENDBRANCH   1   2
BRANCH   1  26
ATOM     26  C   UNL     1       1.560   5.504   3.040  1.00  0.00     0.021 C 
BRANCH  26  27
ATOM     27  C   UNL     1       2.926   5.493   3.722  1.00  0.00     0.116 C 
BRANCH  27  28
ATOM     28  N   UNL     1       3.293   6.800   4.236  1.00  0.00    -0.352 N 
ATOM     29  C   UNL     1       3.679   7.192   5.490  1.00  0.00     0.251 C 
ATOM     30  H   UNL     1       3.260   7.526   3.572  1.00  0.00     0.163 HD
ATOM     31  O   UNL     1       3.715   8.393   5.751  1.00  0.00    -0.269 OA
BRANCH  29  32
ATOM     32  C   UNL     1       4.053   6.202   6.525  1.00  0.00     0.039 A 
ATOM     33  C   UNL     1       3.734   6.482   7.857  1.00  0.00     0.014 A 
ATOM     34  C   UNL     1       4.776   5.047   6.213  1.00  0.00     0.014 A 
ATOM     35  C   UNL     1       4.116   5.595   8.865  1.00  0.00     0.010 A 
ATOM     36  C   UNL     1       5.085   4.122   7.210  1.00  0.00     0.010 A 
ATOM     37  C   UNL     1       4.775   4.395   8.549  1.00  0.00    -0.014 A 
BRANCH  37  38
ATOM     38  C   UNL     1       5.133   3.434   9.624  1.00  0.00     0.031 A 
ATOM     39  C   UNL     1       6.573   3.118   9.931  1.00  0.00     0.074 A 
ATOM     40  C   UNL     1       4.146   2.842  10.326  1.00  0.00     0.049 A 
ATOM     41  N   UNL     1       7.065   2.365  10.882  1.00  0.00    -0.248 NA
ATOM     42  C   UNL     1       7.593   3.702   9.044  1.00  0.00     0.031 C 
ATOM     43  C   UNL     1       2.712   3.025  10.084  1.00  0.00     0.029 A 
ATOM     44  N   UNL     1       4.194   1.984  11.395  1.00  0.00    -0.354 N 
ATOM     45  C   UNL     1       8.444   2.383  10.707  1.00  0.00     0.074 A 
ATOM     46  C   UNL     1       8.708   3.169   9.523  1.00  0.00     0.031 C 
ATOM     47  C   UNL     1       2.019   2.347  11.012  1.00  0.00     0.029 A 
ATOM     48  C   UNL     1       2.954   1.651  11.889  1.00  0.00     0.049 A 
ATOM     49  H   UNL     1       5.035   1.640  11.773  1.00  0.00     0.167 HD
ATOM     50  C   UNL     1       9.406   1.816  11.476  1.00  0.00     0.031 A 
ATOM     51  C   UNL     1       2.607   0.881  12.938  1.00  0.00     0.031 A 
ATOM     52  C   UNL     1       9.134   1.032  12.654  1.00  0.00     0.049 A 
ATOM     53  C   UNL     1       3.692   0.271  13.780  1.00  0.00     0.074 A 
ATOM     54  C   UNL     1      10.036   0.455  13.531  1.00  0.00     0.029 A 
ATOM     55  N   UNL     1       7.867   0.711  13.117  1.00  0.00    -0.354 N 
ATOM     56  N   UNL     1       4.994   0.362  13.642  1.00  0.00    -0.248 NA
ATOM     57  C   UNL     1       3.260  -0.528  14.933  1.00  0.00     0.031 C 
ATOM     58  C   UNL     1       9.314  -0.266  14.489  1.00  0.00     0.029 A 
ATOM     59  C   UNL     1       7.962  -0.077  14.252  1.00  0.00     0.049 A 
ATOM     60  H   UNL     1       7.023   1.001  12.700  1.00  0.00     0.167 HD
ATOM     61  C   UNL     1       5.537  -0.346  14.709  1.00  0.00     0.074 A 
ATOM     62  C   UNL     1       4.421  -0.834  15.494  1.00  0.00     0.031 C 
ATOM     63  C   UNL     1       6.841  -0.572  15.013  1.00  0.00     0.031 A 
BRANCH  50  64
ATOM     64  C   UNL     1      10.843   2.016  11.062  1.00  0.00    -0.014 A 
ATOM     65  C   UNL     1      11.453   3.283  11.130  1.00  0.00     0.010 A 
ATOM     66  C   UNL     1      11.610   0.915  10.639  1.00  0.00     0.010 A 
ATOM     67  C   UNL     1      12.785   3.453  10.744  1.00  0.00     0.020 A 
ATOM     68  C   UNL     1      12.954   1.074  10.283  1.00  0.00     0.020 A 
ATOM     69  C   UNL     1      13.528   2.346  10.322  1.00  0.00     0.054 A 
BRANCH  69  70
ATOM     70  S   UNL     1      15.263   2.592   9.852  1.00  0.00     0.124 S 
ATOM     71  O   UNL     1      15.133   3.319   8.592  1.00  0.00    -0.237 OA
ATOM     72  O   UNL     1      15.790   3.367  10.973  1.00  0.00    -0.237 OA
ATOM     73  O   UNL     1      15.787   1.234   9.735  1.00  0.00    -0.744 OA
ENDBRANCH  69  70
ENDBRANCH  50  64
BRANCH  51  74
ATOM     74  C   UNL     1       1.169   0.674  13.264  1.00  0.00    -0.014 A 
ATOM     75  C   UNL     1       0.608   1.225  14.430  1.00  0.00     0.010 A 
ATOM     76  C   UNL     1       0.347  -0.069  12.397  1.00  0.00     0.010 A 
ATOM     77  C   UNL     1      -0.741   1.018  14.734  1.00  0.00     0.020 A 
ATOM     78  C   UNL     1      -1.009  -0.249  12.680  1.00  0.00     0.020 A 
ATOM     79  C   UNL     1      -1.542   0.284  13.854  1.00  0.00     0.054 A 
BRANCH  79  80
ATOM     80  S   UNL     1      -3.300   0.069  14.244  1.00  0.00     0.124 S 
ATOM     81  O   UNL     1      -3.252  -0.873  15.357  1.00  0.00    -0.237 OA
ATOM     82  O   UNL     1      -3.717   1.428  14.580  1.00  0.00    -0.237 OA
ATOM     83  O   UNL     1      -3.863  -0.457  13.002  1.00  0.00    -0.744 OA
ENDBRANCH  79  80
ENDBRANCH  51  74
BRANCH  63  84
ATOM     84  C   UNL     1       7.123  -1.355  16.269  1.00  0.00    -0.014 A 
ATOM     85  C   UNL     1       6.795  -2.720  16.374  1.00  0.00     0.010 A 
ATOM     86  C   UNL     1       7.729  -0.712  17.363  1.00  0.00     0.010 A 
ATOM     87  C   UNL     1       7.004  -3.406  17.573  1.00  0.00     0.020 A 
ATOM     88  C   UNL     1       7.974  -1.404  18.551  1.00  0.00     0.020 A 
ATOM     89  C   UNL     1       7.585  -2.740  18.657  1.00  0.00     0.054 A 
BRANCH  89  90
ATOM     90  S   UNL     1       7.835  -3.648  20.206  1.00  0.00     0.124 S 
ATOM     91  O   UNL     1       6.472  -3.749  20.721  1.00  0.00    -0.237 OA
ATOM     92  O   UNL     1       8.430  -4.902  19.751  1.00  0.00    -0.237 OA
ATOM     93  O   UNL     1       8.728  -2.784  20.974  1.00  0.00    -0.744 OA
ENDBRANCH  89  90
ENDBRANCH  63  84
ENDBRANCH  37  38
ENDBRANCH  29  32
ENDBRANCH  27  28
ENDBRANCH  26  27
ENDBRANCH   1  26
TORSDOF 17
