REMARK SMILES Cc1cc(C)c2c(C(=O)NCCCCCCNC(=O)c3ccc(-c4c5nc(c(-c6ccc(S(=O)(=O)[O-])cc6)c6ccc([nH]6)c(-c6ccc(S(=O)(=O)[O-])cc6)c6nc(c(-c7ccc(S(=O)(=O)[O-])cc7)c7ccc4[nH]7)C=C6)C=C5)cc3)cc(-c3ccco3)nc2c1
REMARK SMILES IDX 14 1 13 2 12 3 11 4 10 5 8 6 9 7 7 9 1 10 2 11 3 12 89 13
REMARK SMILES IDX 4 14 88 15 5 16 6 17 87 18 81 19 80 20 82 21 83 22 86 23
REMARK SMILES IDX 84 24 85 25 15 26 16 27 17 28 18 29 19 31 20 32 21 33 79 34
REMARK SMILES IDX 22 35 78 36 23 37 24 38 25 39 72 40 26 41 77 42 71 43 73 44
REMARK SMILES IDX 27 45 76 46 70 47 69 48 28 50 58 51 39 52 57 53 40 54 43 55
REMARK SMILES IDX 56 56 74 57 41 58 42 59 55 61 75 62 44 63 29 64 30 65 38 66
REMARK SMILES IDX 31 67 37 68 32 69 33 70 34 71 35 72 36 73 59 74 60 75 68 76
REMARK SMILES IDX 61 77 67 78 62 79 63 80 64 81 65 82 66 83 45 84 46 85 54 86
REMARK SMILES IDX 47 87 53 88 48 89 49 90 50 91 51 92 52 93
REMARK H PARENT 10 8 17 30 73 49 43 60
REMARK Flexibility Score: inf
ROOT
ATOM      1  C   UNL     1      -4.092  -1.707  -4.716  1.00  0.00     0.002 C 
ENDROOT
BRANCH   1   2
ATOM      2  C   UNL     1      -3.079  -2.356  -5.665  1.00  0.00     0.002 C 
BRANCH   2   3
ATOM      3  C   UNL     1      -1.631  -2.514  -5.180  1.00  0.00     0.021 C 
BRANCH   3   4
ATOM      4  C   UNL     1      -1.430  -3.099  -3.785  1.00  0.00     0.116 C 
BRANCH   4   5
ATOM      5  N   UNL     1      -2.010  -4.415  -3.587  1.00  0.00    -0.352 N 
ATOM      6  C   UNL     1      -1.796  -5.341  -2.588  1.00  0.00     0.252 C 
ATOM      7  O   UNL     1      -2.431  -6.396  -2.619  1.00  0.00    -0.269 OA
ATOM      8  H   UNL     1      -2.659  -4.690  -4.275  1.00  0.00     0.163 HD
BRANCH   6   9
ATOM      9  C   UNL     1      -0.751  -5.164  -1.540  1.00  0.00     0.051 A 
ATOM     10  C   UNL     1       1.135  -0.173   0.468  1.00  0.00     0.044 C 
ATOM     11  C   UNL     1       0.540  -1.498   0.100  1.00  0.00    -0.049 A 
ATOM     12  C   UNL     1      -0.808  -1.605  -0.223  1.00  0.00     0.007 A 
ATOM     13  C   UNL     1       1.295  -2.670   0.167  1.00  0.00     0.032 A 
ATOM     14  C   UNL     1      -1.346  -2.831  -0.645  1.00  0.00    -0.041 A 
ATOM     15  C   UNL     1       0.795  -3.896  -0.249  1.00  0.00     0.072 A 
ATOM     16  C   UNL     1      -2.852  -2.933  -0.692  1.00  0.00     0.045 C 
ATOM     17  C   UNL     1      -0.483  -3.957  -0.837  1.00  0.00     0.016 A 
ATOM     18  N   UNL     1       1.574  -4.972  -0.064  1.00  0.00    -0.244 NA
ATOM     19  C   UNL     1       1.146  -6.168  -0.510  1.00  0.00     0.107 A 
ATOM     20  C   UNL     1       0.047  -6.295  -1.328  1.00  0.00     0.046 A 
BRANCH  19  21
ATOM     21  C   UNL     1       1.897  -7.319  -0.040  1.00  0.00     0.152 A 
ATOM     22  C   UNL     1       2.473  -8.424  -0.636  1.00  0.00     0.052 A 
ATOM     23  O   UNL     1       2.031  -7.416   1.319  1.00  0.00    -0.463 OA
ATOM     24  C   UNL     1       2.990  -9.228   0.412  1.00  0.00     0.043 A 
ATOM     25  C   UNL     1       2.687  -8.573   1.582  1.00  0.00     0.196 A 
ENDBRANCH  19  21
ENDBRANCH   6   9
ENDBRANCH   4   5
ENDBRANCH   3   4
ENDBRANCH   2   3
ENDBRANCH   1   2
BRANCH   1  26
ATOM     26  C   UNL     1      -3.729  -0.348  -4.117  1.00  0.00     0.021 C 
BRANCH  26  27
ATOM     27  C   UNL     1      -3.249   0.717  -5.095  1.00  0.00     0.116 C 
BRANCH  27  28
ATOM     28  N   UNL     1      -4.242   1.065  -6.095  1.00  0.00    -0.352 N 
ATOM     29  C   UNL     1      -4.768   2.297  -6.406  1.00  0.00     0.251 C 
ATOM     30  H   UNL     1      -4.588   0.312  -6.627  1.00  0.00     0.163 HD
ATOM     31  O   UNL     1      -5.679   2.390  -7.218  1.00  0.00    -0.269 OA
BRANCH  29  32
ATOM     32  C   UNL     1      -4.249   3.508  -5.732  1.00  0.00     0.039 A 
ATOM     33  C   UNL     1      -5.161   4.392  -5.150  1.00  0.00     0.014 A 
ATOM     34  C   UNL     1      -2.876   3.771  -5.677  1.00  0.00     0.014 A 
ATOM     35  C   UNL     1      -4.693   5.517  -4.469  1.00  0.00     0.010 A 
ATOM     36  C   UNL     1      -2.409   4.863  -4.948  1.00  0.00     0.010 A 
ATOM     37  C   UNL     1      -3.314   5.752  -4.350  1.00  0.00    -0.014 A 
BRANCH  37  38
ATOM     38  C   UNL     1      -2.815   6.963  -3.657  1.00  0.00     0.031 A 
ATOM     39  C   UNL     1      -2.196   8.074  -4.457  1.00  0.00     0.074 A 
ATOM     40  C   UNL     1      -2.913   7.066  -2.318  1.00  0.00     0.049 A 
ATOM     41  N   UNL     1      -1.735   9.226  -4.043  1.00  0.00    -0.248 NA
ATOM     42  C   UNL     1      -2.067   7.858  -5.907  1.00  0.00     0.031 C 
ATOM     43  C   UNL     1      -3.474   6.046  -1.431  1.00  0.00     0.029 A 
ATOM     44  N   UNL     1      -2.554   8.085  -1.471  1.00  0.00    -0.354 N 
ATOM     45  C   UNL     1      -1.272   9.873  -5.181  1.00  0.00     0.074 A 
ATOM     46  C   UNL     1      -1.448   8.964  -6.292  1.00  0.00     0.031 C 
ATOM     47  C   UNL     1      -3.452   6.505  -0.168  1.00  0.00     0.029 A 
ATOM     48  C   UNL     1      -2.860   7.841  -0.154  1.00  0.00     0.049 A 
ATOM     49  H   UNL     1      -2.118   8.912  -1.778  1.00  0.00     0.167 HD
ATOM     50  C   UNL     1      -0.772  11.125  -5.299  1.00  0.00     0.031 A 
ATOM     51  C   UNL     1      -2.696   8.610   0.941  1.00  0.00     0.031 A 
ATOM     52  C   UNL     1      -0.601  12.031  -4.199  1.00  0.00     0.049 A 
ATOM     53  C   UNL     1      -2.105   9.984   0.799  1.00  0.00     0.074 A 
ATOM     54  C   UNL     1      -0.135  13.332  -4.223  1.00  0.00     0.029 A 
ATOM     55  N   UNL     1      -0.890  11.728  -2.877  1.00  0.00    -0.354 N 
ATOM     56  N   UNL     1      -1.712  10.596  -0.292  1.00  0.00    -0.248 NA
ATOM     57  C   UNL     1      -1.938  10.773   2.027  1.00  0.00     0.031 C 
ATOM     58  C   UNL     1      -0.106  13.806  -2.908  1.00  0.00     0.029 A 
ATOM     59  C   UNL     1      -0.592  12.812  -2.071  1.00  0.00     0.049 A 
ATOM     60  H   UNL     1      -1.252  10.870  -2.560  1.00  0.00     0.167 HD
ATOM     61  C   UNL     1      -1.264  11.847   0.114  1.00  0.00     0.074 A 
ATOM     62  C   UNL     1      -1.436  11.907   1.552  1.00  0.00     0.031 C 
ATOM     63  C   UNL     1      -0.762  12.853  -0.641  1.00  0.00     0.031 A 
BRANCH  50  64
ATOM     64  C   UNL     1      -0.390  11.583  -6.678  1.00  0.00    -0.014 A 
ATOM     65  C   UNL     1      -1.380  11.895  -7.628  1.00  0.00     0.010 A 
ATOM     66  C   UNL     1       0.965  11.716  -7.027  1.00  0.00     0.010 A 
ATOM     67  C   UNL     1      -1.021  12.290  -8.918  1.00  0.00     0.020 A 
ATOM     68  C   UNL     1       1.329  12.133  -8.311  1.00  0.00     0.020 A 
ATOM     69  C   UNL     1       0.332  12.403  -9.252  1.00  0.00     0.054 A 
BRANCH  69  70
ATOM     70  S   UNL     1       0.762  12.902 -10.941  1.00  0.00     0.124 S 
ATOM     71  O   UNL     1       0.218  11.800 -11.731  1.00  0.00    -0.237 OA
ATOM     72  O   UNL     1       0.066  14.178 -11.079  1.00  0.00    -0.237 OA
ATOM     73  O   UNL     1       2.220  12.986 -10.919  1.00  0.00    -0.744 OA
ENDBRANCH  69  70
ENDBRANCH  50  64
BRANCH  51  74
ATOM     74  C   UNL     1      -3.148   8.092   2.259  1.00  0.00    -0.014 A 
ATOM     75  C   UNL     1      -4.379   8.507   2.795  1.00  0.00     0.010 A 
ATOM     76  C   UNL     1      -2.400   7.111   2.934  1.00  0.00     0.010 A 
ATOM     77  C   UNL     1      -4.867   7.930   3.971  1.00  0.00     0.020 A 
ATOM     78  C   UNL     1      -2.890   6.523   4.103  1.00  0.00     0.020 A 
ATOM     79  C   UNL     1      -4.127   6.929   4.608  1.00  0.00     0.054 A 
BRANCH  79  80
ATOM     80  S   UNL     1      -4.836   6.128   6.075  1.00  0.00     0.124 S 
ATOM     81  O   UNL     1      -4.972   7.246   7.003  1.00  0.00    -0.237 OA
ATOM     82  O   UNL     1      -6.086   5.583   5.551  1.00  0.00    -0.237 OA
ATOM     83  O   UNL     1      -3.832   5.130   6.440  1.00  0.00    -0.744 OA
ENDBRANCH  79  80
ENDBRANCH  51  74
BRANCH  63  84
ATOM     84  C   UNL     1      -0.347  14.122   0.049  1.00  0.00    -0.014 A 
ATOM     85  C   UNL     1       0.906  14.212   0.677  1.00  0.00     0.010 A 
ATOM     86  C   UNL     1      -1.141  15.276  -0.080  1.00  0.00     0.010 A 
ATOM     87  C   UNL     1       1.369  15.444   1.146  1.00  0.00     0.020 A 
ATOM     88  C   UNL     1      -0.674  16.511   0.374  1.00  0.00     0.020 A 
ATOM     89  C   UNL     1       0.584  16.588   0.975  1.00  0.00     0.054 A 
BRANCH  89  90
ATOM     90  S   UNL     1       1.263  18.188   1.495  1.00  0.00     0.124 S 
ATOM     91  O   UNL     1       1.440  17.996   2.932  1.00  0.00    -0.237 OA
ATOM     92  O   UNL     1       2.495  18.273   0.716  1.00  0.00    -0.237 OA
ATOM     93  O   UNL     1       0.225  19.146   1.120  1.00  0.00    -0.744 OA
ENDBRANCH  89  90
ENDBRANCH  63  84
ENDBRANCH  37  38
ENDBRANCH  29  32
ENDBRANCH  27  28
ENDBRANCH  26  27
ENDBRANCH   1  26
TORSDOF 17
