REMARK SMILES CNC(=O)[C@H](C)S(=O)(=O)c1cc(C(=O)NCCCCCCNC(=O)c2ccc(-c3c4nc(c(-c5ccc(S(=O)(=O)[O-])cc5)c5ccc([nH]5)c(-c5ccc(S(=O)(=O)[O-])cc5)c5nc(c(-c6ccc(S(=O)(=O)[O-])cc6)c6ccc3[nH]6)C=C5)C=C4)cc2)c(C)cc1C
REMARK SMILES IDX 18 1 17 2 16 3 15 4 13 5 14 6 12 8 10 9 11 10 88 11 87 12
REMARK SMILES IDX 89 13 85 14 86 15 7 16 8 17 9 18 5 19 6 20 3 21 1 22 2 23
REMARK SMILES IDX 4 25 19 26 20 27 21 28 22 29 23 30 24 32 25 33 26 34 84 35
REMARK SMILES IDX 27 36 83 37 28 38 29 39 30 40 77 41 31 42 82 43 76 44 78 45
REMARK SMILES IDX 32 46 81 47 75 48 74 49 33 51 63 52 44 53 62 54 45 55 48 56
REMARK SMILES IDX 61 57 79 58 46 59 47 60 60 62 80 63 49 64 34 65 35 66 43 67
REMARK SMILES IDX 36 68 42 69 37 70 38 71 39 72 40 73 41 74 64 75 65 76 73 77
REMARK SMILES IDX 66 78 72 79 67 80 68 81 69 82 70 83 71 84 50 85 51 86 59 87
REMARK SMILES IDX 52 88 58 89 53 90 54 91 55 92 56 93 57 94
REMARK H PARENT 15 7 2 24 22 31 78 50 48 61
REMARK Flexibility Score: inf
ROOT
ATOM      1  C   UNL     1       4.824   2.357  -5.070  1.00  0.00     0.002 C 
ENDROOT
BRANCH   1   2
ATOM      2  C   UNL     1       3.740   2.787  -4.079  1.00  0.00     0.021 C 
BRANCH   2   3
ATOM      3  C   UNL     1       2.366   2.157  -4.338  1.00  0.00     0.116 C 
BRANCH   3   4
ATOM      4  N   UNL     1       2.208   0.989  -3.509  1.00  0.00    -0.352 N 
ATOM      5  C   UNL     1       1.513   0.703  -2.376  1.00  0.00     0.251 C 
ATOM      6  O   UNL     1       1.655  -0.459  -1.972  1.00  0.00    -0.269 OA
ATOM      7  H   UNL     1       2.722   0.218  -3.841  1.00  0.00     0.163 HD
BRANCH   5   8
ATOM      8  C   UNL     1       0.607   1.606  -1.581  1.00  0.00     0.044 A 
ATOM      9  C   UNL     1      -1.036   1.422   0.264  1.00  0.00     0.071 A 
ATOM     10  C   UNL     1      -0.314   0.865  -0.798  1.00  0.00     0.034 A 
ATOM     11  C   UNL     1      -1.121   2.811   0.359  1.00  0.00    -0.032 A 
ATOM     12  C   UNL     1      -0.261   3.567  -0.452  1.00  0.00     0.009 A 
ATOM     13  C   UNL     1      -2.024   3.585   1.277  1.00  0.00     0.046 C 
ATOM     14  C   UNL     1       0.679   2.986  -1.335  1.00  0.00    -0.038 A 
ATOM     15  C   UNL     1       1.711   3.941  -1.846  1.00  0.00     0.045 C 
BRANCH   9  16
ATOM     16  S   UNL     1      -1.793   0.293   1.428  1.00  0.00     0.190 S 
ATOM     17  O   UNL     1      -2.780  -0.440   0.650  1.00  0.00    -0.223 OA
ATOM     18  O   UNL     1      -2.231   1.066   2.574  1.00  0.00    -0.223 OA
BRANCH  16  19
ATOM     19  C   UNL     1      -0.613  -0.876   2.041  1.00  0.00     0.199 C 
ATOM     20  C   UNL     1      -0.200  -2.014   1.127  1.00  0.00     0.036 C 
BRANCH  19  21
ATOM     21  C   UNL     1       0.456  -0.264   2.918  1.00  0.00     0.238 C 
ATOM     22  C   UNL     1       2.244   0.320   1.179  1.00  0.00     0.142 C 
ATOM     23  N   UNL     1       1.652   0.202   2.485  1.00  0.00    -0.358 N 
ATOM     24  H   UNL     1       2.234   0.525   3.210  1.00  0.00     0.163 HD
ATOM     25  O   UNL     1       0.296  -0.226   4.145  1.00  0.00    -0.274 OA
ENDBRANCH  19  21
ENDBRANCH  16  19
ENDBRANCH   9  16
ENDBRANCH   5   8
ENDBRANCH   3   4
ENDBRANCH   2   3
ENDBRANCH   1   2
BRANCH   1  26
ATOM     26  C   UNL     1       4.567   2.793  -6.514  1.00  0.00     0.002 C 
BRANCH  26  27
ATOM     27  C   UNL     1       4.325   4.293  -6.699  1.00  0.00     0.021 C 
BRANCH  27  28
ATOM     28  C   UNL     1       5.487   5.173  -6.248  1.00  0.00     0.116 C 
BRANCH  28  29
ATOM     29  N   UNL     1       6.686   4.903  -7.027  1.00  0.00    -0.352 N 
ATOM     30  C   UNL     1       7.349   5.723  -7.905  1.00  0.00     0.251 C 
ATOM     31  H   UNL     1       7.076   4.006  -6.908  1.00  0.00     0.163 HD
ATOM     32  O   UNL     1       8.156   5.251  -8.699  1.00  0.00    -0.269 OA
BRANCH  30  33
ATOM     33  C   UNL     1       7.083   7.176  -7.884  1.00  0.00     0.039 A 
ATOM     34  C   UNL     1       6.927   7.861  -9.091  1.00  0.00     0.014 A 
ATOM     35  C   UNL     1       7.001   7.860  -6.668  1.00  0.00     0.014 A 
ATOM     36  C   UNL     1       6.637   9.227  -9.073  1.00  0.00     0.010 A 
ATOM     37  C   UNL     1       6.635   9.201  -6.651  1.00  0.00     0.010 A 
ATOM     38  C   UNL     1       6.458   9.901  -7.854  1.00  0.00    -0.014 A 
BRANCH  38  39
ATOM     39  C   UNL     1       6.088  11.338  -7.813  1.00  0.00     0.031 A 
ATOM     40  C   UNL     1       7.022  12.342  -7.192  1.00  0.00     0.074 A 
ATOM     41  C   UNL     1       4.883  11.727  -8.275  1.00  0.00     0.049 A 
ATOM     42  N   UNL     1       6.851  13.626  -7.015  1.00  0.00    -0.248 NA
ATOM     43  C   UNL     1       8.305  11.832  -6.681  1.00  0.00     0.031 C 
ATOM     44  C   UNL     1       3.874  10.841  -8.861  1.00  0.00     0.029 A 
ATOM     45  N   UNL     1       4.300  12.968  -8.320  1.00  0.00    -0.354 N 
ATOM     46  C   UNL     1       7.992  14.074  -6.359  1.00  0.00     0.074 A 
ATOM     47  C   UNL     1       8.824  12.915  -6.122  1.00  0.00     0.031 C 
ATOM     48  C   UNL     1       2.811  11.571  -9.233  1.00  0.00     0.029 A 
ATOM     49  C   UNL     1       3.040  12.966  -8.872  1.00  0.00     0.049 A 
ATOM     50  H   UNL     1       4.741  13.783  -7.989  1.00  0.00     0.167 HD
ATOM     51  C   UNL     1       8.327  15.338  -6.005  1.00  0.00     0.031 A 
ATOM     52  C   UNL     1       2.164  13.972  -9.060  1.00  0.00     0.031 A 
ATOM     53  C   UNL     1       7.496  16.486  -6.251  1.00  0.00     0.049 A 
ATOM     54  C   UNL     1       2.551  15.365  -8.645  1.00  0.00     0.074 A 
ATOM     55  C   UNL     1       7.767  17.816  -5.982  1.00  0.00     0.029 A 
ATOM     56  N   UNL     1       6.231  16.443  -6.819  1.00  0.00    -0.354 N 
ATOM     57  N   UNL     1       3.665  15.779  -8.089  1.00  0.00    -0.248 NA
ATOM     58  C   UNL     1       1.569  16.429  -8.895  1.00  0.00     0.031 C 
ATOM     59  C   UNL     1       6.641  18.570  -6.330  1.00  0.00     0.029 A 
ATOM     60  C   UNL     1       5.697  17.719  -6.883  1.00  0.00     0.049 A 
ATOM     61  H   UNL     1       5.780  15.625  -7.131  1.00  0.00     0.167 HD
ATOM     62  C   UNL     1       3.530  17.156  -7.951  1.00  0.00     0.074 A 
ATOM     63  C   UNL     1       2.233  17.505  -8.494  1.00  0.00     0.031 C 
ATOM     64  C   UNL     1       4.404  18.050  -7.427  1.00  0.00     0.031 A 
BRANCH  51  65
ATOM     65  C   UNL     1       9.645  15.542  -5.304  1.00  0.00    -0.014 A 
ATOM     66  C   UNL     1      10.867  15.349  -5.976  1.00  0.00     0.010 A 
ATOM     67  C   UNL     1       9.665  15.971  -3.965  1.00  0.00     0.010 A 
ATOM     68  C   UNL     1      12.080  15.538  -5.309  1.00  0.00     0.020 A 
ATOM     69  C   UNL     1      10.877  16.193  -3.304  1.00  0.00     0.020 A 
ATOM     70  C   UNL     1      12.077  15.957  -3.976  1.00  0.00     0.054 A 
BRANCH  70  71
ATOM     71  S   UNL     1      13.668  16.213  -3.143  1.00  0.00     0.124 S 
ATOM     72  O   UNL     1      14.145  14.842  -2.979  1.00  0.00    -0.237 OA
ATOM     73  O   UNL     1      14.406  17.024  -4.107  1.00  0.00    -0.237 OA
ATOM     74  O   UNL     1      13.306  16.898  -1.904  1.00  0.00    -0.744 OA
ENDBRANCH  70  71
ENDBRANCH  51  65
BRANCH  52  75
ATOM     75  C   UNL     1       0.840  13.696  -9.685  1.00  0.00    -0.014 A 
ATOM     76  C   UNL     1       0.546  14.165 -10.977  1.00  0.00     0.010 A 
ATOM     77  C   UNL     1      -0.129  12.944  -8.995  1.00  0.00     0.010 A 
ATOM     78  C   UNL     1      -0.697  13.902 -11.561  1.00  0.00     0.020 A 
ATOM     79  C   UNL     1      -1.360  12.653  -9.587  1.00  0.00     0.020 A 
ATOM     80  C   UNL     1      -1.641  13.144 -10.863  1.00  0.00     0.054 A 
BRANCH  80  81
ATOM     81  S   UNL     1      -3.226  12.770 -11.662  1.00  0.00     0.124 S 
ATOM     82  O   UNL     1      -3.895  14.067 -11.631  1.00  0.00    -0.237 OA
ATOM     83  O   UNL     1      -2.809  12.302 -12.982  1.00  0.00    -0.237 OA
ATOM     84  O   UNL     1      -3.808  11.743 -10.801  1.00  0.00    -0.744 OA
ENDBRANCH  80  81
ENDBRANCH  52  75
BRANCH  64  85
ATOM     85  C   UNL     1       4.009  19.504  -7.449  1.00  0.00    -0.014 A 
ATOM     86  C   UNL     1       3.001  20.003  -6.606  1.00  0.00     0.010 A 
ATOM     87  C   UNL     1       4.709  20.396  -8.283  1.00  0.00     0.010 A 
ATOM     88  C   UNL     1       2.680  21.363  -6.619  1.00  0.00     0.020 A 
ATOM     89  C   UNL     1       4.414  21.760  -8.275  1.00  0.00     0.020 A 
ATOM     90  C   UNL     1       3.391  22.234  -7.452  1.00  0.00     0.054 A 
BRANCH  90  91
ATOM     91  S   UNL     1       2.991  24.002  -7.409  1.00  0.00     0.124 S 
ATOM     92  O   UNL     1       1.696  24.037  -8.084  1.00  0.00    -0.237 OA
ATOM     93  O   UNL     1       2.962  24.289  -5.977  1.00  0.00    -0.237 OA
ATOM     94  O   UNL     1       4.091  24.625  -8.142  1.00  0.00    -0.744 OA
ENDBRANCH  90  91
ENDBRANCH  64  85
ENDBRANCH  38  39
ENDBRANCH  30  33
ENDBRANCH  28  29
ENDBRANCH  27  28
ENDBRANCH  26  27
ENDBRANCH   1  26
TORSDOF 19
