REMARK SMILES Cc1ccc(S(=O)(=O)N2c3ccc(C(=O)NCCCCCCNC(=O)c4ccc(-c5c6nc(c(-c7ccc(S(=O)(=O)[O-])cc7)c7ccc([nH]7)c(-c7ccc(S(=O)(=O)[O-])cc7)c7nc(c(-c8ccc(S(=O)(=O)[O-])cc8)c8ccc5[nH]8)C=C7)C=C6)cc4)cc3C[C@H]2C)cc1
REMARK SMILES IDX 20 1 19 2 18 3 17 4 16 5 14 6 15 7 13 9 9 10 10 11 89 12
REMARK SMILES IDX 11 13 87 14 88 15 90 16 12 17 86 18 6 19 7 20 8 21 5 22 1 23
REMARK SMILES IDX 2 24 3 25 92 26 4 27 91 28 21 29 22 30 23 31 24 32 25 34
REMARK SMILES IDX 26 35 27 36 85 37 28 38 84 39 29 40 30 41 31 42 78 43 32 44
REMARK SMILES IDX 83 45 77 46 79 47 33 48 82 49 76 50 75 51 34 53 64 54 45 55
REMARK SMILES IDX 63 56 46 57 49 58 62 59 80 60 47 61 48 62 61 64 81 65 50 66
REMARK SMILES IDX 35 67 36 68 44 69 37 70 43 71 38 72 39 73 40 74 41 75 42 76
REMARK SMILES IDX 65 77 66 78 74 79 67 80 73 81 68 82 69 83 70 84 71 85 72 86
REMARK SMILES IDX 51 87 52 88 60 89 53 90 59 91 54 92 55 93 56 94 57 95 58 96
REMARK H PARENT 16 8 23 33 79 52 49 63
REMARK Flexibility Score: inf
ROOT
ATOM      1  C   UNL     1     -13.265   0.004   2.325  1.00  0.00     0.002 C 
ENDROOT
BRANCH   1   2
ATOM      2  C   UNL     1     -12.779   1.353   2.877  1.00  0.00     0.002 C 
BRANCH   2   3
ATOM      3  C   UNL     1     -11.277   1.603   3.032  1.00  0.00     0.021 C 
BRANCH   3   4
ATOM      4  C   UNL     1     -10.363   1.275   1.858  1.00  0.00     0.116 C 
BRANCH   4   5
ATOM      5  N   UNL     1     -10.583   2.047   0.651  1.00  0.00    -0.352 N 
ATOM      6  C   UNL     1      -9.685   2.402  -0.333  1.00  0.00     0.251 C 
ATOM      7  O   UNL     1     -10.081   3.055  -1.299  1.00  0.00    -0.269 OA
ATOM      8  H   UNL     1     -11.506   2.362   0.515  1.00  0.00     0.163 HD
BRANCH   6   9
ATOM      9  C   UNL     1      -8.231   2.075  -0.232  1.00  0.00     0.040 A 
ATOM     10  N   UNL     1      -4.041   1.645   0.187  1.00  0.00    -0.263 N 
ATOM     11  C   UNL     1      -5.487   1.637   0.067  1.00  0.00     0.055 A 
ATOM     12  C   UNL     1      -3.630   3.012  -0.336  1.00  0.00     0.101 C 
ATOM     13  C   UNL     1      -6.371   0.679   0.528  1.00  0.00     0.028 A 
ATOM     14  C   UNL     1      -5.957   2.770  -0.592  1.00  0.00    -0.021 A 
ATOM     15  C   UNL     1      -4.824   3.567  -1.140  1.00  0.00     0.063 C 
ATOM     16  C   UNL     1      -3.330   3.920   0.864  1.00  0.00     0.032 C 
ATOM     17  C   UNL     1      -7.743   0.880   0.328  1.00  0.00     0.016 A 
ATOM     18  C   UNL     1      -7.318   3.010  -0.744  1.00  0.00     0.019 A 
BRANCH  10  19
ATOM     19  S   UNL     1      -3.318   0.274  -0.564  1.00  0.00     0.264 S 
ATOM     20  O   UNL     1      -3.379   0.476  -1.999  1.00  0.00    -0.201 OA
ATOM     21  O   UNL     1      -3.885  -0.919   0.038  1.00  0.00    -0.201 OA
BRANCH  19  22
ATOM     22  C   UNL     1      -1.578   0.204  -0.158  1.00  0.00     0.088 A 
ATOM     23  C   UNL     1       2.704  -0.182   0.161  1.00  0.00     0.044 C 
ATOM     24  C   UNL     1       1.210  -0.053   0.105  1.00  0.00    -0.051 A 
ATOM     25  C   UNL     1       0.420  -1.181  -0.136  1.00  0.00     0.005 A 
ATOM     26  C   UNL     1       0.586   1.184   0.292  1.00  0.00     0.005 A 
ATOM     27  C   UNL     1      -0.965  -1.053  -0.269  1.00  0.00     0.022 A 
ATOM     28  C   UNL     1      -0.803   1.313   0.168  1.00  0.00     0.022 A 
ENDBRANCH  19  22
ENDBRANCH  10  19
ENDBRANCH   6   9
ENDBRANCH   4   5
ENDBRANCH   3   4
ENDBRANCH   2   3
ENDBRANCH   1   2
BRANCH   1  29
ATOM     29  C   UNL     1     -12.615  -1.281   2.840  1.00  0.00     0.021 C 
BRANCH  29  30
ATOM     30  C   UNL     1     -12.639  -1.485   4.342  1.00  0.00     0.116 C 
BRANCH  30  31
ATOM     31  N   UNL     1     -13.784  -2.201   4.878  1.00  0.00    -0.352 N 
ATOM     32  C   UNL     1     -13.562  -3.024   5.985  1.00  0.00     0.251 C 
ATOM     33  H   UNL     1     -14.679  -2.111   4.477  1.00  0.00     0.163 HD
ATOM     34  O   UNL     1     -13.305  -4.210   5.941  1.00  0.00    -0.269 OA
BRANCH  32  35
ATOM     35  C   UNL     1     -13.349  -2.247   7.228  1.00  0.00     0.039 A 
ATOM     36  C   UNL     1     -14.396  -1.950   8.098  1.00  0.00     0.014 A 
ATOM     37  C   UNL     1     -12.110  -1.611   7.338  1.00  0.00     0.014 A 
ATOM     38  C   UNL     1     -14.238  -0.903   9.009  1.00  0.00     0.010 A 
ATOM     39  C   UNL     1     -11.995  -0.514   8.157  1.00  0.00     0.010 A 
ATOM     40  C   UNL     1     -13.068  -0.141   8.972  1.00  0.00    -0.014 A 
BRANCH  40  41
ATOM     41  C   UNL     1     -12.846   1.089   9.720  1.00  0.00     0.031 A 
ATOM     42  C   UNL     1     -11.983   1.065  10.922  1.00  0.00     0.074 A 
ATOM     43  C   UNL     1     -13.273   2.265   9.210  1.00  0.00     0.049 A 
ATOM     44  N   UNL     1     -11.944   1.994  11.817  1.00  0.00    -0.248 NA
ATOM     45  C   UNL     1     -11.113  -0.066  11.234  1.00  0.00     0.031 C 
ATOM     46  C   UNL     1     -12.833   3.603   9.595  1.00  0.00     0.029 A 
ATOM     47  N   UNL     1     -14.370   2.498   8.380  1.00  0.00    -0.354 N 
ATOM     48  C   UNL     1     -10.857   1.744  12.626  1.00  0.00     0.074 A 
ATOM     49  C   UNL     1     -10.435   0.406  12.283  1.00  0.00     0.031 C 
ATOM     50  C   UNL     1     -13.803   4.477   9.282  1.00  0.00     0.029 A 
ATOM     51  C   UNL     1     -14.945   3.697   8.834  1.00  0.00     0.049 A 
ATOM     52  H   UNL     1     -14.677   1.939   7.631  1.00  0.00     0.167 HD
ATOM     53  C   UNL     1     -10.345   2.750  13.392  1.00  0.00     0.031 A 
ATOM     54  C   UNL     1     -16.206   3.784   9.352  1.00  0.00     0.031 A 
ATOM     55  C   UNL     1     -11.179   3.949  13.323  1.00  0.00     0.049 A 
ATOM     56  C   UNL     1     -16.223   4.346  10.759  1.00  0.00     0.074 A 
ATOM     57  C   UNL     1     -11.069   5.139  12.623  1.00  0.00     0.029 A 
ATOM     58  N   UNL     1     -12.475   3.901  13.822  1.00  0.00    -0.354 N 
ATOM     59  N   UNL     1     -15.176   4.402  11.535  1.00  0.00    -0.248 NA
ATOM     60  C   UNL     1     -17.423   4.860  11.412  1.00  0.00     0.031 C 
ATOM     61  C   UNL     1     -12.343   5.768  12.630  1.00  0.00     0.029 A 
ATOM     62  C   UNL     1     -13.211   4.976  13.362  1.00  0.00     0.049 A 
ATOM     63  H   UNL     1     -12.821   3.199  14.419  1.00  0.00     0.167 HD
ATOM     64  C   UNL     1     -15.521   4.948  12.744  1.00  0.00     0.074 A 
ATOM     65  C   UNL     1     -16.941   5.224  12.615  1.00  0.00     0.031 C 
ATOM     66  C   UNL     1     -14.609   5.125  13.746  1.00  0.00     0.031 A 
BRANCH  53  67
ATOM     67  C   UNL     1      -8.947   2.743  13.980  1.00  0.00    -0.014 A 
ATOM     68  C   UNL     1      -8.311   3.969  14.276  1.00  0.00     0.010 A 
ATOM     69  C   UNL     1      -8.178   1.586  14.206  1.00  0.00     0.010 A 
ATOM     70  C   UNL     1      -6.966   4.039  14.674  1.00  0.00     0.020 A 
ATOM     71  C   UNL     1      -6.824   1.639  14.574  1.00  0.00     0.020 A 
ATOM     72  C   UNL     1      -6.219   2.870  14.792  1.00  0.00     0.054 A 
BRANCH  72  73
ATOM     73  S   UNL     1      -4.464   2.975  15.225  1.00  0.00     0.124 S 
ATOM     74  O   UNL     1      -3.921   3.793  14.144  1.00  0.00    -0.237 OA
ATOM     75  O   UNL     1      -4.500   3.610  16.539  1.00  0.00    -0.237 OA
ATOM     76  O   UNL     1      -4.021   1.581  15.222  1.00  0.00    -0.744 OA
ENDBRANCH  72  73
ENDBRANCH  53  67
BRANCH  54  77
ATOM     77  C   UNL     1     -17.155   2.764   8.821  1.00  0.00    -0.014 A 
ATOM     78  C   UNL     1     -17.531   2.882   7.465  1.00  0.00     0.010 A 
ATOM     79  C   UNL     1     -17.268   1.511   9.450  1.00  0.00     0.010 A 
ATOM     80  C   UNL     1     -17.803   1.744   6.702  1.00  0.00     0.020 A 
ATOM     81  C   UNL     1     -17.556   0.369   8.687  1.00  0.00     0.020 A 
ATOM     82  C   UNL     1     -17.731   0.488   7.305  1.00  0.00     0.054 A 
BRANCH  82  83
ATOM     83  S   UNL     1     -17.666  -0.979   6.228  1.00  0.00     0.124 S 
ATOM     84  O   UNL     1     -18.823  -0.788   5.362  1.00  0.00    -0.237 OA
ATOM     85  O   UNL     1     -16.358  -0.829   5.584  1.00  0.00    -0.237 OA
ATOM     86  O   UNL     1     -17.760  -2.090   7.170  1.00  0.00    -0.744 OA
ENDBRANCH  82  83
ENDBRANCH  54  77
BRANCH  66  87
ATOM     87  C   UNL     1     -14.910   5.526  15.174  1.00  0.00    -0.014 A 
ATOM     88  C   UNL     1     -16.162   5.383  15.791  1.00  0.00     0.010 A 
ATOM     89  C   UNL     1     -13.840   5.957  15.999  1.00  0.00     0.010 A 
ATOM     90  C   UNL     1     -16.352   5.710  17.142  1.00  0.00     0.020 A 
ATOM     91  C   UNL     1     -14.007   6.240  17.357  1.00  0.00     0.020 A 
ATOM     92  C   UNL     1     -15.273   6.138  17.917  1.00  0.00     0.054 A 
BRANCH  92  93
ATOM     93  S   UNL     1     -15.513   6.487  19.677  1.00  0.00     0.124 S 
ATOM     94  O   UNL     1     -15.918   7.890  19.652  1.00  0.00    -0.237 OA
ATOM     95  O   UNL     1     -16.560   5.541  20.059  1.00  0.00    -0.237 OA
ATOM     96  O   UNL     1     -14.201   6.221  20.261  1.00  0.00    -0.744 OA
ENDBRANCH  92  93
ENDBRANCH  66  87
ENDBRANCH  40  41
ENDBRANCH  32  35
ENDBRANCH  30  31
ENDBRANCH  29  30
ENDBRANCH   1  29
TORSDOF 18
