REMARK SMILES CS(=O)(=O)c1ccc(/C=C(/C(=O)NCCCCCCNC(=O)c2ccc(-c3c4nc(c(-c5ccc(S(=O)(=O)[O-])cc5)c5ccc([nH]5)c(-c5ccc(S(=O)(=O)[O-])cc5)c5nc(c(-c6ccc(S(=O)(=O)[O-])cc6)c6ccc3[nH]6)C=C5)C=C4)cc2)c2ccc(F)cc2)cc1
REMARK SMILES IDX 17 1 16 2 15 3 14 4 13 5 11 6 12 7 10 9 9 10 8 11 5 12 6 13
REMARK SMILES IDX 91 14 7 15 90 16 2 17 1 18 3 19 4 20 83 21 84 22 89 23 85 24
REMARK SMILES IDX 88 25 86 26 87 27 18 28 19 29 20 30 21 31 22 33 23 34 24 35
REMARK SMILES IDX 82 36 25 37 81 38 26 39 27 40 28 41 75 42 29 43 80 44 74 45
REMARK SMILES IDX 76 46 30 47 79 48 73 49 72 50 31 52 61 53 42 54 60 55 43 56
REMARK SMILES IDX 46 57 59 58 77 59 44 60 45 61 58 63 78 64 47 65 32 66 33 67
REMARK SMILES IDX 41 68 34 69 40 70 35 71 36 72 37 73 38 74 39 75 62 76 63 77
REMARK SMILES IDX 71 78 64 79 70 80 65 81 66 82 67 83 68 84 69 85 48 86 49 87
REMARK SMILES IDX 57 88 50 89 56 90 51 91 52 92 53 93 54 94 55 95
REMARK H PARENT 13 8 20 32 76 51 46 62
REMARK Flexibility Score: inf
ROOT
ATOM      1  C   UNL     1       4.285  -8.247   8.565  1.00  0.00     0.002 C 
ENDROOT
BRANCH   1   2
ATOM      2  C   UNL     1       2.811  -8.051   8.192  1.00  0.00     0.002 C 
BRANCH   2   3
ATOM      3  C   UNL     1       2.514  -6.821   7.318  1.00  0.00     0.021 C 
BRANCH   3   4
ATOM      4  C   UNL     1       3.200  -6.859   5.949  1.00  0.00     0.116 C 
BRANCH   4   5
ATOM      5  N   UNL     1       2.568  -7.860   5.111  1.00  0.00    -0.352 N 
ATOM      6  C   UNL     1       1.692  -7.818   4.075  1.00  0.00     0.251 C 
ATOM      7  O   UNL     1       1.306  -8.912   3.651  1.00  0.00    -0.269 OA
ATOM      8  H   UNL     1       2.834  -8.777   5.347  1.00  0.00     0.163 HD
BRANCH   6   9
ATOM      9  C   UNL     1       1.263  -6.545   3.381  1.00  0.00     0.047 C 
ATOM     10  C   UNL     1       1.108  -5.371   4.035  1.00  0.00     0.022 C 
BRANCH  10  11
ATOM     11  C   UNL     1       0.816  -4.029   3.483  1.00  0.00    -0.025 A 
ATOM     12  C   UNL     1       0.452  -1.445   2.445  1.00  0.00     0.067 A 
ATOM     13  C   UNL     1      -0.373  -2.487   2.021  1.00  0.00     0.021 A 
ATOM     14  C   UNL     1       1.421  -1.663   3.424  1.00  0.00     0.021 A 
ATOM     15  C   UNL     1      -0.199  -3.769   2.553  1.00  0.00     0.009 A 
ATOM     16  C   UNL     1       1.601  -2.953   3.934  1.00  0.00     0.009 A 
BRANCH  12  17
ATOM     17  S   UNL     1       0.226   0.180   1.760  1.00  0.00     0.175 S 
ATOM     18  C   UNL     1       1.032   0.080   0.183  1.00  0.00     0.163 C 
ATOM     19  O   UNL     1       0.964   1.117   2.578  1.00  0.00    -0.224 OA
ATOM     20  O   UNL     1      -1.199   0.351   1.525  1.00  0.00    -0.224 OA
ENDBRANCH  12  17
ENDBRANCH  10  11
BRANCH   9  21
ATOM     21  C   UNL     1       0.855  -6.679   1.959  1.00  0.00    -0.013 A 
ATOM     22  C   UNL     1      -0.332  -7.379   1.666  1.00  0.00     0.012 A 
ATOM     23  C   UNL     1       1.575  -6.088   0.912  1.00  0.00     0.012 A 
ATOM     24  C   UNL     1      -0.802  -7.469   0.357  1.00  0.00     0.040 A 
ATOM     25  C   UNL     1       1.095  -6.172  -0.399  1.00  0.00     0.040 A 
ATOM     26  C   UNL     1      -0.088  -6.856  -0.662  1.00  0.00     0.123 A 
ATOM     27  F   UNL     1      -0.550  -6.919  -1.918  1.00  0.00    -0.207 F 
ENDBRANCH   9  21
ENDBRANCH   6   9
ENDBRANCH   4   5
ENDBRANCH   3   4
ENDBRANCH   2   3
ENDBRANCH   1   2
BRANCH   1  28
ATOM     28  C   UNL     1       4.952  -7.042   9.235  1.00  0.00     0.021 C 
BRANCH  28  29
ATOM     29  C   UNL     1       4.305  -6.601  10.545  1.00  0.00     0.116 C 
BRANCH  29  30
ATOM     30  N   UNL     1       4.436  -7.610  11.581  1.00  0.00    -0.352 N 
ATOM     31  C   UNL     1       4.902  -7.483  12.865  1.00  0.00     0.251 C 
ATOM     32  H   UNL     1       4.149  -8.516  11.325  1.00  0.00     0.163 HD
ATOM     33  O   UNL     1       5.135  -8.490  13.528  1.00  0.00    -0.269 OA
BRANCH  31  34
ATOM     34  C   UNL     1       5.137  -6.143  13.449  1.00  0.00     0.039 A 
ATOM     35  C   UNL     1       6.284  -5.938  14.221  1.00  0.00     0.014 A 
ATOM     36  C   UNL     1       4.213  -5.106  13.281  1.00  0.00     0.014 A 
ATOM     37  C   UNL     1       6.520  -4.687  14.797  1.00  0.00     0.010 A 
ATOM     38  C   UNL     1       4.480  -3.842  13.806  1.00  0.00     0.010 A 
ATOM     39  C   UNL     1       5.627  -3.625  14.583  1.00  0.00    -0.014 A 
BRANCH  39  40
ATOM     40  C   UNL     1       5.870  -2.293  15.194  1.00  0.00     0.031 A 
ATOM     41  C   UNL     1       4.947  -1.770  16.262  1.00  0.00     0.074 A 
ATOM     42  C   UNL     1       6.901  -1.540  14.766  1.00  0.00     0.049 A 
ATOM     43  N   UNL     1       4.994  -0.632  16.908  1.00  0.00    -0.248 NA
ATOM     44  C   UNL     1       3.810  -2.626  16.637  1.00  0.00     0.031 C 
ATOM     45  C   UNL     1       7.842  -1.913  13.707  1.00  0.00     0.029 A 
ATOM     46  N   UNL     1       7.332  -0.301  15.171  1.00  0.00    -0.354 N 
ATOM     47  C   UNL     1       3.889  -0.629  17.752  1.00  0.00     0.074 A 
ATOM     48  C   UNL     1       3.165  -1.857  17.502  1.00  0.00     0.031 C 
ATOM     49  C   UNL     1       8.754  -0.937  13.566  1.00  0.00     0.029 A 
ATOM     50  C   UNL     1       8.449   0.140  14.504  1.00  0.00     0.049 A 
ATOM     51  H   UNL     1       6.882   0.222  15.873  1.00  0.00     0.167 HD
ATOM     52  C   UNL     1       3.518   0.300  18.666  1.00  0.00     0.031 A 
ATOM     53  C   UNL     1       9.155   1.279  14.637  1.00  0.00     0.031 A 
ATOM     54  C   UNL     1       4.247   1.513  18.926  1.00  0.00     0.049 A 
ATOM     55  C   UNL     1       8.742   2.282  15.677  1.00  0.00     0.074 A 
ATOM     56  C   UNL     1       3.982   2.493  19.867  1.00  0.00     0.029 A 
ATOM     57  N   UNL     1       5.387   1.911  18.245  1.00  0.00    -0.354 N 
ATOM     58  N   UNL     1       7.727   2.239  16.506  1.00  0.00    -0.248 NA
ATOM     59  C   UNL     1       9.584   3.479  15.812  1.00  0.00     0.031 C 
ATOM     60  C   UNL     1       4.944   3.501  19.731  1.00  0.00     0.029 A 
ATOM     61  C   UNL     1       5.832   3.127  18.736  1.00  0.00     0.049 A 
ATOM     62  H   UNL     1       5.817   1.404  17.519  1.00  0.00     0.167 HD
ATOM     63  C   UNL     1       7.820   3.392  17.277  1.00  0.00     0.074 A 
ATOM     64  C   UNL     1       9.000   4.102  16.827  1.00  0.00     0.031 C 
ATOM     65  C   UNL     1       7.003   3.824  18.270  1.00  0.00     0.031 A 
BRANCH  52  66
ATOM     66  C   UNL     1       2.260   0.033  19.450  1.00  0.00    -0.014 A 
ATOM     67  C   UNL     1       2.220  -0.972  20.433  1.00  0.00     0.010 A 
ATOM     68  C   UNL     1       1.110   0.808  19.215  1.00  0.00     0.010 A 
ATOM     69  C   UNL     1       1.038  -1.231  21.132  1.00  0.00     0.020 A 
ATOM     70  C   UNL     1      -0.067   0.569  19.931  1.00  0.00     0.020 A 
ATOM     71  C   UNL     1      -0.101  -0.464  20.871  1.00  0.00     0.054 A 
BRANCH  71  72
ATOM     72  S   UNL     1      -1.621  -0.815  21.796  1.00  0.00     0.124 S 
ATOM     73  O   UNL     1      -2.099  -2.028  21.136  1.00  0.00    -0.237 OA
ATOM     74  O   UNL     1      -1.135  -0.994  23.161  1.00  0.00    -0.237 OA
ATOM     75  O   UNL     1      -2.440   0.376  21.581  1.00  0.00    -0.744 OA
ENDBRANCH  71  72
ENDBRANCH  52  66
BRANCH  53  76
ATOM     76  C   UNL     1      10.350   1.513  13.783  1.00  0.00    -0.014 A 
ATOM     77  C   UNL     1      11.643   1.414  14.326  1.00  0.00     0.010 A 
ATOM     78  C   UNL     1      10.201   1.817  12.418  1.00  0.00     0.010 A 
ATOM     79  C   UNL     1      12.767   1.630  13.523  1.00  0.00     0.020 A 
ATOM     80  C   UNL     1      11.322   2.011  11.607  1.00  0.00     0.020 A 
ATOM     81  C   UNL     1      12.599   1.927  12.168  1.00  0.00     0.054 A 
BRANCH  81  82
ATOM     82  S   UNL     1      14.070   2.143  11.128  1.00  0.00     0.124 S 
ATOM     83  O   UNL     1      14.505   3.487  11.494  1.00  0.00    -0.237 OA
ATOM     84  O   UNL     1      14.937   1.054  11.571  1.00  0.00    -0.237 OA
ATOM     85  O   UNL     1      13.550   1.999   9.770  1.00  0.00    -0.744 OA
ENDBRANCH  81  82
ENDBRANCH  53  76
BRANCH  65  86
ATOM     86  C   UNL     1       7.377   5.113  18.951  1.00  0.00    -0.014 A 
ATOM     87  C   UNL     1       7.213   6.351  18.305  1.00  0.00     0.010 A 
ATOM     88  C   UNL     1       7.882   5.083  20.263  1.00  0.00     0.010 A 
ATOM     89  C   UNL     1       7.591   7.535  18.943  1.00  0.00     0.020 A 
ATOM     90  C   UNL     1       8.237   6.268  20.914  1.00  0.00     0.020 A 
ATOM     91  C   UNL     1       8.108   7.485  20.241  1.00  0.00     0.054 A 
BRANCH  91  92
ATOM     92  S   UNL     1       8.580   9.034  21.059  1.00  0.00     0.124 S 
ATOM     93  O   UNL     1       9.871   9.321  20.440  1.00  0.00    -0.237 OA
ATOM     94  O   UNL     1       7.492   9.938  20.693  1.00  0.00    -0.237 OA
ATOM     95  O   UNL     1       8.633   8.674  22.474  1.00  0.00    -0.744 OA
ENDBRANCH  91  92
ENDBRANCH  65  86
ENDBRANCH  39  40
ENDBRANCH  31  34
ENDBRANCH  29  30
ENDBRANCH  28  29
ENDBRANCH   1  28
TORSDOF 19
