REMARK SMILES Cc1ccc(C[NH+]2CCC(C(=O)NCCCCCCNC(=O)c3ccc(-c4c5nc(c(-c6ccc(S(=O)(=O)[O-])cc6)c6ccc([nH]6)c(-c6ccc(S(=O)(=O)[O-])cc6)c6nc(c(-c7ccc(S(=O)(=O)[O-])cc7)c7ccc4[nH]7)C=C6)C=C5)cc3)(n3ccc(C(C)(C)C)n3)CC2)o1
REMARK SMILES IDX 17 1 16 2 15 3 14 4 13 5 11 6 12 7 10 9 7 10 8 11 93 12 9 14
REMARK SMILES IDX 92 15 6 16 5 17 1 18 2 19 3 20 94 21 4 22 83 23 84 24 91 25
REMARK SMILES IDX 85 26 86 27 87 28 88 29 89 30 90 31 18 32 19 33 20 34 21 35
REMARK SMILES IDX 22 37 23 38 24 39 82 40 25 41 81 42 26 43 27 44 28 45 75 46
REMARK SMILES IDX 29 47 80 48 74 49 76 50 30 51 79 52 73 53 72 54 31 56 61 57
REMARK SMILES IDX 42 58 60 59 43 60 46 61 59 62 77 63 44 64 45 65 58 67 78 68
REMARK SMILES IDX 47 69 32 70 33 71 41 72 34 73 40 74 35 75 36 76 37 77 38 78
REMARK SMILES IDX 39 79 62 80 63 81 71 82 64 83 70 84 65 85 66 86 67 87 68 88
REMARK SMILES IDX 69 89 48 90 49 91 57 92 50 93 56 94 51 95 52 96 53 97 54 98
REMARK SMILES IDX 55 99
REMARK H PARENT 13 8 7 13 20 36 76 55 46 66
REMARK Flexibility Score: inf
ROOT
ATOM      1  C   UNL     1      -4.784   7.958   4.890  1.00  0.00     0.002 C 
ENDROOT
BRANCH   1   2
ATOM      2  C   UNL     1      -4.813   6.563   5.523  1.00  0.00     0.002 C 
BRANCH   2   3
ATOM      3  C   UNL     1      -4.581   5.407   4.543  1.00  0.00     0.021 C 
BRANCH   3   4
ATOM      4  C   UNL     1      -3.270   5.511   3.766  1.00  0.00     0.116 C 
BRANCH   4   5
ATOM      5  N   UNL     1      -2.135   5.347   4.661  1.00  0.00    -0.354 N 
ATOM      6  C   UNL     1      -1.135   4.411   4.754  1.00  0.00     0.248 C 
ATOM      7  O   UNL     1      -0.449   4.554   5.769  1.00  0.00    -0.272 OA
ATOM      8  H   UNL     1      -2.070   6.055   5.342  1.00  0.00     0.163 HD
BRANCH   6   9
ATOM      9  C   UNL     1      -0.931   3.316   3.652  1.00  0.00     0.151 C 
ATOM     10  N   UNL     1      -2.247   2.505   1.116  1.00  0.00    -0.328 N 
ATOM     11  C   UNL     1      -2.475   1.708   2.321  1.00  0.00     0.265 C 
ATOM     12  C   UNL     1      -1.003   3.275   1.074  1.00  0.00     0.265 C 
ATOM     13  H   UNL     1      -2.980   3.212   1.152  1.00  0.00     0.348 HD
ATOM     14  C   UNL     1      -2.195   2.420   3.643  1.00  0.00     0.102 C 
ATOM     15  C   UNL     1      -0.708   4.082   2.327  1.00  0.00     0.102 C 
BRANCH  10  16
ATOM     16  C   UNL     1      -2.393   1.675  -0.117  1.00  0.00     0.338 C 
BRANCH  16  17
ATOM     17  C   UNL     1      -1.432   0.524  -0.228  1.00  0.00     0.158 A 
ATOM     18  C   UNL     1       2.069  -0.164  -0.326  1.00  0.00     0.087 C 
ATOM     19  C   UNL     1       0.600  -0.317  -0.313  1.00  0.00     0.101 A 
ATOM     20  C   UNL     1      -0.253  -1.385  -0.150  1.00  0.00     0.046 A 
ATOM     21  O   UNL     1      -0.116   0.833  -0.428  1.00  0.00    -0.460 OA
ATOM     22  C   UNL     1      -1.565  -0.846  -0.109  1.00  0.00     0.052 A 
ENDBRANCH  16  17
ENDBRANCH  10  16
BRANCH   9  23
ATOM     23  N   UNL     1       0.258   2.428   3.883  1.00  0.00    -0.256 N 
ATOM     24  C   UNL     1       0.637   1.345   3.123  1.00  0.00     0.110 A 
ATOM     25  N   UNL     1       1.120   2.608   4.904  1.00  0.00    -0.176 NA
ATOM     26  C   UNL     1       1.746   0.795   3.702  1.00  0.00     0.046 A 
ATOM     27  C   UNL     1       2.007   1.611   4.818  1.00  0.00     0.068 A 
BRANCH  27  28
ATOM     28  C   UNL     1       3.136   1.444   5.815  1.00  0.00     0.006 C 
ATOM     29  C   UNL     1       3.065   0.038   6.446  1.00  0.00     0.017 C 
ATOM     30  C   UNL     1       4.487   1.600   5.088  1.00  0.00     0.017 C 
ATOM     31  C   UNL     1       3.074   2.482   6.952  1.00  0.00     0.017 C 
ENDBRANCH  27  28
ENDBRANCH   9  23
ENDBRANCH   6   9
ENDBRANCH   4   5
ENDBRANCH   3   4
ENDBRANCH   2   3
ENDBRANCH   1   2
BRANCH   1  32
ATOM     32  C   UNL     1      -5.726   8.141   3.698  1.00  0.00     0.021 C 
BRANCH  32  33
ATOM     33  C   UNL     1      -7.189   7.840   4.002  1.00  0.00     0.116 C 
BRANCH  33  34
ATOM     34  N   UNL     1      -7.729   8.736   5.012  1.00  0.00    -0.352 N 
ATOM     35  C   UNL     1      -8.844   9.531   4.950  1.00  0.00     0.251 C 
ATOM     36  H   UNL     1      -7.225   8.777   5.856  1.00  0.00     0.163 HD
ATOM     37  O   UNL     1      -9.042  10.385   5.812  1.00  0.00    -0.269 OA
BRANCH  35  38
ATOM     38  C   UNL     1      -9.795   9.368   3.831  1.00  0.00     0.039 A 
ATOM     39  C   UNL     1     -10.270  10.505   3.174  1.00  0.00     0.014 A 
ATOM     40  C   UNL     1     -10.206   8.095   3.426  1.00  0.00     0.014 A 
ATOM     41  C   UNL     1     -11.116  10.361   2.073  1.00  0.00     0.010 A 
ATOM     42  C   UNL     1     -10.984   7.951   2.282  1.00  0.00     0.010 A 
ATOM     43  C   UNL     1     -11.453   9.082   1.597  1.00  0.00    -0.014 A 
BRANCH  43  44
ATOM     44  C   UNL     1     -12.291   8.909   0.383  1.00  0.00     0.031 A 
ATOM     45  C   UNL     1     -13.631   8.231   0.478  1.00  0.00     0.074 A 
ATOM     46  C   UNL     1     -11.816   9.301  -0.816  1.00  0.00     0.049 A 
ATOM     47  N   UNL     1     -14.478   7.942  -0.476  1.00  0.00    -0.248 NA
ATOM     48  C   UNL     1     -14.064   7.798   1.817  1.00  0.00     0.031 C 
ATOM     49  C   UNL     1     -10.513   9.931  -1.045  1.00  0.00     0.029 A 
ATOM     50  N   UNL     1     -12.370   9.221  -2.069  1.00  0.00    -0.354 N 
ATOM     51  C   UNL     1     -15.531   7.278   0.141  1.00  0.00     0.074 A 
ATOM     52  C   UNL     1     -15.194   7.161   1.542  1.00  0.00     0.031 C 
ATOM     53  C   UNL     1     -10.380  10.202  -2.353  1.00  0.00     0.029 A 
ATOM     54  C   UNL     1     -11.563   9.725  -3.062  1.00  0.00     0.049 A 
ATOM     55  H   UNL     1     -13.260   8.839  -2.241  1.00  0.00     0.167 HD
ATOM     56  C   UNL     1     -16.683   6.821  -0.407  1.00  0.00     0.031 A 
ATOM     57  C   UNL     1     -11.746   9.788  -4.396  1.00  0.00     0.031 A 
ATOM     58  C   UNL     1     -17.014   6.943  -1.802  1.00  0.00     0.049 A 
ATOM     59  C   UNL     1     -13.027   9.264  -4.984  1.00  0.00     0.074 A 
ATOM     60  C   UNL     1     -18.182   6.571  -2.444  1.00  0.00     0.029 A 
ATOM     61  N   UNL     1     -16.174   7.469  -2.773  1.00  0.00    -0.354 N 
ATOM     62  N   UNL     1     -14.047   8.709  -4.373  1.00  0.00    -0.248 NA
ATOM     63  C   UNL     1     -13.189   9.386  -6.439  1.00  0.00     0.031 C 
ATOM     64  C   UNL     1     -18.022   6.808  -3.813  1.00  0.00     0.029 A 
ATOM     65  C   UNL     1     -16.784   7.398  -4.015  1.00  0.00     0.049 A 
ATOM     66  H   UNL     1     -15.277   7.838  -2.605  1.00  0.00     0.167 HD
ATOM     67  C   UNL     1     -14.982   8.439  -5.365  1.00  0.00     0.074 A 
ATOM     68  C   UNL     1     -14.413   8.906  -6.613  1.00  0.00     0.031 C 
ATOM     69  C   UNL     1     -16.204   7.860  -5.252  1.00  0.00     0.031 A 
BRANCH  56  70
ATOM     70  C   UNL     1     -17.661   6.125   0.506  1.00  0.00    -0.014 A 
ATOM     71  C   UNL     1     -18.347   6.824   1.516  1.00  0.00     0.010 A 
ATOM     72  C   UNL     1     -17.921   4.753   0.331  1.00  0.00     0.010 A 
ATOM     73  C   UNL     1     -19.232   6.156   2.366  1.00  0.00     0.020 A 
ATOM     74  C   UNL     1     -18.831   4.087   1.157  1.00  0.00     0.020 A 
ATOM     75  C   UNL     1     -19.466   4.790   2.183  1.00  0.00     0.054 A 
BRANCH  75  76
ATOM     76  S   UNL     1     -20.626   3.950   3.295  1.00  0.00     0.124 S 
ATOM     77  O   UNL     1     -19.872   3.914   4.546  1.00  0.00    -0.237 OA
ATOM     78  O   UNL     1     -21.782   4.842   3.285  1.00  0.00    -0.237 OA
ATOM     79  O   UNL     1     -20.839   2.651   2.660  1.00  0.00    -0.744 OA
ENDBRANCH  75  76
ENDBRANCH  56  70
BRANCH  57  80
ATOM     80  C   UNL     1     -10.686  10.378  -5.258  1.00  0.00    -0.014 A 
ATOM     81  C   UNL     1     -10.881  11.620  -5.888  1.00  0.00     0.010 A 
ATOM     82  C   UNL     1      -9.457   9.713  -5.425  1.00  0.00     0.010 A 
ATOM     83  C   UNL     1      -9.870  12.181  -6.675  1.00  0.00     0.020 A 
ATOM     84  C   UNL     1      -8.434  10.285  -6.186  1.00  0.00     0.020 A 
ATOM     85  C   UNL     1      -8.650  11.513  -6.812  1.00  0.00     0.054 A 
BRANCH  85  86
ATOM     86  S   UNL     1      -7.329  12.296  -7.779  1.00  0.00     0.124 S 
ATOM     87  O   UNL     1      -7.832  12.166  -9.143  1.00  0.00    -0.237 OA
ATOM     88  O   UNL     1      -7.306  13.652  -7.238  1.00  0.00    -0.237 OA
ATOM     89  O   UNL     1      -6.152  11.488  -7.466  1.00  0.00    -0.744 OA
ENDBRANCH  85  86
ENDBRANCH  57  80
BRANCH  69  90
ATOM     90  C   UNL     1     -17.029   7.723  -6.505  1.00  0.00    -0.014 A 
ATOM     91  C   UNL     1     -16.685   6.805  -7.513  1.00  0.00     0.010 A 
ATOM     92  C   UNL     1     -18.205   8.484  -6.644  1.00  0.00     0.010 A 
ATOM     93  C   UNL     1     -17.487   6.671  -8.650  1.00  0.00     0.020 A 
ATOM     94  C   UNL     1     -19.026   8.330  -7.764  1.00  0.00     0.020 A 
ATOM     95  C   UNL     1     -18.654   7.433  -8.767  1.00  0.00     0.054 A 
BRANCH  95  96
ATOM     96  S   UNL     1     -19.703   7.202 -10.228  1.00  0.00     0.124 S 
ATOM     97  O   UNL     1     -18.903   7.825 -11.279  1.00  0.00    -0.237 OA
ATOM     98  O   UNL     1     -19.825   5.749 -10.308  1.00  0.00    -0.237 OA
ATOM     99  O   UNL     1     -20.937   7.907  -9.885  1.00  0.00    -0.744 OA
ENDBRANCH  95  96
ENDBRANCH  69  90
ENDBRANCH  43  44
ENDBRANCH  35  38
ENDBRANCH  33  34
ENDBRANCH  32  33
ENDBRANCH   1  32
TORSDOF 20
