REMARK SMILES CC(C)C(=O)Nc1ccc(NC(=O)[C@@H]2[C@@H](C(=O)NCCCCCCNC(=O)c3ccc(-c4c5nc(c(-c6ccc(S(=O)(=O)[O-])cc6)c6ccc([nH]6)c(-c6ccc(S(=O)(=O)[O-])cc6)c6nc(c(-c7ccc(S(=O)(=O)[O-])cc7)c7ccc4[nH]7)C=C6)C=C5)cc3)C2(C)C)cc1Cl
REMARK SMILES IDX 21 1 20 2 19 3 18 4 16 5 17 6 15 8 14 9 88 10 89 11 90 12
REMARK SMILES IDX 12 13 11 14 13 16 10 17 7 18 8 19 92 20 9 21 91 22 93 23
REMARK SMILES IDX 6 24 4 25 5 26 2 28 1 29 3 30 22 31 23 32 24 33 25 34 26 35
REMARK SMILES IDX 27 37 28 38 29 39 87 40 30 41 86 42 31 43 32 44 33 45 80 46
REMARK SMILES IDX 34 47 85 48 79 49 81 50 35 51 84 52 78 53 77 54 36 56 66 57
REMARK SMILES IDX 47 58 65 59 48 60 51 61 64 62 82 63 49 64 50 65 63 67 83 68
REMARK SMILES IDX 52 69 37 70 38 71 46 72 39 73 45 74 40 75 41 76 42 77 43 78
REMARK SMILES IDX 44 79 67 80 68 81 76 82 69 83 75 84 70 85 71 86 72 87 73 88
REMARK SMILES IDX 74 89 53 90 54 91 62 92 55 93 61 94 56 95 57 96 58 97 59 98
REMARK SMILES IDX 60 99
REMARK H PARENT 18 7 11 15 6 27 25 36 81 55 51 66
REMARK Flexibility Score: inf
ROOT
ATOM      1  C   UNL     1       1.794   7.034   9.795  1.00  0.00     0.002 C 
ENDROOT
BRANCH   1   2
ATOM      2  C   UNL     1       0.790   6.513   8.767  1.00  0.00     0.021 C 
BRANCH   2   3
ATOM      3  C   UNL     1       1.135   5.138   8.195  1.00  0.00     0.116 C 
BRANCH   3   4
ATOM      4  N   UNL     1       0.847   4.078   9.145  1.00  0.00    -0.356 N 
ATOM      5  C   UNL     1       0.013   2.994   9.179  1.00  0.00     0.224 C 
ATOM      6  O   UNL     1      -0.040   2.374  10.242  1.00  0.00    -0.275 OA
ATOM      7  H   UNL     1       1.385   4.159   9.966  1.00  0.00     0.163 HD
BRANCH   5   8
ATOM      8  C   UNL     1      -0.819   2.487   8.051  1.00  0.00     0.098 C 
ATOM      9  C   UNL     1      -0.645   2.850   6.604  1.00  0.00     0.098 C 
ATOM     10  C   UNL     1      -1.915   3.293   7.370  1.00  0.00    -0.011 C 
ATOM     11  C   UNL     1      -2.137   4.734   7.778  1.00  0.00     0.013 C 
ATOM     12  C   UNL     1      -3.214   2.584   7.045  1.00  0.00     0.013 C 
BRANCH   9  13
ATOM     13  C   UNL     1      -0.700   1.825   5.532  1.00  0.00     0.228 C 
ATOM     14  N   UNL     1      -0.968   2.193   4.233  1.00  0.00    -0.326 N 
ATOM     15  H   UNL     1      -0.825   1.472   3.578  1.00  0.00     0.169 HD
ATOM     16  O   UNL     1      -0.465   0.647   5.799  1.00  0.00    -0.274 OA
BRANCH  14  17
ATOM     17  C   UNL     1      -1.406   3.404   3.661  1.00  0.00     0.042 A 
ATOM     18  C   UNL     1      -2.815   5.569   2.542  1.00  0.00     0.060 A 
ATOM     19  C   UNL     1      -2.257   5.675   3.809  1.00  0.00     0.030 A 
ATOM     20  C   UNL     1      -2.417   4.496   1.744  1.00  0.00     0.066 A 
ATOM     21  C   UNL     1      -1.534   4.608   4.342  1.00  0.00     0.028 A 
ATOM     22  C   UNL     1      -1.772   3.389   2.314  1.00  0.00     0.048 A 
ATOM     23  Cl  UNL     1      -2.449   4.593   0.018  1.00  0.00    -0.082 Cl
BRANCH  18  24
ATOM     24  N   UNL     1      -3.676   6.601   2.153  1.00  0.00    -0.325 N 
ATOM     25  C   UNL     1      -4.973   6.571   1.730  1.00  0.00     0.226 C 
ATOM     26  O   UNL     1      -5.493   7.669   1.489  1.00  0.00    -0.274 OA
ATOM     27  H   UNL     1      -3.279   7.501   2.190  1.00  0.00     0.169 HD
BRANCH  25  28
ATOM     28  C   UNL     1      -5.859   5.318   1.681  1.00  0.00     0.072 C 
ATOM     29  C   UNL     1      -5.562   4.328   0.571  1.00  0.00     0.018 C 
ATOM     30  C   UNL     1      -6.026   4.628   3.031  1.00  0.00     0.018 C 
ENDBRANCH  25  28
ENDBRANCH  18  24
ENDBRANCH  14  17
ENDBRANCH   9  13
ENDBRANCH   5   8
ENDBRANCH   3   4
ENDBRANCH   2   3
ENDBRANCH   1   2
BRANCH   1  31
ATOM     31  C   UNL     1       3.224   7.197   9.272  1.00  0.00     0.002 C 
BRANCH  31  32
ATOM     32  C   UNL     1       3.361   8.038   7.999  1.00  0.00     0.021 C 
BRANCH  32  33
ATOM     33  C   UNL     1       2.781   9.445   8.101  1.00  0.00     0.116 C 
BRANCH  33  34
ATOM     34  N   UNL     1       3.445  10.233   9.126  1.00  0.00    -0.352 N 
ATOM     35  C   UNL     1       4.142  11.410   9.003  1.00  0.00     0.251 C 
ATOM     36  H   UNL     1       3.387   9.872  10.040  1.00  0.00     0.163 HD
ATOM     37  O   UNL     1       4.826  11.820   9.935  1.00  0.00    -0.269 OA
BRANCH  35  38
ATOM     38  C   UNL     1       4.076  12.167   7.736  1.00  0.00     0.039 A 
ATOM     39  C   UNL     1       5.258  12.653   7.172  1.00  0.00     0.014 A 
ATOM     40  C   UNL     1       2.849  12.388   7.103  1.00  0.00     0.014 A 
ATOM     41  C   UNL     1       5.216  13.303   5.937  1.00  0.00     0.010 A 
ATOM     42  C   UNL     1       2.819  12.969   5.839  1.00  0.00     0.010 A 
ATOM     43  C   UNL     1       4.001  13.432   5.242  1.00  0.00    -0.014 A 
BRANCH  43  44
ATOM     44  C   UNL     1       3.947  14.035   3.886  1.00  0.00     0.031 A 
ATOM     45  C   UNL     1       3.176  15.306   3.652  1.00  0.00     0.074 A 
ATOM     46  C   UNL     1       4.541  13.405   2.853  1.00  0.00     0.049 A 
ATOM     47  N   UNL     1       2.967  15.948   2.531  1.00  0.00    -0.248 NA
ATOM     48  C   UNL     1       2.540  15.923   4.826  1.00  0.00     0.031 C 
ATOM     49  C   UNL     1       5.298  12.154   2.946  1.00  0.00     0.029 A 
ATOM     50  N   UNL     1       4.600  13.728   1.520  1.00  0.00    -0.354 N 
ATOM     51  C   UNL     1       2.170  17.038   2.863  1.00  0.00     0.074 A 
ATOM     52  C   UNL     1       1.885  16.935   4.278  1.00  0.00     0.031 C 
ATOM     53  C   UNL     1       5.774  11.837   1.731  1.00  0.00     0.029 A 
ATOM     54  C   UNL     1       5.316  12.830   0.765  1.00  0.00     0.049 A 
ATOM     55  H   UNL     1       4.169  14.528   1.141  1.00  0.00     0.167 HD
ATOM     56  C   UNL     1       1.734  18.045   2.069  1.00  0.00     0.031 A 
ATOM     57  C   UNL     1       5.570  12.803  -0.558  1.00  0.00     0.031 A 
ATOM     58  C   UNL     1       2.013  18.138   0.660  1.00  0.00     0.049 A 
ATOM     59  C   UNL     1       5.025  13.900  -1.431  1.00  0.00     0.074 A 
ATOM     60  C   UNL     1       1.648  19.137  -0.226  1.00  0.00     0.029 A 
ATOM     61  N   UNL     1       2.718  17.193  -0.072  1.00  0.00    -0.354 N 
ATOM     62  N   UNL     1       4.323  14.955  -1.088  1.00  0.00    -0.248 NA
ATOM     63  C   UNL     1       5.309  13.806  -2.869  1.00  0.00     0.031 C 
ATOM     64  C   UNL     1       2.078  18.765  -1.504  1.00  0.00     0.029 A 
ATOM     65  C   UNL     1       2.771  17.569  -1.404  1.00  0.00     0.049 A 
ATOM     66  H   UNL     1       3.122  16.377   0.301  1.00  0.00     0.167 HD
ATOM     67  C   UNL     1       4.106  15.663  -2.265  1.00  0.00     0.074 A 
ATOM     68  C   UNL     1       4.764  14.926  -3.324  1.00  0.00     0.031 C 
ATOM     69  C   UNL     1       3.424  16.821  -2.450  1.00  0.00     0.031 A 
BRANCH  56  70
ATOM     70  C   UNL     1       0.895  19.120   2.712  1.00  0.00    -0.014 A 
ATOM     71  C   UNL     1       1.447  20.006   3.657  1.00  0.00     0.010 A 
ATOM     72  C   UNL     1      -0.460  19.260   2.358  1.00  0.00     0.010 A 
ATOM     73  C   UNL     1       0.649  20.971   4.276  1.00  0.00     0.020 A 
ATOM     74  C   UNL     1      -1.254  20.247   2.951  1.00  0.00     0.020 A 
ATOM     75  C   UNL     1      -0.699  21.081   3.923  1.00  0.00     0.054 A 
BRANCH  75  76
ATOM     76  S   UNL     1      -1.711  22.340   4.747  1.00  0.00     0.124 S 
ATOM     77  O   UNL     1      -1.844  21.785   6.092  1.00  0.00    -0.237 OA
ATOM     78  O   UNL     1      -0.880  23.537   4.642  1.00  0.00    -0.237 OA
ATOM     79  O   UNL     1      -2.941  22.368   3.960  1.00  0.00    -0.744 OA
ENDBRANCH  75  76
ENDBRANCH  56  70
BRANCH  57  80
ATOM     80  C   UNL     1       6.395  11.706  -1.135  1.00  0.00    -0.014 A 
ATOM     81  C   UNL     1       7.683  11.972  -1.633  1.00  0.00     0.010 A 
ATOM     82  C   UNL     1       5.906  10.387  -1.177  1.00  0.00     0.010 A 
ATOM     83  C   UNL     1       8.460  10.944  -2.174  1.00  0.00     0.020 A 
ATOM     84  C   UNL     1       6.692   9.351  -1.689  1.00  0.00     0.020 A 
ATOM     85  C   UNL     1       7.962   9.639  -2.193  1.00  0.00     0.054 A 
BRANCH  85  86
ATOM     86  S   UNL     1       9.013   8.313  -2.847  1.00  0.00     0.124 S 
ATOM     87  O   UNL     1       9.013   8.602  -4.277  1.00  0.00    -0.237 OA
ATOM     88  O   UNL     1      10.278   8.544  -2.153  1.00  0.00    -0.237 OA
ATOM     89  O   UNL     1       8.310   7.094  -2.454  1.00  0.00    -0.744 OA
ENDBRANCH  85  86
ENDBRANCH  57  80
BRANCH  69  90
ATOM     90  C   UNL     1       3.373  17.380  -3.848  1.00  0.00    -0.014 A 
ATOM     91  C   UNL     1       2.603  16.765  -4.852  1.00  0.00     0.010 A 
ATOM     92  C   UNL     1       4.055  18.575  -4.144  1.00  0.00     0.010 A 
ATOM     93  C   UNL     1       2.537  17.322  -6.132  1.00  0.00     0.020 A 
ATOM     94  C   UNL     1       3.966  19.151  -5.414  1.00  0.00     0.020 A 
ATOM     95  C   UNL     1       3.216  18.514  -6.404  1.00  0.00     0.054 A 
BRANCH  95  96
ATOM     96  S   UNL     1       3.065  19.245  -8.057  1.00  0.00     0.124 S 
ATOM     97  O   UNL     1       3.852  18.322  -8.871  1.00  0.00    -0.237 OA
ATOM     98  O   UNL     1       1.623  19.214  -8.289  1.00  0.00    -0.237 OA
ATOM     99  O   UNL     1       3.637  20.580  -7.900  1.00  0.00    -0.744 OA
ENDBRANCH  95  96
ENDBRANCH  69  90
ENDBRANCH  43  44
ENDBRANCH  35  38
ENDBRANCH  33  34
ENDBRANCH  32  33
ENDBRANCH  31  32
ENDBRANCH   1  31
TORSDOF 20
