REMARK SMILES COc1ccc(-c2nc(NCC(=O)NCCCCCCNC(=O)c3ccc(-c4c5nc(c(-c6ccc(S(=O)(=O)[O-])cc6)c6ccc([nH]6)c(-c6ccc(S(=O)(=O)[O-])cc6)c6nc(c(-c7ccc(S(=O)(=O)[O-])cc7)c7ccc4[nH]7)C=C6)C=C5)cc3)sc2-c2ccc(OC)cc2)cc1
REMARK SMILES IDX 17 1 16 2 15 3 14 4 12 5 13 6 11 8 10 9 9 11 7 12 8 13 85 14
REMARK SMILES IDX 84 15 6 16 3 17 4 18 95 19 5 20 94 21 2 22 1 23 86 24 87 25
REMARK SMILES IDX 93 26 88 27 92 28 89 29 90 30 91 31 18 32 19 33 20 34 21 35
REMARK SMILES IDX 22 36 23 38 24 39 25 40 83 41 26 42 82 43 27 44 28 45 29 46
REMARK SMILES IDX 76 47 30 48 81 49 75 50 77 51 31 52 80 53 74 54 73 55 32 57
REMARK SMILES IDX 62 58 43 59 61 60 44 61 47 62 60 63 78 64 45 65 46 66 59 68
REMARK SMILES IDX 79 69 48 70 33 71 34 72 42 73 35 74 41 75 36 76 37 77 38 78
REMARK SMILES IDX 39 79 40 80 63 81 64 82 72 83 65 84 71 85 66 86 67 87 68 88
REMARK SMILES IDX 69 89 70 90 49 91 50 92 58 93 51 94 57 95 52 96 53 97 54 98
REMARK SMILES IDX 55 99 56 100
REMARK H PARENT 14 7 10 10 21 37 77 56 47 67
REMARK Flexibility Score: inf
ROOT
ATOM      1  C   UNL     1       7.546   7.842  -0.414  1.00  0.00     0.002 C 
ENDROOT
BRANCH   1   2
ATOM      2  C   UNL     1       6.176   7.755  -1.098  1.00  0.00     0.021 C 
BRANCH   2   3
ATOM      3  C   UNL     1       5.545   9.123  -1.355  1.00  0.00     0.116 C 
BRANCH   3   4
ATOM      4  N   UNL     1       6.208   9.803  -2.450  1.00  0.00    -0.355 N 
ATOM      5  C   UNL     1       5.752  10.020  -3.720  1.00  0.00     0.239 C 
ATOM      6  O   UNL     1       6.521  10.531  -4.538  1.00  0.00    -0.273 OA
ATOM      7  H   UNL     1       7.106  10.154  -2.252  1.00  0.00     0.163 HD
BRANCH   5   8
ATOM      8  C   UNL     1       4.298   9.694  -4.082  1.00  0.00     0.215 C 
BRANCH   8   9
ATOM      9  N   UNL     1       4.028   8.266  -4.039  1.00  0.00    -0.352 N 
ATOM     10  H   UNL     1       4.622   7.678  -4.560  1.00  0.00     0.163 HD
BRANCH   9  11
ATOM     11  C   UNL     1       3.030   7.680  -3.343  1.00  0.00     0.184 A 
ATOM     12  C   UNL     1       1.916   6.017  -2.386  1.00  0.00     0.091 A 
ATOM     13  N   UNL     1       2.952   6.374  -3.236  1.00  0.00    -0.220 NA
ATOM     14  C   UNL     1       1.251   7.073  -1.779  1.00  0.00     0.064 A 
ATOM     15  S   UNL     1       1.798   8.534  -2.486  1.00  0.00    -0.096 S 
BRANCH  12  16
ATOM     16  C   UNL     1       1.590   4.621  -2.135  1.00  0.00     0.002 A 
ATOM     17  C   UNL     1       0.904   1.973  -1.517  1.00  0.00     0.118 A 
ATOM     18  C   UNL     1      -0.053   2.839  -2.042  1.00  0.00     0.047 A 
ATOM     19  C   UNL     1       2.216   2.415  -1.339  1.00  0.00     0.047 A 
ATOM     20  C   UNL     1       0.284   4.159  -2.344  1.00  0.00     0.014 A 
ATOM     21  C   UNL     1       2.561   3.736  -1.654  1.00  0.00     0.014 A 
BRANCH  17  22
ATOM     22  O   UNL     1       0.471   0.699  -1.271  1.00  0.00    -0.497 OA
ATOM     23  C   UNL     1       1.013   0.099  -0.098  1.00  0.00     0.278 C 
ENDBRANCH  17  22
ENDBRANCH  12  16
BRANCH  14  24
ATOM     24  C   UNL     1       0.257   7.093  -0.701  1.00  0.00    -0.006 A 
ATOM     25  C   UNL     1      -0.941   7.806  -0.816  1.00  0.00     0.013 A 
ATOM     26  C   UNL     1       0.494   6.368   0.477  1.00  0.00     0.013 A 
ATOM     27  C   UNL     1      -1.884   7.771   0.216  1.00  0.00     0.047 A 
ATOM     28  C   UNL     1      -0.454   6.329   1.506  1.00  0.00     0.047 A 
ATOM     29  C   UNL     1      -1.654   7.023   1.373  1.00  0.00     0.118 A 
BRANCH  29  30
ATOM     30  O   UNL     1      -2.669   7.054   2.288  1.00  0.00    -0.497 OA
ATOM     31  C   UNL     1      -2.543   6.193   3.415  1.00  0.00     0.278 C 
ENDBRANCH  29  30
ENDBRANCH  14  24
ENDBRANCH   9  11
ENDBRANCH   8   9
ENDBRANCH   5   8
ENDBRANCH   3   4
ENDBRANCH   2   3
ENDBRANCH   1   2
BRANCH   1  32
ATOM     32  C   UNL     1       7.542   8.550   0.946  1.00  0.00     0.002 C 
BRANCH  32  33
ATOM     33  C   UNL     1       6.568   7.968   1.973  1.00  0.00     0.021 C 
BRANCH  33  34
ATOM     34  C   UNL     1       6.834   6.511   2.333  1.00  0.00     0.116 C 
BRANCH  34  35
ATOM     35  N   UNL     1       8.130   6.340   2.973  1.00  0.00    -0.352 N 
ATOM     36  C   UNL     1       8.433   5.738   4.165  1.00  0.00     0.251 C 
ATOM     37  H   UNL     1       8.897   6.711   2.479  1.00  0.00     0.163 HD
ATOM     38  O   UNL     1       9.554   5.879   4.656  1.00  0.00    -0.269 OA
BRANCH  36  39
ATOM     39  C   UNL     1       7.413   4.931   4.865  1.00  0.00     0.039 A 
ATOM     40  C   UNL     1       7.276   5.060   6.249  1.00  0.00     0.014 A 
ATOM     41  C   UNL     1       6.604   4.035   4.159  1.00  0.00     0.014 A 
ATOM     42  C   UNL     1       6.296   4.323   6.919  1.00  0.00     0.010 A 
ATOM     43  C   UNL     1       5.577   3.363   4.815  1.00  0.00     0.010 A 
ATOM     44  C   UNL     1       5.422   3.487   6.204  1.00  0.00    -0.014 A 
BRANCH  44  45
ATOM     45  C   UNL     1       4.361   2.711   6.894  1.00  0.00     0.031 A 
ATOM     46  C   UNL     1       4.400   1.205   6.875  1.00  0.00     0.074 A 
ATOM     47  C   UNL     1       3.342   3.354   7.497  1.00  0.00     0.049 A 
ATOM     48  N   UNL     1       3.540   0.351   7.370  1.00  0.00    -0.248 NA
ATOM     49  C   UNL     1       5.540   0.576   6.189  1.00  0.00     0.031 C 
ATOM     50  C   UNL     1       3.176   4.808   7.562  1.00  0.00     0.029 A 
ATOM     51  N   UNL     1       2.251   2.867   8.173  1.00  0.00    -0.354 N 
ATOM     52  C   UNL     1       4.031  -0.909   7.049  1.00  0.00     0.074 A 
ATOM     53  C   UNL     1       5.227  -0.709   6.261  1.00  0.00     0.031 C 
ATOM     54  C   UNL     1       2.071   5.094   8.270  1.00  0.00     0.029 A 
ATOM     55  C   UNL     1       1.426   3.848   8.671  1.00  0.00     0.049 A 
ATOM     56  H   UNL     1       2.076   1.905   8.291  1.00  0.00     0.167 HD
ATOM     57  C   UNL     1       3.548  -2.125   7.401  1.00  0.00     0.031 A 
ATOM     58  C   UNL     1       0.278   3.754   9.370  1.00  0.00     0.031 A 
ATOM     59  C   UNL     1       2.363  -2.322   8.192  1.00  0.00     0.049 A 
ATOM     60  C   UNL     1      -0.256   2.390   9.722  1.00  0.00     0.074 A 
ATOM     61  C   UNL     1       1.805  -3.512   8.626  1.00  0.00     0.029 A 
ATOM     62  N   UNL     1       1.556  -1.302   8.675  1.00  0.00    -0.354 N 
ATOM     63  N   UNL     1       0.246   1.210   9.442  1.00  0.00    -0.248 NA
ATOM     64  C   UNL     1      -1.502   2.347  10.498  1.00  0.00     0.031 C 
ATOM     65  C   UNL     1       0.633  -3.214   9.329  1.00  0.00     0.029 A 
ATOM     66  C   UNL     1       0.497  -1.836   9.389  1.00  0.00     0.049 A 
ATOM     67  H   UNL     1       1.712  -0.341   8.530  1.00  0.00     0.167 HD
ATOM     68  C   UNL     1      -0.602   0.287  10.046  1.00  0.00     0.074 A 
ATOM     69  C   UNL     1      -1.640   1.046  10.712  1.00  0.00     0.031 C 
ATOM     70  C   UNL     1      -0.524  -1.067  10.054  1.00  0.00     0.031 A 
BRANCH  57  71
ATOM     71  C   UNL     1       4.308  -3.338   6.930  1.00  0.00    -0.014 A 
ATOM     72  C   UNL     1       5.585  -3.638   7.441  1.00  0.00     0.010 A 
ATOM     73  C   UNL     1       3.726  -4.212   5.993  1.00  0.00     0.010 A 
ATOM     74  C   UNL     1       6.283  -4.761   6.992  1.00  0.00     0.020 A 
ATOM     75  C   UNL     1       4.408  -5.355   5.565  1.00  0.00     0.020 A 
ATOM     76  C   UNL     1       5.691  -5.612   6.055  1.00  0.00     0.054 A 
BRANCH  76  77
ATOM     77  S   UNL     1       6.613  -7.074   5.507  1.00  0.00     0.124 S 
ATOM     78  O   UNL     1       7.656  -6.478   4.676  1.00  0.00    -0.237 OA
ATOM     79  O   UNL     1       7.069  -7.655   6.767  1.00  0.00    -0.237 OA
ATOM     80  O   UNL     1       5.617  -7.862   4.785  1.00  0.00    -0.744 OA
ENDBRANCH  76  77
ENDBRANCH  57  71
BRANCH  58  81
ATOM     81  C   UNL     1      -0.440   4.985   9.804  1.00  0.00    -0.014 A 
ATOM     82  C   UNL     1      -0.517   5.324  11.167  1.00  0.00     0.010 A 
ATOM     83  C   UNL     1      -1.063   5.819   8.857  1.00  0.00     0.010 A 
ATOM     84  C   UNL     1      -1.233   6.452  11.578  1.00  0.00     0.020 A 
ATOM     85  C   UNL     1      -1.752   6.965   9.262  1.00  0.00     0.020 A 
ATOM     86  C   UNL     1      -1.847   7.265  10.622  1.00  0.00     0.054 A 
BRANCH  86  87
ATOM     87  S   UNL     1      -2.751   8.736  11.177  1.00  0.00     0.124 S 
ATOM     88  O   UNL     1      -3.946   8.149  11.775  1.00  0.00    -0.237 OA
ATOM     89  O   UNL     1      -1.810   9.351  12.109  1.00  0.00    -0.237 OA
ATOM     90  O   UNL     1      -2.973   9.485   9.941  1.00  0.00    -0.744 OA
ENDBRANCH  86  87
ENDBRANCH  58  81
BRANCH  70  91
ATOM     91  C   UNL     1      -1.555  -1.817  10.857  1.00  0.00    -0.014 A 
ATOM     92  C   UNL     1      -2.897  -1.891  10.447  1.00  0.00     0.010 A 
ATOM     93  C   UNL     1      -1.156  -2.497  12.023  1.00  0.00     0.010 A 
ATOM     94  C   UNL     1      -3.830  -2.599  11.210  1.00  0.00     0.020 A 
ATOM     95  C   UNL     1      -2.078  -3.232  12.771  1.00  0.00     0.020 A 
ATOM     96  C   UNL     1      -3.414  -3.264  12.368  1.00  0.00     0.054 A 
BRANCH  96  97
ATOM     97  S   UNL     1      -4.637  -4.204  13.322  1.00  0.00     0.124 S 
ATOM     98  O   UNL     1      -5.414  -3.140  13.951  1.00  0.00    -0.237 OA
ATOM     99  O   UNL     1      -5.334  -4.965  12.288  1.00  0.00    -0.237 OA
ATOM    100  O   UNL     1      -3.824  -5.005  14.235  1.00  0.00    -0.744 OA
ENDBRANCH  96  97
ENDBRANCH  70  91
ENDBRANCH  44  45
ENDBRANCH  36  39
ENDBRANCH  34  35
ENDBRANCH  33  34
ENDBRANCH  32  33
ENDBRANCH   1  32
TORSDOF 22
