REMARK SMILES C#CCN(CC(=O)NCCCCCCNC(=O)c1ccc(-c2c3nc(c(-c4ccc(S(=O)(=O)[O-])cc4)c4ccc([nH]4)c(-c4ccc(S(=O)(=O)[O-])cc4)c4nc(c(-c5ccc(S(=O)(=O)[O-])cc5)c5ccc2[nH]5)C=C4)C=C3)cc1)C(=O)NCc1ccnc(C)n1
REMARK SMILES IDX 11 1 10 2 9 3 8 4 6 5 7 6 5 8 4 9 3 10 2 11 1 12 78 13 79 14
REMARK SMILES IDX 80 15 81 17 82 18 83 19 88 20 84 21 86 22 85 23 87 24 12 25
REMARK SMILES IDX 13 26 14 27 15 28 16 29 17 31 18 32 19 33 77 34 20 35 76 36
REMARK SMILES IDX 21 37 22 38 23 39 70 40 24 41 75 42 69 43 71 44 25 45 74 46
REMARK SMILES IDX 68 47 67 48 26 50 56 51 37 52 55 53 38 54 41 55 54 56 72 57
REMARK SMILES IDX 39 58 40 59 53 61 73 62 42 63 27 64 28 65 36 66 29 67 35 68
REMARK SMILES IDX 30 69 31 70 32 71 33 72 34 73 57 74 58 75 66 76 59 77 65 78
REMARK SMILES IDX 60 79 61 80 62 81 63 82 64 83 43 84 44 85 52 86 45 87 51 88
REMARK SMILES IDX 46 89 47 90 48 91 49 92 50 93
REMARK H PARENT 8 7 80 16 15 30 71 49 41 60
REMARK Flexibility Score: inf
ROOT
ATOM      1  C   UNL     1      -6.393   1.808  -1.426  1.00  0.00     0.002 C 
ENDROOT
BRANCH   1   2
ATOM      2  C   UNL     1      -5.052   1.397  -0.807  1.00  0.00     0.021 C 
BRANCH   2   3
ATOM      3  C   UNL     1      -5.130   0.202   0.140  1.00  0.00     0.116 C 
BRANCH   3   4
ATOM      4  N   UNL     1      -5.376  -1.049  -0.541  1.00  0.00    -0.355 N 
ATOM      5  C   UNL     1      -4.553  -2.126  -0.693  1.00  0.00     0.239 C 
ATOM      6  O   UNL     1      -5.087  -3.213  -0.935  1.00  0.00    -0.273 OA
ATOM      7  H   UNL     1      -6.265  -1.137  -0.954  1.00  0.00     0.163 HD
BRANCH   5   8
ATOM      8  C   UNL     1      -3.043  -2.054  -0.412  1.00  0.00     0.222 C 
BRANCH   8   9
ATOM      9  N   UNL     1      -2.347  -0.875  -0.920  1.00  0.00    -0.304 N 
BRANCH   9  10
ATOM     10  C   UNL     1      -1.794   0.030   0.090  1.00  0.00     0.211 C 
BRANCH  10  11
ATOM     11  C   UNL     1      -0.274   0.030   0.090  1.00  0.00    -0.085 C 
ATOM     12  C   UNL     1       1.030   0.030   0.090  1.00  0.00     0.006 C 
ENDBRANCH  10  11
ENDBRANCH   9  10
BRANCH   9  13
ATOM     13  C   UNL     1      -2.082  -0.560  -2.219  1.00  0.00     0.318 C 
ATOM     14  O   UNL     1      -1.544   0.509  -2.530  1.00  0.00    -0.249 OA
ATOM     15  N   UNL     1      -2.374  -1.339  -3.268  1.00  0.00    -0.332 N 
ATOM     16  H   UNL     1      -1.979  -0.971  -4.092  1.00  0.00     0.165 HD
BRANCH  15  17
ATOM     17  C   UNL     1      -3.100  -2.566  -3.553  1.00  0.00     0.174 C 
BRANCH  17  18
ATOM     18  C   UNL     1      -4.496  -2.351  -4.102  1.00  0.00     0.063 A 
ATOM     19  C   UNL     1      -5.048  -1.093  -4.263  1.00  0.00     0.046 A 
ATOM     20  N   UNL     1      -5.178  -3.470  -4.439  1.00  0.00    -0.236 NA
ATOM     21  C   UNL     1      -6.326  -1.043  -4.768  1.00  0.00     0.115 A 
ATOM     22  C   UNL     1      -6.433  -3.317  -4.904  1.00  0.00     0.125 A 
ATOM     23  N   UNL     1      -7.042  -2.133  -5.090  1.00  0.00    -0.242 NA
ATOM     24  C   UNL     1      -7.212  -4.558  -5.207  1.00  0.00     0.089 C 
ENDBRANCH  17  18
ENDBRANCH  15  17
ENDBRANCH   9  13
ENDBRANCH   8   9
ENDBRANCH   5   8
ENDBRANCH   3   4
ENDBRANCH   2   3
ENDBRANCH   1   2
BRANCH   1  25
ATOM     25  C   UNL     1      -7.538   2.033  -0.431  1.00  0.00     0.002 C 
BRANCH  25  26
ATOM     26  C   UNL     1      -7.228   2.983   0.730  1.00  0.00     0.021 C 
BRANCH  26  27
ATOM     27  C   UNL     1      -6.883   4.410   0.319  1.00  0.00     0.116 C 
BRANCH  27  28
ATOM     28  N   UNL     1      -8.004   5.073  -0.324  1.00  0.00    -0.352 N 
ATOM     29  C   UNL     1      -8.574   6.286  -0.044  1.00  0.00     0.251 C 
ATOM     30  H   UNL     1      -8.413   4.578  -1.069  1.00  0.00     0.163 HD
ATOM     31  O   UNL     1      -9.655   6.577  -0.565  1.00  0.00    -0.269 OA
BRANCH  29  32
ATOM     32  C   UNL     1      -7.918   7.243   0.874  1.00  0.00     0.039 A 
ATOM     33  C   UNL     1      -8.714   7.988   1.749  1.00  0.00     0.014 A 
ATOM     34  C   UNL     1      -6.537   7.460   0.835  1.00  0.00     0.014 A 
ATOM     35  C   UNL     1      -8.127   8.933   2.594  1.00  0.00     0.010 A 
ATOM     36  C   UNL     1      -5.945   8.354   1.726  1.00  0.00     0.010 A 
ATOM     37  C   UNL     1      -6.736   9.120   2.596  1.00  0.00    -0.014 A 
BRANCH  37  38
ATOM     38  C   UNL     1      -6.105  10.154   3.456  1.00  0.00     0.031 A 
ATOM     39  C   UNL     1      -5.419  11.339   2.824  1.00  0.00     0.074 A 
ATOM     40  C   UNL     1      -6.117  10.016   4.796  1.00  0.00     0.049 A 
ATOM     41  N   UNL     1      -4.785  12.329   3.400  1.00  0.00    -0.248 NA
ATOM     42  C   UNL     1      -5.423  11.410   1.352  1.00  0.00     0.031 C 
ATOM     43  C   UNL     1      -6.709   8.893   5.529  1.00  0.00     0.029 A 
ATOM     44  N   UNL     1      -5.611  10.825   5.784  1.00  0.00    -0.354 N 
ATOM     45  C   UNL     1      -4.295  13.120   2.366  1.00  0.00     0.074 A 
ATOM     46  C   UNL     1      -4.670  12.477   1.127  1.00  0.00     0.031 C 
ATOM     47  C   UNL     1      -6.550   9.096   6.848  1.00  0.00     0.029 A 
ATOM     48  C   UNL     1      -5.823  10.345   7.055  1.00  0.00     0.049 A 
ATOM     49  H   UNL     1      -5.141  11.669   5.598  1.00  0.00     0.167 HD
ATOM     50  C   UNL     1      -3.612  14.287   2.440  1.00  0.00     0.031 A 
ATOM     51  C   UNL     1      -5.473  10.855   8.252  1.00  0.00     0.031 A 
ATOM     52  C   UNL     1      -3.278  14.949   3.672  1.00  0.00     0.049 A 
ATOM     53  C   UNL     1      -4.753  12.177   8.304  1.00  0.00     0.074 A 
ATOM     54  C   UNL     1      -2.648  16.169   3.849  1.00  0.00     0.029 A 
ATOM     55  N   UNL     1      -3.556  14.454   4.936  1.00  0.00    -0.354 N 
ATOM     56  N   UNL     1      -4.360  12.941   7.313  1.00  0.00    -0.248 NA
ATOM     57  C   UNL     1      -4.455  12.717   9.638  1.00  0.00     0.031 C 
ATOM     58  C   UNL     1      -2.512  16.395   5.223  1.00  0.00     0.029 A 
ATOM     59  C   UNL     1      -3.104  15.341   5.898  1.00  0.00     0.049 A 
ATOM     60  H   UNL     1      -4.008  13.600   5.122  1.00  0.00     0.167 HD
ATOM     61  C   UNL     1      -3.806  14.071   7.906  1.00  0.00     0.074 A 
ATOM     62  C   UNL     1      -3.925  13.895   9.338  1.00  0.00     0.031 C 
ATOM     63  C   UNL     1      -3.250  15.159   7.319  1.00  0.00     0.031 A 
BRANCH  50  64
ATOM     64  C   UNL     1      -3.183  14.937   1.151  1.00  0.00    -0.014 A 
ATOM     65  C   UNL     1      -4.118  15.560   0.305  1.00  0.00     0.010 A 
ATOM     66  C   UNL     1      -1.817  14.995   0.822  1.00  0.00     0.010 A 
ATOM     67  C   UNL     1      -3.697  16.211  -0.857  1.00  0.00     0.020 A 
ATOM     68  C   UNL     1      -1.388  15.668  -0.326  1.00  0.00     0.020 A 
ATOM     69  C   UNL     1      -2.333  16.264  -1.164  1.00  0.00     0.054 A 
BRANCH  69  70
ATOM     70  S   UNL     1      -1.809  17.170  -2.646  1.00  0.00     0.124 S 
ATOM     71  O   UNL     1      -2.220  16.262  -3.714  1.00  0.00    -0.237 OA
ATOM     72  O   UNL     1      -2.572  18.412  -2.549  1.00  0.00    -0.237 OA
ATOM     73  O   UNL     1      -0.366  17.313  -2.472  1.00  0.00    -0.744 OA
ENDBRANCH  69  70
ENDBRANCH  50  64
BRANCH  51  74
ATOM     74  C   UNL     1      -5.808  10.129   9.508  1.00  0.00    -0.014 A 
ATOM     75  C   UNL     1      -6.770  10.640  10.397  1.00  0.00     0.010 A 
ATOM     76  C   UNL     1      -5.136   8.938   9.839  1.00  0.00     0.010 A 
ATOM     77  C   UNL     1      -7.021  10.001  11.615  1.00  0.00     0.020 A 
ATOM     78  C   UNL     1      -5.406   8.280  11.042  1.00  0.00     0.020 A 
ATOM     79  C   UNL     1      -6.331   8.828  11.933  1.00  0.00     0.054 A 
BRANCH  79  80
ATOM     80  S   UNL     1      -6.672   8.008  13.515  1.00  0.00     0.124 S 
ATOM     81  O   UNL     1      -5.946   8.855  14.456  1.00  0.00    -0.237 OA
ATOM     82  O   UNL     1      -8.129   8.072  13.600  1.00  0.00    -0.237 OA
ATOM     83  O   UNL     1      -6.125   6.666  13.327  1.00  0.00    -0.744 OA
ENDBRANCH  79  80
ENDBRANCH  51  74
BRANCH  63  84
ATOM     84  C   UNL     1      -2.792  16.274   8.220  1.00  0.00    -0.014 A 
ATOM     85  C   UNL     1      -1.651  16.143   9.031  1.00  0.00     0.010 A 
ATOM     86  C   UNL     1      -3.506  17.486   8.229  1.00  0.00     0.010 A 
ATOM     87  C   UNL     1      -1.262  17.189   9.872  1.00  0.00     0.020 A 
ATOM     88  C   UNL     1      -3.103  18.544   9.046  1.00  0.00     0.020 A 
ATOM     89  C   UNL     1      -1.994  18.380   9.879  1.00  0.00     0.054 A 
BRANCH  89  90
ATOM     90  S   UNL     1      -1.463  19.730  10.968  1.00  0.00     0.124 S 
ATOM     91  O   UNL     1      -1.931  19.269  12.272  1.00  0.00    -0.237 OA
ATOM     92  O   UNL     1      -0.013  19.739  10.788  1.00  0.00    -0.237 OA
ATOM     93  O   UNL     1      -2.158  20.899  10.433  1.00  0.00    -0.744 OA
ENDBRANCH  89  90
ENDBRANCH  63  84
ENDBRANCH  37  38
ENDBRANCH  29  32
ENDBRANCH  27  28
ENDBRANCH  26  27
ENDBRANCH  25  26
ENDBRANCH   1  25
TORSDOF 22
