REMARK SMILES CC(C)[C@H](CO)NS(=O)(=O)c1ccc(Cl)c(C(=O)NCCCCCCNC(=O)c2ccc(-c3c4nc(c(-c5ccc(S(=O)(=O)[O-])cc5)c5ccc([nH]5)c(-c5ccc(S(=O)(=O)[O-])cc5)c5nc(c(-c6ccc(S(=O)(=O)[O-])cc6)c6ccc3[nH]6)C=C5)C=C4)cc2)c1
REMARK SMILES IDX 21 1 20 2 19 3 17 4 18 5 16 7 11 8 12 9 89 10 13 11 14 12
REMARK SMILES IDX 15 13 8 14 9 15 10 16 7 17 4 19 2 20 1 21 3 22 5 23 6 24
REMARK SMILES IDX 22 26 23 27 24 28 25 29 26 30 27 31 28 33 29 34 30 35 88 36
REMARK SMILES IDX 31 37 87 38 32 39 33 40 34 41 81 42 35 43 86 44 80 45 82 46
REMARK SMILES IDX 36 47 85 48 79 49 78 50 37 52 67 53 48 54 66 55 49 56 52 57
REMARK SMILES IDX 65 58 83 59 50 60 51 61 64 63 84 64 53 65 38 66 39 67 47 68
REMARK SMILES IDX 40 69 46 70 41 71 42 72 43 73 44 74 45 75 68 76 69 77 77 78
REMARK SMILES IDX 70 79 76 80 71 81 72 82 73 83 74 84 75 85 54 86 55 87 63 88
REMARK SMILES IDX 56 89 62 90 57 91 58 92 59 93 60 94 61 95
REMARK H PARENT 19 6 7 18 6 25 26 32 82 51 52 62
REMARK Flexibility Score: inf
ROOT
ATOM      1  C   UNL     1      -4.371   3.178  -5.406  1.00  0.00     0.021 C 
ENDROOT
BRANCH   1   2
ATOM      2  C   UNL     1      -5.010   3.388  -4.039  1.00  0.00     0.116 C 
BRANCH   2   3
ATOM      3  N   UNL     1      -5.533   2.195  -3.408  1.00  0.00    -0.352 N 
ATOM      4  C   UNL     1      -5.668   1.869  -2.079  1.00  0.00     0.252 C 
ATOM      5  O   UNL     1      -6.239   0.810  -1.811  1.00  0.00    -0.269 OA
ATOM      6  H   UNL     1      -5.843   1.502  -4.035  1.00  0.00     0.163 HD
BRANCH   4   7
ATOM      7  C   UNL     1      -5.038   2.635  -0.961  1.00  0.00     0.059 A 
ATOM      8  C   UNL     1      -3.821   2.412   1.153  1.00  0.00     0.083 A 
ATOM      9  C   UNL     1      -3.598   3.783   1.194  1.00  0.00     0.023 A 
ATOM     10  C   UNL     1      -4.515   1.839   0.079  1.00  0.00     0.037 A 
ATOM     11  C   UNL     1      -4.183   4.587   0.218  1.00  0.00     0.023 A 
ATOM     12  C   UNL     1      -4.965   4.025  -0.808  1.00  0.00     0.053 A 
ATOM     13  Cl  UNL     1      -5.966   5.142  -1.665  1.00  0.00    -0.083 Cl
BRANCH   8  14
ATOM     14  S   UNL     1      -3.356   1.408   2.539  1.00  0.00     0.240 S 
ATOM     15  O   UNL     1      -3.995   0.123   2.431  1.00  0.00    -0.207 OA
ATOM     16  O   UNL     1      -3.520   2.220   3.731  1.00  0.00    -0.207 OA
BRANCH  14  17
ATOM     17  N   UNL     1      -1.711   1.229   2.347  1.00  0.00    -0.206 NA
ATOM     18  H   UNL     1      -1.334   2.176   2.306  1.00  0.00     0.141 HD
BRANCH  17  19
ATOM     19  C   UNL     1      -1.072   0.495   1.224  1.00  0.00     0.098 C 
BRANCH  19  20
ATOM     20  C   UNL     1      -1.382  -1.031   1.293  1.00  0.00     0.003 C 
ATOM     21  C   UNL     1      -2.352  -1.413   0.161  1.00  0.00     0.009 C 
ATOM     22  C   UNL     1      -0.181  -1.973   1.199  1.00  0.00     0.009 C 
ENDBRANCH  19  20
BRANCH  19  23
ATOM     23  C   UNL     1       0.427   0.904   1.245  1.00  0.00     0.176 C 
BRANCH  23  24
ATOM     24  O   UNL     1       0.853   1.285   2.558  1.00  0.00    -0.395 OA
ATOM     25  H   UNL     1       0.337   2.051   2.856  1.00  0.00     0.210 HD
ENDBRANCH  23  24
ENDBRANCH  19  23
ENDBRANCH  17  19
ENDBRANCH  14  17
ENDBRANCH   8  14
ENDBRANCH   4   7
ENDBRANCH   2   3
ENDBRANCH   1   2
BRANCH   1  26
ATOM     26  C   UNL     1      -5.299   2.746  -6.546  1.00  0.00     0.002 C 
BRANCH  26  27
ATOM     27  C   UNL     1      -6.579   3.561  -6.755  1.00  0.00     0.002 C 
BRANCH  27  28
ATOM     28  C   UNL     1      -6.425   5.081  -6.848  1.00  0.00     0.021 C 
BRANCH  28  29
ATOM     29  C   UNL     1      -5.427   5.589  -7.882  1.00  0.00     0.116 C 
BRANCH  29  30
ATOM     30  N   UNL     1      -5.764   5.188  -9.237  1.00  0.00    -0.352 N 
ATOM     31  C   UNL     1      -5.933   5.959 -10.361  1.00  0.00     0.251 C 
ATOM     32  H   UNL     1      -5.890   4.221  -9.369  1.00  0.00     0.163 HD
ATOM     33  O   UNL     1      -6.376   5.450 -11.387  1.00  0.00    -0.269 OA
BRANCH  31  34
ATOM     34  C   UNL     1      -5.605   7.402 -10.334  1.00  0.00     0.039 A 
ATOM     35  C   UNL     1      -6.490   8.307 -10.926  1.00  0.00     0.014 A 
ATOM     36  C   UNL     1      -4.427   7.866  -9.742  1.00  0.00     0.014 A 
ATOM     37  C   UNL     1      -6.223   9.677 -10.872  1.00  0.00     0.010 A 
ATOM     38  C   UNL     1      -4.201   9.235  -9.620  1.00  0.00     0.010 A 
ATOM     39  C   UNL     1      -5.093  10.157 -10.190  1.00  0.00    -0.014 A 
BRANCH  39  40
ATOM     40  C   UNL     1      -4.830  11.615 -10.064  1.00  0.00     0.031 A 
ATOM     41  C   UNL     1      -3.595  12.219 -10.679  1.00  0.00     0.074 A 
ATOM     42  C   UNL     1      -5.675  12.388  -9.353  1.00  0.00     0.049 A 
ATOM     43  N   UNL     1      -3.174  13.457 -10.636  1.00  0.00    -0.248 NA
ATOM     44  C   UNL     1      -2.705  11.309 -11.419  1.00  0.00     0.031 C 
ATOM     45  C   UNL     1      -6.888  11.918  -8.678  1.00  0.00     0.029 A 
ATOM     46  N   UNL     1      -5.642  13.732  -9.073  1.00  0.00    -0.354 N 
ATOM     47  C   UNL     1      -1.968  13.472 -11.328  1.00  0.00     0.074 A 
ATOM     48  C   UNL     1      -1.698  12.111 -11.733  1.00  0.00     0.031 C 
ATOM     49  C   UNL     1      -7.498  12.961  -8.091  1.00  0.00     0.029 A 
ATOM     50  C   UNL     1      -6.699  14.163  -8.305  1.00  0.00     0.049 A 
ATOM     51  H   UNL     1      -4.930  14.331  -9.393  1.00  0.00     0.167 HD
ATOM     52  C   UNL     1      -1.168  14.526 -11.619  1.00  0.00     0.031 A 
ATOM     53  C   UNL     1      -6.989  15.386  -7.817  1.00  0.00     0.031 A 
ATOM     54  C   UNL     1      -1.444  15.881 -11.218  1.00  0.00     0.049 A 
ATOM     55  C   UNL     1      -6.070  16.536  -8.130  1.00  0.00     0.074 A 
ATOM     56  C   UNL     1      -0.723  17.026 -11.508  1.00  0.00     0.029 A 
ATOM     57  N   UNL     1      -2.521  16.274 -10.438  1.00  0.00    -0.354 N 
ATOM     58  N   UNL     1      -4.970  16.541  -8.845  1.00  0.00    -0.248 NA
ATOM     59  C   UNL     1      -6.437  17.848  -7.579  1.00  0.00     0.031 C 
ATOM     60  C   UNL     1      -1.327  18.101 -10.849  1.00  0.00     0.029 A 
ATOM     61  C   UNL     1      -2.466  17.639 -10.210  1.00  0.00     0.049 A 
ATOM     62  H   UNL     1      -3.222  15.672 -10.098  1.00  0.00     0.167 HD
ATOM     63  C   UNL     1      -4.530  17.860  -8.854  1.00  0.00     0.074 A 
ATOM     64  C   UNL     1      -5.492  18.626  -8.088  1.00  0.00     0.031 C 
ATOM     65  C   UNL     1      -3.430  18.390  -9.444  1.00  0.00     0.031 A 
BRANCH  52  66
ATOM     66  C   UNL     1       0.091  14.254 -12.402  1.00  0.00    -0.014 A 
ATOM     67  C   UNL     1       0.040  13.856 -13.751  1.00  0.00     0.010 A 
ATOM     68  C   UNL     1       1.346  14.444 -11.795  1.00  0.00     0.010 A 
ATOM     69  C   UNL     1       1.217  13.611 -14.464  1.00  0.00     0.020 A 
ATOM     70  C   UNL     1       2.527  14.231 -12.514  1.00  0.00     0.020 A 
ATOM     71  C   UNL     1       2.453  13.799 -13.839  1.00  0.00     0.054 A 
BRANCH  71  72
ATOM     72  S   UNL     1       3.963  13.496 -14.797  1.00  0.00     0.124 S 
ATOM     73  O   UNL     1       3.949  12.041 -14.929  1.00  0.00    -0.237 OA
ATOM     74  O   UNL     1       3.715  14.240 -16.029  1.00  0.00    -0.237 OA
ATOM     75  O   UNL     1       5.026  14.032 -13.950  1.00  0.00    -0.744 OA
ENDBRANCH  71  72
ENDBRANCH  52  66
BRANCH  53  76
ATOM     76  C   UNL     1      -8.208  15.586  -6.985  1.00  0.00    -0.014 A 
ATOM     77  C   UNL     1      -9.289  16.345  -7.469  1.00  0.00     0.010 A 
ATOM     78  C   UNL     1      -8.297  15.014  -5.703  1.00  0.00     0.010 A 
ATOM     79  C   UNL     1     -10.425  16.545  -6.679  1.00  0.00     0.020 A 
ATOM     80  C   UNL     1      -9.444  15.185  -4.923  1.00  0.00     0.020 A 
ATOM     81  C   UNL     1     -10.497  15.961  -5.411  1.00  0.00     0.054 A 
BRANCH  81  82
ATOM     82  S   UNL     1     -11.999  16.198  -4.422  1.00  0.00     0.124 S 
ATOM     83  O   UNL     1     -11.895  17.603  -4.043  1.00  0.00    -0.237 OA
ATOM     84  O   UNL     1     -13.057  15.876  -5.377  1.00  0.00    -0.237 OA
ATOM     85  O   UNL     1     -11.844  15.240  -3.329  1.00  0.00    -0.744 OA
ENDBRANCH  81  82
ENDBRANCH  53  76
BRANCH  65  86
ATOM     86  C   UNL     1      -3.219  19.877  -9.317  1.00  0.00    -0.014 A 
ATOM     87  C   UNL     1      -2.855  20.463  -8.091  1.00  0.00     0.010 A 
ATOM     88  C   UNL     1      -3.328  20.691 -10.459  1.00  0.00     0.010 A 
ATOM     89  C   UNL     1      -2.635  21.840  -8.005  1.00  0.00     0.020 A 
ATOM     90  C   UNL     1      -3.077  22.063 -10.384  1.00  0.00     0.020 A 
ATOM     91  C   UNL     1      -2.745  22.631  -9.153  1.00  0.00     0.054 A 
BRANCH  91  92
ATOM     92  S   UNL     1      -2.405  24.408  -9.023  1.00  0.00     0.124 S 
ATOM     93  O   UNL     1      -3.569  24.887  -8.281  1.00  0.00    -0.237 OA
ATOM     94  O   UNL     1      -1.139  24.438  -8.294  1.00  0.00    -0.237 OA
ATOM     95  O   UNL     1      -2.328  24.850 -10.413  1.00  0.00    -0.744 OA
ENDBRANCH  91  92
ENDBRANCH  65  86
ENDBRANCH  39  40
ENDBRANCH  31  34
ENDBRANCH  29  30
ENDBRANCH  28  29
ENDBRANCH  27  28
ENDBRANCH  26  27
ENDBRANCH   1  26
TORSDOF 22
