REMARK SMILES COc1cc(C(=O)NCCCCCCNC(=O)c2ccc(-c3c4nc(c(-c5ccc(S(=O)(=O)[O-])cc5)c5ccc([nH]5)c(-c5ccc(S(=O)(=O)[O-])cc5)c5nc(c(-c6ccc(S(=O)(=O)[O-])cc6)c6ccc3[nH]6)C=C5)C=C4)cc2)cc(OC)c1OCc1csc(C)n1
REMARK SMILES IDX 11 1 10 2 9 3 8 4 6 5 7 6 5 8 3 9 4 10 82 11 79 12 78 13
REMARK SMILES IDX 2 14 1 15 83 16 84 17 85 18 86 19 90 20 87 21 88 22 89 23
REMARK SMILES IDX 80 24 81 25 12 26 13 27 14 28 15 29 16 30 17 32 18 33 19 34
REMARK SMILES IDX 77 35 20 36 76 37 21 38 22 39 23 40 70 41 24 42 75 43 69 44
REMARK SMILES IDX 71 45 25 46 74 47 68 48 67 49 26 51 56 52 37 53 55 54 38 55
REMARK SMILES IDX 41 56 54 57 72 58 39 59 40 60 53 62 73 63 42 64 27 65 28 66
REMARK SMILES IDX 36 67 29 68 35 69 30 70 31 71 32 72 33 73 34 74 57 75 58 76
REMARK SMILES IDX 66 77 59 78 65 79 60 80 61 81 62 82 63 83 64 84 43 85 44 86
REMARK SMILES IDX 52 87 45 88 51 89 46 90 47 91 48 92 49 93 50 94
REMARK H PARENT 8 7 15 31 71 50 41 61
REMARK Flexibility Score: inf
ROOT
ATOM      1  C   UNL     1       1.335   9.771  -0.358  1.00  0.00     0.002 C 
ENDROOT
BRANCH   1   2
ATOM      2  C   UNL     1       2.034   8.415  -0.462  1.00  0.00     0.021 C 
BRANCH   2   3
ATOM      3  C   UNL     1       1.614   7.354   0.550  1.00  0.00     0.116 C 
BRANCH   3   4
ATOM      4  N   UNL     1       0.234   6.910   0.410  1.00  0.00    -0.352 N 
ATOM      5  C   UNL     1      -0.298   5.639   0.356  1.00  0.00     0.251 C 
ATOM      6  O   UNL     1      -1.509   5.499   0.189  1.00  0.00    -0.269 OA
ATOM      7  H   UNL     1      -0.427   7.636   0.343  1.00  0.00     0.163 HD
BRANCH   5   8
ATOM      8  C   UNL     1       0.565   4.432   0.440  1.00  0.00     0.047 A 
ATOM      9  C   UNL     1       1.161   2.239  -0.424  1.00  0.00     0.165 A 
ATOM     10  C   UNL     1       0.300   3.348  -0.408  1.00  0.00     0.064 A 
ATOM     11  C   UNL     1       2.317   2.229   0.373  1.00  0.00     0.203 A 
ATOM     12  C   UNL     1       2.571   3.327   1.214  1.00  0.00     0.165 A 
ATOM     13  C   UNL     1       1.647   4.367   1.315  1.00  0.00     0.064 A 
BRANCH   9  14
ATOM     14  O   UNL     1       0.935   1.233  -1.330  1.00  0.00    -0.493 OA
ATOM     15  C   UNL     1      -0.231   0.467  -1.017  1.00  0.00     0.278 C 
ENDBRANCH   9  14
BRANCH  11  16
ATOM     16  O   UNL     1       3.247   1.230   0.403  1.00  0.00    -0.480 OA
BRANCH  16  17
ATOM     17  C   UNL     1       2.828  -0.138   0.424  1.00  0.00     0.287 C 
BRANCH  17  18
ATOM     18  C   UNL     1       1.808  -0.560   1.450  1.00  0.00     0.089 A 
ATOM     19  C   UNL     1       1.568  -1.867   1.838  1.00  0.00     0.094 A 
ATOM     20  N   UNL     1       0.939   0.358   2.025  1.00  0.00    -0.243 NA
ATOM     21  S   UNL     1       0.226  -1.943   2.903  1.00  0.00    -0.127 S 
ATOM     22  C   UNL     1       0.050  -0.242   2.781  1.00  0.00     0.090 A 
ATOM     23  C   UNL     1      -1.079   0.457   3.451  1.00  0.00     0.079 C 
ENDBRANCH  17  18
ENDBRANCH  16  17
ENDBRANCH  11  16
BRANCH  12  24
ATOM     24  O   UNL     1       3.679   3.495   2.009  1.00  0.00    -0.493 OA
ATOM     25  C   UNL     1       4.915   3.088   1.422  1.00  0.00     0.278 C 
ENDBRANCH  12  24
ENDBRANCH   5   8
ENDBRANCH   3   4
ENDBRANCH   2   3
ENDBRANCH   1   2
BRANCH   1  26
ATOM     26  C   UNL     1       1.395  10.463   1.006  1.00  0.00     0.002 C 
BRANCH  26  27
ATOM     27  C   UNL     1       2.786  10.632   1.623  1.00  0.00     0.021 C 
BRANCH  27  28
ATOM     28  C   UNL     1       3.818  11.345   0.754  1.00  0.00     0.116 C 
BRANCH  28  29
ATOM     29  N   UNL     1       3.434  12.709   0.427  1.00  0.00    -0.352 N 
ATOM     30  C   UNL     1       4.133  13.879   0.593  1.00  0.00     0.251 C 
ATOM     31  H   UNL     1       2.541  12.808   0.026  1.00  0.00     0.163 HD
ATOM     32  O   UNL     1       3.570  14.957   0.393  1.00  0.00    -0.269 OA
BRANCH  30  33
ATOM     33  C   UNL     1       5.546  13.857   1.033  1.00  0.00     0.039 A 
ATOM     34  C   UNL     1       5.961  14.764   2.013  1.00  0.00     0.014 A 
ATOM     35  C   UNL     1       6.465  12.963   0.479  1.00  0.00     0.014 A 
ATOM     36  C   UNL     1       7.277  14.729   2.482  1.00  0.00     0.010 A 
ATOM     37  C   UNL     1       7.757  12.881   0.998  1.00  0.00     0.010 A 
ATOM     38  C   UNL     1       8.178  13.763   2.005  1.00  0.00    -0.014 A 
BRANCH  38  39
ATOM     39  C   UNL     1       9.557  13.656   2.554  1.00  0.00     0.031 A 
ATOM     40  C   UNL     1      10.751  13.895   1.668  1.00  0.00     0.074 A 
ATOM     41  C   UNL     1       9.736  13.288   3.840  1.00  0.00     0.049 A 
ATOM     42  N   UNL     1      12.024  13.795   1.956  1.00  0.00    -0.248 NA
ATOM     43  C   UNL     1      10.482  14.276   0.271  1.00  0.00     0.031 C 
ATOM     44  C   UNL     1       8.663  12.990   4.793  1.00  0.00     0.029 A 
ATOM     45  N   UNL     1      10.885  13.092   4.566  1.00  0.00    -0.354 N 
ATOM     46  C   UNL     1      12.705  14.082   0.778  1.00  0.00     0.074 A 
ATOM     47  C   UNL     1      11.705  14.317  -0.240  1.00  0.00     0.031 C 
ATOM     48  C   UNL     1       9.204  12.676   5.981  1.00  0.00     0.029 A 
ATOM     49  C   UNL     1      10.658  12.703   5.867  1.00  0.00     0.049 A 
ATOM     50  H   UNL     1      11.786  13.219   4.192  1.00  0.00     0.167 HD
ATOM     51  C   UNL     1      14.040  14.162   0.567  1.00  0.00     0.031 A 
ATOM     52  C   UNL     1      11.521  12.391   6.854  1.00  0.00     0.031 A 
ATOM     53  C   UNL     1      15.033  13.941   1.586  1.00  0.00     0.049 A 
ATOM     54  C   UNL     1      13.001  12.471   6.587  1.00  0.00     0.074 A 
ATOM     55  C   UNL     1      16.409  14.056   1.482  1.00  0.00     0.029 A 
ATOM     56  N   UNL     1      14.762  13.557   2.890  1.00  0.00    -0.354 N 
ATOM     57  N   UNL     1      13.622  12.815   5.484  1.00  0.00    -0.248 NA
ATOM     58  C   UNL     1      13.896  12.133   7.703  1.00  0.00     0.031 C 
ATOM     59  C   UNL     1      16.972  13.683   2.706  1.00  0.00     0.029 A 
ATOM     60  C   UNL     1      15.945  13.403   3.593  1.00  0.00     0.049 A 
ATOM     61  H   UNL     1      13.861  13.415   3.262  1.00  0.00     0.167 HD
ATOM     62  C   UNL     1      14.979  12.765   5.784  1.00  0.00     0.074 A 
ATOM     63  C   UNL     1      15.088  12.376   7.174  1.00  0.00     0.031 C 
ATOM     64  C   UNL     1      16.040  13.020   4.979  1.00  0.00     0.031 A 
BRANCH  51  65
ATOM     65  C   UNL     1      14.516  14.499  -0.823  1.00  0.00    -0.014 A 
ATOM     66  C   UNL     1      14.337  15.786  -1.362  1.00  0.00     0.010 A 
ATOM     67  C   UNL     1      15.218  13.536  -1.572  1.00  0.00     0.010 A 
ATOM     68  C   UNL     1      14.826  16.095  -2.634  1.00  0.00     0.020 A 
ATOM     69  C   UNL     1      15.734  13.850  -2.833  1.00  0.00     0.020 A 
ATOM     70  C   UNL     1      15.524  15.126  -3.361  1.00  0.00     0.054 A 
BRANCH  70  71
ATOM     71  S   UNL     1      16.189  15.572  -4.988  1.00  0.00     0.124 S 
ATOM     72  O   UNL     1      14.973  15.676  -5.792  1.00  0.00    -0.237 OA
ATOM     73  O   UNL     1      16.872  16.835  -4.718  1.00  0.00    -0.237 OA
ATOM     74  O   UNL     1      17.064  14.453  -5.326  1.00  0.00    -0.744 OA
ENDBRANCH  70  71
ENDBRANCH  51  65
BRANCH  52  75
ATOM     75  C   UNL     1      11.012  11.969   8.190  1.00  0.00    -0.014 A 
ATOM     76  C   UNL     1      11.200  12.784   9.320  1.00  0.00     0.010 A 
ATOM     77  C   UNL     1      10.345  10.739   8.340  1.00  0.00     0.010 A 
ATOM     78  C   UNL     1      10.762  12.363  10.580  1.00  0.00     0.020 A 
ATOM     79  C   UNL     1       9.876  10.330   9.591  1.00  0.00     0.020 A 
ATOM     80  C   UNL     1      10.102  11.137  10.707  1.00  0.00     0.054 A 
BRANCH  80  81
ATOM     81  S   UNL     1       9.518  10.623  12.346  1.00  0.00     0.124 S 
ATOM     82  O   UNL     1      10.767  10.278  13.018  1.00  0.00    -0.237 OA
ATOM     83  O   UNL     1       8.847  11.826  12.833  1.00  0.00    -0.237 OA
ATOM     84  O   UNL     1       8.631   9.499  12.055  1.00  0.00    -0.744 OA
ENDBRANCH  80  81
ENDBRANCH  52  75
BRANCH  64  85
ATOM     85  C   UNL     1      17.415  12.929   5.589  1.00  0.00    -0.014 A 
ATOM     86  C   UNL     1      17.979  11.692   5.946  1.00  0.00     0.010 A 
ATOM     87  C   UNL     1      18.176  14.102   5.754  1.00  0.00     0.010 A 
ATOM     88  C   UNL     1      19.265  11.633   6.489  1.00  0.00     0.020 A 
ATOM     89  C   UNL     1      19.474  14.043   6.266  1.00  0.00     0.020 A 
ATOM     90  C   UNL     1      20.006  12.809   6.644  1.00  0.00     0.054 A 
BRANCH  90  91
ATOM     91  S   UNL     1      21.689  12.699   7.309  1.00  0.00     0.124 S 
ATOM     92  O   UNL     1      21.442  12.396   8.716  1.00  0.00    -0.237 OA
ATOM     93  O   UNL     1      22.272  11.612   6.525  1.00  0.00    -0.237 OA
ATOM     94  O   UNL     1      22.254  14.021   7.047  1.00  0.00    -0.744 OA
ENDBRANCH  90  91
ENDBRANCH  64  85
ENDBRANCH  38  39
ENDBRANCH  30  33
ENDBRANCH  28  29
ENDBRANCH  27  28
ENDBRANCH  26  27
ENDBRANCH   1  26
TORSDOF 21
